data_image0
_cell_length_a       21.5588
_cell_length_b       23.597
_cell_length_c       43.755
_cell_angle_alpha    92.3438
_cell_angle_beta     90
_cell_angle_gamma    117.182

_symmetry_space_group_name_H-M    P 1
_symmetry_int_tables_number       1

loop_
  _symmetry_equiv_pos_as_xyz
  'x, y, z'

loop_
  _atom_site_label
  _atom_site_occupancy
  _atom_site_fract_x
  _atom_site_fract_y
  _atom_site_fract_z
  _atom_site_thermal_displace_type
  _atom_site_B_iso_or_equiv
  _atom_site_type_symbol
  In1      1.0000 0.53245  0.52134  0.84068  Biso   1.000  In
  In2      1.0000 0.45317  0.00956  0.08868  Biso   1.000  In
  In3      1.0000 0.98889  0.52134  0.34068  Biso   1.000  In
  In4      1.0000 0.55639  0.00956  0.58868  Biso   1.000  In
  H1       1.0000 0.45120  0.11420  0.64760  Biso   1.000  H
  H2       1.0000 0.44690  0.19020  0.68230  Biso   1.000  H
  H3       1.0000 0.65570  0.26580  0.69710  Biso   1.000  H
  H4       1.0000 0.66000  0.18980  0.66230  Biso   1.000  H
  H5       1.0000 0.53540  0.30840  0.81060  Biso   1.000  H
  H6       1.0000 0.53190  0.73020  0.81220  Biso   1.000  H
  H7       1.0000 0.59080  0.83860  0.00250  Biso   1.000  H
  H8       1.0000 0.57620  0.90820  0.03800  Biso   1.000  H
  H9       1.0000 0.37300  0.83540  0.01180  Biso   1.000  H
  H10      1.0000 0.38760  0.76580  0.97630  Biso   1.000  H
  H11      1.0000 0.44620  0.22980  0.72850  Biso   1.000  H
  H12      1.0000 0.44240  0.30440  0.76440  Biso   1.000  H
  H13      1.0000 0.64570  0.42360  0.74920  Biso   1.000  H
  H14      1.0000 0.64930  0.34880  0.71340  Biso   1.000  H
  H15      1.0000 0.56820  0.17240  0.01930  Biso   1.000  H
  H16      1.0000 0.57530  0.24640  0.98370  Biso   1.000  H
  H17      1.0000 0.36640  0.18320  0.98810  Biso   1.000  H
  H18      1.0000 0.35940  0.10940  0.02370  Biso   1.000  H
  H19      1.0000 0.38340  0.21920  0.93860  Biso   1.000  H
  H20      1.0000 0.39780  0.29460  0.90260  Biso   1.000  H
  H21      1.0000 0.58420  0.41580  0.94220  Biso   1.000  H
  H22      1.0000 0.56970  0.34040  0.97820  Biso   1.000  H
  H23      1.0000 0.48410  0.45760  0.95420  Biso   1.000  H
  H24      1.0000 0.50480  0.30080  0.86570  Biso   1.000  H
  H25      1.0000 0.51650  0.57580  0.95530  Biso   1.000  H
  H26      1.0000 0.56750  0.57780  0.72580  Biso   1.000  H
  H27      1.0000 0.46180  0.77680  0.69460  Biso   1.000  H
  H28      1.0000 0.46260  0.84600  0.65760  Biso   1.000  H
  H29      1.0000 0.67060  0.91000  0.64790  Biso   1.000  H
  H30      1.0000 0.66980  0.84080  0.68490  Biso   1.000  H
  H31      1.0000 0.56150  0.47080  0.72570  Biso   1.000  H
  H32      1.0000 0.52940  0.73560  0.86980  Biso   1.000  H
  H33      1.0000 0.66380  0.70200  0.74860  Biso   1.000  H
  H34      1.0000 0.66330  0.76740  0.71000  Biso   1.000  H
  H35      1.0000 0.46780  0.73420  0.73280  Biso   1.000  H
  H36      1.0000 0.46820  0.66860  0.77140  Biso   1.000  H
  H37      1.0000 0.41330  0.60820  0.93030  Biso   1.000  H
  H38      1.0000 0.39940  0.67600  0.96720  Biso   1.000  H
  H39      1.0000 0.60120  0.80620  0.95770  Biso   1.000  H
  H40      1.0000 0.61500  0.73840  0.92080  Biso   1.000  H
  H41      1.0000 0.66300  0.11420  0.14760  Biso   1.000  H
  H42      1.0000 0.74330  0.19020  0.18230  Biso   1.000  H
  H43      1.0000 0.61010  0.26580  0.19710  Biso   1.000  H
  H44      1.0000 0.52980  0.18980  0.16230  Biso   1.000  H
  H45      1.0000 0.77300  0.30840  0.31060  Biso   1.000  H
  H46      1.0000 0.19830  0.73020  0.31220  Biso   1.000  H
  H47      1.0000 0.24780  0.83860  0.50250  Biso   1.000  H
  H48      1.0000 0.33200  0.90820  0.53800  Biso   1.000  H
  H49      1.0000 0.46240  0.83540  0.51180  Biso   1.000  H
  H50      1.0000 0.37820  0.76580  0.47630  Biso   1.000  H
  H51      1.0000 0.78360  0.22980  0.22850  Biso   1.000  H
  H52      1.0000 0.86200  0.30440  0.26440  Biso   1.000  H
  H53      1.0000 0.77790  0.42360  0.24920  Biso   1.000  H
  H54      1.0000 0.69950  0.34880  0.21340  Biso   1.000  H
  H55      1.0000 0.60420  0.17240  0.51930  Biso   1.000  H
  H56      1.0000 0.67110  0.24640  0.48370  Biso   1.000  H
  H57      1.0000 0.81680  0.18320  0.48810  Biso   1.000  H
  H58      1.0000 0.75000  0.10940  0.52370  Biso   1.000  H
  H59      1.0000 0.83580  0.21920  0.43860  Biso   1.000  H
  H60      1.0000 0.89680  0.29460  0.40260  Biso   1.000  H
  H61      1.0000 0.83160  0.41580  0.44220  Biso   1.000  H
  H62      1.0000 0.77070  0.34040  0.47820  Biso   1.000  H
  H63      1.0000 0.97350  0.45760  0.45420  Biso   1.000  H
  H64      1.0000 0.79600  0.30080  0.36570  Biso   1.000  H
  H65      1.0000 0.05930  0.57580  0.45530  Biso   1.000  H
  H66      1.0000 0.01030  0.57780  0.22580  Biso   1.000  H
  H67      1.0000 0.31500  0.77680  0.19460  Biso   1.000  H
  H68      1.0000 0.38340  0.84600  0.15760  Biso   1.000  H
  H69      1.0000 0.23940  0.91000  0.14790  Biso   1.000  H
  H70      1.0000 0.17100  0.84080  0.18490  Biso   1.000  H
  H71      1.0000 0.90930  0.47080  0.22570  Biso   1.000  H
  H72      1.0000 0.20620  0.73560  0.36980  Biso   1.000  H
  H73      1.0000 0.03820  0.70200  0.24860  Biso   1.000  H
  H74      1.0000 0.10410  0.76740  0.21000  Biso   1.000  H
  H75      1.0000 0.26640  0.73420  0.23280  Biso   1.000  H
  H76      1.0000 0.20040  0.66860  0.27140  Biso   1.000  H
  H77      1.0000 0.19490  0.60820  0.43030  Biso   1.000  H
  H78      1.0000 0.27660  0.67600  0.46720  Biso   1.000  H
  H79      1.0000 0.20500  0.80620  0.45770  Biso   1.000  H
  H80      1.0000 0.12340  0.73840  0.42080  Biso   1.000  H
  C1       1.0000 0.56390  0.57300  0.77540  Biso   1.000  C
  C2       1.0000 0.55599  0.14478  0.65168  Biso   1.000  C
  C3       1.0000 0.49268  0.14496  0.65761  Biso   1.000  C
  C4       1.0000 0.49020  0.19020  0.67830  Biso   1.000  C
  C5       1.0000 0.55092  0.23524  0.69298  Biso   1.000  C
  C6       1.0000 0.61420  0.23500  0.68700  Biso   1.000  C
  C7       1.0000 0.61670  0.18980  0.66640  Biso   1.000  C
  C8       1.0000 0.46390  0.92540  0.05110  Biso   1.000  C
  C9       1.0000 0.51630  0.56240  0.90520  Biso   1.000  C
  C10      1.0000 0.52780  0.33820  0.82330  Biso   1.000  C
  C11      1.0000 0.50790  0.46960  0.90590  Biso   1.000  C
  C12      1.0000 0.54960  0.47640  0.77440  Biso   1.000  C
  C13      1.0000 0.53390  0.70000  0.82540  Biso   1.000  C
  C14      1.0000 0.49050  0.79560  0.98606  Biso   1.000  C
  C15      1.0000 0.54660  0.83800  0.00440  Biso   1.000  C
  C16      1.0000 0.53800  0.87940  0.02550  Biso   1.000  C
  C17      1.0000 0.47330  0.87840  0.02830  Biso   1.000  C
  C18      1.0000 0.41720  0.83600  0.00990  Biso   1.000  C
  C19      1.0000 0.42590  0.79480  0.98883  Biso   1.000  C
  C20      1.0000 0.45650  0.08580  0.04800  Biso   1.000  C
  C21      1.0000 0.54818  0.28236  0.71756  Biso   1.000  C
  C22      1.0000 0.48669  0.26918  0.73272  Biso   1.000  C
  C23      1.0000 0.48450  0.31360  0.75403  Biso   1.000  C
  C24      1.0000 0.54371  0.37102  0.76019  Biso   1.000  C
  C25      1.0000 0.60521  0.38422  0.74500  Biso   1.000  C
  C26      1.0000 0.60730  0.33980  0.72372  Biso   1.000  C
  C27      1.0000 0.46314  0.13388  0.02480  Biso   1.000  C
  C28      1.0000 0.52720  0.17460  0.01290  Biso   1.000  C
  C29      1.0000 0.53150  0.21860  0.99180  Biso   1.000  C
  C30      1.0000 0.47149  0.22178  0.98251  Biso   1.000  C
  C31      1.0000 0.40740  0.18100  0.99440  Biso   1.000  C
  C32      1.0000 0.40320  0.13720  0.01550  Biso   1.000  C
  C33      1.0000 0.47511  0.27262  0.96182  Biso   1.000  C
  C34      1.0000 0.42412  0.25904  0.93936  Biso   1.000  C
  C35      1.0000 0.43270  0.30380  0.91796  Biso   1.000  C
  C36      1.0000 0.49235  0.36230  0.91903  Biso   1.000  C
  C37      1.0000 0.54344  0.37588  0.94150  Biso   1.000  C
  C38      1.0000 0.53480  0.33100  0.96289  Biso   1.000  C
  C39      1.0000 0.52900  0.39540  0.81560  Biso   1.000  C
  C40      1.0000 0.54050  0.64440  0.81570  Biso   1.000  C
  C41      1.0000 0.49760  0.48520  0.93750  Biso   1.000  C
  C42      1.0000 0.51320  0.33600  0.85360  Biso   1.000  C
  C43      1.0000 0.54070  0.41840  0.78450  Biso   1.000  C
  C44      1.0000 0.51130  0.54800  0.93800  Biso   1.000  C
  C45      1.0000 0.52960  0.62560  0.89740  Biso   1.000  C
  C46      1.0000 0.51230  0.39200  0.86460  Biso   1.000  C
  C47      1.0000 0.53100  0.64460  0.86540  Biso   1.000  C
  C48      1.0000 0.50230  0.40900  0.89530  Biso   1.000  C
  C49      1.0000 0.56430  0.55360  0.74310  Biso   1.000  C
  C50      1.0000 0.56580  0.80240  0.69320  Biso   1.000  C
  C51      1.0000 0.50420  0.80380  0.68510  Biso   1.000  C
  C52      1.0000 0.50470  0.84500  0.66312  Biso   1.000  C
  C53      1.0000 0.56670  0.88460  0.64930  Biso   1.000  C
  C54      1.0000 0.62820  0.88300  0.65740  Biso   1.000  C
  C55      1.0000 0.62770  0.84180  0.67930  Biso   1.000  C
  C56      1.0000 0.55930  0.49540  0.74300  Biso   1.000  C
  C57      1.0000 0.56060  0.63060  0.78710  Biso   1.000  C
  C58      1.0000 0.56020  0.09820  0.62980  Biso   1.000  C
  C59      1.0000 0.53100  0.70300  0.85690  Biso   1.000  C
  C60      1.0000 0.56890  0.93180  0.62570  Biso   1.000  C
  C61      1.0000 0.56605  0.67910  0.76365  Biso   1.000  C
  C62      1.0000 0.62390  0.70840  0.74540  Biso   1.000  C
  C63      1.0000 0.62370  0.74740  0.72247  Biso   1.000  C
  C64      1.0000 0.56550  0.75700  0.71775  Biso   1.000  C
  C65      1.0000 0.50750  0.72760  0.73600  Biso   1.000  C
  C66      1.0000 0.50780  0.68860  0.75893  Biso   1.000  C
  C67      1.0000 0.51550  0.66700  0.92205  Biso   1.000  C
  C68      1.0000 0.45142  0.64844  0.93580  Biso   1.000  C
  C69      1.0000 0.44310  0.68860  0.95780  Biso   1.000  C
  C70      1.0000 0.49890  0.74740  0.96592  Biso   1.000  C
  C71      1.0000 0.56298  0.76596  0.95210  Biso   1.000  C
  C72      1.0000 0.57130  0.72580  0.93020  Biso   1.000  C
  C73      1.0000 0.00910  0.57300  0.27540  Biso   1.000  C
  C74      1.0000 0.58879  0.14478  0.15168  Biso   1.000  C
  C75      1.0000 0.65228  0.14496  0.15761  Biso   1.000  C
  C76      1.0000 0.70000  0.19020  0.17830  Biso   1.000  C
  C77      1.0000 0.68432  0.23524  0.19298  Biso   1.000  C
  C78      1.0000 0.62080  0.23500  0.18700  Biso   1.000  C
  C79      1.0000 0.57310  0.18980  0.16640  Biso   1.000  C
  C80      1.0000 0.46150  0.92540  0.55110  Biso   1.000  C
  C81      1.0000 0.04610  0.56240  0.40520  Biso   1.000  C
  C82      1.0000 0.81040  0.33820  0.32330  Biso   1.000  C
  C83      1.0000 0.96170  0.46960  0.40590  Biso   1.000  C
  C84      1.0000 0.92680  0.47640  0.27440  Biso   1.000  C
  C85      1.0000 0.16610  0.70000  0.32540  Biso   1.000  C
  C86      1.0000 0.30510  0.79560  0.48606  Biso   1.000  C
  C87      1.0000 0.29140  0.83800  0.50440  Biso   1.000  C
  C88      1.0000 0.34140  0.87940  0.52550  Biso   1.000  C
  C89      1.0000 0.40510  0.87840  0.52830  Biso   1.000  C
  C90      1.0000 0.41880  0.83600  0.50990  Biso   1.000  C
  C91      1.0000 0.36890  0.79480  0.48883  Biso   1.000  C
  C92      1.0000 0.62930  0.08580  0.54800  Biso   1.000  C
  C93      1.0000 0.73418  0.28236  0.21756  Biso   1.000  C
  C94      1.0000 0.78249  0.26918  0.23272  Biso   1.000  C
  C95      1.0000 0.82910  0.31360  0.25403  Biso   1.000  C
  C96      1.0000 0.82731  0.37102  0.26019  Biso   1.000  C
  C97      1.0000 0.77901  0.38422  0.24500  Biso   1.000  C
  C98      1.0000 0.73250  0.33980  0.22372  Biso   1.000  C
  C99      1.0000 0.67074  0.13388  0.52480  Biso   1.000  C
  C100     1.0000 0.64740  0.17460  0.51290  Biso   1.000  C
  C101     1.0000 0.68710  0.21860  0.49180  Biso   1.000  C
  C102     1.0000 0.75029  0.22178  0.48251  Biso   1.000  C
  C103     1.0000 0.77360  0.18100  0.49440  Biso   1.000  C
  C104     1.0000 0.73400  0.13720  0.51550  Biso   1.000  C
  C105     1.0000 0.79751  0.27262  0.46182  Biso   1.000  C
  C106     1.0000 0.83492  0.25904  0.43936  Biso   1.000  C
  C107     1.0000 0.87110  0.30380  0.41796  Biso   1.000  C
  C108     1.0000 0.86995  0.36230  0.41903  Biso   1.000  C
  C109     1.0000 0.83244  0.37588  0.44150  Biso   1.000  C
  C110     1.0000 0.79620  0.33100  0.46289  Biso   1.000  C
  C111     1.0000 0.86640  0.39540  0.31560  Biso   1.000  C
  C112     1.0000 0.10390  0.64440  0.31570  Biso   1.000  C
  C113     1.0000 0.98760  0.48520  0.43750  Biso   1.000  C
  C114     1.0000 0.82280  0.33600  0.35360  Biso   1.000  C
  C115     1.0000 0.87770  0.41840  0.28450  Biso   1.000  C
  C116     1.0000 0.03670  0.54800  0.43800  Biso   1.000  C
  C117     1.0000 0.09600  0.62560  0.39740  Biso   1.000  C
  C118     1.0000 0.87970  0.39200  0.36460  Biso   1.000  C
  C119     1.0000 0.11360  0.64460  0.36540  Biso   1.000  C
  C120     1.0000 0.90670  0.40900  0.39530  Biso   1.000  C
  C121     1.0000 0.98930  0.55360  0.24310  Biso   1.000  C
  C122     1.0000 0.23660  0.80240  0.19320  Biso   1.000  C
  C123     1.0000 0.29960  0.80380  0.18510  Biso   1.000  C
  C124     1.0000 0.34030  0.84500  0.16312  Biso   1.000  C
  C125     1.0000 0.31790  0.88460  0.14930  Biso   1.000  C
  C126     1.0000 0.25480  0.88300  0.15740  Biso   1.000  C
  C127     1.0000 0.21410  0.84180  0.17930  Biso   1.000  C
  C128     1.0000 0.93610  0.49540  0.24300  Biso   1.000  C
  C129     1.0000 0.07000  0.63060  0.28710  Biso   1.000  C
  C130     1.0000 0.53800  0.09820  0.12980  Biso   1.000  C
  C131     1.0000 0.17200  0.70300  0.35690  Biso   1.000  C
  C132     1.0000 0.36290  0.93180  0.12570  Biso   1.000  C
  C133     1.0000 0.11305  0.67910  0.26365  Biso   1.000  C
  C134     1.0000 0.08450  0.70840  0.24540  Biso   1.000  C
  C135     1.0000 0.12370  0.74740  0.22247  Biso   1.000  C
  C136     1.0000 0.19150  0.75700  0.21775  Biso   1.000  C
  C137     1.0000 0.22010  0.72760  0.23600  Biso   1.000  C
  C138     1.0000 0.18080  0.68860  0.25893  Biso   1.000  C
  C139     1.0000 0.15150  0.66700  0.42205  Biso   1.000  C
  C140     1.0000 0.19702  0.64844  0.43580  Biso   1.000  C
  C141     1.0000 0.24550  0.68860  0.45780  Biso   1.000  C
  C142     1.0000 0.24850  0.74740  0.46592  Biso   1.000  C
  C143     1.0000 0.20298  0.76596  0.45210  Biso   1.000  C
  C144     1.0000 0.15450  0.72580  0.43020  Biso   1.000  C
  N1       1.0000 0.51780  0.51740  0.88750  Biso   1.000  N
  N2       1.0000 0.52400  0.42740  0.84000  Biso   1.000  N
  N3       1.0000 0.53910  0.61060  0.84030  Biso   1.000  N
  N4       1.0000 0.55200  0.52260  0.79170  Biso   1.000  N
  N5       1.0000 0.99960  0.51740  0.38750  Biso   1.000  N
  N6       1.0000 0.90340  0.42740  0.34000  Biso   1.000  N
  N7       1.0000 0.07150  0.61060  0.34030  Biso   1.000  N
  N8       1.0000 0.97060  0.52260  0.29170  Biso   1.000  N
  O1       1.0000 0.40630  0.92500  0.05280  Biso   1.000  O
  O2       1.0000 0.49910  0.05880  0.61470  Biso   1.000  O
  O3       1.0000 0.61970  0.96380  0.61150  Biso   1.000  O
  O4       1.0000 0.40010  0.05380  0.05970  Biso   1.000  O
  O5       1.0000 0.51380  0.08720  0.05550  Biso   1.000  O
  O6       1.0000 0.51810  0.96140  0.06740  Biso   1.000  O
  O7       1.0000 0.61180  0.09300  0.62433  Biso   1.000  O
  O8       1.0000 0.65030  0.56660  0.85130  Biso   1.000  O
  O9       1.0000 0.41770  0.48760  0.82950  Biso   1.000  O
  O10      1.0000 0.51620  0.93940  0.62470  Biso   1.000  O
  O11      1.0000 0.51870  0.92500  0.55280  Biso   1.000  O
  O12      1.0000 0.55970  0.05880  0.11470  Biso   1.000  O
  O13      1.0000 0.34410  0.96380  0.11150  Biso   1.000  O
  O14      1.0000 0.65370  0.05380  0.55970  Biso   1.000  O
  O15      1.0000 0.57340  0.08720  0.55550  Biso   1.000  O
  O16      1.0000 0.44330  0.96140  0.56740  Biso   1.000  O
  O17      1.0000 0.48120  0.09300  0.12433  Biso   1.000  O
  O18      1.0000 0.91630  0.56660  0.35130  Biso   1.000  O
  O19      1.0000 0.06990  0.48760  0.32950  Biso   1.000  O
  O20      1.0000 0.42320  0.93940  0.12470  Biso   1.000  O
  In5      1.0000 0.77536  0.63896  0.93853  Biso   1.000  In
  In6      1.0000 0.79634  0.13060  0.68796  Biso   1.000  In
  In7      1.0000 0.86360  0.63896  0.43853  Biso   1.000  In
  In8      1.0000 0.33426  0.13060  0.18796  Biso   1.000  In
  H81      1.0000 0.79940  0.34340  0.65930  Biso   1.000  H
  H82      1.0000 0.79350  0.34180  0.71420  Biso   1.000  H
  H83      1.0000 0.78170  0.91420  0.71780  Biso   1.000  H
  H84      1.0000 0.87280  0.90160  0.84700  Biso   1.000  H
  H85      1.0000 0.87350  0.82740  0.88070  Biso   1.000  H
  H86      1.0000 0.66390  0.72480  0.87000  Biso   1.000  H
  H87      1.0000 0.66320  0.79900  0.83630  Biso   1.000  H
  H88      1.0000 0.85010  0.28020  0.79360  Biso   1.000  H
  H89      1.0000 0.84970  0.35540  0.83010  Biso   1.000  H
  H90      1.0000 0.67320  0.34280  0.79090  Biso   1.000  H
  H91      1.0000 0.67380  0.26780  0.75440  Biso   1.000  H
  H92      1.0000 0.73620  0.15980  0.79860  Biso   1.000  H
  H93      1.0000 0.73650  0.05740  0.79920  Biso   1.000  H
  H94      1.0000 0.83580  0.08800  0.57690  Biso   1.000  H
  H95      1.0000 0.68430  0.83040  0.78780  Biso   1.000  H
  H96      1.0000 0.83930  0.97760  0.83570  Biso   1.000  H
  H97      1.0000 0.84380  0.04700  0.79810  Biso   1.000  H
  H98      1.0000 0.68880  0.89980  0.75020  Biso   1.000  H
  H99      1.0000 0.80960  0.17720  0.57170  Biso   1.000  H
  H100     1.0000 0.90290  0.34980  0.62280  Biso   1.000  H
  H101     1.0000 0.91030  0.42160  0.58600  Biso   1.000  H
  H102     1.0000 0.72420  0.29220  0.54930  Biso   1.000  H
  H103     1.0000 0.71670  0.22020  0.58610  Biso   1.000  H
  H104     1.0000 0.87410  0.54080  0.87160  Biso   1.000  H
  H105     1.0000 0.87210  0.46260  0.83640  Biso   1.000  H
  H106     1.0000 0.66100  0.37080  0.83920  Biso   1.000  H
  H107     1.0000 0.66300  0.44900  0.87440  Biso   1.000  H
  H108     1.0000 0.92620  0.93840  0.58270  Biso   1.000  H
  H109     1.0000 0.91500  0.00980  0.61840  Biso   1.000  H
  H110     1.0000 0.71150  0.94100  0.59340  Biso   1.000  H
  H111     1.0000 0.72270  0.86980  0.55780  Biso   1.000  H
  H112     1.0000 0.93020  0.45000  0.54090  Biso   1.000  H
  H113     1.0000 0.94570  0.52820  0.50630  Biso   1.000  H
  H114     1.0000 0.73620  0.46040  0.49890  Biso   1.000  H
  H115     1.0000 0.72070  0.38220  0.53350  Biso   1.000  H
  H116     1.0000 0.76350  0.77720  0.48030  Biso   1.000  H
  H117     1.0000 0.92910  0.78040  0.52560  Biso   1.000  H
  H118     1.0000 0.92290  0.85160  0.56280  Biso   1.000  H
  H119     1.0000 0.75730  0.84840  0.51750  Biso   1.000  H
  H120     1.0000 0.83410  0.93780  0.66790  Biso   1.000  H
  H121     1.0000 0.54400  0.34340  0.15930  Biso   1.000  H
  H122     1.0000 0.54830  0.34180  0.21420  Biso   1.000  H
  H123     1.0000 0.13250  0.91420  0.21780  Biso   1.000  H
  H124     1.0000 0.02880  0.90160  0.34700  Biso   1.000  H
  H125     1.0000 0.95390  0.82740  0.38070  Biso   1.000  H
  H126     1.0000 0.06090  0.72480  0.37000  Biso   1.000  H
  H127     1.0000 0.13580  0.79900  0.33630  Biso   1.000  H
  H128     1.0000 0.43010  0.28020  0.29360  Biso   1.000  H
  H129     1.0000 0.50570  0.35540  0.33010  Biso   1.000  H
  H130     1.0000 0.66960  0.34280  0.29090  Biso   1.000  H
  H131     1.0000 0.59400  0.26780  0.25440  Biso   1.000  H
  H132     1.0000 0.42360  0.15980  0.29860  Biso   1.000  H
  H133     1.0000 0.32090  0.05740  0.29920  Biso   1.000  H
  H134     1.0000 0.25220  0.08800  0.07690  Biso   1.000  H
  H135     1.0000 0.14610  0.83040  0.28780  Biso   1.000  H
  H136     1.0000 0.13830  0.97760  0.33570  Biso   1.000  H
  H137     1.0000 0.20320  0.04700  0.29810  Biso   1.000  H
  H138     1.0000 0.21100  0.89980  0.25020  Biso   1.000  H
  H139     1.0000 0.36760  0.17720  0.07170  Biso   1.000  H
  H140     1.0000 0.44690  0.34980  0.12280  Biso   1.000  H
  H141     1.0000 0.51130  0.42160  0.08600  Biso   1.000  H
  H142     1.0000 0.56800  0.29220  0.04930  Biso   1.000  H
  H143     1.0000 0.50350  0.22020  0.08610  Biso   1.000  H
  H144     1.0000 0.66670  0.54080  0.37160  Biso   1.000  H
  H145     1.0000 0.59050  0.46260  0.33640  Biso   1.000  H
  H146     1.0000 0.70980  0.37080  0.33920  Biso   1.000  H
  H147     1.0000 0.78600  0.44900  0.37440  Biso   1.000  H
  H148     1.0000 0.01220  0.93840  0.08270  Biso   1.000  H
  H149     1.0000 0.09480  0.00980  0.11840  Biso   1.000  H
  H150     1.0000 0.22950  0.94100  0.09340  Biso   1.000  H
  H151     1.0000 0.14710  0.86980  0.05780  Biso   1.000  H
  H152     1.0000 0.51980  0.45000  0.04090  Biso   1.000  H
  H153     1.0000 0.58250  0.52820  0.00630  Biso   1.000  H
  H154     1.0000 0.72420  0.46040  0.99890  Biso   1.000  H
  H155     1.0000 0.66150  0.38220  0.03350  Biso   1.000  H
  H156     1.0000 0.01370  0.77720  0.98030  Biso   1.000  H
  H157     1.0000 0.85130  0.78040  0.02560  Biso   1.000  H
  H158     1.0000 0.92870  0.85160  0.06280  Biso   1.000  H
  H159     1.0000 0.09110  0.84840  0.01750  Biso   1.000  H
  H160     1.0000 0.10370  0.93780  0.16790  Biso   1.000  H
  C145     1.0000 0.77890  0.02580  0.74590  Biso   1.000  C
  C146     1.0000 0.80320  0.17380  0.62080  Biso   1.000  C
  C147     1.0000 0.77090  0.07800  0.75390  Biso   1.000  C
  C148     1.0000 0.76700  0.72160  0.89960  Biso   1.000  C
  C149     1.0000 0.78200  0.00380  0.71490  Biso   1.000  C
  C150     1.0000 0.75940  0.16740  0.75180  Biso   1.000  C
  C151     1.0000 0.79830  0.31080  0.67160  Biso   1.000  C
  C152     1.0000 0.79240  0.30720  0.70200  Biso   1.000  C
  C153     1.0000 0.77130  0.55200  0.90020  Biso   1.000  C
  C154     1.0000 0.79040  0.95020  0.70620  Biso   1.000  C
  C155     1.0000 0.76800  0.85740  0.83850  Biso   1.000  C
  C156     1.0000 0.83040  0.86580  0.85170  Biso   1.000  C
  C157     1.0000 0.83080  0.82160  0.87170  Biso   1.000  C
  C158     1.0000 0.76880  0.76920  0.87850  Biso   1.000  C
  C159     1.0000 0.70620  0.76060  0.86530  Biso   1.000  C
  C160     1.0000 0.70590  0.80480  0.84530  Biso   1.000  C
  C161     1.0000 0.80540  0.01060  0.66270  Biso   1.000  C
  C162     1.0000 0.80500  0.23260  0.63200  Biso   1.000  C
  C163     1.0000 0.80110  0.08040  0.62200  Biso   1.000  C
  C164     1.0000 0.76200  0.26700  0.77060  Biso   1.000  C
  C165     1.0000 0.81430  0.29300  0.79310  Biso   1.000  C
  C166     1.0000 0.81400  0.33760  0.81470  Biso   1.000  C
  C167     1.0000 0.76140  0.35620  0.81390  Biso   1.000  C
  C168     1.0000 0.70920  0.33020  0.79140  Biso   1.000  C
  C169     1.0000 0.70950  0.28560  0.76980  Biso   1.000  C
  C170     1.0000 0.74590  0.13980  0.78130  Biso   1.000  C
  C171     1.0000 0.78470  0.25220  0.71520  Biso   1.000  C
  C172     1.0000 0.74790  0.08500  0.78270  Biso   1.000  C
  C173     1.0000 0.81920  0.10600  0.59270  Biso   1.000  C
  C174     1.0000 0.77010  0.22940  0.74430  Biso   1.000  C
  C175     1.0000 0.71670  0.87440  0.78990  Biso   1.000  C
  C176     1.0000 0.76130  0.89740  0.81530  Biso   1.000  C
  C177     1.0000 0.80870  0.96180  0.81840  Biso   1.000  C
  C178     1.0000 0.81140  0.00300  0.79600  Biso   1.000  C
  C179     1.0000 0.76660  0.97980  0.77060  Biso   1.000  C
  C180     1.0000 0.71930  0.91560  0.76760  Biso   1.000  C
  C181     1.0000 0.81060  0.15680  0.58980  Biso   1.000  C
  C182     1.0000 0.80960  0.03100  0.63310  Biso   1.000  C
  C183     1.0000 0.80910  0.27820  0.60790  Biso   1.000  C
  C184     1.0000 0.86660  0.33800  0.60790  Biso   1.000  C
  C185     1.0000 0.87100  0.38080  0.58610  Biso   1.000  C
  C186     1.0000 0.81790  0.36360  0.56420  Biso   1.000  C
  C187     1.0000 0.76040  0.30380  0.56420  Biso   1.000  C
  C188     1.0000 0.75600  0.26120  0.58610  Biso   1.000  C
  C189     1.0000 0.83080  0.50620  0.86500  Biso   1.000  C
  C190     1.0000 0.82970  0.45980  0.84410  Biso   1.000  C
  C191     1.0000 0.76630  0.40920  0.83450  Biso   1.000  C
  C192     1.0000 0.70430  0.40540  0.84580  Biso   1.000  C
  C193     1.0000 0.70550  0.45180  0.86670  Biso   1.000  C
  C194     1.0000 0.76870  0.50220  0.87630  Biso   1.000  C
  C195     1.0000 0.80250  0.25440  0.66210  Biso   1.000  C
  C196     1.0000 0.82550  0.89740  0.56690  Biso   1.000  C
  C197     1.0000 0.88260  0.93900  0.58490  Biso   1.000  C
  C198     1.0000 0.87600  0.98140  0.60610  Biso   1.000  C
  C199     1.0000 0.81230  0.98220  0.60920  Biso   1.000  C
  C200     1.0000 0.75510  0.94060  0.59120  Biso   1.000  C
  C201     1.0000 0.76180  0.89820  0.57010  Biso   1.000  C
  C202     1.0000 0.82400  0.40880  0.54040  Biso   1.000  C
  C203     1.0000 0.89080  0.45220  0.53240  Biso   1.000  C
  C204     1.0000 0.90000  0.49860  0.51180  Biso   1.000  C
  C205     1.0000 0.84240  0.50160  0.49930  Biso   1.000  C
  C206     1.0000 0.77550  0.45820  0.50740  Biso   1.000  C
  C207     1.0000 0.76630  0.41180  0.52800  Biso   1.000  C
  C208     1.0000 0.85010  0.72460  0.47840  Biso   1.000  C
  C209     1.0000 0.84680  0.55020  0.47700  Biso   1.000  C
  C210     1.0000 0.79590  0.79240  0.49700  Biso   1.000  C
  C211     1.0000 0.84700  0.77220  0.49940  Biso   1.000  C
  C212     1.0000 0.89430  0.79420  0.52390  Biso   1.000  C
  C213     1.0000 0.89050  0.83640  0.54600  Biso   1.000  C
  C214     1.0000 0.83950  0.85660  0.54360  Biso   1.000  C
  C215     1.0000 0.79220  0.83460  0.51910  Biso   1.000  C
  C216     1.0000 0.81340  0.96140  0.67770  Biso   1.000  C
  C217     1.0000 0.24690  0.02580  0.24590  Biso   1.000  C
  C218     1.0000 0.37060  0.17380  0.12080  Biso   1.000  C
  C219     1.0000 0.30710  0.07800  0.25390  Biso   1.000  C
  C220     1.0000 0.95460  0.72160  0.39960  Biso   1.000  C
  C221     1.0000 0.22180  0.00380  0.21490  Biso   1.000  C
  C222     1.0000 0.40800  0.16740  0.25180  Biso   1.000  C
  C223     1.0000 0.51250  0.31080  0.17160  Biso   1.000  C
  C224     1.0000 0.51480  0.30720  0.20200  Biso   1.000  C
  C225     1.0000 0.78070  0.55200  0.40020  Biso   1.000  C
  C226     1.0000 0.15980  0.95020  0.20620  Biso   1.000  C
  C227     1.0000 0.08940  0.85740  0.33850  Biso   1.000  C
  C228     1.0000 0.03540  0.86580  0.35170  Biso   1.000  C
  C229     1.0000 0.99080  0.82160  0.37170  Biso   1.000  C
  C230     1.0000 0.00040  0.76920  0.37850  Biso   1.000  C
  C231     1.0000 0.05440  0.76060  0.36530  Biso   1.000  C
  C232     1.0000 0.09890  0.80480  0.34530  Biso   1.000  C
  C233     1.0000 0.20520  0.01060  0.16270  Biso   1.000  C
  C234     1.0000 0.42760  0.23260  0.13200  Biso   1.000  C
  C235     1.0000 0.27930  0.08040  0.12200  Biso   1.000  C
  C236     1.0000 0.50500  0.26700  0.27060  Biso   1.000  C
  C237     1.0000 0.47870  0.29300  0.29310  Biso   1.000  C
  C238     1.0000 0.52360  0.33760  0.31470  Biso   1.000  C
  C239     1.0000 0.59480  0.35620  0.31390  Biso   1.000  C
  C240     1.0000 0.62100  0.33020  0.29140  Biso   1.000  C
  C241     1.0000 0.57610  0.28560  0.26980  Biso   1.000  C
  C242     1.0000 0.39390  0.13980  0.28130  Biso   1.000  C
  C243     1.0000 0.46750  0.25220  0.21520  Biso   1.000  C
  C244     1.0000 0.33710  0.08500  0.28270  Biso   1.000  C
  C245     1.0000 0.28680  0.10600  0.09270  Biso   1.000  C
  C246     1.0000 0.45930  0.22940  0.24430  Biso   1.000  C
  C247     1.0000 0.15770  0.87440  0.28990  Biso   1.000  C
  C248     1.0000 0.13610  0.89740  0.31530  Biso   1.000  C
  C249     1.0000 0.15310  0.96180  0.31840  Biso   1.000  C
  C250     1.0000 0.19160  0.00300  0.29600  Biso   1.000  C
  C251     1.0000 0.21320  0.97980  0.27060  Biso   1.000  C
  C252     1.0000 0.19630  0.91560  0.26760  Biso   1.000  C
  C253     1.0000 0.34620  0.15680  0.08980  Biso   1.000  C
  C254     1.0000 0.22140  0.03100  0.13310  Biso   1.000  C
  C255     1.0000 0.46910  0.27820  0.10790  Biso   1.000  C
  C256     1.0000 0.47140  0.33800  0.10790  Biso   1.000  C
  C257     1.0000 0.50980  0.38080  0.08610  Biso   1.000  C
  C258     1.0000 0.54570  0.36360  0.06420  Biso   1.000  C
  C259     1.0000 0.54340  0.30380  0.06420  Biso   1.000  C
  C260     1.0000 0.50520  0.26120  0.08610  Biso   1.000  C
  C261     1.0000 0.67540  0.50620  0.36500  Biso   1.000  C
  C262     1.0000 0.63010  0.45980  0.34410  Biso   1.000  C
  C263     1.0000 0.64290  0.40920  0.33450  Biso   1.000  C
  C264     1.0000 0.70110  0.40540  0.34580  Biso   1.000  C
  C265     1.0000 0.74630  0.45180  0.36670  Biso   1.000  C
  C266     1.0000 0.73350  0.50220  0.37630  Biso   1.000  C
  C267     1.0000 0.45190  0.25440  0.16210  Biso   1.000  C
  C268     1.0000 0.07190  0.89740  0.06690  Biso   1.000  C
  C269     1.0000 0.05640  0.93900  0.08490  Biso   1.000  C
  C270     1.0000 0.10540  0.98140  0.10610  Biso   1.000  C
  C271     1.0000 0.16990  0.98220  0.10920  Biso   1.000  C
  C272     1.0000 0.18550  0.94060  0.09120  Biso   1.000  C
  C273     1.0000 0.13640  0.89820  0.07010  Biso   1.000  C
  C274     1.0000 0.58480  0.40880  0.04040  Biso   1.000  C
  C275     1.0000 0.56140  0.45220  0.03240  Biso   1.000  C
  C276     1.0000 0.59860  0.49860  0.01180  Biso   1.000  C
  C277     1.0000 0.65920  0.50160  0.99930  Biso   1.000  C
  C278     1.0000 0.68270  0.45820  0.00740  Biso   1.000  C
  C279     1.0000 0.64550  0.41180  0.02800  Biso   1.000  C
  C280     1.0000 0.87450  0.72460  0.97840  Biso   1.000  C
  C281     1.0000 0.70340  0.55020  0.97700  Biso   1.000  C
  C282     1.0000 0.99650  0.79240  0.99700  Biso   1.000  C
  C283     1.0000 0.92520  0.77220  0.99940  Biso   1.000  C
  C284     1.0000 0.89990  0.79420  0.02390  Biso   1.000  C
  C285     1.0000 0.94590  0.83640  0.04600  Biso   1.000  C
  C286     1.0000 0.01710  0.85660  0.04360  Biso   1.000  C
  C287     1.0000 0.04240  0.83460  0.01910  Biso   1.000  C
  C288     1.0000 0.14800  0.96140  0.17770  Biso   1.000  C
  N9       1.0000 0.77560  0.12300  0.73560  Biso   1.000  N
  N10      1.0000 0.79870  0.12580  0.64050  Biso   1.000  N
  N11      1.0000 0.78860  0.03920  0.68910  Biso   1.000  N
  N12      1.0000 0.79430  0.22200  0.68860  Biso   1.000  N
  N13      1.0000 0.34740  0.12300  0.23560  Biso   1.000  N
  N14      1.0000 0.32710  0.12580  0.14050  Biso   1.000  N
  N15      1.0000 0.25060  0.03920  0.18910  Biso   1.000  N
  N16      1.0000 0.42770  0.22200  0.18860  Biso   1.000  N
  O21      1.0000 0.82870  0.59200  0.91190  Biso   1.000  O
  O22      1.0000 0.82250  0.71700  0.90440  Biso   1.000  O
  O23      1.0000 0.72510  0.69040  0.91840  Biso   1.000  O
  O24      1.0000 0.71500  0.55720  0.90420  Biso   1.000  O
  O25      1.0000 0.67500  0.08000  0.67910  Biso   1.000  O
  O26      1.0000 0.89710  0.71060  0.47670  Biso   1.000  O
  O27      1.0000 0.79140  0.55540  0.46940  Biso   1.000  O
  O28      1.0000 0.81220  0.69840  0.45810  Biso   1.000  O
  O29      1.0000 0.90690  0.59320  0.46780  Biso   1.000  O
  O30      1.0000 0.76330  0.59200  0.41190  Biso   1.000  O
  O31      1.0000 0.89450  0.71700  0.40440  Biso   1.000  O
  O32      1.0000 0.96530  0.69040  0.41840  Biso   1.000  O
  O33      1.0000 0.84220  0.55720  0.40420  Biso   1.000  O
  O34      1.0000 0.40500  0.08000  0.17910  Biso   1.000  O
  O35      1.0000 0.81350  0.71060  0.97670  Biso   1.000  O
  O36      1.0000 0.76400  0.55540  0.96940  Biso   1.000  O
  O37      1.0000 0.88620  0.69840  0.95810  Biso   1.000  O
  O38      1.0000 0.68630  0.59320  0.96780  Biso   1.000  O
  In9      1.0000 0.34434  0.58502  0.49501  Biso   1.000  In
  In10     1.0000 0.28075  0.07960  0.74405  Biso   1.000  In
  In11     1.0000 0.24068  0.58502  0.99501  Biso   1.000  In
  In12     1.0000 0.79885  0.07960  0.24405  Biso   1.000  In
  H161     1.0000 0.27650  0.86980  0.77350  Biso   1.000  H
  H162     1.0000 0.21400  0.75140  0.58420  Biso   1.000  H
  H163     1.0000 0.22900  0.68080  0.54940  Biso   1.000  H
  H164     1.0000 0.43150  0.75340  0.57670  Biso   1.000  H
  H165     1.0000 0.41650  0.82400  0.61140  Biso   1.000  H
  H166     1.0000 0.37680  0.30600  0.81930  Biso   1.000  H
  H167     1.0000 0.36780  0.37760  0.85540  Biso   1.000  H
  H168     1.0000 0.16640  0.25140  0.86920  Biso   1.000  H
  H169     1.0000 0.17530  0.17980  0.83310  Biso   1.000  H
  H170     1.0000 0.36170  0.40820  0.90370  Biso   1.000  H
  H171     1.0000 0.35450  0.48260  0.93870  Biso   1.000  H
  H172     1.0000 0.15050  0.41720  0.91540  Biso   1.000  H
  H173     1.0000 0.15760  0.34260  0.88050  Biso   1.000  H
  H174     1.0000 0.30580  0.29960  0.71500  Biso   1.000  H
  H175     1.0000 0.29360  0.30060  0.77160  Biso   1.000  H
  H176     1.0000 0.30350  0.02580  0.63090  Biso   1.000  H
  H177     1.0000 0.41940  0.29680  0.67180  Biso   1.000  H
  H178     1.0000 0.42610  0.36460  0.63300  Biso   1.000  H
  H179     1.0000 0.22020  0.25620  0.61360  Biso   1.000  H
  H180     1.0000 0.21340  0.18840  0.65250  Biso   1.000  H
  H181     1.0000 0.35210  0.90560  0.87440  Biso   1.000  H
  H182     1.0000 0.35880  0.97520  0.83660  Biso   1.000  H
  H183     1.0000 0.15100  0.87220  0.81960  Biso   1.000  H
  H184     1.0000 0.14430  0.80260  0.85750  Biso   1.000  H
  H185     1.0000 0.27730  0.86460  0.71540  Biso   1.000  H
  H186     1.0000 0.26250  0.13320  0.85840  Biso   1.000  H
  H187     1.0000 0.30610  0.13260  0.62970  Biso   1.000  H
  H188     1.0000 0.40250  0.91300  0.61950  Biso   1.000  H
  H189     1.0000 0.39110  0.98480  0.65470  Biso   1.000  H
  H190     1.0000 0.19160  0.85500  0.66950  Biso   1.000  H
  H191     1.0000 0.20290  0.78320  0.63420  Biso   1.000  H
  H192     1.0000 0.33210  0.73860  0.92300  Biso   1.000  H
  H193     1.0000 0.13250  0.69980  0.94080  Biso   1.000  H
  H194     1.0000 0.13830  0.77320  0.90520  Biso   1.000  H
  H195     1.0000 0.33800  0.81220  0.88740  Biso   1.000  H
  H196     1.0000 0.44000  0.40300  0.59050  Biso   1.000  H
  H197     1.0000 0.23100  0.34060  0.59250  Biso   1.000  H
  H198     1.0000 0.24020  0.41320  0.55580  Biso   1.000  H
  H199     1.0000 0.44930  0.47560  0.55380  Biso   1.000  H
  H200     1.0000 0.25800  0.02920  0.85800  Biso   1.000  H
  H201     1.0000 0.59330  0.86980  0.27350  Biso   1.000  H
  H202     1.0000 0.53740  0.75140  0.08420  Biso   1.000  H
  H203     1.0000 0.45180  0.68080  0.04940  Biso   1.000  H
  H204     1.0000 0.32190  0.75340  0.07670  Biso   1.000  H
  H205     1.0000 0.40750  0.82400  0.11140  Biso   1.000  H
  H206     1.0000 0.92920  0.30600  0.31930  Biso   1.000  H
  H207     1.0000 0.00980  0.37760  0.35540  Biso   1.000  H
  H208     1.0000 0.08500  0.25140  0.36920  Biso   1.000  H
  H209     1.0000 0.00450  0.17980  0.33310  Biso   1.000  H
  H210     1.0000 0.04650  0.40820  0.40370  Biso   1.000  H
  H211     1.0000 0.12810  0.48260  0.43870  Biso   1.000  H
  H212     1.0000 0.26670  0.41720  0.41540  Biso   1.000  H
  H213     1.0000 0.18500  0.34260  0.38050  Biso   1.000  H
  H214     1.0000 0.99380  0.29960  0.21500  Biso   1.000  H
  H215     1.0000 0.00700  0.30060  0.27160  Biso   1.000  H
  H216     1.0000 0.72230  0.02580  0.13090  Biso   1.000  H
  H217     1.0000 0.87740  0.29680  0.17180  Biso   1.000  H
  H218     1.0000 0.93850  0.36460  0.13300  Biso   1.000  H
  H219     1.0000 0.03600  0.25620  0.11360  Biso   1.000  H
  H220     1.0000 0.97500  0.18840  0.15250  Biso   1.000  H
  H221     1.0000 0.55350  0.90560  0.37440  Biso   1.000  H
  H222     1.0000 0.61640  0.97520  0.33660  Biso   1.000  H
  H223     1.0000 0.72120  0.87220  0.31960  Biso   1.000  H
  H224     1.0000 0.65830  0.80260  0.35750  Biso   1.000  H
  H225     1.0000 0.58730  0.86460  0.21540  Biso   1.000  H
  H226     1.0000 0.87070  0.13320  0.35840  Biso   1.000  H
  H227     1.0000 0.82650  0.13260  0.12970  Biso   1.000  H
  H228     1.0000 0.51050  0.91300  0.11950  Biso   1.000  H
  H229     1.0000 0.59370  0.98480  0.15470  Biso   1.000  H
  H230     1.0000 0.66340  0.85500  0.16950  Biso   1.000  H
  H231     1.0000 0.58030  0.78320  0.13420  Biso   1.000  H
  H232     1.0000 0.40650  0.73860  0.42300  Biso   1.000  H
  H233     1.0000 0.56730  0.69980  0.44080  Biso   1.000  H
  H234     1.0000 0.63490  0.77320  0.40520  Biso   1.000  H
  H235     1.0000 0.47420  0.81220  0.38740  Biso   1.000  H
  H236     1.0000 0.96300  0.40300  0.09050  Biso   1.000  H
  H237     1.0000 0.10960  0.34060  0.09250  Biso   1.000  H
  H238     1.0000 0.17300  0.41320  0.05580  Biso   1.000  H
  H239     1.0000 0.02630  0.47560  0.05380  Biso   1.000  H
  H240     1.0000 0.77120  0.02920  0.35800  Biso   1.000  H
  C289     1.0000 0.22900  0.66860  0.96040  Biso   1.000  C
  C290     1.0000 0.26160  0.95240  0.77100  Biso   1.000  C
  C291     1.0000 0.35020  0.50200  0.53070  Biso   1.000  C
  C292     1.0000 0.27230  0.89920  0.76050  Biso   1.000  C
  C293     1.0000 0.28740  0.20640  0.76860  Biso   1.000  C
  C294     1.0000 0.25880  0.02860  0.80970  Biso   1.000  C
  C295     1.0000 0.28090  0.19120  0.79940  Biso   1.000  C
  C296     1.0000 0.25810  0.75180  0.58270  Biso   1.000  C
  C297     1.0000 0.26702  0.70984  0.56202  Biso   1.000  C
  C298     1.0000 0.33163  0.71046  0.55979  Biso   1.000  C
  C299     1.0000 0.38730  0.75300  0.57820  Biso   1.000  C
  C300     1.0000 0.37850  0.79500  0.59885  Biso   1.000  C
  C301     1.0000 0.31390  0.79440  0.60108  Biso   1.000  C
  C302     1.0000 0.27080  0.12980  0.80940  Biso   1.000  C
  C303     1.0000 0.27680  0.23600  0.82277  Biso   1.000  C
  C304     1.0000 0.33400  0.29480  0.82940  Biso   1.000  C
  C305     1.0000 0.32870  0.33740  0.85090  Biso   1.000  C
  C306     1.0000 0.26630  0.32120  0.86572  Biso   1.000  C
  C307     1.0000 0.20900  0.26240  0.85910  Biso   1.000  C
  C308     1.0000 0.21435  0.21990  0.83760  Biso   1.000  C
  C309     1.0000 0.26030  0.36840  0.88880  Biso   1.000  C
  C310     1.0000 0.31880  0.41000  0.90610  Biso   1.000  C
  C311     1.0000 0.31460  0.45420  0.92680  Biso   1.000  C
  C312     1.0000 0.25180  0.45680  0.93030  Biso   1.000  C
  C313     1.0000 0.19340  0.41540  0.91310  Biso   1.000  C
  C314     1.0000 0.19750  0.37100  0.89230  Biso   1.000  C
  C315     1.0000 0.30100  0.26660  0.72800  Biso   1.000  C
  C316     1.0000 0.30010  0.03260  0.68040  Biso   1.000  C
  C317     1.0000 0.34450  0.66660  0.53620  Biso   1.000  C
  C318     1.0000 0.29410  0.26720  0.75890  Biso   1.000  C
  C319     1.0000 0.30260  0.05080  0.64830  Biso   1.000  C
  C320     1.0000 0.25850  0.97360  0.79980  Biso   1.000  C
  C321     1.0000 0.30040  0.12740  0.67790  Biso   1.000  C
  C322     1.0000 0.31580  0.23620  0.66580  Biso   1.000  C
  C323     1.0000 0.37900  0.28860  0.66000  Biso   1.000  C
  C324     1.0000 0.38290  0.32880  0.63690  Biso   1.000  C
  C325     1.0000 0.32380  0.31680  0.61960  Biso   1.000  C
  C326     1.0000 0.26060  0.26440  0.62540  Biso   1.000  C
  C327     1.0000 0.25660  0.22420  0.64850  Biso   1.000  C
  C328     1.0000 0.30380  0.18480  0.68890  Biso   1.000  C
  C329     1.0000 0.27560  0.95680  0.72120  Biso   1.000  C
  C330     1.0000 0.24750  0.84740  0.86950  Biso   1.000  C
  C331     1.0000 0.31130  0.89880  0.86330  Biso   1.000  C
  C332     1.0000 0.31520  0.94000  0.84080  Biso   1.000  C
  C333     1.0000 0.25550  0.93020  0.82450  Biso   1.000  C
  C334     1.0000 0.19180  0.87900  0.83070  Biso   1.000  C
  C335     1.0000 0.18790  0.83760  0.85320  Biso   1.000  C
  C336     1.0000 0.27550  0.89660  0.72870  Biso   1.000  C
  C337     1.0000 0.29990  0.20540  0.71820  Biso   1.000  C
  C338     1.0000 0.26390  0.10920  0.84070  Biso   1.000  C
  C339     1.0000 0.30370  0.10940  0.64730  Biso   1.000  C
  C340     1.0000 0.30380  0.84140  0.62353  Biso   1.000  C
  C341     1.0000 0.35960  0.90120  0.62960  Biso   1.000  C
  C342     1.0000 0.35291  0.94382  0.65060  Biso   1.000  C
  C343     1.0000 0.29020  0.92660  0.66544  Biso   1.000  C
  C344     1.0000 0.23440  0.86680  0.65930  Biso   1.000  C
  C345     1.0000 0.24115  0.82410  0.63840  Biso   1.000  C
  C346     1.0000 0.28280  0.97060  0.68950  Biso   1.000  C
  C347     1.0000 0.29270  0.74560  0.91940  Biso   1.000  C
  C348     1.0000 0.23180  0.71240  0.93520  Biso   1.000  C
  C349     1.0000 0.17420  0.72260  0.92990  Biso   1.000  C
  C350     1.0000 0.17760  0.76620  0.90880  Biso   1.000  C
  C351     1.0000 0.23870  0.79960  0.89290  Biso   1.000  C
  C352     1.0000 0.29630  0.78940  0.89820  Biso   1.000  C
  C353     1.0000 0.39950  0.40500  0.58350  Biso   1.000  C
  C354     1.0000 0.33470  0.36500  0.59500  Biso   1.000  C
  C355     1.0000 0.27530  0.36800  0.58470  Biso   1.000  C
  C356     1.0000 0.28080  0.41120  0.56290  Biso   1.000  C
  C357     1.0000 0.34560  0.45120  0.55140  Biso   1.000  C
  C358     1.0000 0.40500  0.44820  0.56170  Biso   1.000  C
  C359     1.0000 0.25990  0.05180  0.84030  Biso   1.000  C
  C360     1.0000 0.24700  0.50480  0.95230  Biso   1.000  C
  C361     1.0000 0.43960  0.66860  0.46040  Biso   1.000  C
  C362     1.0000 0.69080  0.95240  0.27100  Biso   1.000  C
  C363     1.0000 0.15180  0.50200  0.03070  Biso   1.000  C
  C364     1.0000 0.62690  0.89920  0.26050  Biso   1.000  C
  C365     1.0000 0.91900  0.20640  0.26860  Biso   1.000  C
  C366     1.0000 0.76980  0.02860  0.30970  Biso   1.000  C
  C367     1.0000 0.91030  0.19120  0.29940  Biso   1.000  C
  C368     1.0000 0.49370  0.75180  0.08270  Biso   1.000  C
  C369     1.0000 0.44282  0.70984  0.06202  Biso   1.000  C
  C370     1.0000 0.37883  0.71046  0.05979  Biso   1.000  C
  C371     1.0000 0.36570  0.75300  0.07820  Biso   1.000  C
  C372     1.0000 0.41650  0.79500  0.09885  Biso   1.000  C
  C373     1.0000 0.48050  0.79440  0.10108  Biso   1.000  C
  C374     1.0000 0.85900  0.12980  0.30940  Biso   1.000  C
  C375     1.0000 0.95920  0.23600  0.32277  Biso   1.000  C
  C376     1.0000 0.96080  0.29480  0.32940  Biso   1.000  C
  C377     1.0000 0.00870  0.33740  0.35090  Biso   1.000  C
  C378     1.0000 0.05490  0.32120  0.36572  Biso   1.000  C
  C379     1.0000 0.05340  0.26240  0.35910  Biso   1.000  C
  C380     1.0000 0.00555  0.21990  0.33760  Biso   1.000  C
  C381     1.0000 0.10810  0.36840  0.38880  Biso   1.000  C
  C382     1.0000 0.09120  0.41000  0.40610  Biso   1.000  C
  C383     1.0000 0.13960  0.45420  0.42680  Biso   1.000  C
  C384     1.0000 0.20500  0.45680  0.43030  Biso   1.000  C
  C385     1.0000 0.22200  0.41540  0.41310  Biso   1.000  C
  C386     1.0000 0.17350  0.37100  0.39230  Biso   1.000  C
  C387     1.0000 0.96560  0.26660  0.22800  Biso   1.000  C
  C388     1.0000 0.73250  0.03260  0.18040  Biso   1.000  C
  C389     1.0000 0.32210  0.66660  0.03620  Biso   1.000  C
  C390     1.0000 0.97310  0.26720  0.25890  Biso   1.000  C
  C391     1.0000 0.74820  0.05080  0.14830  Biso   1.000  C
  C392     1.0000 0.71510  0.97360  0.29980  Biso   1.000  C
  C393     1.0000 0.82700  0.12740  0.17790  Biso   1.000  C
  C394     1.0000 0.92040  0.23620  0.16580  Biso   1.000  C
  C395     1.0000 0.90960  0.28860  0.16000  Biso   1.000  C
  C396     1.0000 0.94590  0.32880  0.13690  Biso   1.000  C
  C397     1.0000 0.99300  0.31680  0.11960  Biso   1.000  C
  C398     1.0000 0.00380  0.26440  0.12540  Biso   1.000  C
  C399     1.0000 0.96760  0.22420  0.14850  Biso   1.000  C
  C400     1.0000 0.88100  0.18480  0.18890  Biso   1.000  C
  C401     1.0000 0.68120  0.95680  0.22120  Biso   1.000  C
  C402     1.0000 0.59990  0.84740  0.36950  Biso   1.000  C
  C403     1.0000 0.58750  0.89880  0.36330  Biso   1.000  C
  C404     1.0000 0.62480  0.94000  0.34080  Biso   1.000  C
  C405     1.0000 0.67470  0.93020  0.32450  Biso   1.000  C
  C406     1.0000 0.68720  0.87900  0.33070  Biso   1.000  C
  C407     1.0000 0.64970  0.83760  0.35320  Biso   1.000  C
  C408     1.0000 0.62110  0.89660  0.22870  Biso   1.000  C
  C409     1.0000 0.90550  0.20540  0.21820  Biso   1.000  C
  C410     1.0000 0.84530  0.10920  0.34070  Biso   1.000  C
  C411     1.0000 0.80570  0.10940  0.14730  Biso   1.000  C
  C412     1.0000 0.53760  0.84140  0.12353  Biso   1.000  C
  C413     1.0000 0.54160  0.90120  0.12960  Biso   1.000  C
  C414     1.0000 0.59091  0.94382  0.15060  Biso   1.000  C
  C415     1.0000 0.63640  0.92660  0.16544  Biso   1.000  C
  C416     1.0000 0.63240  0.86680  0.15930  Biso   1.000  C
  C417     1.0000 0.58295  0.82410  0.13840  Biso   1.000  C
  C418     1.0000 0.68780  0.97060  0.18950  Biso   1.000  C
  C419     1.0000 0.45290  0.74560  0.41940  Biso   1.000  C
  C420     1.0000 0.48060  0.71240  0.43520  Biso   1.000  C
  C421     1.0000 0.54840  0.72260  0.42990  Biso   1.000  C
  C422     1.0000 0.58860  0.76620  0.40880  Biso   1.000  C
  C423     1.0000 0.56090  0.79960  0.39290  Biso   1.000  C
  C424     1.0000 0.49310  0.78940  0.39820  Biso   1.000  C
  C425     1.0000 0.00550  0.40500  0.08350  Biso   1.000  C
  C426     1.0000 0.03030  0.36500  0.09500  Biso   1.000  C
  C427     1.0000 0.09270  0.36800  0.08470  Biso   1.000  C
  C428     1.0000 0.13040  0.41120  0.06290  Biso   1.000  C
  C429     1.0000 0.10560  0.45120  0.05140  Biso   1.000  C
  C430     1.0000 0.04320  0.44820  0.06170  Biso   1.000  C
  C431     1.0000 0.79190  0.05180  0.34030  Biso   1.000  C
  C432     1.0000 0.25780  0.50480  0.45230  Biso   1.000  C
  N17      1.0000 0.26790  0.07500  0.79050  Biso   1.000  N
  N18      1.0000 0.29390  0.08000  0.69690  Biso   1.000  N
  N19      1.0000 0.29200  0.17120  0.74420  Biso   1.000  N
  N20      1.0000 0.26660  0.98820  0.74340  Biso   1.000  N
  N21      1.0000 0.80710  0.07500  0.29050  Biso   1.000  N
  N22      1.0000 0.78610  0.08000  0.19690  Biso   1.000  N
  N23      1.0000 0.87920  0.17120  0.24420  Biso   1.000  N
  N24      1.0000 0.72160  0.98820  0.24340  Biso   1.000  N
  O39      1.0000 0.18740  0.50600  0.95580  Biso   1.000  O
  O40      1.0000 0.28220  0.65740  0.96030  Biso   1.000  O
  O41      1.0000 0.39770  0.66420  0.53390  Biso   1.000  O
  O42      1.0000 0.29870  0.50780  0.52670  Biso   1.000  O
  O43      1.0000 0.17680  0.63800  0.97400  Biso   1.000  O
  O44      1.0000 0.29110  0.63100  0.51890  Biso   1.000  O
  O45      1.0000 0.40220  0.53780  0.52040  Biso   1.000  O
  O46      1.0000 0.30090  0.54060  0.96770  Biso   1.000  O
  O47      1.0000 0.31860  0.50600  0.45580  Biso   1.000  O
  O48      1.0000 0.37520  0.65740  0.46030  Biso   1.000  O
  O49      1.0000 0.26650  0.66420  0.03390  Biso   1.000  O
  O50      1.0000 0.20910  0.50780  0.02670  Biso   1.000  O
  O51      1.0000 0.46120  0.63800  0.47400  Biso   1.000  O
  O52      1.0000 0.33990  0.63100  0.01890  Biso   1.000  O
  O53      1.0000 0.13560  0.53780  0.02040  Biso   1.000  O
  O54      1.0000 0.23970  0.54060  0.46770  Biso   1.000  O
  In13     1.0000 0.08634  0.08518  0.36953  Biso   1.000  In
  In14     1.0000 0.03990  0.58528  0.61840  Biso   1.000  In
  In15     1.0000 0.99884  0.08518  0.86953  Biso   1.000  In
  In16     1.0000 0.54538  0.58528  0.11840  Biso   1.000  In
  H241     1.0000 0.00380  0.67900  0.51030  Biso   1.000  H
  H242     1.0000 0.01490  0.75140  0.47320  Biso   1.000  H
  H243     1.0000 0.17240  0.89220  0.52320  Biso   1.000  H
  H244     1.0000 0.16120  0.81960  0.56030  Biso   1.000  H
  H245     1.0000 0.05480  0.38060  0.64940  Biso   1.000  H
  H246     1.0000 0.07500  0.38360  0.59340  Biso   1.000  H
  H247     1.0000 0.18450  0.24740  0.45040  Biso   1.000  H
  H248     1.0000 0.18220  0.32340  0.48580  Biso   1.000  H
  H249     1.0000 0.98350  0.27500  0.45920  Biso   1.000  H
  H250     1.0000 0.98590  0.19920  0.42380  Biso   1.000  H
  H251     1.0000 0.04070  0.80140  0.64430  Biso   1.000  H
  H252     1.0000 0.10390  0.54640  0.50620  Biso   1.000  H
  H253     1.0000 0.11770  0.65680  0.50840  Biso   1.000  H
  H254     1.0000 0.91280  0.83880  0.76070  Biso   1.000  H
  H255     1.0000 0.12310  0.92200  0.77140  Biso   1.000  H
  H256     1.0000 0.11850  0.99780  0.80620  Biso   1.000  H
  H257     1.0000 0.90820  0.91460  0.79550  Biso   1.000  H
  H258     1.0000 0.19660  0.91760  0.46650  Biso   1.000  H
  H259     1.0000 0.19680  0.99000  0.43150  Biso   1.000  H
  H260     1.0000 0.98560  0.90660  0.43220  Biso   1.000  H
  H261     1.0000 0.98540  0.83420  0.46730  Biso   1.000  H
  H262     1.0000 0.18130  0.41700  0.49590  Biso   1.000  H
  H263     1.0000 0.17740  0.49240  0.53140  Biso   1.000  H
  H264     1.0000 0.97200  0.37680  0.54380  Biso   1.000  H
  H265     1.0000 0.97600  0.30160  0.50840  Biso   1.000  H
  H266     1.0000 0.92850  0.29380  0.72060  Biso   1.000  H
  H267     1.0000 0.93780  0.36660  0.68400  Biso   1.000  H
  H268     1.0000 0.11870  0.49760  0.72430  Biso   1.000  H
  H269     1.0000 0.10950  0.42480  0.76090  Biso   1.000  H
  H270     1.0000 0.05460  0.80340  0.58850  Biso   1.000  H
  H271     1.0000 0.02550  0.64300  0.73290  Biso   1.000  H
  H272     1.0000 0.90860  0.25000  0.76180  Biso   1.000  H
  H273     1.0000 0.90080  0.17460  0.79670  Biso   1.000  H
  H274     1.0000 0.11070  0.26640  0.80960  Biso   1.000  H
  H275     1.0000 0.11850  0.34180  0.77470  Biso   1.000  H
  H276     1.0000 0.93030  0.73120  0.68230  Biso   1.000  H
  H277     1.0000 0.92580  0.80260  0.71990  Biso   1.000  H
  H278     1.0000 0.11290  0.83120  0.75430  Biso   1.000  H
  H279     1.0000 0.11740  0.75980  0.71670  Biso   1.000  H
  H280     1.0000 0.01740  0.53440  0.73230  Biso   1.000  H
  H281     1.0000 0.67520  0.67900  0.01030  Biso   1.000  H
  H282     1.0000 0.73650  0.75140  0.97320  Biso   1.000  H
  H283     1.0000 0.71980  0.89220  0.02320  Biso   1.000  H
  H284     1.0000 0.65840  0.81960  0.06030  Biso   1.000  H
  H285     1.0000 0.32580  0.38060  0.14940  Biso   1.000  H
  H286     1.0000 0.30860  0.38360  0.09340  Biso   1.000  H
  H287     1.0000 0.06290  0.24740  0.95040  Biso   1.000  H
  H288     1.0000 0.14120  0.32340  0.98580  Biso   1.000  H
  H289     1.0000 0.29150  0.27500  0.95920  Biso   1.000  H
  H290     1.0000 0.21330  0.19920  0.92380  Biso   1.000  H
  H291     1.0000 0.76070  0.80140  0.14430  Biso   1.000  H
  H292     1.0000 0.44250  0.54640  0.00620  Biso   1.000  H
  H293     1.0000 0.53910  0.65680  0.00840  Biso   1.000  H
  H294     1.0000 0.92600  0.83880  0.26070  Biso   1.000  H
  H295     1.0000 0.79890  0.92200  0.27140  Biso   1.000  H
  H296     1.0000 0.87930  0.99780  0.30620  Biso   1.000  H
  H297     1.0000 0.00640  0.91460  0.29550  Biso   1.000  H
  H298     1.0000 0.72100  0.91760  0.96650  Biso   1.000  H
  H299     1.0000 0.79320  0.99000  0.93150  Biso   1.000  H
  H300     1.0000 0.92100  0.90660  0.93220  Biso   1.000  H
  H301     1.0000 0.84880  0.83420  0.96730  Biso   1.000  H
  H302     1.0000 0.23570  0.41700  0.99590  Biso   1.000  H
  H303     1.0000 0.31500  0.49240  0.03140  Biso   1.000  H
  H304     1.0000 0.40480  0.37680  0.04380  Biso   1.000  H
  H305     1.0000 0.32560  0.30160  0.00840  Biso   1.000  H
  H306     1.0000 0.36530  0.29380  0.22060  Biso   1.000  H
  H307     1.0000 0.42880  0.36660  0.18400  Biso   1.000  H
  H308     1.0000 0.37890  0.49760  0.22430  Biso   1.000  H
  H309     1.0000 0.31530  0.42480  0.26090  Biso   1.000  H
  H310     1.0000 0.74880  0.80340  0.08850  Biso   1.000  H
  H311     1.0000 0.61750  0.64300  0.23290  Biso   1.000  H
  H312     1.0000 0.34140  0.25000  0.26180  Biso   1.000  H
  H313     1.0000 0.27380  0.17460  0.29670  Biso   1.000  H
  H314     1.0000 0.15570  0.26640  0.30960  Biso   1.000  H
  H315     1.0000 0.22330  0.34180  0.27470  Biso   1.000  H
  H316     1.0000 0.80090  0.73120  0.18230  Biso   1.000  H
  H317     1.0000 0.87680  0.80260  0.21990  Biso   1.000  H
  H318     1.0000 0.71830  0.83120  0.25430  Biso   1.000  H
  H319     1.0000 0.64240  0.75980  0.21670  Biso   1.000  H
  H320     1.0000 0.51700  0.53440  0.23230  Biso   1.000  H
  C433     1.0000 0.07820  0.54620  0.55430  Biso   1.000  C
  C434     1.0000 0.03070  0.54000  0.68480  Biso   1.000  C
  C435     1.0000 0.08155  0.74250  0.53879  Biso   1.000  C
  C436     1.0000 0.03802  0.72224  0.51290  Biso   1.000  C
  C437     1.0000 0.04470  0.76540  0.49091  Biso   1.000  C
  C438     1.0000 0.09460  0.82860  0.49472  Biso   1.000  C
  C439     1.0000 0.13816  0.84892  0.52060  Biso   1.000  C
  C440     1.0000 0.13150  0.80580  0.54260  Biso   1.000  C
  C441     1.0000 0.07740  0.63960  0.55310  Biso   1.000  C
  C442     1.0000 0.01480  0.00940  0.82790  Biso   1.000  C
  C443     1.0000 0.07550  0.69760  0.56310  Biso   1.000  C
  C444     1.0000 0.05810  0.46620  0.59490  Biso   1.000  C
  C445     1.0000 0.05640  0.41220  0.63620  Biso   1.000  C
  C446     1.0000 0.06540  0.41280  0.60550  Biso   1.000  C
  C447     1.0000 0.05980  0.71520  0.59290  Biso   1.000  C
  C448     1.0000 0.04960  0.46820  0.64510  Biso   1.000  C
  C449     1.0000 0.14370  0.25300  0.45220  Biso   1.000  C
  C450     1.0000 0.14240  0.29820  0.47320  Biso   1.000  C
  C451     1.0000 0.08270  0.30640  0.47587  Biso   1.000  C
  C452     1.0000 0.02430  0.26940  0.45740  Biso   1.000  C
  C453     1.0000 0.02570  0.22440  0.43637  Biso   1.000  C
  C454     1.0000 0.08537  0.21614  0.43373  Biso   1.000  C
  C455     1.0000 0.04520  0.76960  0.63180  Biso   1.000  C
  C456     1.0000 0.06780  0.48760  0.56470  Biso   1.000  C
  C457     1.0000 0.04440  0.71240  0.64290  Biso   1.000  C
  C458     1.0000 0.09670  0.56860  0.52330  Biso   1.000  C
  C459     1.0000 0.10120  0.62780  0.52440  Biso   1.000  C
  C460     1.0000 0.95450  0.87100  0.76990  Biso   1.000  C
  C461     1.0000 0.01840  0.87320  0.76280  Biso   1.000  C
  C462     1.0000 0.07950  0.92060  0.77630  Biso   1.000  C
  C463     1.0000 0.07680  0.96560  0.79690  Biso   1.000  C
  C464     1.0000 0.01290  0.96340  0.80410  Biso   1.000  C
  C465     1.0000 0.95180  0.91620  0.79060  Biso   1.000  C
  C466     1.0000 0.09090  0.86900  0.47019  Biso   1.000  C
  C467     1.0000 0.15380  0.91540  0.45960  Biso   1.000  C
  C468     1.0000 0.15386  0.95832  0.43870  Biso   1.000  C
  C469     1.0000 0.09120  0.95500  0.42856  Biso   1.000  C
  C470     1.0000 0.02840  0.90880  0.43920  Biso   1.000  C
  C471     1.0000 0.02830  0.86580  0.46000  Biso   1.000  C
  C472     1.0000 0.03690  0.63700  0.68470  Biso   1.000  C
  C473     1.0000 0.03180  0.48320  0.67620  Biso   1.000  C
  C474     1.0000 0.07902  0.35224  0.49884  Biso   1.000  C
  C475     1.0000 0.13890  0.40900  0.50566  Biso   1.000  C
  C476     1.0000 0.13650  0.45360  0.52671  Biso   1.000  C
  C477     1.0000 0.07431  0.44162  0.54093  Biso   1.000  C
  C478     1.0000 0.01450  0.38500  0.53411  Biso   1.000  C
  C479     1.0000 0.01683  0.34026  0.51310  Biso   1.000  C
  C480     1.0000 0.96705  0.33510  0.72130  Biso   1.000  C
  C481     1.0000 0.97260  0.37840  0.69958  Biso   1.000  C
  C482     1.0000 0.02910  0.43900  0.70067  Biso   1.000  C
  C483     1.0000 0.08010  0.45620  0.72350  Biso   1.000  C
  C484     1.0000 0.07460  0.41300  0.74528  Biso   1.000  C
  C485     1.0000 0.01810  0.35240  0.74420  Biso   1.000  C
  C486     1.0000 0.05330  0.77160  0.60150  Biso   1.000  C
  C487     1.0000 0.03170  0.69200  0.67440  Biso   1.000  C
  C488     1.0000 0.02810  0.61880  0.71550  Biso   1.000  C
  C489     1.0000 0.01430  0.30300  0.76493  Biso   1.000  C
  C490     1.0000 0.94970  0.25340  0.77150  Biso   1.000  C
  C491     1.0000 0.94500  0.20860  0.79220  Biso   1.000  C
  C492     1.0000 0.00500  0.21340  0.80641  Biso   1.000  C
  C493     1.0000 0.06970  0.26320  0.79990  Biso   1.000  C
  C494     1.0000 0.07430  0.30780  0.77910  Biso   1.000  C
  C495     1.0000 0.02430  0.73880  0.69600  Biso   1.000  C
  C496     1.0000 0.96740  0.75140  0.69690  Biso   1.000  C
  C497     1.0000 0.96470  0.79380  0.71920  Biso   1.000  C
  C498     1.0000 0.01890  0.82360  0.74062  Biso   1.000  C
  C499     1.0000 0.07580  0.81080  0.73970  Biso   1.000  C
  C500     1.0000 0.07850  0.76840  0.71740  Biso   1.000  C
  C501     1.0000 0.02390  0.55920  0.71490  Biso   1.000  C
  C502     1.0000 0.00060  0.16600  0.83070  Biso   1.000  C
  C503     1.0000 0.08660  0.16700  0.41280  Biso   1.000  C
  C504     1.0000 0.08470  0.99980  0.40570  Biso   1.000  C
  C505     1.0000 0.46800  0.54620  0.05430  Biso   1.000  C
  C506     1.0000 0.50930  0.54000  0.18480  Biso   1.000  C
  C507     1.0000 0.66095  0.74250  0.03879  Biso   1.000  C
  C508     1.0000 0.68422  0.72224  0.01290  Biso   1.000  C
  C509     1.0000 0.72070  0.76540  0.99091  Biso   1.000  C
  C510     1.0000 0.73400  0.82860  0.99472  Biso   1.000  C
  C511     1.0000 0.71076  0.84892  0.02060  Biso   1.000  C
  C512     1.0000 0.67430  0.80580  0.04260  Biso   1.000  C
  C513     1.0000 0.56220  0.63960  0.05310  Biso   1.000  C
  C514     1.0000 0.99460  0.00940  0.32790  Biso   1.000  C
  C515     1.0000 0.62210  0.69760  0.06310  Biso   1.000  C
  C516     1.0000 0.40810  0.46620  0.09490  Biso   1.000  C
  C517     1.0000 0.35580  0.41220  0.13620  Biso   1.000  C
  C518     1.0000 0.34740  0.41280  0.10550  Biso   1.000  C
  C519     1.0000 0.65540  0.71520  0.09290  Biso   1.000  C
  C520     1.0000 0.41860  0.46820  0.14510  Biso   1.000  C
  C521     1.0000 0.10930  0.25300  0.95220  Biso   1.000  C
  C522     1.0000 0.15580  0.29820  0.97320  Biso   1.000  C
  C523     1.0000 0.22370  0.30640  0.97587  Biso   1.000  C
  C524     1.0000 0.24510  0.26940  0.95740  Biso   1.000  C
  C525     1.0000 0.19870  0.22440  0.93637  Biso   1.000  C
  C526     1.0000 0.13077  0.21614  0.93373  Biso   1.000  C
  C527     1.0000 0.72440  0.76960  0.13180  Biso   1.000  C
  C528     1.0000 0.41980  0.48760  0.06470  Biso   1.000  C
  C529     1.0000 0.66800  0.71240  0.14290  Biso   1.000  C
  C530     1.0000 0.47190  0.56860  0.02330  Biso   1.000  C
  C531     1.0000 0.52660  0.62780  0.02440  Biso   1.000  C
  C532     1.0000 0.91650  0.87100  0.26990  Biso   1.000  C
  C533     1.0000 0.85480  0.87320  0.26280  Biso   1.000  C
  C534     1.0000 0.84110  0.92060  0.27630  Biso   1.000  C
  C535     1.0000 0.88880  0.96560  0.29690  Biso   1.000  C
  C536     1.0000 0.95050  0.96340  0.30410  Biso   1.000  C
  C537     1.0000 0.96440  0.91620  0.29060  Biso   1.000  C
  C538     1.0000 0.77810  0.86900  0.97019  Biso   1.000  C
  C539     1.0000 0.76160  0.91540  0.95960  Biso   1.000  C
  C540     1.0000 0.80446  0.95832  0.93870  Biso   1.000  C
  C541     1.0000 0.86380  0.95500  0.92856  Biso   1.000  C
  C542     1.0000 0.88040  0.90880  0.93920  Biso   1.000  C
  C543     1.0000 0.83750  0.86580  0.96000  Biso   1.000  C
  C544     1.0000 0.60010  0.63700  0.18470  Biso   1.000  C
  C545     1.0000 0.45140  0.48320  0.17620  Biso   1.000  C
  C546     1.0000 0.27322  0.35224  0.99884  Biso   1.000  C
  C547     1.0000 0.27010  0.40900  0.00566  Biso   1.000  C
  C548     1.0000 0.31710  0.45360  0.02671  Biso   1.000  C
  C549     1.0000 0.36731  0.44162  0.04093  Biso   1.000  C
  C550     1.0000 0.37050  0.38500  0.03411  Biso   1.000  C
  C551     1.0000 0.32343  0.34026  0.01310  Biso   1.000  C
  C552     1.0000 0.36805  0.33510  0.22130  Biso   1.000  C
  C553     1.0000 0.40580  0.37840  0.19958  Biso   1.000  C
  C554     1.0000 0.40990  0.43900  0.20067  Biso   1.000  C
  C555     1.0000 0.37610  0.45620  0.22350  Biso   1.000  C
  C556     1.0000 0.33840  0.41300  0.24528  Biso   1.000  C
  C557     1.0000 0.33430  0.35240  0.24420  Biso   1.000  C
  C558     1.0000 0.71830  0.77160  0.10150  Biso   1.000  C
  C559     1.0000 0.66030  0.69200  0.17440  Biso   1.000  C
  C560     1.0000 0.59070  0.61880  0.21550  Biso   1.000  C
  C561     1.0000 0.28870  0.30300  0.26493  Biso   1.000  C
  C562     1.0000 0.30370  0.25340  0.27150  Biso   1.000  C
  C563     1.0000 0.26360  0.20860  0.29220  Biso   1.000  C
  C564     1.0000 0.20840  0.21340  0.30641  Biso   1.000  C
  C565     1.0000 0.19350  0.26320  0.29990  Biso   1.000  C
  C566     1.0000 0.23350  0.30780  0.27910  Biso   1.000  C
  C567     1.0000 0.71450  0.73880  0.19600  Biso   1.000  C
  C568     1.0000 0.78400  0.75140  0.19690  Biso   1.000  C
  C569     1.0000 0.82910  0.79380  0.21920  Biso   1.000  C
  C570     1.0000 0.80470  0.82360  0.24062  Biso   1.000  C
  C571     1.0000 0.73500  0.81080  0.23970  Biso   1.000  C
  C572     1.0000 0.68990  0.76840  0.21740  Biso   1.000  C
  C573     1.0000 0.53530  0.55920  0.21490  Biso   1.000  C
  C574     1.0000 0.16540  0.16600  0.33070  Biso   1.000  C
  C575     1.0000 0.08040  0.16700  0.91280  Biso   1.000  C
  C576     1.0000 0.91510  0.99980  0.90570  Biso   1.000  C
  N25      1.0000 0.05500  0.67800  0.61730  Biso   1.000  N
  N26      1.0000 0.06850  0.58900  0.57090  Biso   1.000  N
  N27      1.0000 0.05080  0.50360  0.61940  Biso   1.000  N
  N28      1.0000 0.04030  0.58920  0.66600  Biso   1.000  N
  N29      1.0000 0.62300  0.67800  0.11730  Biso   1.000  N
  N30      1.0000 0.52050  0.58900  0.07090  Biso   1.000  N
  N31      1.0000 0.45280  0.50360  0.11940  Biso   1.000  N
  N32      1.0000 0.54890  0.58920  0.16600  Biso   1.000  N
  O55      1.0000 0.14150  0.16380  0.40870  Biso   1.000  O
  O56      1.0000 0.03280  0.00480  0.40210  Biso   1.000  O
  O57      1.0000 0.05180  0.16280  0.83770  Biso   1.000  O
  O58      1.0000 0.06570  0.04340  0.84310  Biso   1.000  O
  O59      1.0000 0.03510  0.13240  0.39620  Biso   1.000  O
  O60      1.0000 0.14140  0.03540  0.39240  Biso   1.000  O
  O61      1.0000 0.95740  0.01140  0.83110  Biso   1.000  O
  O62      1.0000 0.93640  0.13160  0.84100  Biso   1.000  O
  O63      1.0000 0.02230  0.16380  0.90870  Biso   1.000  O
  O64      1.0000 0.97200  0.00480  0.90210  Biso   1.000  O
  O65      1.0000 0.11100  0.16280  0.33770  Biso   1.000  O
  O66      1.0000 0.97770  0.04340  0.34310  Biso   1.000  O
  O67      1.0000 0.09730  0.13240  0.89620  Biso   1.000  O
  O68      1.0000 0.89400  0.03540  0.89240  Biso   1.000  O
  O69      1.0000 0.05400  0.01140  0.33110  Biso   1.000  O
  O70      1.0000 0.19520  0.13160  0.34100  Biso   1.000  O
