data_ZILFOR
_audit_creation_date              2015-02-24
_audit_creation_method            'Materials Studio'
_symmetry_space_group_name_H-M    'P1'
_symmetry_Int_Tables_number       1
_symmetry_cell_setting            triclinic
loop_
_symmetry_equiv_pos_as_xyz
  x,y,z
_cell_length_a                    26.0700
_cell_length_b                    26.0700
_cell_length_c                    18.6010
_cell_angle_alpha                 90.0000
_cell_angle_beta                  90.0000
_cell_angle_gamma                 90.0000
loop_
_atom_site_label
_atom_site_type_symbol
_atom_site_fract_x
_atom_site_fract_y
_atom_site_fract_z
_atom_site_U_iso_or_equiv
_atom_site_adp_type
_atom_site_occupancy
C1     C     0.36590   0.74580   0.57260   0.00000  Uiso   1.00
C2     C     0.69330   0.73760   0.44150   0.00000  Uiso   1.00
C3     C     0.66900   0.74550   0.51090   0.00000  Uiso   1.00
C4     C     0.69360   0.75500   0.57090   0.00000  Uiso   1.00
H5     H     0.72920   0.75420   0.57100   0.00000  Uiso   1.00
C6     C     0.66700   0.76640   0.63590   0.00000  Uiso   1.00
C7     C     0.61470   0.76320   0.63440   0.00000  Uiso   1.00
H8     H     0.59650   0.76860   0.67670   0.00000  Uiso   1.00
C9     C     0.58770   0.75200   0.57160   0.00000  Uiso   1.00
C10    C     0.61560   0.74310   0.50820   0.00000  Uiso   1.00
H11    H     0.59880   0.73590   0.46530   0.00000  Uiso   1.00
C12    C     0.69900   0.77230   0.70380   0.00000  Uiso   1.00
C13    C     0.53030   0.74930   0.57220   0.00000  Uiso   1.00
C14    C     0.50300   0.78480   0.61390   0.00000  Uiso   1.00
H15    H     0.52030   0.81030   0.63920   0.00000  Uiso   1.00
C16    C     0.45040   0.78150   0.61670   0.00000  Uiso   1.00
H17    H     0.43280   0.80260   0.64850   0.00000  Uiso   1.00
C18    C     0.42190   0.74680   0.57260   0.00000  Uiso   1.00
C19    C     0.45060   0.71460   0.53230   0.00000  Uiso   1.00
H20    H     0.43420   0.68990   0.50440   0.00000  Uiso   1.00
C21    C     0.50250   0.71710   0.53140   0.00000  Uiso   1.00
H22    H     0.52000   0.69510   0.50060   0.00000  Uiso   1.00
C23    C     0.74300   0.82430   0.31620   0.00000  Uiso   1.00
C24    C     0.73850   0.88160   0.28280   0.00000  Uiso   1.00
C25    C     0.78240   0.91160   0.28910   0.00000  Uiso   1.00
H26    H     0.81240   0.89730   0.30710   0.00000  Uiso   1.00
C27    C     0.78130   0.96280   0.26840   0.00000  Uiso   1.00
H28    H     0.81060   0.98280   0.27270   0.00000  Uiso   1.00
C29    C     0.73630   0.98410   0.24150   0.00000  Uiso   1.00
C30    C     0.69250   0.95410   0.23520   0.00000  Uiso   1.00
H31    H     0.66240   0.96840   0.21720   0.00000  Uiso   1.00
C32    C     0.69350   0.90290   0.25580   0.00000  Uiso   1.00
H33    H     0.66420   0.88280   0.25160   0.00000  Uiso   1.00
C34    C     0.73830   0.20600   0.95240   0.00000  Uiso   1.00
C35    C     0.74460   0.18000   0.88430   0.00000  Uiso   1.00
C36    C     0.74370   0.12710   0.88320   0.00000  Uiso   1.00
H37    H     0.73770   0.10950   0.92600   0.00000  Uiso   1.00
C38    C     0.74710   0.87920   0.82010   0.00000  Uiso   1.00
C39    C     0.74710   0.93360   0.81940   0.00000  Uiso   1.00
C40    C     0.78520   0.95890   0.77820   0.00000  Uiso   1.00
H41    H     0.81020   0.94060   0.75320   0.00000  Uiso   1.00
C42    C     0.78370   0.01430   0.77670   0.00000  Uiso   1.00
H43    H     0.80570   0.03190   0.74610   0.00000  Uiso   1.00
C44    C     0.74980   0.04180   0.81990   0.00000  Uiso   1.00
C45    C     0.71670   0.01440   0.86330   0.00000  Uiso   1.00
H46    H     0.69520   0.03180   0.89490   0.00000  Uiso   1.00
C47    C     0.71540   0.96210   0.86050   0.00000  Uiso   1.00
H48    H     0.69110   0.94520   0.88840   0.00000  Uiso   1.00
C49    C     0.77450   0.20670   0.69050   0.00000  Uiso   1.00
C50    C     0.76630   0.17830   0.75700   0.00000  Uiso   1.00
C51    C     0.76260   0.12560   0.75970   0.00000  Uiso   1.00
H52    H     0.76800   0.10710   0.71750   0.00000  Uiso   1.00
C53    C     0.75140   0.09900   0.82070   0.00000  Uiso   1.00
C54    C     0.75640   0.20440   0.82120   0.00000  Uiso   1.00
H55    H     0.75790   0.24000   0.82110   0.00000  Uiso   1.00
C56    C     0.72540   0.68840   0.84370   0.00000  Uiso   1.00
C57    C     0.73390   0.62900   0.85140   0.00000  Uiso   1.00
C58    C     0.77810   0.59950   0.84530   0.00000  Uiso   1.00
H59    H     0.80700   0.61300   0.82290   0.00000  Uiso   1.00
C60    C     0.77910   0.54990   0.87260   0.00000  Uiso   1.00
H61    H     0.80870   0.53020   0.86850   0.00000  Uiso   1.00
C62    C     0.73590   0.52980   0.90610   0.00000  Uiso   1.00
C63    C     0.69170   0.55930   0.91220   0.00000  Uiso   1.00
H64    H     0.66270   0.54590   0.93460   0.00000  Uiso   1.00
C65    C     0.69070   0.60890   0.88480   0.00000  Uiso   1.00
H66    H     0.66110   0.62870   0.88890   0.00000  Uiso   1.00
N67    N     0.73460   0.13800   0.15580   0.00000  Uiso   1.00
C68    C     0.69070   0.11600   0.18500   0.00000  Uiso   1.00
H69    H     0.66000   0.13420   0.18520   0.00000  Uiso   1.00
C70    C     0.69270   0.06690   0.21380   0.00000  Uiso   1.00
H71    H     0.66330   0.05220   0.23340   0.00000  Uiso   1.00
C72    C     0.73850   0.03970   0.21340   0.00000  Uiso   1.00
C73    C     0.78240   0.06160   0.18420   0.00000  Uiso   1.00
H74    H     0.81310   0.04340   0.18400   0.00000  Uiso   1.00
C75    C     0.78050   0.11080   0.15540   0.00000  Uiso   1.00
H76    H     0.80980   0.12550   0.13580   0.00000  Uiso   1.00
N77    N     0.72810   0.37347   0.98350   0.00000  Uiso   1.00
C78    C     0.68369   0.40259   0.97700   0.00000  Uiso   1.00
H79    H     0.65250   0.38950   0.99300   0.00000  Uiso   1.00
C80    C     0.68584   0.45125   0.94660   0.00000  Uiso   1.00
H81    H     0.65610   0.47070   0.94230   0.00000  Uiso   1.00
C82    C     0.73240   0.47080   0.92270   0.00000  Uiso   1.00
C83    C     0.77680   0.44170   0.92910   0.00000  Uiso   1.00
H84    H     0.80800   0.45480   0.91310   0.00000  Uiso   1.00
C85    C     0.77469   0.39300   0.95950   0.00000  Uiso   1.00
H86    H     0.80440   0.37350   0.96390   0.00000  Uiso   1.00
O87    O     0.74339   0.77200   0.70370   0.00000  Uiso   1.00
O88    O     0.73651   0.25490   0.95010   0.00000  Uiso   1.00
O89    O     0.67224   0.78292   0.75840   0.00000  Uiso   1.00
O90    O     0.72714   0.18163   0.00770   0.00000  Uiso   1.00
O91    O     0.78374   0.18346   0.63540   0.00000  Uiso   1.00
O92    O     0.77510   0.25834   0.69260   0.00000  Uiso   1.00
O93    O     0.77840   0.85447   0.78210   0.00000  Uiso   1.00
O94    O     0.71450   0.85373   0.85570   0.00000  Uiso   1.00
O95    O     0.74217   0.73897   0.44260   0.00000  Uiso   1.00
O96    O     0.67031   0.72729   0.38520   0.00000  Uiso   1.00
O97    O     0.78240   0.70330   0.80290   0.00000  Uiso   1.00
O98    O     0.69530   0.70830   0.84940   0.00000  Uiso   1.00
O99    O     0.34371   0.70946   0.53630   0.00000  Uiso   1.00
O100   O     0.34104   0.78199   0.60940   0.00000  Uiso   1.00
O101   O     0.78230   0.80630   0.33440   0.00000  Uiso   1.00
O102   O     0.70270   0.80800   0.29260   0.00000  Uiso   1.00
Cu103  Cu    0.78757   0.77874   0.78728   0.00000  Uiso   1.00
Cu104  Cu    0.70006   0.73122   0.28638   0.00000  Uiso   1.00
Cu105  Cu    0.69908   0.78108   0.85659   0.00000  Uiso   1.00
Cu106  Cu    0.78795   0.73241   0.35610   0.00000  Uiso   1.00
C107   C     0.63410   0.25420   0.07260   0.00000  Uiso   1.00
C108   C     0.30670   0.26240   0.94150   0.00000  Uiso   1.00
C109   C     0.33100   0.25450   0.01090   0.00000  Uiso   1.00
C110   C     0.30640   0.24500   0.07090   0.00000  Uiso   1.00
H111   H     0.27080   0.24580   0.07100   0.00000  Uiso   1.00
C112   C     0.33300   0.23360   0.13590   0.00000  Uiso   1.00
C113   C     0.38530   0.23680   0.13440   0.00000  Uiso   1.00
H114   H     0.40350   0.23140   0.17670   0.00000  Uiso   1.00
C115   C     0.41230   0.24800   0.07160   0.00000  Uiso   1.00
C116   C     0.38440   0.25690   0.00820   0.00000  Uiso   1.00
H117   H     0.40120   0.26410   0.96530   0.00000  Uiso   1.00
C118   C     0.30100   0.22770   0.20380   0.00000  Uiso   1.00
C119   C     0.46970   0.25070   0.07220   0.00000  Uiso   1.00
C120   C     0.49700   0.21520   0.11390   0.00000  Uiso   1.00
H121   H     0.47970   0.18970   0.13920   0.00000  Uiso   1.00
C122   C     0.54960   0.21850   0.11670   0.00000  Uiso   1.00
H123   H     0.56720   0.19740   0.14850   0.00000  Uiso   1.00
C124   C     0.57810   0.25320   0.07260   0.00000  Uiso   1.00
C125   C     0.54940   0.28540   0.03230   0.00000  Uiso   1.00
H126   H     0.56580   0.31010   0.00440   0.00000  Uiso   1.00
C127   C     0.49750   0.28290   0.03140   0.00000  Uiso   1.00
H128   H     0.48000   0.30490   0.00060   0.00000  Uiso   1.00
C129   C     0.25700   0.17570   0.81620   0.00000  Uiso   1.00
C130   C     0.26150   0.11840   0.78280   0.00000  Uiso   1.00
C131   C     0.21760   0.08840   0.78910   0.00000  Uiso   1.00
H132   H     0.18760   0.10270   0.80710   0.00000  Uiso   1.00
C133   C     0.21870   0.03720   0.76840   0.00000  Uiso   1.00
H134   H     0.18940   0.01720   0.77270   0.00000  Uiso   1.00
C135   C     0.26370   0.01590   0.74150   0.00000  Uiso   1.00
C136   C     0.30750   0.04590   0.73520   0.00000  Uiso   1.00
H137   H     0.33760   0.03160   0.71720   0.00000  Uiso   1.00
C138   C     0.30650   0.09710   0.75580   0.00000  Uiso   1.00
H139   H     0.33580   0.11720   0.75160   0.00000  Uiso   1.00
C140   C     0.26170   0.79400   0.45240   0.00000  Uiso   1.00
C141   C     0.25540   0.82000   0.38430   0.00000  Uiso   1.00
C142   C     0.25630   0.87290   0.38320   0.00000  Uiso   1.00
H143   H     0.26230   0.89050   0.42600   0.00000  Uiso   1.00
C144   C     0.25290   0.12080   0.32010   0.00000  Uiso   1.00
C145   C     0.25290   0.06640   0.31940   0.00000  Uiso   1.00
C146   C     0.21480   0.04110   0.27820   0.00000  Uiso   1.00
H147   H     0.18980   0.05940   0.25320   0.00000  Uiso   1.00
C148   C     0.21630   0.98570   0.27670   0.00000  Uiso   1.00
H149   H     0.19430   0.96810   0.24610   0.00000  Uiso   1.00
C150   C     0.25020   0.95820   0.31990   0.00000  Uiso   1.00
C151   C     0.28330   0.98560   0.36330   0.00000  Uiso   1.00
H152   H     0.30480   0.96820   0.39490   0.00000  Uiso   1.00
C153   C     0.28460   0.03790   0.36050   0.00000  Uiso   1.00
H154   H     0.30890   0.05480   0.38840   0.00000  Uiso   1.00
C155   C     0.22550   0.79330   0.19050   0.00000  Uiso   1.00
C156   C     0.23370   0.82170   0.25700   0.00000  Uiso   1.00
C157   C     0.23740   0.87440   0.25970   0.00000  Uiso   1.00
H158   H     0.23200   0.89290   0.21750   0.00000  Uiso   1.00
C159   C     0.24860   0.90100   0.32070   0.00000  Uiso   1.00
C160   C     0.24360   0.79560   0.32120   0.00000  Uiso   1.00
H161   H     0.24210   0.76000   0.32110   0.00000  Uiso   1.00
C162   C     0.27460   0.31160   0.34370   0.00000  Uiso   1.00
C163   C     0.26610   0.37100   0.35140   0.00000  Uiso   1.00
C164   C     0.22190   0.40050   0.34530   0.00000  Uiso   1.00
H165   H     0.19300   0.38700   0.32290   0.00000  Uiso   1.00
C166   C     0.22090   0.45010   0.37260   0.00000  Uiso   1.00
H167   H     0.19130   0.46980   0.36850   0.00000  Uiso   1.00
C168   C     0.26410   0.47020   0.40610   0.00000  Uiso   1.00
C169   C     0.30830   0.44070   0.41220   0.00000  Uiso   1.00
H170   H     0.33730   0.45410   0.43460   0.00000  Uiso   1.00
C171   C     0.30930   0.39110   0.38480   0.00000  Uiso   1.00
H172   H     0.33890   0.37130   0.38890   0.00000  Uiso   1.00
N173   N     0.26540   0.86200   0.65580   0.00000  Uiso   1.00
C174   C     0.30930   0.88400   0.68500   0.00000  Uiso   1.00
H175   H     0.34000   0.86580   0.68520   0.00000  Uiso   1.00
C176   C     0.30730   0.93310   0.71380   0.00000  Uiso   1.00
H177   H     0.33670   0.94780   0.73340   0.00000  Uiso   1.00
C178   C     0.26150   0.96030   0.71340   0.00000  Uiso   1.00
C179   C     0.21760   0.93840   0.68420   0.00000  Uiso   1.00
H180   H     0.18690   0.95660   0.68400   0.00000  Uiso   1.00
C181   C     0.21950   0.88920   0.65540   0.00000  Uiso   1.00
H182   H     0.19020   0.87450   0.63580   0.00000  Uiso   1.00
N183   N     0.27190   0.62653   0.48350   0.00000  Uiso   1.00
C184   C     0.31631   0.59741   0.47700   0.00000  Uiso   1.00
H185   H     0.34750   0.61050   0.49300   0.00000  Uiso   1.00
C186   C     0.31416   0.54875   0.44660   0.00000  Uiso   1.00
H187   H     0.34390   0.52930   0.44230   0.00000  Uiso   1.00
C188   C     0.26760   0.52920   0.42270   0.00000  Uiso   1.00
C189   C     0.22320   0.55830   0.42910   0.00000  Uiso   1.00
H190   H     0.19200   0.54520   0.41310   0.00000  Uiso   1.00
C191   C     0.22531   0.60700   0.45950   0.00000  Uiso   1.00
H192   H     0.19560   0.62650   0.46390   0.00000  Uiso   1.00
O193   O     0.25661   0.22800   0.20370   0.00000  Uiso   1.00
O194   O     0.26349   0.74510   0.45010   0.00000  Uiso   1.00
O195   O     0.32776   0.21708   0.25840   0.00000  Uiso   1.00
O196   O     0.27286   0.81837   0.50770   0.00000  Uiso   1.00
O197   O     0.21626   0.81654   0.13540   0.00000  Uiso   1.00
O198   O     0.22490   0.74166   0.19260   0.00000  Uiso   1.00
O199   O     0.22160   0.14553   0.28210   0.00000  Uiso   1.00
O200   O     0.28550   0.14627   0.35570   0.00000  Uiso   1.00
O201   O     0.25783   0.26103   0.94260   0.00000  Uiso   1.00
O202   O     0.32969   0.27271   0.88520   0.00000  Uiso   1.00
O203   O     0.21760   0.29670   0.30290   0.00000  Uiso   1.00
O204   O     0.30470   0.29170   0.34940   0.00000  Uiso   1.00
O205   O     0.65629   0.29054   0.03630   0.00000  Uiso   1.00
O206   O     0.65896   0.21801   0.10940   0.00000  Uiso   1.00
O207   O     0.21770   0.19370   0.83440   0.00000  Uiso   1.00
O208   O     0.29730   0.19200   0.79260   0.00000  Uiso   1.00
Cu209  Cu    0.21243   0.22126   0.28728   0.00000  Uiso   1.00
Cu210  Cu    0.29994   0.26878   0.78638   0.00000  Uiso   1.00
Cu211  Cu    0.30092   0.21892   0.35659   0.00000  Uiso   1.00
Cu212  Cu    0.21205   0.26759   0.85610   0.00000  Uiso   1.00
C213   C     0.25420   0.36590   0.82260   0.00000  Uiso   1.00
C214   C     0.26240   0.69330   0.69150   0.00000  Uiso   1.00
C215   C     0.25450   0.66900   0.76090   0.00000  Uiso   1.00
C216   C     0.24500   0.69360   0.82090   0.00000  Uiso   1.00
H217   H     0.24580   0.72920   0.82100   0.00000  Uiso   1.00
C218   C     0.23360   0.66700   0.88590   0.00000  Uiso   1.00
C219   C     0.23680   0.61470   0.88440   0.00000  Uiso   1.00
H220   H     0.23140   0.59650   0.92670   0.00000  Uiso   1.00
C221   C     0.24800   0.58770   0.82160   0.00000  Uiso   1.00
C222   C     0.25690   0.61560   0.75820   0.00000  Uiso   1.00
H223   H     0.26410   0.59880   0.71530   0.00000  Uiso   1.00
C224   C     0.22770   0.69900   0.95380   0.00000  Uiso   1.00
C225   C     0.25070   0.53030   0.82220   0.00000  Uiso   1.00
C226   C     0.21520   0.50300   0.86390   0.00000  Uiso   1.00
H227   H     0.18970   0.52030   0.88920   0.00000  Uiso   1.00
C228   C     0.21850   0.45040   0.86670   0.00000  Uiso   1.00
H229   H     0.19740   0.43280   0.89850   0.00000  Uiso   1.00
C230   C     0.25320   0.42190   0.82260   0.00000  Uiso   1.00
C231   C     0.28540   0.45060   0.78230   0.00000  Uiso   1.00
H232   H     0.31010   0.43420   0.75440   0.00000  Uiso   1.00
C233   C     0.28290   0.50250   0.78140   0.00000  Uiso   1.00
H234   H     0.30490   0.52000   0.75060   0.00000  Uiso   1.00
C235   C     0.17570   0.74300   0.56620   0.00000  Uiso   1.00
C236   C     0.11840   0.73850   0.53280   0.00000  Uiso   1.00
C237   C     0.08840   0.78240   0.53910   0.00000  Uiso   1.00
H238   H     0.10270   0.81240   0.55710   0.00000  Uiso   1.00
C239   C     0.03720   0.78130   0.51840   0.00000  Uiso   1.00
H240   H     0.01720   0.81060   0.52270   0.00000  Uiso   1.00
C241   C     0.01590   0.73630   0.49150   0.00000  Uiso   1.00
C242   C     0.04590   0.69250   0.48520   0.00000  Uiso   1.00
H243   H     0.03160   0.66240   0.46720   0.00000  Uiso   1.00
C244   C     0.09710   0.69350   0.50580   0.00000  Uiso   1.00
H245   H     0.11720   0.66420   0.50160   0.00000  Uiso   1.00
C246   C     0.79400   0.73830   0.20240   0.00000  Uiso   1.00
C247   C     0.82000   0.74460   0.13430   0.00000  Uiso   1.00
C248   C     0.87290   0.74370   0.13320   0.00000  Uiso   1.00
H249   H     0.89050   0.73770   0.17600   0.00000  Uiso   1.00
C250   C     0.12080   0.74710   0.07010   0.00000  Uiso   1.00
C251   C     0.06640   0.74710   0.06940   0.00000  Uiso   1.00
C252   C     0.04110   0.78520   0.02820   0.00000  Uiso   1.00
H253   H     0.05940   0.81020   0.00320   0.00000  Uiso   1.00
C254   C     0.98570   0.78370   0.02670   0.00000  Uiso   1.00
H255   H     0.96810   0.80570   0.99610   0.00000  Uiso   1.00
C256   C     0.95820   0.74980   0.06990   0.00000  Uiso   1.00
C257   C     0.98560   0.71670   0.11330   0.00000  Uiso   1.00
H258   H     0.96820   0.69520   0.14490   0.00000  Uiso   1.00
C259   C     0.03790   0.71540   0.11050   0.00000  Uiso   1.00
H260   H     0.05480   0.69110   0.13840   0.00000  Uiso   1.00
C261   C     0.79330   0.77450   0.94050   0.00000  Uiso   1.00
C262   C     0.82170   0.76630   0.00700   0.00000  Uiso   1.00
C263   C     0.87440   0.76260   0.00970   0.00000  Uiso   1.00
H264   H     0.89290   0.76800   0.96750   0.00000  Uiso   1.00
C265   C     0.90100   0.75140   0.07070   0.00000  Uiso   1.00
C266   C     0.79560   0.75640   0.07120   0.00000  Uiso   1.00
H267   H     0.76000   0.75790   0.07110   0.00000  Uiso   1.00
C268   C     0.31160   0.72540   0.09370   0.00000  Uiso   1.00
C269   C     0.37100   0.73390   0.10140   0.00000  Uiso   1.00
C270   C     0.40050   0.77810   0.09530   0.00000  Uiso   1.00
H271   H     0.38700   0.80700   0.07290   0.00000  Uiso   1.00
C272   C     0.45010   0.77910   0.12260   0.00000  Uiso   1.00
H273   H     0.46980   0.80870   0.11850   0.00000  Uiso   1.00
C274   C     0.47020   0.73590   0.15610   0.00000  Uiso   1.00
C275   C     0.44070   0.69170   0.16220   0.00000  Uiso   1.00
H276   H     0.45410   0.66270   0.18460   0.00000  Uiso   1.00
C277   C     0.39110   0.69070   0.13480   0.00000  Uiso   1.00
H278   H     0.37130   0.66110   0.13890   0.00000  Uiso   1.00
N279   N     0.86200   0.73460   0.40580   0.00000  Uiso   1.00
C280   C     0.88400   0.69070   0.43500   0.00000  Uiso   1.00
H281   H     0.86580   0.66000   0.43520   0.00000  Uiso   1.00
C282   C     0.93310   0.69270   0.46380   0.00000  Uiso   1.00
H283   H     0.94780   0.66330   0.48340   0.00000  Uiso   1.00
C284   C     0.96030   0.73850   0.46340   0.00000  Uiso   1.00
C285   C     0.93840   0.78240   0.43420   0.00000  Uiso   1.00
H286   H     0.95660   0.81310   0.43400   0.00000  Uiso   1.00
C287   C     0.88920   0.78050   0.40540   0.00000  Uiso   1.00
H288   H     0.87450   0.80980   0.38580   0.00000  Uiso   1.00
N289   N     0.62653   0.72810   0.23350   0.00000  Uiso   1.00
C290   C     0.59741   0.68369   0.22700   0.00000  Uiso   1.00
H291   H     0.61050   0.65250   0.24300   0.00000  Uiso   1.00
C292   C     0.54875   0.68584   0.19660   0.00000  Uiso   1.00
H293   H     0.52930   0.65610   0.19230   0.00000  Uiso   1.00
C294   C     0.52920   0.73240   0.17270   0.00000  Uiso   1.00
C295   C     0.55830   0.77680   0.17910   0.00000  Uiso   1.00
H296   H     0.54520   0.80800   0.16310   0.00000  Uiso   1.00
C297   C     0.60700   0.77469   0.20950   0.00000  Uiso   1.00
H298   H     0.62650   0.80440   0.21390   0.00000  Uiso   1.00
O299   O     0.22800   0.74339   0.95370   0.00000  Uiso   1.00
O300   O     0.74510   0.73651   0.20010   0.00000  Uiso   1.00
O301   O     0.21708   0.67224   0.00840   0.00000  Uiso   1.00
O302   O     0.81837   0.72714   0.25770   0.00000  Uiso   1.00
O303   O     0.81654   0.78374   0.88540   0.00000  Uiso   1.00
O304   O     0.74166   0.77510   0.94260   0.00000  Uiso   1.00
O305   O     0.14553   0.77840   0.03210   0.00000  Uiso   1.00
O306   O     0.14627   0.71450   0.10570   0.00000  Uiso   1.00
O307   O     0.26103   0.74217   0.69260   0.00000  Uiso   1.00
O308   O     0.27271   0.67031   0.63520   0.00000  Uiso   1.00
O309   O     0.29670   0.78240   0.05290   0.00000  Uiso   1.00
O310   O     0.29170   0.69530   0.09940   0.00000  Uiso   1.00
O311   O     0.29054   0.34371   0.78630   0.00000  Uiso   1.00
O312   O     0.21801   0.34104   0.85940   0.00000  Uiso   1.00
O313   O     0.19370   0.78230   0.58440   0.00000  Uiso   1.00
O314   O     0.19200   0.70270   0.54260   0.00000  Uiso   1.00
Cu315  Cu    0.22126   0.78757   0.03728   0.00000  Uiso   1.00
Cu316  Cu    0.26878   0.70006   0.53638   0.00000  Uiso   1.00
Cu317  Cu    0.21892   0.69908   0.10659   0.00000  Uiso   1.00
Cu318  Cu    0.26759   0.78795   0.60610   0.00000  Uiso   1.00
C319   C     0.74580   0.63410   0.32260   0.00000  Uiso   1.00
C320   C     0.73760   0.30670   0.19150   0.00000  Uiso   1.00
C321   C     0.74550   0.33100   0.26090   0.00000  Uiso   1.00
C322   C     0.75500   0.30640   0.32090   0.00000  Uiso   1.00
H323   H     0.75420   0.27080   0.32100   0.00000  Uiso   1.00
C324   C     0.76640   0.33300   0.38590   0.00000  Uiso   1.00
C325   C     0.76320   0.38530   0.38440   0.00000  Uiso   1.00
H326   H     0.76860   0.40350   0.42670   0.00000  Uiso   1.00
C327   C     0.75200   0.41230   0.32160   0.00000  Uiso   1.00
C328   C     0.74310   0.38440   0.25820   0.00000  Uiso   1.00
H329   H     0.73590   0.40120   0.21530   0.00000  Uiso   1.00
C330   C     0.77230   0.30100   0.45380   0.00000  Uiso   1.00
C331   C     0.74930   0.46970   0.32220   0.00000  Uiso   1.00
C332   C     0.78480   0.49700   0.36390   0.00000  Uiso   1.00
H333   H     0.81030   0.47970   0.38920   0.00000  Uiso   1.00
C334   C     0.78150   0.54960   0.36670   0.00000  Uiso   1.00
H335   H     0.80260   0.56720   0.39850   0.00000  Uiso   1.00
C336   C     0.74680   0.57810   0.32260   0.00000  Uiso   1.00
C337   C     0.71460   0.54940   0.28230   0.00000  Uiso   1.00
H338   H     0.68990   0.56580   0.25440   0.00000  Uiso   1.00
C339   C     0.71710   0.49750   0.28140   0.00000  Uiso   1.00
H340   H     0.69510   0.48000   0.25060   0.00000  Uiso   1.00
C341   C     0.82430   0.25700   0.06620   0.00000  Uiso   1.00
C342   C     0.88160   0.26150   0.03280   0.00000  Uiso   1.00
C343   C     0.91160   0.21760   0.03910   0.00000  Uiso   1.00
H344   H     0.89730   0.18760   0.05710   0.00000  Uiso   1.00
C345   C     0.96280   0.21870   0.01840   0.00000  Uiso   1.00
H346   H     0.98280   0.18940   0.02270   0.00000  Uiso   1.00
C347   C     0.98410   0.26370   0.99150   0.00000  Uiso   1.00
C348   C     0.95410   0.30750   0.98520   0.00000  Uiso   1.00
H349   H     0.96840   0.33760   0.96720   0.00000  Uiso   1.00
C350   C     0.90290   0.30650   0.00580   0.00000  Uiso   1.00
H351   H     0.88280   0.33580   0.00160   0.00000  Uiso   1.00
C352   C     0.20600   0.26170   0.70240   0.00000  Uiso   1.00
C353   C     0.18000   0.25540   0.63430   0.00000  Uiso   1.00
C354   C     0.12710   0.25630   0.63320   0.00000  Uiso   1.00
H355   H     0.10950   0.26230   0.67600   0.00000  Uiso   1.00
C356   C     0.87920   0.25290   0.57010   0.00000  Uiso   1.00
C357   C     0.93360   0.25290   0.56940   0.00000  Uiso   1.00
C358   C     0.95890   0.21480   0.52820   0.00000  Uiso   1.00
H359   H     0.94060   0.18980   0.50320   0.00000  Uiso   1.00
C360   C     0.01430   0.21630   0.52670   0.00000  Uiso   1.00
H361   H     0.03190   0.19430   0.49610   0.00000  Uiso   1.00
C362   C     0.04180   0.25020   0.56990   0.00000  Uiso   1.00
C363   C     0.01440   0.28330   0.61330   0.00000  Uiso   1.00
H364   H     0.03180   0.30480   0.64490   0.00000  Uiso   1.00
C365   C     0.96210   0.28460   0.61050   0.00000  Uiso   1.00
H366   H     0.94520   0.30890   0.63840   0.00000  Uiso   1.00
C367   C     0.20670   0.22550   0.44050   0.00000  Uiso   1.00
C368   C     0.17830   0.23370   0.50700   0.00000  Uiso   1.00
C369   C     0.12560   0.23740   0.50970   0.00000  Uiso   1.00
H370   H     0.10710   0.23200   0.46750   0.00000  Uiso   1.00
C371   C     0.09900   0.24860   0.57070   0.00000  Uiso   1.00
C372   C     0.20440   0.24360   0.57120   0.00000  Uiso   1.00
H373   H     0.24000   0.24210   0.57110   0.00000  Uiso   1.00
C374   C     0.68840   0.27460   0.59370   0.00000  Uiso   1.00
C375   C     0.62900   0.26610   0.60140   0.00000  Uiso   1.00
C376   C     0.59950   0.22190   0.59530   0.00000  Uiso   1.00
H377   H     0.61300   0.19300   0.57290   0.00000  Uiso   1.00
C378   C     0.54990   0.22090   0.62260   0.00000  Uiso   1.00
H379   H     0.53020   0.19130   0.61850   0.00000  Uiso   1.00
C380   C     0.52980   0.26410   0.65610   0.00000  Uiso   1.00
C381   C     0.55930   0.30830   0.66220   0.00000  Uiso   1.00
H382   H     0.54590   0.33730   0.68460   0.00000  Uiso   1.00
C383   C     0.60890   0.30930   0.63480   0.00000  Uiso   1.00
H384   H     0.62870   0.33890   0.63890   0.00000  Uiso   1.00
N385   N     0.13800   0.26540   0.90580   0.00000  Uiso   1.00
C386   C     0.11600   0.30930   0.93500   0.00000  Uiso   1.00
H387   H     0.13420   0.34000   0.93520   0.00000  Uiso   1.00
C388   C     0.06690   0.30730   0.96380   0.00000  Uiso   1.00
H389   H     0.05220   0.33670   0.98340   0.00000  Uiso   1.00
C390   C     0.03970   0.26150   0.96340   0.00000  Uiso   1.00
C391   C     0.06160   0.21760   0.93420   0.00000  Uiso   1.00
H392   H     0.04340   0.18690   0.93400   0.00000  Uiso   1.00
C393   C     0.11080   0.21950   0.90540   0.00000  Uiso   1.00
H394   H     0.12550   0.19020   0.88580   0.00000  Uiso   1.00
N395   N     0.37347   0.27190   0.73350   0.00000  Uiso   1.00
C396   C     0.40259   0.31631   0.72700   0.00000  Uiso   1.00
H397   H     0.38950   0.34750   0.74300   0.00000  Uiso   1.00
C398   C     0.45125   0.31416   0.69660   0.00000  Uiso   1.00
H399   H     0.47070   0.34390   0.69230   0.00000  Uiso   1.00
C400   C     0.47080   0.26760   0.67270   0.00000  Uiso   1.00
C401   C     0.44170   0.22320   0.67910   0.00000  Uiso   1.00
H402   H     0.45480   0.19200   0.66310   0.00000  Uiso   1.00
C403   C     0.39300   0.22531   0.70950   0.00000  Uiso   1.00
H404   H     0.37350   0.19560   0.71390   0.00000  Uiso   1.00
O405   O     0.77200   0.25661   0.45370   0.00000  Uiso   1.00
O406   O     0.25490   0.26349   0.70010   0.00000  Uiso   1.00
O407   O     0.78292   0.32776   0.50840   0.00000  Uiso   1.00
O408   O     0.18163   0.27286   0.75770   0.00000  Uiso   1.00
O409   O     0.18346   0.21626   0.38540   0.00000  Uiso   1.00
O410   O     0.25834   0.22490   0.44260   0.00000  Uiso   1.00
O411   O     0.85447   0.22160   0.53210   0.00000  Uiso   1.00
O412   O     0.85373   0.28550   0.60570   0.00000  Uiso   1.00
O413   O     0.73897   0.25783   0.19260   0.00000  Uiso   1.00
O414   O     0.72729   0.32969   0.13520   0.00000  Uiso   1.00
O415   O     0.70330   0.21760   0.55290   0.00000  Uiso   1.00
O416   O     0.70830   0.30470   0.59940   0.00000  Uiso   1.00
O417   O     0.70946   0.65629   0.28630   0.00000  Uiso   1.00
O418   O     0.78199   0.65896   0.35940   0.00000  Uiso   1.00
O419   O     0.80630   0.21770   0.08440   0.00000  Uiso   1.00
O420   O     0.80800   0.29730   0.04260   0.00000  Uiso   1.00
Cu421  Cu    0.77874   0.21243   0.53728   0.00000  Uiso   1.00
Cu422  Cu    0.73122   0.29994   0.03638   0.00000  Uiso   1.00
Cu423  Cu    0.78108   0.30092   0.60659   0.00000  Uiso   1.00
Cu424  Cu    0.73241   0.21205   0.10610   0.00000  Uiso   1.00
loop_
_geom_bond_atom_site_label_1
_geom_bond_atom_site_label_2
_geom_bond_distance
_geom_bond_site_symmetry_2
_ccdc_geom_bond_type
C1     C18     1.460   .     S
C1     O99     1.299   .     A
C1     O100    1.334   .     A
C2     C3      1.453   .     S
C2     O95     1.275   .     A
C2     O96     1.236   .     A
C3     C4      1.311   .     A
C3     C10     1.394   .     A
C4     H5      0.928   .     S
C4     C6      1.425   .     A
C6     C7      1.366   .     A
C6     C12     1.521   .     S
C7     H8      0.930   .     S
C7     C9      1.395   .     A
C9     C10     1.405   .     A
C9     C13     1.498   .     S
C10    H11     0.929   .     S
C12    O87     1.157   .     A
C12    O89     1.263   .     A
C13    C14     1.402   .     A
C13    C21     1.344   .     A
C14    H15     0.931   .     S
C14    C16     1.375   .     A
C16    H17     0.929   .     S
C16    C18     1.429   .     A
C18    C19     1.351   .     A
C19    H20     0.931   .     S
C19    C21     1.355   .     A
C21    H22     0.930   .     S
C23    C24     1.622   .     S
C23    O101    1.177   .     A
C23    O102    1.215   .     A
C24    C25     1.391   .     A
C24    C32     1.392   .     A
C25    H26     0.929   .     S
C25    C27     1.390   .     A
C27    H28     0.928   .     S
C27    C29     1.391   .     A
C29    C30     1.389   .     A
C29    C72     1.542   1_565 S
C30    H31     0.931   .     S
C30    C32     1.389   .     A
C32    H33     0.930   .     S
C34    C35     1.446   .     S
C34    O88     1.276   .     A
C34    O90     1.244   1_556 A
C35    C36     1.379   .     A
C35    C54     1.370   .     A
C36    H37     0.932   .     S
C36    C53     1.389   .     A
C38    C39     1.418   .     S
C38    O93     1.257   .     A
C38    O94     1.266   .     A
C39    C40     1.417   .     A
C39    C47     1.349   .     A
C40    H41     0.932   .     S
C40    C42     1.445   1_565 A
C42    C40     1.445   1_545 A
C42    H43     0.929   .     S
C42    C44     1.393   .     A
C44    C45     1.381   .     A
C44    C53     1.492   .     S
C45    H46     0.930   .     S
C45    C47     1.365   1_545 A
C47    C45     1.365   1_565 A
C47    H48     0.930   .     S
C49    C50     1.457   .     S
C49    O91     1.215   .     A
C49    O92     1.347   .     A
C50    C51     1.378   .     A
C50    C54     1.398   .     A
C51    H52     0.932   .     S
C51    C53     1.361   .     A
C54    H55     0.929   .     S
C56    C57     1.571   .     S
C56    O97     1.713   .     A
C56    O98     0.947   .     A
C57    C58     1.390   .     A
C57    C65     1.389   .     A
C58    H59     0.930   .     S
C58    C60     1.389   .     A
C60    H61     0.930   .     S
C60    C62     1.390   .     A
C62    C63     1.390   .     A
C62    C82     1.571   .     S
C63    H64     0.931   .     S
C63    C65     1.390   .     A
C65    H66     0.932   .     S
N67    C68     1.391   .     A
N67    C75     1.391   .     A
N67    Cu424   2.141   .     S
C68    H69     0.930   .     S
C68    C70     1.389   .     A
C70    H71     0.931   .     S
C70    C72     1.389   .     A
C72    C29     1.542   1_545 S
C72    C73     1.390   .     A
C73    H74     0.930   .     S
C73    C75     1.391   .     A
C75    H76     0.929   .     S
N77    C78     1.390   .     A
N77    C85     1.391   .     A
N77    Cu422   2.156   1_556 S
C78    H79     0.931   .     S
C78    C80     1.390   .     A
C80    H81     0.930   .     S
C80    C82     1.390   .     A
C82    C83     1.389   .     A
C83    H84     0.931   .     S
C83    C85     1.391   .     A
C85    H86     0.930   .     S
O87    Cu103   1.943   .     S
O88    Cu422   1.993   1_556 S
O89    Cu105   1.956   .     S
O90    C34     1.244   1_554 A
O90    Cu424   1.999   .     S
O91    Cu421   1.980   .     S
O92    Cu423   1.953   .     S
O93    Cu103   1.991   .     S
O94    Cu105   1.936   .     S
O95    Cu106   2.011   .     S
O96    Cu104   1.998   .     S
O97    Cu103   1.993   .     S
O98    Cu105   1.905   .     S
O99    Cu316   1.969   .     S
O100   Cu318   1.922   .     S
O101   Cu106   1.974   .     S
O102   Cu104   2.006   .     S
Cu103  Cu105   2.643   .     S
Cu103  O303    1.980   .     S
Cu104  Cu106   2.633   .     S
Cu104  N289    2.156   .     S
Cu104  O300    1.993   .     S
Cu104  O417    1.969   .     S
Cu105  O304    1.953   .     S
Cu106  N279    2.141   .     S
Cu106  O302    1.999   .     S
Cu106  O418    1.922   .     S
C107   C124    1.460   .     S
C107   O205    1.299   .     A
C107   O206    1.334   .     A
C108   C109    1.453   1_556 S
C108   O201    1.275   .     A
C108   O202    1.236   .     A
C109   C108    1.453   1_554 S
C109   C110    1.311   .     A
C109   C116    1.394   .     A
C110   H111    0.928   .     S
C110   C112    1.425   .     A
C112   C113    1.366   .     A
C112   C118    1.521   .     S
C113   H114    0.930   .     S
C113   C115    1.395   .     A
C115   C116    1.405   .     A
C115   C119    1.498   .     S
C116   H117    0.929   1_554 S
H117   C116    0.929   1_556 S
C118   O193    1.157   .     A
C118   O195    1.263   .     A
C119   C120    1.402   .     A
C119   C127    1.344   .     A
C120   H121    0.931   .     S
C120   C122    1.375   .     A
C122   H123    0.929   .     S
C122   C124    1.429   .     A
C124   C125    1.351   .     A
C125   H126    0.931   .     S
C125   C127    1.355   .     A
C127   H128    0.930   .     S
C129   C130    1.622   .     S
C129   O207    1.177   .     A
C129   O208    1.215   .     A
C130   C131    1.391   .     A
C130   C138    1.392   .     A
C131   H132    0.929   .     S
C131   C133    1.390   .     A
C133   H134    0.928   .     S
C133   C135    1.391   .     A
C135   C136    1.389   .     A
C135   C178    1.542   1_545 S
C136   H137    0.931   .     S
C136   C138    1.389   .     A
C138   H139    0.930   .     S
C140   C141    1.446   .     S
C140   O194    1.276   .     A
C140   O196    1.244   .     A
C141   C142    1.379   .     A
C141   C160    1.370   .     A
C142   H143    0.932   .     S
C142   C159    1.389   .     A
C144   C145    1.418   .     S
C144   O199    1.257   .     A
C144   O200    1.266   .     A
C145   C146    1.417   .     A
C145   C153    1.349   .     A
C146   H147    0.932   .     S
C146   C148    1.445   1_545 A
C148   C146    1.445   1_565 A
C148   H149    0.929   .     S
C148   C150    1.393   .     A
C150   C151    1.381   .     A
C150   C159    1.492   .     S
C151   H152    0.930   .     S
C151   C153    1.365   1_565 A
C153   C151    1.365   1_545 A
C153   H154    0.930   .     S
C155   C156    1.457   .     S
C155   O197    1.215   .     A
C155   O198    1.347   .     A
C156   C157    1.378   .     A
C156   C160    1.398   .     A
C157   H158    0.932   .     S
C157   C159    1.361   .     A
C160   H161    0.929   .     S
C162   C163    1.571   .     S
C162   O203    1.713   .     A
C162   O204    0.947   .     A
C163   C164    1.390   .     A
C163   C171    1.389   .     A
C164   H165    0.930   .     S
C164   C166    1.389   .     A
C166   H167    0.930   .     S
C166   C168    1.390   .     A
C168   C169    1.390   .     A
C168   C188    1.571   .     S
C169   H170    0.931   .     S
C169   C171    1.390   .     A
C171   H172    0.932   .     S
N173   C174    1.391   .     A
N173   C181    1.391   .     A
N173   Cu318   2.141   .     S
C174   H175    0.930   .     S
C174   C176    1.389   .     A
C176   H177    0.931   .     S
C176   C178    1.389   .     A
C178   C135    1.542   1_565 S
C178   C179    1.390   .     A
C179   H180    0.930   .     S
C179   C181    1.391   .     A
C181   H182    0.929   .     S
N183   C184    1.390   .     A
N183   C191    1.391   .     A
N183   Cu316   2.156   .     S
C184   H185    0.931   .     S
C184   C186    1.390   .     A
C186   H187    0.930   .     S
C186   C188    1.390   .     A
C188   C189    1.389   .     A
C189   H190    0.931   .     S
C189   C191    1.391   .     A
C191   H192    0.930   .     S
O193   Cu209   1.943   .     S
O194   Cu316   1.993   .     S
O195   Cu211   1.956   .     S
O196   Cu318   1.999   .     S
O197   Cu315   1.980   .     S
O198   Cu317   1.953   .     S
O199   Cu209   1.991   .     S
O200   Cu211   1.936   .     S
O201   Cu212   2.011   .     S
O202   Cu210   1.998   .     S
O203   Cu209   1.993   .     S
O204   Cu211   1.905   .     S
O205   Cu422   1.969   .     S
O206   Cu424   1.922   .     S
O207   Cu212   1.974   .     S
O208   Cu210   2.006   .     S
Cu209  Cu211   2.643   .     S
Cu209  O409    1.980   .     S
Cu210  Cu212   2.633   .     S
Cu210  N395    2.156   .     S
Cu210  O406    1.993   .     S
Cu210  O311    1.969   .     S
Cu211  O410    1.953   .     S
Cu212  N385    2.141   .     S
Cu212  O408    1.999   .     S
Cu212  O312    1.922   .     S
C213   C230    1.460   .     S
C213   O311    1.299   .     A
C213   O312    1.334   .     A
C214   C215    1.453   .     S
C214   O307    1.275   .     A
C214   O308    1.236   .     A
C215   C216    1.311   .     A
C215   C222    1.394   .     A
C216   H217    0.928   .     S
C216   C218    1.425   .     A
C218   C219    1.366   .     A
C218   C224    1.521   .     S
C219   H220    0.930   .     S
C219   C221    1.395   .     A
C221   C222    1.405   .     A
C221   C225    1.498   .     S
C222   H223    0.929   .     S
C224   O299    1.157   .     A
C224   O301    1.263   1_556 A
C225   C226    1.402   .     A
C225   C233    1.344   .     A
C226   H227    0.931   .     S
C226   C228    1.375   .     A
C228   H229    0.929   .     S
C228   C230    1.429   .     A
C230   C231    1.351   .     A
C231   H232    0.931   .     S
C231   C233    1.355   .     A
C233   H234    0.930   .     S
C235   C236    1.622   .     S
C235   O313    1.177   .     A
C235   O314    1.215   .     A
C236   C237    1.391   .     A
C236   C244    1.392   .     A
C237   H238    0.929   .     S
C237   C239    1.390   .     A
C239   H240    0.928   .     S
C239   C241    1.391   .     A
C241   C242    1.389   .     A
C241   C284    1.542   1_455 S
C242   H243    0.931   .     S
C242   C244    1.389   .     A
C244   H245    0.930   .     S
C246   C247    1.446   .     S
C246   O300    1.276   .     A
C246   O302    1.244   .     A
C247   C248    1.379   .     A
C247   C266    1.370   .     A
C248   H249    0.932   .     S
C248   C265    1.389   .     A
C250   C251    1.418   .     S
C250   O305    1.257   .     A
C250   O306    1.266   .     A
C251   C252    1.417   .     A
C251   C259    1.349   .     A
C252   H253    0.932   .     S
C252   C254    1.445   1_455 A
C254   C252    1.445   1_655 A
C254   H255    0.929   1_554 S
C254   C256    1.393   .     A
H255   C254    0.929   1_556 S
C256   C257    1.381   .     A
C256   C265    1.492   .     S
C257   H258    0.930   .     S
C257   C259    1.365   1_655 A
C259   C257    1.365   1_455 A
C259   H260    0.930   .     S
C261   C262    1.457   1_556 S
C261   O303    1.215   .     A
C261   O304    1.347   .     A
C262   C261    1.457   1_554 S
C262   C263    1.378   .     A
C262   C266    1.398   .     A
C263   H264    0.932   1_554 S
C263   C265    1.361   .     A
H264   C263    0.932   1_556 S
C266   H267    0.929   .     S
C268   C269    1.571   .     S
C268   O309    1.713   .     A
C268   O310    0.947   .     A
C269   C270    1.390   .     A
C269   C277    1.389   .     A
C270   H271    0.930   .     S
C270   C272    1.389   .     A
C272   H273    0.930   .     S
C272   C274    1.390   .     A
C274   C275    1.390   .     A
C274   C294    1.571   .     S
C275   H276    0.931   .     S
C275   C277    1.390   .     A
C277   H278    0.932   .     S
N279   C280    1.391   .     A
N279   C287    1.391   .     A
C280   H281    0.930   .     S
C280   C282    1.389   .     A
C282   H283    0.931   .     S
C282   C284    1.389   .     A
C284   C241    1.542   1_655 S
C284   C285    1.390   .     A
C285   H286    0.930   .     S
C285   C287    1.391   .     A
C287   H288    0.929   .     S
N289   C290    1.390   .     A
N289   C297    1.391   .     A
C290   H291    0.931   .     S
C290   C292    1.390   .     A
C292   H293    0.930   .     S
C292   C294    1.390   .     A
C294   C295    1.389   .     A
C295   H296    0.931   .     S
C295   C297    1.391   .     A
C297   H298    0.930   .     S
O299   Cu315   1.943   1_556 S
O301   C224    1.263   1_554 A
O301   Cu317   1.956   .     S
O305   Cu315   1.991   .     S
O306   Cu317   1.936   .     S
O307   Cu318   2.011   .     S
O308   Cu316   1.998   .     S
O309   Cu315   1.993   .     S
O310   Cu317   1.905   .     S
O313   Cu318   1.974   .     S
O314   Cu316   2.006   .     S
Cu315  O299    1.943   1_554 S
Cu315  Cu317   2.643   .     S
Cu316  Cu318   2.633   .     S
C319   C336    1.460   .     S
C319   O417    1.299   .     A
C319   O418    1.334   .     A
C320   C321    1.453   .     S
C320   O413    1.275   .     A
C320   O414    1.236   .     A
C321   C322    1.311   .     A
C321   C328    1.394   .     A
C322   H323    0.928   .     S
C322   C324    1.425   .     A
C324   C325    1.366   .     A
C324   C330    1.521   .     S
C325   H326    0.930   .     S
C325   C327    1.395   .     A
C327   C328    1.405   .     A
C327   C331    1.498   .     S
C328   H329    0.929   .     S
C330   O405    1.157   .     A
C330   O407    1.263   .     A
C331   C332    1.402   .     A
C331   C339    1.344   .     A
C332   H333    0.931   .     S
C332   C334    1.375   .     A
C334   H335    0.929   .     S
C334   C336    1.429   .     A
C336   C337    1.351   .     A
C337   H338    0.931   .     S
C337   C339    1.355   .     A
C339   H340    0.930   .     S
C341   C342    1.622   .     S
C341   O419    1.177   .     A
C341   O420    1.215   .     A
C342   C343    1.391   .     A
C342   C350    1.392   .     A
C343   H344    0.929   .     S
C343   C345    1.390   .     A
C345   H346    0.928   .     S
C345   C347    1.391   1_554 A
C347   C345    1.391   1_556 A
C347   C348    1.389   .     A
C347   C390    1.542   1_655 S
C348   H349    0.931   .     S
C348   C350    1.389   1_556 A
C350   C348    1.389   1_554 A
C350   H351    0.930   .     S
C352   C353    1.446   .     S
C352   O406    1.276   .     A
C352   O408    1.244   .     A
C353   C354    1.379   .     A
C353   C372    1.370   .     A
C354   H355    0.932   .     S
C354   C371    1.389   .     A
C356   C357    1.418   .     S
C356   O411    1.257   .     A
C356   O412    1.266   .     A
C357   C358    1.417   .     A
C357   C365    1.349   .     A
C358   H359    0.932   .     S
C358   C360    1.445   1_655 A
C360   C358    1.445   1_455 A
C360   H361    0.929   .     S
C360   C362    1.393   .     A
C362   C363    1.381   .     A
C362   C371    1.492   .     S
C363   H364    0.930   .     S
C363   C365    1.365   1_455 A
C365   C363    1.365   1_655 A
C365   H366    0.930   .     S
C367   C368    1.457   .     S
C367   O409    1.215   .     A
C367   O410    1.347   .     A
C368   C369    1.378   .     A
C368   C372    1.398   .     A
C369   H370    0.932   .     S
C369   C371    1.361   .     A
C372   H373    0.929   .     S
C374   C375    1.571   .     S
C374   O415    1.713   .     A
C374   O416    0.947   .     A
C375   C376    1.390   .     A
C375   C383    1.389   .     A
C376   H377    0.930   .     S
C376   C378    1.389   .     A
C378   H379    0.930   .     S
C378   C380    1.390   .     A
C380   C381    1.390   .     A
C380   C400    1.571   .     S
C381   H382    0.931   .     S
C381   C383    1.390   .     A
C383   H384    0.932   .     S
N385   C386    1.391   .     A
N385   C393    1.391   .     A
C386   H387    0.930   .     S
C386   C388    1.389   .     A
C388   H389    0.931   .     S
C388   C390    1.389   .     A
C390   C347    1.542   1_455 S
C390   C391    1.390   .     A
C391   H392    0.930   .     S
C391   C393    1.391   .     A
C393   H394    0.929   .     S
N395   C396    1.390   .     A
N395   C403    1.391   .     A
C396   H397    0.931   .     S
C396   C398    1.390   .     A
C398   H399    0.930   .     S
C398   C400    1.390   .     A
C400   C401    1.389   .     A
C401   H402    0.931   .     S
C401   C403    1.391   .     A
C403   H404    0.930   .     S
O405   Cu421   1.943   .     S
O407   Cu423   1.956   .     S
O411   Cu421   1.991   .     S
O412   Cu423   1.936   .     S
O413   Cu424   2.011   .     S
O414   Cu422   1.998   .     S
O415   Cu421   1.993   .     S
O416   Cu423   1.905   .     S
O419   Cu424   1.974   .     S
O420   Cu422   2.006   .     S
Cu421  Cu423   2.643   .     S
Cu422  Cu424   2.633   .     S
Cu422  N77     2.156   1_554 S
Cu422  O88     1.993   1_554 S
