data_ABETAE_clean_PM
_symmetry_space_group_name_H-M	'P1'
_cell_length_a	15.520000
_cell_length_b	13.890000
_cell_length_c	13.076900
_cell_angle_alpha	90.000000
_cell_angle_beta	90.000000
_cell_angle_gamma	90.000000
_symmetry_Int_Tables_number 1

loop_
_symmetry_equiv_pos_as_xyz
'x,y,z'

loop_
_atom_site_label
_atom_site_type_symbol
_atom_site_fract_x
_atom_site_fract_y
_atom_site_fract_z
U11	U1	0.261360	0.989590	0.437330
U21	U2	0.274380	0.737500	0.585200
P11	P1	0.275800	0.518700	0.175700
P21	P2	0.312900	0.739500	0.345900
O11	O1	0.305100	0.825000	0.420400
O21	O2	0.233000	0.593600	0.103900
O31	O3	0.279800	0.431400	0.102100
O41	O4	0.284600	0.653700	0.414400
O51	O5	0.217400	0.494600	0.264800
O61	O6	0.249100	0.752100	0.255400
O71	O7	0.404600	0.727600	0.308700
O81	O8	0.363300	0.549700	0.209600
U31	U3	0.761360	0.489590	0.437330
U41	U4	0.774380	0.237500	0.585200
P31	P3	0.775800	0.018700	0.175700
P41	P4	0.812900	0.239500	0.345900
O91	O9	0.805100	0.325000	0.420400
O101	O10	0.733000	0.093600	0.103900
O111	O11	0.779800	0.931400	0.102100
O121	O12	0.784600	0.153700	0.414400
O131	O13	0.717400	0.994600	0.264800
O141	O14	0.749100	0.252100	0.255400
O151	O15	0.904600	0.227600	0.308700
O161	O16	0.863300	0.049700	0.209600
U51	U5	0.738640	0.010410	0.937330
U61	U6	0.725620	0.262500	0.085200
P51	P5	0.724200	0.481300	0.675700
P61	P6	0.687100	0.260500	0.845900
O171	O17	0.694900	0.175000	0.920400
O181	O18	0.767000	0.406400	0.603900
O191	O19	0.720200	0.568600	0.602100
O201	O20	0.715400	0.346300	0.914400
O211	O21	0.782600	0.505400	0.764800
O221	O22	0.750900	0.247900	0.755400
O231	O23	0.595400	0.272400	0.808700
O241	O24	0.636700	0.450300	0.709600
U71	U7	0.238640	0.510410	0.937330
U81	U8	0.225620	0.762500	0.085200
P71	P7	0.224200	0.981300	0.675700
P81	P8	0.187100	0.760500	0.845900
O251	O25	0.194900	0.675000	0.920400
O261	O26	0.267000	0.906400	0.603900
O271	O27	0.220200	0.068600	0.602100
O281	O28	0.215400	0.846300	0.914400
O291	O29	0.282600	0.005400	0.764800
O301	O30	0.250900	0.747900	0.755400
O311	O31	0.095400	0.772400	0.808700
O321	O32	0.136700	0.950300	0.709600
U91	U9	0.261360	0.010410	0.937330
U101	U10	0.274380	0.262500	0.085200
P91	P9	0.275800	0.481300	0.675700
P101	P10	0.312900	0.260500	0.845900
O331	O33	0.305100	0.175000	0.920400
O341	O34	0.233000	0.406400	0.603900
O351	O35	0.279800	0.568600	0.602100
O361	O36	0.284600	0.346300	0.914400
O371	O37	0.217400	0.505400	0.764800
O381	O38	0.249100	0.247900	0.755400
O391	O39	0.404600	0.272400	0.808700
O401	O40	0.363300	0.450300	0.709600
U111	U11	0.761360	0.510410	0.937330
U121	U12	0.774380	0.762500	0.085200
P111	P11	0.775800	0.981300	0.675700
P121	P12	0.812900	0.760500	0.845900
O411	O41	0.805100	0.675000	0.920400
O421	O42	0.733000	0.906400	0.603900
O431	O43	0.779800	0.068600	0.602100
O441	O44	0.784600	0.846300	0.914400
O451	O45	0.717400	0.005400	0.764800
O461	O46	0.749100	0.747900	0.755400
O471	O47	0.904600	0.772400	0.808700
O481	O48	0.863300	0.950300	0.709600
U131	U13	0.738640	0.989590	0.437330
U141	U14	0.725620	0.737500	0.585200
P131	P13	0.724200	0.518700	0.175700
P141	P14	0.687100	0.739500	0.345900
O491	O49	0.694900	0.825000	0.420400
O501	O50	0.767000	0.593600	0.103900
O511	O51	0.720200	0.431400	0.102100
O521	O52	0.715400	0.653700	0.414400
O531	O53	0.782600	0.494600	0.264800
O541	O54	0.750900	0.752100	0.255400
O551	O55	0.595400	0.727600	0.308700
O561	O56	0.636700	0.549700	0.209600
U151	U15	0.238640	0.489590	0.437330
U161	U16	0.225620	0.237500	0.585200
P151	P15	0.224200	0.018700	0.175700
P161	P16	0.187100	0.239500	0.345900
O571	O57	0.194900	0.325000	0.420400
O581	O58	0.267000	0.093600	0.103900
O591	O59	0.220200	0.931400	0.102100
O601	O60	0.215400	0.153700	0.414400
O611	O61	0.282600	0.994600	0.264800
O621	O62	0.250900	0.252100	0.255400
O631	O63	0.095400	0.227600	0.308700
O641	O64	0.136700	0.049700	0.209600
U171	U17	0.500000	0.610030	0.247300
U181	U18	0.000000	0.110030	0.247300
U191	U19	0.500000	0.389970	0.747300
U201	U20	0.000000	0.889970	0.747300
