data_ABEYAJ_clean_PM
_symmetry_space_group_name_H-M	'P1'
_cell_length_a	10.962000
_cell_length_b	11.868000
_cell_length_c	19.307000
_cell_angle_alpha	90.000000
_cell_angle_beta	90.000000
_cell_angle_gamma	90.000000
_symmetry_Int_Tables_number 1

loop_
_symmetry_equiv_pos_as_xyz
'x,y,z'

loop_
_atom_site_label
_atom_site_type_symbol
_atom_site_fract_x
_atom_site_fract_y
_atom_site_fract_z
Sm11	Sm1	0.362760	0.657660	0.601190
Sm21	Sm2	0.881200	0.472920	0.815640
Sm31	Sm3	0.637240	0.342340	0.101190
Sm41	Sm4	0.118800	0.527080	0.315640
Sm51	Sm5	0.137240	0.157660	0.601190
Sm61	Sm6	0.618800	0.972920	0.815640
Sm71	Sm7	0.862760	0.842340	0.101190
Sm81	Sm8	0.381200	0.027080	0.315640
H11	H1	0.148000	0.504700	0.707100
H21	H2	0.270900	0.752600	0.869800
H31	H3	0.627700	0.601600	0.715100
H41	H4	0.495100	0.242000	0.701500
H51	H5	0.852000	0.495300	0.207100
H61	H6	0.729100	0.247400	0.369800
H71	H7	0.372300	0.398400	0.215100
H81	H8	0.504900	0.758000	0.201500
H91	H9	0.352000	0.004700	0.707100
H101	H10	0.229100	0.252600	0.869800
H111	H11	0.872300	0.101600	0.715100
H121	H12	0.004900	0.742000	0.701500
H131	H13	0.648000	0.995300	0.207100
H141	H14	0.770900	0.747400	0.369800
H151	H15	0.127700	0.898400	0.215100
H161	H16	0.995100	0.258000	0.201500
C11	C1	0.169800	0.559200	0.739400
C21	C2	0.135600	0.644100	0.842500
C31	C3	0.243100	0.704900	0.835000
C41	C4	0.306400	0.692000	0.774800
C51	C5	0.413000	0.768700	0.756500
C61	C6	0.051700	0.662800	0.904300
C71	C7	0.600700	0.527500	0.712300
C81	C8	0.626500	0.342900	0.740000
C91	C9	0.522100	0.316100	0.704700
C101	C10	0.458700	0.402800	0.674200
C111	C11	0.339000	0.383500	0.636100
C121	C12	0.703600	0.253100	0.775400
C131	C13	0.822100	0.380200	0.971000
C141	C14	0.700500	0.432500	0.946900
C151	C15	0.830200	0.440800	0.239400
C161	C16	0.864400	0.355900	0.342500
C171	C17	0.756900	0.295100	0.335000
C181	C18	0.693600	0.308000	0.274800
C191	C19	0.587000	0.231300	0.256500
C201	C20	0.948300	0.337200	0.404300
C211	C21	0.399300	0.472500	0.212300
C221	C22	0.373500	0.657100	0.240000
C231	C23	0.477900	0.683900	0.204700
C241	C24	0.541300	0.597200	0.174200
C251	C25	0.661000	0.616500	0.136100
C261	C26	0.296400	0.746900	0.275400
C271	C27	0.177900	0.619800	0.471000
C281	C28	0.299500	0.567500	0.446900
C291	C29	0.330200	0.059200	0.739400
C301	C30	0.364400	0.144100	0.842500
C311	C31	0.256900	0.204900	0.835000
C321	C32	0.193600	0.192000	0.774800
C331	C33	0.087000	0.268700	0.756500
C341	C34	0.448300	0.162800	0.904300
C351	C35	0.899300	0.027500	0.712300
C361	C36	0.873500	0.842900	0.740000
C371	C37	0.977900	0.816100	0.704700
C381	C38	0.041300	0.902800	0.674200
C391	C39	0.161000	0.883500	0.636100
C401	C40	0.796400	0.753100	0.775400
C411	C41	0.677900	0.880200	0.971000
C421	C42	0.799500	0.932500	0.946900
C431	C43	0.669800	0.940800	0.239400
C441	C44	0.635600	0.855900	0.342500
C451	C45	0.743100	0.795100	0.335000
C461	C46	0.806400	0.808000	0.274800
C471	C47	0.913000	0.731300	0.256500
C481	C48	0.551700	0.837200	0.404300
C491	C49	0.100700	0.972500	0.212300
C501	C50	0.126500	0.157100	0.240000
C511	C51	0.022100	0.183900	0.204700
C521	C52	0.958700	0.097200	0.174200
C531	C53	0.839000	0.116500	0.136100
C541	C54	0.203600	0.246900	0.275400
C551	C55	0.322100	0.119800	0.471000
C561	C56	0.200500	0.067500	0.446900
N11	N1	0.270400	0.618900	0.726200
N21	N2	0.098400	0.570400	0.794000
N31	N3	0.498900	0.509100	0.675700
N41	N4	0.667000	0.450400	0.745200
N51	N5	0.729600	0.381100	0.226200
N61	N6	0.901600	0.429600	0.294000
N71	N7	0.501100	0.490900	0.175700
N81	N8	0.333000	0.549600	0.245200
N91	N9	0.229600	0.118900	0.726200
N101	N10	0.401600	0.070400	0.794000
N111	N11	0.001100	0.009100	0.675700
N121	N12	0.833000	0.950400	0.745200
N131	N13	0.770400	0.881100	0.226200
N141	N14	0.598400	0.929600	0.294000
N151	N15	0.998900	0.990900	0.175700
N161	N16	0.167000	0.049600	0.245200
O11	O1	0.454500	0.760100	0.696200
O21	O2	0.449800	0.834300	0.803100
O31	O3	0.955800	0.604500	0.905600
O41	O4	0.084500	0.733200	0.946500
O51	O5	0.294000	0.465600	0.603300
O61	O6	0.291900	0.288500	0.643600
O71	O7	0.799800	0.283900	0.804300
O81	O8	0.666000	0.153900	0.772000
O91	O9	0.825300	0.346500	0.032300
O101	O10	0.908600	0.376800	0.927100
O111	O11	0.609500	0.418600	0.984600
O121	O12	0.704200	0.486800	0.890100
O131	O13	0.545500	0.239900	0.196200
O141	O14	0.550200	0.165700	0.303100
O151	O15	0.044200	0.395500	0.405600
O161	O16	0.915500	0.266800	0.446500
O171	O17	0.706000	0.534400	0.103300
O181	O18	0.708100	0.711500	0.143600
O191	O19	0.200200	0.716100	0.304300
O201	O20	0.334000	0.846100	0.272000
O211	O21	0.174700	0.653500	0.532300
O221	O22	0.091400	0.623200	0.427100
O231	O23	0.390500	0.581400	0.484600
O241	O24	0.295800	0.513200	0.390100
O251	O25	0.045500	0.260100	0.696200
O261	O26	0.050200	0.334300	0.803100
O271	O27	0.544200	0.104500	0.905600
O281	O28	0.415500	0.233200	0.946500
O291	O29	0.206000	0.965600	0.603300
O301	O30	0.208100	0.788500	0.643600
O311	O31	0.700200	0.783900	0.804300
O321	O32	0.834000	0.653900	0.772000
O331	O33	0.674700	0.846500	0.032300
O341	O34	0.591400	0.876800	0.927100
O351	O35	0.890500	0.918600	0.984600
O361	O36	0.795800	0.986800	0.890100
O371	O37	0.954500	0.739900	0.196200
O381	O38	0.949800	0.665700	0.303100
O391	O39	0.455800	0.895500	0.405600
O401	O40	0.584500	0.766800	0.446500
O411	O41	0.794000	0.034400	0.103300
O421	O42	0.791900	0.211500	0.143600
O431	O43	0.299800	0.216100	0.304300
O441	O44	0.166000	0.346100	0.272000
O451	O45	0.325300	0.153500	0.532300
O461	O46	0.408600	0.123200	0.427100
O471	O47	0.109500	0.081400	0.484600
O481	O48	0.204200	0.013200	0.390100
