data_ABEYIR_clean_PM
_symmetry_space_group_name_H-M	'P1'
_cell_length_a	10.934000
_cell_length_b	11.792700
_cell_length_c	19.215200
_cell_angle_alpha	90.000000
_cell_angle_beta	90.000000
_cell_angle_gamma	90.000000
_symmetry_Int_Tables_number 1

loop_
_symmetry_equiv_pos_as_xyz
'x,y,z'

loop_
_atom_site_label
_atom_site_type_symbol
_atom_site_fract_x
_atom_site_fract_y
_atom_site_fract_z
Gd11	Gd1	0.362100	0.842760	0.425840
Gd21	Gd2	0.880860	0.029440	0.211370
Gd31	Gd3	0.637900	0.157240	0.925840
Gd41	Gd4	0.119140	0.970560	0.711370
Gd51	Gd5	0.137900	0.342760	0.425840
Gd61	Gd6	0.619140	0.529440	0.211370
Gd71	Gd7	0.862100	0.657240	0.925840
Gd81	Gd8	0.380860	0.470560	0.711370
H11	H1	0.145800	0.996900	0.321600
H21	H2	0.270700	0.749300	0.156300
H31	H3	0.629400	0.898600	0.311300
H41	H4	0.493200	0.260600	0.325700
H51	H5	0.854200	0.003100	0.821600
H61	H6	0.729300	0.250700	0.656300
H71	H7	0.370600	0.101400	0.811300
H81	H8	0.506800	0.739400	0.825700
H91	H9	0.354200	0.496900	0.321600
H101	H10	0.229300	0.249300	0.156300
H111	H11	0.870600	0.398600	0.311300
H121	H12	0.006800	0.760600	0.325700
H131	H13	0.645800	0.503100	0.821600
H141	H14	0.770700	0.750700	0.656300
H151	H15	0.129400	0.601400	0.811300
H161	H16	0.993200	0.239400	0.825700
C11	C1	0.168500	0.943000	0.288800
C21	C2	0.135000	0.859300	0.184700
C31	C3	0.242900	0.796900	0.191400
C41	C4	0.305000	0.809800	0.252100
C51	C5	0.413900	0.732800	0.269600
C61	C6	0.052400	0.841100	0.122300
C71	C7	0.601600	0.972900	0.314200
C81	C8	0.626600	0.158300	0.286400
C91	C9	0.521000	0.186200	0.322400
C101	C10	0.460100	0.097300	0.352800
C111	C11	0.339600	0.116400	0.391000
C121	C12	0.703500	0.249700	0.250900
C131	C13	0.700500	0.069200	0.080400
C141	C14	0.822600	0.120700	0.055000
C151	C15	0.831500	0.057000	0.788800
C161	C16	0.865000	0.140700	0.684700
C171	C17	0.757100	0.203100	0.691400
C181	C18	0.695000	0.190200	0.752100
C191	C19	0.586100	0.267200	0.769600
C201	C20	0.947600	0.158900	0.622300
C211	C21	0.398400	0.027100	0.814200
C221	C22	0.373400	0.841700	0.786400
C231	C23	0.479000	0.813800	0.822400
C241	C24	0.539900	0.902700	0.852800
C251	C25	0.660400	0.883600	0.891000
C261	C26	0.296500	0.750300	0.750900
C271	C27	0.299500	0.930800	0.580400
C281	C28	0.177400	0.879300	0.555000
C291	C29	0.331500	0.443000	0.288800
C301	C30	0.365000	0.359300	0.184700
C311	C31	0.257100	0.296900	0.191400
C321	C32	0.195000	0.309800	0.252100
C331	C33	0.086100	0.232800	0.269600
C341	C34	0.447600	0.341100	0.122300
C351	C35	0.898400	0.472900	0.314200
C361	C36	0.873400	0.658300	0.286400
C371	C37	0.979000	0.686200	0.322400
C381	C38	0.039900	0.597300	0.352800
C391	C39	0.160400	0.616400	0.391000
C401	C40	0.796500	0.749700	0.250900
C411	C41	0.799500	0.569200	0.080400
C421	C42	0.677400	0.620700	0.055000
C431	C43	0.668500	0.557000	0.788800
C441	C44	0.635000	0.640700	0.684700
C451	C45	0.742900	0.703100	0.691400
C461	C46	0.805000	0.690200	0.752100
C471	C47	0.913900	0.767200	0.769600
C481	C48	0.552400	0.658900	0.622300
C491	C49	0.101600	0.527100	0.814200
C501	C50	0.126600	0.341700	0.786400
C511	C51	0.021000	0.313800	0.822400
C521	C52	0.960100	0.402700	0.852800
C531	C53	0.839600	0.383600	0.891000
C541	C54	0.203500	0.250300	0.750900
C551	C55	0.200500	0.430800	0.580400
C561	C56	0.322600	0.379300	0.555000
N11	N1	0.269800	0.883500	0.301600
N21	N2	0.097100	0.931800	0.233100
N31	N3	0.499200	0.990800	0.351200
N41	N4	0.666900	0.051400	0.281300
N51	N5	0.730200	0.116500	0.801600
N61	N6	0.902900	0.068200	0.733100
N71	N7	0.500800	0.009200	0.851200
N81	N8	0.333100	0.948600	0.781300
N91	N9	0.230200	0.383500	0.301600
N101	N10	0.402900	0.431800	0.233100
N111	N11	0.000800	0.490800	0.351200
N121	N12	0.833100	0.551400	0.281300
N131	N13	0.769800	0.616500	0.801600
N141	N14	0.597100	0.568200	0.733100
N151	N15	0.999200	0.509200	0.851200
N161	N16	0.166900	0.448600	0.781300
O11	O1	0.453800	0.740500	0.331400
O21	O2	0.450700	0.667300	0.223700
O31	O3	0.954100	0.898500	0.121900
O41	O4	0.086700	0.772000	0.079300
O51	O5	0.295400	0.035400	0.425400
O61	O6	0.291500	0.212300	0.383300
O71	O7	0.800200	0.217600	0.222000
O81	O8	0.665800	0.348800	0.254900
O91	O9	0.610700	0.082500	0.042300
O101	O10	0.704700	0.015100	0.137200
O111	O11	0.826900	0.153600	0.993500
O121	O12	0.909100	0.124900	0.100300
O131	O13	0.546200	0.259500	0.831400
O141	O14	0.549300	0.332700	0.723700
O151	O15	0.045900	0.101500	0.621900
O161	O16	0.913300	0.228000	0.579300
O171	O17	0.704600	0.964600	0.925400
O181	O18	0.708500	0.787700	0.883300
O191	O19	0.199800	0.782400	0.722000
O201	O20	0.334200	0.651200	0.754900
O211	O21	0.389300	0.917500	0.542300
O221	O22	0.295300	0.984900	0.637200
O231	O23	0.173100	0.846400	0.493500
O241	O24	0.090900	0.875100	0.600300
O251	O25	0.046200	0.240500	0.331400
O261	O26	0.049300	0.167300	0.223700
O271	O27	0.545900	0.398500	0.121900
O281	O28	0.413300	0.272000	0.079300
O291	O29	0.204600	0.535400	0.425400
O301	O30	0.208500	0.712300	0.383300
O311	O31	0.699800	0.717600	0.222000
O321	O32	0.834200	0.848800	0.254900
O331	O33	0.889300	0.582500	0.042300
O341	O34	0.795300	0.515100	0.137200
O351	O35	0.673100	0.653600	0.993500
O361	O36	0.590900	0.624900	0.100300
O371	O37	0.953800	0.759500	0.831400
O381	O38	0.950700	0.832700	0.723700
O391	O39	0.454100	0.601500	0.621900
O401	O40	0.586700	0.728000	0.579300
O411	O41	0.795400	0.464600	0.925400
O421	O42	0.791500	0.287700	0.883300
O431	O43	0.300200	0.282400	0.722000
O441	O44	0.165800	0.151200	0.754900
O451	O45	0.110700	0.417500	0.542300
O461	O46	0.204700	0.484900	0.637200
O471	O47	0.326900	0.346400	0.493500
O481	O48	0.409100	0.375100	0.600300
