data_ABIYIV_clean_PM
_symmetry_space_group_name_H-M	'P1'
_cell_length_a	11.104000
_cell_length_b	19.883400
_cell_length_c	21.302500
_cell_angle_alpha	90.000000
_cell_angle_beta	90.000000
_cell_angle_gamma	90.000000
_symmetry_Int_Tables_number 1

loop_
_symmetry_equiv_pos_as_xyz
'x,y,z'

loop_
_atom_site_label
_atom_site_type_symbol
_atom_site_fract_x
_atom_site_fract_y
_atom_site_fract_z
Co11	Co1	0.305950	0.537030	0.776480
Co21	Co2	0.194050	0.962970	0.776480
Co31	Co3	0.694050	0.037030	0.723520
Co41	Co4	0.805950	0.462970	0.723520
Co51	Co5	0.694050	0.462970	0.223520
Co61	Co6	0.805950	0.037030	0.223520
Co71	Co7	0.305950	0.962970	0.276480
Co81	Co8	0.194050	0.537030	0.276480
Co91	Co9	0.000000	0.500000	0.000000
Co101	Co10	0.500000	0.000000	0.000000
Co111	Co11	0.000000	0.000000	0.500000
Co121	Co12	0.500000	0.500000	0.500000
H11	H1	0.045700	0.652600	0.029100
H21	H2	0.208100	0.419200	0.689300
H31	H3	0.316400	0.414600	0.864900
H41	H4	0.756200	0.558400	0.971000
H51	H5	0.307900	0.299000	0.866600
H61	H6	0.374100	0.659500	0.692500
H71	H7	0.794000	0.448700	0.885100
H81	H8	0.946700	0.754700	0.029200
H91	H9	0.196700	0.303300	0.686100
H101	H10	0.647100	0.657400	0.969200
H111	H11	0.429300	0.771400	0.697500
H121	H12	0.430600	0.756800	0.885800
H131	H13	0.373800	0.644600	0.875900
H141	H14	0.454800	0.822700	0.795300
H151	H15	0.454300	0.847400	0.029100
H161	H16	0.291900	0.080800	0.689300
H171	H17	0.183600	0.085400	0.864900
H181	H18	0.743800	0.941600	0.971000
H191	H19	0.192100	0.201000	0.866600
H201	H20	0.125900	0.840500	0.692500
H211	H21	0.706000	0.051300	0.885100
H221	H22	0.553300	0.745300	0.029200
H231	H23	0.303300	0.196700	0.686100
H241	H24	0.852900	0.842600	0.969200
H251	H25	0.070700	0.728600	0.697500
H261	H26	0.069400	0.743200	0.885800
H271	H27	0.126200	0.855400	0.875900
H281	H28	0.045200	0.677300	0.795300
H291	H29	0.954300	0.152600	0.470900
H301	H30	0.791900	0.919200	0.810700
H311	H31	0.683600	0.914600	0.635100
H321	H32	0.243800	0.058400	0.529000
H331	H33	0.692100	0.799000	0.633400
H341	H34	0.625900	0.159500	0.807500
H351	H35	0.206000	0.948700	0.614900
H361	H36	0.053300	0.254700	0.470800
H371	H37	0.803300	0.803300	0.813900
H381	H38	0.352900	0.157400	0.530800
H391	H39	0.570700	0.271400	0.802500
H401	H40	0.569400	0.256800	0.614200
H411	H41	0.626200	0.144600	0.624100
H421	H42	0.545200	0.322700	0.704700
H431	H43	0.545700	0.347400	0.470900
H441	H44	0.708100	0.580800	0.810700
H451	H45	0.816400	0.585400	0.635100
H461	H46	0.256200	0.441600	0.529000
H471	H47	0.807900	0.701000	0.633400
H481	H48	0.874100	0.340500	0.807500
H491	H49	0.294000	0.551300	0.614900
H501	H50	0.446700	0.245300	0.470800
H511	H51	0.696700	0.696700	0.813900
H521	H52	0.147100	0.342600	0.530800
H531	H53	0.929300	0.228600	0.802500
H541	H54	0.930600	0.243200	0.614200
H551	H55	0.873800	0.355400	0.624100
H561	H56	0.954800	0.177300	0.704700
H571	H57	0.954300	0.347400	0.970900
H581	H58	0.791900	0.580800	0.310700
H591	H59	0.683600	0.585400	0.135100
H601	H60	0.243800	0.441600	0.029000
H611	H61	0.692100	0.701000	0.133400
H621	H62	0.625900	0.340500	0.307500
H631	H63	0.206000	0.551300	0.114900
H641	H64	0.053300	0.245300	0.970800
H651	H65	0.803300	0.696700	0.313900
H661	H66	0.352900	0.342600	0.030800
H671	H67	0.570700	0.228600	0.302500
H681	H68	0.569400	0.243200	0.114200
H691	H69	0.626200	0.355400	0.124100
H701	H70	0.545200	0.177300	0.204700
H711	H71	0.545700	0.152600	0.970900
H721	H72	0.708100	0.919200	0.310700
H731	H73	0.816400	0.914600	0.135100
H741	H74	0.256200	0.058400	0.029000
H751	H75	0.807900	0.799000	0.133400
H761	H76	0.874100	0.159500	0.307500
H771	H77	0.294000	0.948700	0.114900
H781	H78	0.446700	0.254700	0.970800
H791	H79	0.696700	0.803300	0.313900
H801	H80	0.147100	0.157400	0.030800
H811	H81	0.929300	0.271400	0.302500
H821	H82	0.930600	0.256800	0.114200
H831	H83	0.873800	0.144600	0.124100
H841	H84	0.954800	0.322700	0.204700
H851	H85	0.045700	0.847400	0.529100
H861	H86	0.208100	0.080800	0.189300
H871	H87	0.316400	0.085400	0.364900
H881	H88	0.756200	0.941600	0.471000
H891	H89	0.307900	0.201000	0.366600
H901	H90	0.374100	0.840500	0.192500
H911	H91	0.794000	0.051300	0.385100
H921	H92	0.946700	0.745300	0.529200
H931	H93	0.196700	0.196700	0.186100
H941	H94	0.647100	0.842600	0.469200
H951	H95	0.429300	0.728600	0.197500
H961	H96	0.430600	0.743200	0.385800
H971	H97	0.373800	0.855400	0.375900
H981	H98	0.454800	0.677300	0.295300
H991	H99	0.454300	0.652600	0.529100
H1001	H100	0.291900	0.419200	0.189300
H1011	H101	0.183600	0.414600	0.364900
H1021	H102	0.743800	0.558400	0.471000
H1031	H103	0.192100	0.299000	0.366600
H1041	H104	0.125900	0.659500	0.192500
H1051	H105	0.706000	0.448700	0.385100
H1061	H106	0.553300	0.754700	0.529200
H1071	H107	0.303300	0.303300	0.186100
H1081	H108	0.852900	0.657400	0.469200
H1091	H109	0.070700	0.771400	0.197500
H1101	H110	0.069400	0.756800	0.385800
H1111	H111	0.126200	0.644600	0.375900
H1121	H112	0.045200	0.822700	0.295300
C11	C1	0.156600	0.535630	0.896930
C21	C2	0.252900	0.287420	0.775770
C31	C3	0.963400	0.653970	0.016830
C41	C4	0.228800	0.394330	0.725890
C51	C5	0.043900	0.511640	0.867220
C61	C6	0.291700	0.391510	0.828000
C71	C7	0.794800	0.599010	0.983000
C81	C8	0.287400	0.322580	0.829360
C91	C9	0.783400	0.718080	0.999800
C101	C10	0.384400	0.679710	0.732550
C111	C11	0.867000	0.467440	0.869760
C121	C12	0.905000	0.715000	0.017230
C131	C13	0.222200	0.325110	0.723460
C141	C14	0.729100	0.657910	0.981970
C151	C15	0.417600	0.746500	0.735100
C161	C16	0.418200	0.737900	0.845400
C171	C17	0.384300	0.670800	0.839010
C181	C18	0.433700	0.776500	0.792300
C191	C19	0.002600	0.504330	0.805880
C201	C20	0.045500	0.521530	0.741890
C211	C21	0.343400	0.964370	0.896930
C221	C22	0.247100	0.212580	0.775770
C231	C23	0.536600	0.846030	0.016830
C241	C24	0.271200	0.105670	0.725890
C251	C25	0.456100	0.988360	0.867220
C261	C26	0.208300	0.108490	0.828000
C271	C27	0.705200	0.900990	0.983000
C281	C28	0.212600	0.177420	0.829360
C291	C29	0.716600	0.781920	0.999800
C301	C30	0.115600	0.820290	0.732550
C311	C31	0.633000	0.032560	0.869760
C321	C32	0.595000	0.785000	0.017230
C331	C33	0.277800	0.174890	0.723460
C341	C34	0.770900	0.842090	0.981970
C351	C35	0.082400	0.753500	0.735100
C361	C36	0.081800	0.762100	0.845400
C371	C37	0.115700	0.829200	0.839010
C381	C38	0.066300	0.723500	0.792300
C391	C39	0.497400	0.995670	0.805880
C401	C40	0.454500	0.978470	0.741890
C411	C41	0.843400	0.035630	0.603070
C421	C42	0.747100	0.787420	0.724230
C431	C43	0.036600	0.153970	0.483170
C441	C44	0.771200	0.894330	0.774110
C451	C45	0.956100	0.011640	0.632780
C461	C46	0.708300	0.891510	0.672000
C471	C47	0.205200	0.099010	0.517000
C481	C48	0.712600	0.822580	0.670640
C491	C49	0.216600	0.218080	0.500200
C501	C50	0.615600	0.179710	0.767450
C511	C51	0.133000	0.967440	0.630240
C521	C52	0.095000	0.215000	0.482770
C531	C53	0.777800	0.825110	0.776540
C541	C54	0.270900	0.157910	0.518030
C551	C55	0.582400	0.246500	0.764900
C561	C56	0.581800	0.237900	0.654600
C571	C57	0.615700	0.170800	0.660990
C581	C58	0.566300	0.276500	0.707700
C591	C59	0.997400	0.004330	0.694120
C601	C60	0.954500	0.021530	0.758110
C611	C61	0.656600	0.464370	0.603070
C621	C62	0.752900	0.712580	0.724230
C631	C63	0.463400	0.346030	0.483170
C641	C64	0.728800	0.605670	0.774110
C651	C65	0.543900	0.488360	0.632780
C661	C66	0.791700	0.608490	0.672000
C671	C67	0.294800	0.400990	0.517000
C681	C68	0.787400	0.677420	0.670640
C691	C69	0.283400	0.281920	0.500200
C701	C70	0.884400	0.320290	0.767450
C711	C71	0.367000	0.532560	0.630240
C721	C72	0.405000	0.285000	0.482770
C731	C73	0.722200	0.674890	0.776540
C741	C74	0.229100	0.342090	0.518030
C751	C75	0.917600	0.253500	0.764900
C761	C76	0.918200	0.262100	0.654600
C771	C77	0.884300	0.329200	0.660990
C781	C78	0.933700	0.223500	0.707700
C791	C79	0.502600	0.495670	0.694120
C801	C80	0.545500	0.478470	0.758110
C811	C81	0.843400	0.464370	0.103070
C821	C82	0.747100	0.712580	0.224230
C831	C83	0.036600	0.346030	0.983170
C841	C84	0.771200	0.605670	0.274110
C851	C85	0.956100	0.488360	0.132780
C861	C86	0.708300	0.608490	0.172000
C871	C87	0.205200	0.400990	0.017000
C881	C88	0.712600	0.677420	0.170640
C891	C89	0.216600	0.281920	0.000200
C901	C90	0.615600	0.320290	0.267450
C911	C91	0.133000	0.532560	0.130240
C921	C92	0.095000	0.285000	0.982770
C931	C93	0.777800	0.674890	0.276540
C941	C94	0.270900	0.342090	0.018030
C951	C95	0.582400	0.253500	0.264900
C961	C96	0.581800	0.262100	0.154600
C971	C97	0.615700	0.329200	0.160990
C981	C98	0.566300	0.223500	0.207700
C991	C99	0.997400	0.495670	0.194120
C1001	C100	0.954500	0.478470	0.258110
C1011	C101	0.656600	0.035630	0.103070
C1021	C102	0.752900	0.787420	0.224230
C1031	C103	0.463400	0.153970	0.983170
C1041	C104	0.728800	0.894330	0.274110
C1051	C105	0.543900	0.011640	0.132780
C1061	C106	0.791700	0.891510	0.172000
C1071	C107	0.294800	0.099010	0.017000
C1081	C108	0.787400	0.822580	0.170640
C1091	C109	0.283400	0.218080	0.000200
C1101	C110	0.884400	0.179710	0.267450
C1111	C111	0.367000	0.967440	0.130240
C1121	C112	0.405000	0.215000	0.982770
C1131	C113	0.722200	0.825110	0.276540
C1141	C114	0.229100	0.157910	0.018030
C1151	C115	0.917600	0.246500	0.264900
C1161	C116	0.918200	0.237900	0.154600
C1171	C117	0.884300	0.170800	0.160990
C1181	C118	0.933700	0.276500	0.207700
C1191	C119	0.502600	0.004330	0.194120
C1201	C120	0.545500	0.021530	0.258110
C1211	C121	0.156600	0.964370	0.396930
C1221	C122	0.252900	0.212580	0.275770
C1231	C123	0.963400	0.846030	0.516830
C1241	C124	0.228800	0.105670	0.225890
C1251	C125	0.043900	0.988360	0.367220
C1261	C126	0.291700	0.108490	0.328000
C1271	C127	0.794800	0.900990	0.483000
C1281	C128	0.287400	0.177420	0.329360
C1291	C129	0.783400	0.781920	0.499800
C1301	C130	0.384400	0.820290	0.232550
C1311	C131	0.867000	0.032560	0.369760
C1321	C132	0.905000	0.785000	0.517230
C1331	C133	0.222200	0.174890	0.223460
C1341	C134	0.729100	0.842090	0.481970
C1351	C135	0.417600	0.753500	0.235100
C1361	C136	0.418200	0.762100	0.345400
C1371	C137	0.384300	0.829200	0.339010
C1381	C138	0.433700	0.723500	0.292300
C1391	C139	0.002600	0.995670	0.305880
C1401	C140	0.045500	0.978470	0.241890
C1411	C141	0.343400	0.535630	0.396930
C1421	C142	0.247100	0.287420	0.275770
C1431	C143	0.536600	0.653970	0.516830
C1441	C144	0.271200	0.394330	0.225890
C1451	C145	0.456100	0.511640	0.367220
C1461	C146	0.208300	0.391510	0.328000
C1471	C147	0.705200	0.599010	0.483000
C1481	C148	0.212600	0.322580	0.329360
C1491	C149	0.716600	0.718080	0.499800
C1501	C150	0.115600	0.679710	0.232550
C1511	C151	0.633000	0.467440	0.369760
C1521	C152	0.595000	0.715000	0.517230
C1531	C153	0.277800	0.325110	0.223460
C1541	C154	0.770900	0.657910	0.481970
C1551	C155	0.082400	0.746500	0.235100
C1561	C156	0.081800	0.737900	0.345400
C1571	C157	0.115700	0.670800	0.339010
C1581	C158	0.066300	0.776500	0.292300
C1591	C159	0.497400	0.504330	0.305880
C1601	C160	0.454500	0.521530	0.241890
N11	N1	0.956600	0.488070	0.907180
N21	N2	0.366000	0.641800	0.783610
N31	N3	0.262600	0.428140	0.777050
N41	N4	0.910400	0.596740	0.000090
N51	N5	0.890200	0.475860	0.808810
N61	N6	0.543400	0.011930	0.907180
N71	N7	0.134000	0.858200	0.783610
N81	N8	0.237400	0.071860	0.777050
N91	N9	0.589600	0.903260	0.000090
N101	N10	0.609800	0.024140	0.808810
N111	N11	0.043400	0.988070	0.592820
N121	N12	0.634000	0.141800	0.716390
N131	N13	0.737400	0.928140	0.722950
N141	N14	0.089600	0.096740	0.499910
N151	N15	0.109800	0.975860	0.691190
N161	N16	0.456600	0.511930	0.592820
N171	N17	0.866000	0.358200	0.716390
N181	N18	0.762600	0.571860	0.722950
N191	N19	0.410400	0.403260	0.499910
N201	N20	0.390200	0.524140	0.691190
N211	N21	0.043400	0.511930	0.092820
N221	N22	0.634000	0.358200	0.216390
N231	N23	0.737400	0.571860	0.222950
N241	N24	0.089600	0.403260	0.999910
N251	N25	0.109800	0.524140	0.191190
N261	N26	0.456600	0.988070	0.092820
N271	N27	0.866000	0.141800	0.216390
N281	N28	0.762600	0.928140	0.222950
N291	N29	0.410400	0.096740	0.999910
N301	N30	0.390200	0.975860	0.191190
N311	N31	0.956600	0.011930	0.407180
N321	N32	0.366000	0.858200	0.283610
N331	N33	0.262600	0.071860	0.277050
N341	N34	0.910400	0.903260	0.500090
N351	N35	0.890200	0.024140	0.308810
N361	N36	0.543400	0.488070	0.407180
N371	N37	0.134000	0.641800	0.283610
N381	N38	0.237400	0.428140	0.277050
N391	N39	0.589600	0.596740	0.500090
N401	N40	0.609800	0.475860	0.308810
O11	O1	0.152850	0.542390	0.956380
O21	O2	0.140930	0.555840	0.733810
O31	O3	0.250720	0.546820	0.866480
O41	O4	0.980890	0.500980	0.697210
O51	O5	0.347150	0.957610	0.956380
O61	O6	0.359070	0.944160	0.733810
O71	O7	0.249280	0.953180	0.866480
O81	O8	0.519110	0.999020	0.697210
O91	O9	0.847150	0.042390	0.543620
O101	O10	0.859070	0.055840	0.766190
O111	O11	0.749280	0.046820	0.633520
O121	O12	0.019110	0.000980	0.802790
O131	O13	0.652850	0.457610	0.543620
O141	O14	0.640930	0.444160	0.766190
O151	O15	0.750720	0.453180	0.633520
O161	O16	0.480890	0.499020	0.802790
O171	O17	0.847150	0.457610	0.043620
O181	O18	0.859070	0.444160	0.266190
O191	O19	0.749280	0.453180	0.133520
O201	O20	0.019110	0.499020	0.302790
O211	O21	0.652850	0.042390	0.043620
O221	O22	0.640930	0.055840	0.266190
O231	O23	0.750720	0.046820	0.133520
O241	O24	0.480890	0.000980	0.302790
O251	O25	0.152850	0.957610	0.456380
O261	O26	0.140930	0.944160	0.233810
O271	O27	0.250720	0.953180	0.366480
O281	O28	0.980890	0.999020	0.197210
O291	O29	0.347150	0.542390	0.456380
O301	O30	0.359070	0.555840	0.233810
O311	O31	0.249280	0.546820	0.366480
O321	O32	0.519110	0.500980	0.197210
