data_ABULOB_clean_PM
_symmetry_space_group_name_H-M	'P1'
_cell_length_a	8.500900
_cell_length_b	15.365200
_cell_length_c	13.374000
_cell_angle_alpha	90.000000
_cell_angle_beta	90.000000
_cell_angle_gamma	90.000000
_symmetry_Int_Tables_number 1

loop_
_symmetry_equiv_pos_as_xyz
'x,y,z'

loop_
_atom_site_label
_atom_site_type_symbol
_atom_site_fract_x
_atom_site_fract_y
_atom_site_fract_z
Be11	Be1	0.534300	0.411270	0.390870
P11	P1	0.027440	0.098070	0.387810
H11	H1	0.157700	0.090200	0.337800
P21	P2	0.252900	0.368650	0.272540
H21	H2	0.166900	0.438500	0.260600
O11	O1	0.071810	0.120490	0.494940
O21	O2	0.936830	0.014260	0.377580
O31	O3	0.937160	0.173880	0.340730
O41	O4	0.142000	0.294380	0.294090
O51	O5	0.344470	0.355530	0.177180
O61	O6	0.352710	0.384250	0.365070
Be21	Be2	0.965700	0.088730	0.890870
P31	P3	0.472560	0.401930	0.887810
H31	H3	0.342300	0.409800	0.837800
P41	P4	0.247100	0.131350	0.772540
H41	H4	0.333100	0.061500	0.760600
O71	O7	0.428190	0.379510	0.994940
O81	O8	0.563170	0.485740	0.877580
O91	O9	0.562840	0.326120	0.840730
O101	O10	0.358000	0.205620	0.794090
O111	O11	0.155530	0.144470	0.677180
O121	O12	0.147290	0.115750	0.865070
Be31	Be3	0.465700	0.411270	0.109130
P51	P5	0.972560	0.098070	0.112190
H51	H5	0.842300	0.090200	0.162200
P61	P6	0.747100	0.368650	0.227460
H61	H6	0.833100	0.438500	0.239400
O131	O13	0.928190	0.120490	0.005060
O141	O14	0.063170	0.014260	0.122420
O151	O15	0.062840	0.173880	0.159270
O161	O16	0.858000	0.294380	0.205910
O171	O17	0.655530	0.355530	0.322820
O181	O18	0.647290	0.384250	0.134930
Be41	Be4	0.034300	0.088730	0.609130
P71	P7	0.527440	0.401930	0.612190
H71	H7	0.657700	0.409800	0.662200
P81	P8	0.752900	0.131350	0.727460
H81	H8	0.666900	0.061500	0.739400
O191	O19	0.571810	0.379510	0.505060
O201	O20	0.436830	0.485740	0.622420
O211	O21	0.437160	0.326120	0.659270
O221	O22	0.642000	0.205620	0.705910
O231	O23	0.844470	0.144470	0.822820
O241	O24	0.852710	0.115750	0.634930
Be51	Be5	0.465700	0.588730	0.609130
P91	P9	0.972560	0.901930	0.612190
H91	H9	0.842300	0.909800	0.662200
P101	P10	0.747100	0.631350	0.727460
H101	H10	0.833100	0.561500	0.739400
O251	O25	0.928190	0.879510	0.505060
O261	O26	0.063170	0.985740	0.622420
O271	O27	0.062840	0.826120	0.659270
O281	O28	0.858000	0.705620	0.705910
O291	O29	0.655530	0.644470	0.822820
O301	O30	0.647290	0.615750	0.634930
Be61	Be6	0.034300	0.911270	0.109130
P111	P11	0.527440	0.598070	0.112190
H111	H11	0.657700	0.590200	0.162200
P121	P12	0.752900	0.868650	0.227460
H121	H12	0.666900	0.938500	0.239400
O311	O31	0.571810	0.620490	0.005060
O321	O32	0.436830	0.514260	0.122420
O331	O33	0.437160	0.673880	0.159270
O341	O34	0.642000	0.794380	0.205910
O351	O35	0.844470	0.855530	0.322820
O361	O36	0.852710	0.884250	0.134930
Be71	Be7	0.534300	0.588730	0.890870
P131	P13	0.027440	0.901930	0.887810
H131	H13	0.157700	0.909800	0.837800
P141	P14	0.252900	0.631350	0.772540
H141	H14	0.166900	0.561500	0.760600
O371	O37	0.071810	0.879510	0.994940
O381	O38	0.936830	0.985740	0.877580
O391	O39	0.937160	0.826120	0.840730
O401	O40	0.142000	0.705620	0.794090
O411	O41	0.344470	0.644470	0.677180
O421	O42	0.352710	0.615750	0.865070
Be81	Be8	0.965700	0.911270	0.390870
P151	P15	0.472560	0.598070	0.387810
H151	H15	0.342300	0.590200	0.337800
P161	P16	0.247100	0.868650	0.272540
H161	H16	0.333100	0.938500	0.260600
O431	O43	0.428190	0.620490	0.494940
O441	O44	0.563170	0.514260	0.377580
O451	O45	0.562840	0.673880	0.340730
O461	O46	0.358000	0.794380	0.294090
O471	O47	0.155530	0.855530	0.177180
O481	O48	0.147290	0.884250	0.365070
Be91	Be9	0.000000	0.237100	0.250000
Be101	Be10	0.500000	0.262900	0.750000
Be111	Be11	0.000000	0.762900	0.750000
Be121	Be12	0.500000	0.737100	0.250000
