data_ABUWOJ_clean_PM
_symmetry_space_group_name_H-M	'P1'
_cell_length_a	14.498800
_cell_length_b	17.165900
_cell_length_c	18.153600
_cell_angle_alpha	90.000000
_cell_angle_beta	90.000000
_cell_angle_gamma	90.000000
_symmetry_Int_Tables_number 1

loop_
_symmetry_equiv_pos_as_xyz
'x,y,z'

loop_
_atom_site_label
_atom_site_type_symbol
_atom_site_fract_x
_atom_site_fract_y
_atom_site_fract_z
Zn11	Zn1	0.444490	0.939480	0.451770
Zn21	Zn2	0.652920	0.947050	0.397640
Zn31	Zn3	0.555510	0.439480	0.048230
Zn41	Zn4	0.347080	0.447050	0.102360
Zn51	Zn5	0.555510	0.060520	0.548230
Zn61	Zn6	0.347080	0.052950	0.602360
Zn71	Zn7	0.444490	0.560520	0.951770
Zn81	Zn8	0.652920	0.552950	0.897640
H11	H1	0.609700	0.927600	0.521100
H21	H2	0.369100	0.120800	0.302000
H31	H3	0.338800	0.231800	0.233400
H41	H4	0.596000	0.225200	0.153100
H51	H5	0.626500	0.115800	0.222700
H61	H6	0.935800	0.891100	0.553700
H71	H7	0.921600	0.065100	0.407500
H81	H8	0.390300	0.427600	0.978900
H91	H9	0.630900	0.620800	0.198000
H101	H10	0.661200	0.731800	0.266600
H111	H11	0.404000	0.725200	0.346900
H121	H12	0.373500	0.615800	0.277300
H131	H13	0.064200	0.391100	0.946300
H141	H14	0.078400	0.565100	0.092500
H151	H15	0.390300	0.072400	0.478900
H161	H16	0.630900	0.879200	0.698000
H171	H17	0.661200	0.768200	0.766600
H181	H18	0.404000	0.774800	0.846900
H191	H19	0.373500	0.884200	0.777300
H201	H20	0.064200	0.108900	0.446300
H211	H21	0.078400	0.934900	0.592500
H221	H22	0.609700	0.572400	0.021100
H231	H23	0.369100	0.379200	0.802000
H241	H24	0.338800	0.268200	0.733400
H251	H25	0.596000	0.274800	0.653100
H261	H26	0.626500	0.384200	0.722700
H271	H27	0.935800	0.608900	0.053700
H281	H28	0.921600	0.434900	0.907500
C11	C1	0.522800	0.040900	0.320700
C21	C2	0.500700	0.107600	0.270400
C31	C3	0.415200	0.142100	0.272600
C41	C4	0.396800	0.208600	0.231400
C51	C5	0.465400	0.240200	0.187300
C61	C6	0.550600	0.204800	0.183700
C71	C7	0.568600	0.139100	0.225100
C81	C8	0.449300	0.314200	0.144700
C91	C9	0.819700	0.945100	0.454300
C101	C10	0.914200	0.973500	0.476900
C111	C11	0.961600	0.935100	0.532000
C121	C12	0.952900	0.038800	0.444700
C131	C13	0.477200	0.540900	0.179300
C141	C14	0.499300	0.607600	0.229600
C151	C15	0.584800	0.642100	0.227400
C161	C16	0.603200	0.708600	0.268600
C171	C17	0.534600	0.740200	0.312700
C181	C18	0.449400	0.704800	0.316300
C191	C19	0.431400	0.639100	0.274900
C201	C20	0.550700	0.814200	0.355300
C211	C21	0.180300	0.445100	0.045700
C221	C22	0.085800	0.473500	0.023100
C231	C23	0.038400	0.435100	0.968000
C241	C24	0.047100	0.538800	0.055300
C251	C25	0.477200	0.959100	0.679300
C261	C26	0.499300	0.892400	0.729600
C271	C27	0.584800	0.857900	0.727400
C281	C28	0.603200	0.791400	0.768600
C291	C29	0.534600	0.759800	0.812700
C301	C30	0.449400	0.795200	0.816300
C311	C31	0.431400	0.860900	0.774900
C321	C32	0.550700	0.685800	0.855300
C331	C33	0.180300	0.054900	0.545700
C341	C34	0.085800	0.026500	0.523100
C351	C35	0.038400	0.064900	0.468000
C361	C36	0.047100	0.961200	0.555300
C371	C37	0.522800	0.459100	0.820700
C381	C38	0.500700	0.392400	0.770400
C391	C39	0.415200	0.357900	0.772600
C401	C40	0.396800	0.291400	0.731400
C411	C41	0.465400	0.259800	0.687300
C421	C42	0.550600	0.295200	0.683700
C431	C43	0.568600	0.360900	0.725100
C441	C44	0.449300	0.185800	0.644700
C451	C45	0.819700	0.554900	0.954300
C461	C46	0.914200	0.526500	0.976900
C471	C47	0.961600	0.564900	0.032000
C481	C48	0.952900	0.461200	0.944700
O11	O1	0.580700	0.960300	0.487100
O21	O2	0.459100	0.014300	0.359800
O31	O3	0.604400	0.015900	0.320000
O41	O4	0.515600	0.342500	0.111500
O51	O5	0.368500	0.343100	0.147200
O61	O6	0.781400	0.980600	0.403300
O71	O7	0.784800	0.889300	0.487500
O81	O8	0.419300	0.460300	0.012900
O91	O9	0.540900	0.514300	0.140200
O101	O10	0.395600	0.515900	0.180000
O111	O11	0.484400	0.842500	0.388500
O121	O12	0.631500	0.843100	0.352800
O131	O13	0.218600	0.480600	0.096700
O141	O14	0.215200	0.389300	0.012500
O151	O15	0.419300	0.039700	0.512900
O161	O16	0.540900	0.985700	0.640200
O171	O17	0.395600	0.984100	0.680000
O181	O18	0.484400	0.657500	0.888500
O191	O19	0.631500	0.656900	0.852800
O201	O20	0.218600	0.019400	0.596700
O211	O21	0.215200	0.110700	0.512500
O221	O22	0.580700	0.539700	0.987100
O231	O23	0.459100	0.485700	0.859800
O241	O24	0.604400	0.484100	0.820000
O251	O25	0.515600	0.157500	0.611500
O261	O26	0.368500	0.156900	0.647200
O271	O27	0.781400	0.519400	0.903300
O281	O28	0.784800	0.610700	0.987500
Zn91	Zn9	0.055510	0.060520	0.951770
Zn101	Zn10	0.847080	0.052950	0.897640
Zn111	Zn11	0.944490	0.560520	0.548230
Zn121	Zn12	0.152920	0.552950	0.602360
Zn131	Zn13	0.944490	0.939480	0.048230
Zn141	Zn14	0.152920	0.947050	0.102360
Zn151	Zn15	0.055510	0.439480	0.451770
Zn161	Zn16	0.847080	0.447050	0.397640
H291	H29	0.890300	0.072400	0.021100
H301	H30	0.130900	0.879200	0.802000
H311	H31	0.161200	0.768200	0.733400
H321	H32	0.904000	0.774800	0.653100
H331	H33	0.873500	0.884200	0.722700
H341	H34	0.564200	0.108900	0.053700
H351	H35	0.578400	0.934900	0.907500
H361	H36	0.109700	0.572400	0.478900
H371	H37	0.869100	0.379200	0.698000
H381	H38	0.838800	0.268200	0.766600
H391	H39	0.096000	0.274800	0.846900
H401	H40	0.126500	0.384200	0.777300
H411	H41	0.435800	0.608900	0.446300
H421	H42	0.421600	0.434900	0.592500
H431	H43	0.109700	0.927600	0.978900
H441	H44	0.869100	0.120800	0.198000
H451	H45	0.838800	0.231800	0.266600
H461	H46	0.096000	0.225200	0.346900
H471	H47	0.126500	0.115800	0.277300
H481	H48	0.435800	0.891100	0.946300
H491	H49	0.421600	0.065100	0.092500
H501	H50	0.890300	0.427600	0.521100
H511	H51	0.130900	0.620800	0.302000
H521	H52	0.161200	0.731800	0.233400
H531	H53	0.904000	0.725200	0.153100
H541	H54	0.873500	0.615800	0.222700
H551	H55	0.564200	0.391100	0.553700
H561	H56	0.578400	0.565100	0.407500
C491	C49	0.977200	0.959100	0.820700
C501	C50	0.999300	0.892400	0.770400
C511	C51	0.084800	0.857900	0.772600
C521	C52	0.103200	0.791400	0.731400
C531	C53	0.034600	0.759800	0.687300
C541	C54	0.949400	0.795200	0.683700
C551	C55	0.931400	0.860900	0.725100
C561	C56	0.050700	0.685800	0.644700
C571	C57	0.680300	0.054900	0.954300
C581	C58	0.585800	0.026500	0.976900
C591	C59	0.538400	0.064900	0.032000
C601	C60	0.547100	0.961200	0.944700
C611	C61	0.022800	0.459100	0.679300
C621	C62	0.000700	0.392400	0.729600
C631	C63	0.915200	0.357900	0.727400
C641	C64	0.896800	0.291400	0.768600
C651	C65	0.965400	0.259800	0.812700
C661	C66	0.050600	0.295200	0.816300
C671	C67	0.068600	0.360900	0.774900
C681	C68	0.949300	0.185800	0.855300
C691	C69	0.319700	0.554900	0.545700
C701	C70	0.414200	0.526500	0.523100
C711	C71	0.461600	0.564900	0.468000
C721	C72	0.452900	0.461200	0.555300
C731	C73	0.022800	0.040900	0.179300
C741	C74	0.000700	0.107600	0.229600
C751	C75	0.915200	0.142100	0.227400
C761	C76	0.896800	0.208600	0.268600
C771	C77	0.965400	0.240200	0.312700
C781	C78	0.050600	0.204800	0.316300
C791	C79	0.068600	0.139100	0.274900
C801	C80	0.949300	0.314200	0.355300
C811	C81	0.319700	0.945100	0.045700
C821	C82	0.414200	0.973500	0.023100
C831	C83	0.461600	0.935100	0.968000
C841	C84	0.452900	0.038800	0.055300
C851	C85	0.977200	0.540900	0.320700
C861	C86	0.999300	0.607600	0.270400
C871	C87	0.084800	0.642100	0.272600
C881	C88	0.103200	0.708600	0.231400
C891	C89	0.034600	0.740200	0.187300
C901	C90	0.949400	0.704800	0.183700
C911	C91	0.931400	0.639100	0.225100
C921	C92	0.050700	0.814200	0.144700
C931	C93	0.680300	0.445100	0.454300
C941	C94	0.585800	0.473500	0.476900
C951	C95	0.538400	0.435100	0.532000
C961	C96	0.547100	0.538800	0.444700
O291	O29	0.919300	0.039700	0.987100
O301	O30	0.040900	0.985700	0.859800
O311	O31	0.895600	0.984100	0.820000
O321	O32	0.984400	0.657500	0.611500
O331	O33	0.131500	0.656900	0.647200
O341	O34	0.718600	0.019400	0.903300
O351	O35	0.715200	0.110700	0.987500
O361	O36	0.080700	0.539700	0.512900
O371	O37	0.959100	0.485700	0.640200
O381	O38	0.104400	0.484100	0.680000
O391	O39	0.015600	0.157500	0.888500
O401	O40	0.868500	0.156900	0.852800
O411	O41	0.281400	0.519400	0.596700
O421	O42	0.284800	0.610700	0.512500
O431	O43	0.080700	0.960300	0.012900
O441	O44	0.959100	0.014300	0.140200
O451	O45	0.104400	0.015900	0.180000
O461	O46	0.015600	0.342500	0.388500
O471	O47	0.868500	0.343100	0.352800
O481	O48	0.281400	0.980600	0.096700
O491	O49	0.284800	0.889300	0.012500
O501	O50	0.919300	0.460300	0.487100
O511	O51	0.040900	0.514300	0.359800
O521	O52	0.895600	0.515900	0.320000
O531	O53	0.984400	0.842500	0.111500
O541	O54	0.131500	0.843100	0.147200
O551	O55	0.718600	0.480600	0.403300
O561	O56	0.715200	0.389300	0.487500
