data_ACAJIY_clean_PM
_symmetry_space_group_name_H-M	'P1'
_cell_length_a	17.508000
_cell_length_b	17.508000
_cell_length_c	20.788800
_cell_angle_alpha	90.000000
_cell_angle_beta	90.000000
_cell_angle_gamma	120.000000
_symmetry_Int_Tables_number 1

loop_
_symmetry_equiv_pos_as_xyz
'x,y,z'

loop_
_atom_site_label
_atom_site_type_symbol
_atom_site_fract_x
_atom_site_fract_y
_atom_site_fract_z
N11	N1	0.800700	0.566900	0.437440
N21	N2	0.740100	0.576680	0.470320
N31	N3	0.687200	0.509330	0.505540
N41	N4	0.712420	0.449970	0.495770
C11	C1	0.779900	0.485300	0.453980
H11	H1	0.809100	0.455800	0.438200
N51	N5	0.951700	0.768500	0.615670
N61	N6	0.878800	0.773800	0.613550
N71	N7	0.883800	0.842700	0.643700
N81	N8	0.964080	0.884700	0.667270
C21	C2	0.004300	0.839400	0.649270
H21	H2	0.063600	0.856700	0.659700
N91	N9	0.562700	0.771200	0.011040
N101	N10	0.574720	0.839200	0.975700
N111	N11	0.508120	0.822150	0.936880
N121	N12	0.448580	0.738930	0.948360
C31	C3	0.483200	0.709400	0.992840
H31	H3	0.453900	0.650900	0.009300
N131	N13	0.780600	0.805400	0.838600
N141	N14	0.769500	0.874300	0.835860
N151	N15	0.830100	0.941800	0.803870
N161	N16	0.885760	0.917250	0.783820
C41	C4	0.855300	0.834900	0.805200
H41	H4	0.883500	0.801400	0.797500
C51	C5	0.657900	0.923600	0.973550
H51	H5	0.678000	0.944700	0.017900
H61	H6	0.648500	0.968200	0.951200
C61	C6	0.727800	0.913000	0.938600
H71	H7	0.739900	0.871400	0.962700
H81	H8	0.783100	0.970600	0.936800
C71	C7	0.698700	0.878500	0.870400
H91	H9	0.645800	0.818900	0.872100
H101	H10	0.682800	0.917800	0.847000
C81	C8	0.736300	0.658500	0.467200
H111	H11	0.679400	0.648200	0.484900
H121	H12	0.740400	0.677600	0.421900
C91	C9	0.812400	0.730400	0.506000
H131	H13	0.868500	0.734600	0.492200
H141	H14	0.816400	0.787900	0.497400
C101	C10	0.799800	0.711300	0.577800
H151	H15	0.748600	0.715600	0.593000
H161	H16	0.787500	0.650400	0.585900
N171	N17	0.467370	0.900230	0.770770
N181	N18	0.406770	0.910010	0.803650
N191	N19	0.353870	0.842660	0.838870
N201	N20	0.379090	0.783300	0.829100
C111	C11	0.446570	0.818630	0.787310
H171	H17	0.475770	0.789130	0.771530
N211	N21	0.618370	0.101830	0.949000
N221	N22	0.545470	0.107130	0.946880
N231	N23	0.550470	0.176030	0.977030
N241	N24	0.630750	0.218030	0.000600
C121	C12	0.670970	0.172730	0.982600
H181	H18	0.730270	0.190030	0.993030
N251	N25	0.229370	0.104530	0.344370
N261	N26	0.241390	0.172530	0.309030
N271	N27	0.174790	0.155480	0.270210
N281	N28	0.115250	0.072260	0.281690
C131	C13	0.149870	0.042730	0.326170
H191	H19	0.120570	0.984230	0.342630
N291	N29	0.447270	0.138730	0.171930
N301	N30	0.436170	0.207630	0.169190
N311	N31	0.496770	0.275130	0.137200
N321	N32	0.552430	0.250580	0.117150
C141	C14	0.521970	0.168230	0.138530
H201	H20	0.550170	0.134730	0.130830
C151	C15	0.324570	0.256930	0.306880
H211	H21	0.344670	0.278030	0.351230
H221	H22	0.315170	0.301530	0.284530
C161	C16	0.394470	0.246330	0.271930
H231	H23	0.406570	0.204730	0.296030
H241	H24	0.449770	0.303930	0.270130
C171	C17	0.365370	0.211830	0.203730
H251	H25	0.312470	0.152230	0.205430
H261	H26	0.349470	0.251130	0.180330
C181	C18	0.402970	0.991830	0.800530
H271	H27	0.346070	0.981530	0.818230
H281	H28	0.407070	0.010930	0.755230
C191	C19	0.479070	0.063730	0.839330
H291	H29	0.535170	0.067930	0.825530
H301	H30	0.483070	0.121230	0.830730
C201	C20	0.466470	0.044630	0.911130
H311	H31	0.415270	0.048930	0.926330
H321	H32	0.454170	0.983730	0.919230
N331	N33	0.134030	0.233570	0.104110
N341	N34	0.073430	0.243350	0.136990
N351	N35	0.020530	0.176000	0.172210
N361	N36	0.045750	0.116640	0.162440
C211	C21	0.113230	0.151970	0.120650
H331	H33	0.142430	0.122470	0.104870
N371	N37	0.285030	0.435170	0.282340
N381	N38	0.212130	0.440470	0.280220
N391	N39	0.217130	0.509370	0.310370
N401	N40	0.297410	0.551370	0.333940
C221	C22	0.337630	0.506070	0.315940
H341	H34	0.396930	0.523370	0.326370
N411	N41	0.896030	0.437870	0.677710
N421	N42	0.908050	0.505870	0.642370
N431	N43	0.841450	0.488820	0.603550
N441	N44	0.781910	0.405600	0.615030
C231	C23	0.816530	0.376070	0.659510
H351	H35	0.787230	0.317570	0.675970
N451	N45	0.113930	0.472070	0.505270
N461	N46	0.102830	0.540970	0.502530
N471	N47	0.163430	0.608470	0.470540
N481	N48	0.219090	0.583920	0.450490
C241	C24	0.188630	0.501570	0.471870
H361	H36	0.216830	0.468070	0.464170
C251	C25	0.991230	0.590270	0.640220
H371	H37	0.011330	0.611370	0.684570
H381	H38	0.981830	0.634870	0.617870
C261	C26	0.061130	0.579670	0.605270
H391	H39	0.073230	0.538070	0.629370
H401	H40	0.116430	0.637270	0.603470
C271	C27	0.032030	0.545170	0.537070
H411	H41	0.979130	0.485570	0.538770
H421	H42	0.016130	0.584470	0.513670
C281	C28	0.069630	0.325170	0.133870
H431	H43	0.012730	0.314870	0.151570
H441	H44	0.073730	0.344270	0.088570
C291	C29	0.145730	0.397070	0.172670
H451	H45	0.201830	0.401270	0.158870
H461	H46	0.149730	0.454570	0.164070
C301	C30	0.133130	0.377970	0.244470
H471	H47	0.081930	0.382270	0.259670
H481	H48	0.120830	0.317070	0.252570
N491	N49	0.433100	0.233800	0.437440
N501	N50	0.423320	0.163420	0.470320
N511	N51	0.490670	0.177870	0.505540
N521	N52	0.550030	0.262450	0.495770
C311	C31	0.514700	0.294600	0.453980
H491	H49	0.544200	0.353300	0.438200
N531	N53	0.231500	0.183200	0.615670
N541	N54	0.226200	0.105000	0.613550
N551	N55	0.157300	0.041100	0.643700
N561	N56	0.115300	0.079380	0.667270
C321	C32	0.160600	0.164900	0.649270
H501	H50	0.143300	0.206900	0.659700
N571	N57	0.228800	0.791500	0.011040
N581	N58	0.160800	0.735520	0.975700
N591	N59	0.177850	0.685970	0.936880
N601	N60	0.261070	0.709650	0.948360
C331	C33	0.290600	0.773800	0.992840
H511	H51	0.349100	0.803000	0.009300
N611	N61	0.194600	0.975200	0.838600
N621	N62	0.125700	0.895200	0.835860
N631	N63	0.058200	0.888300	0.803870
N641	N64	0.082750	0.968510	0.783820
C341	C34	0.165100	0.020400	0.805200
H521	H52	0.198600	0.082100	0.797500
C351	C35	0.076400	0.734300	0.973550
H531	H53	0.055300	0.733300	0.017900
H541	H54	0.031800	0.680300	0.951200
C361	C36	0.087000	0.814800	0.938600
H551	H55	0.128600	0.868500	0.962700
H561	H56	0.029400	0.812500	0.936800
C371	C37	0.121500	0.820200	0.870400
H571	H57	0.181100	0.826900	0.872100
H581	H58	0.082200	0.765000	0.847000
C381	C38	0.341500	0.077800	0.467200
H591	H59	0.351800	0.031200	0.484900
H601	H60	0.322400	0.062800	0.421900
C391	C39	0.269600	0.082000	0.506000
H611	H61	0.265400	0.133900	0.492200
H621	H62	0.212100	0.028500	0.497400
C401	C40	0.288700	0.088500	0.577800
H631	H63	0.284400	0.033000	0.593000
H641	H64	0.349600	0.137100	0.585900
N651	N65	0.099770	0.567130	0.770770
N661	N66	0.089990	0.496750	0.803650
N671	N67	0.157340	0.511200	0.838870
N681	N68	0.216700	0.595780	0.829100
C411	C41	0.181370	0.627930	0.787310
H651	H65	0.210870	0.686630	0.771530
N691	N69	0.898170	0.516530	0.949000
N701	N70	0.892870	0.438330	0.946880
N711	N71	0.823970	0.374430	0.977030
N721	N72	0.781970	0.412710	0.000600
C421	C42	0.827270	0.498230	0.982600
H661	H66	0.809970	0.540230	0.993030
N731	N73	0.895470	0.124830	0.344370
N741	N74	0.827470	0.068850	0.309030
N751	N75	0.844520	0.019300	0.270210
N761	N76	0.927740	0.042980	0.281690
C431	C43	0.957270	0.107130	0.326170
H671	H67	0.015770	0.136330	0.342630
N771	N77	0.861270	0.308530	0.171930
N781	N78	0.792370	0.228530	0.169190
N791	N79	0.724870	0.221630	0.137200
N801	N80	0.749420	0.301840	0.117150
C441	C44	0.831770	0.353730	0.138530
H681	H68	0.865270	0.415430	0.130830
C451	C45	0.743070	0.067630	0.306880
H691	H69	0.721970	0.066630	0.351230
H701	H70	0.698470	0.013630	0.284530
C461	C46	0.753670	0.148130	0.271930
H711	H71	0.795270	0.201830	0.296030
H721	H72	0.696070	0.145830	0.270130
C471	C47	0.788170	0.153530	0.203730
H731	H73	0.847770	0.160230	0.205430
H741	H74	0.748870	0.098330	0.180330
C481	C48	0.008170	0.411130	0.800530
H751	H75	0.018470	0.364530	0.818230
H761	H76	0.989070	0.396130	0.755230
C491	C49	0.936270	0.415330	0.839330
H771	H77	0.932070	0.467230	0.825530
H781	H78	0.878770	0.361830	0.830730
C501	C50	0.955370	0.421830	0.911130
H791	H79	0.951070	0.366330	0.926330
H801	H80	0.016270	0.470430	0.919230
N811	N81	0.766430	0.900470	0.104110
N821	N82	0.756650	0.830090	0.136990
N831	N83	0.824000	0.844540	0.172210
N841	N84	0.883360	0.929120	0.162440
C511	C51	0.848030	0.961270	0.120650
H811	H81	0.877530	0.019970	0.104870
N851	N85	0.564830	0.849870	0.282340
N861	N86	0.559530	0.771670	0.280220
N871	N87	0.490630	0.707770	0.310370
N881	N88	0.448630	0.746050	0.333940
C521	C52	0.493930	0.831570	0.315940
H821	H82	0.476630	0.873570	0.326370
N891	N89	0.562130	0.458170	0.677710
N901	N90	0.494130	0.402190	0.642370
N911	N91	0.511180	0.352640	0.603550
N921	N92	0.594400	0.376320	0.615030
C531	C53	0.623930	0.440470	0.659510
H831	H83	0.682430	0.469670	0.675970
N931	N93	0.527930	0.641870	0.505270
N941	N94	0.459030	0.561870	0.502530
N951	N95	0.391530	0.554970	0.470540
N961	N96	0.416080	0.635180	0.450490
C541	C54	0.498430	0.687070	0.471870
H841	H84	0.531930	0.748770	0.464170
C551	C55	0.409730	0.400970	0.640220
H851	H85	0.388630	0.399970	0.684570
H861	H86	0.365130	0.346970	0.617870
C561	C56	0.420330	0.481470	0.605270
H871	H87	0.461930	0.535170	0.629370
H881	H88	0.362730	0.479170	0.603470
C571	C57	0.454830	0.486870	0.537070
H891	H89	0.514430	0.493570	0.538770
H901	H90	0.415530	0.431670	0.513670
C581	C58	0.674830	0.744470	0.133870
H911	H91	0.685130	0.697870	0.151570
H921	H92	0.655730	0.729470	0.088570
C591	C59	0.602930	0.748670	0.172670
H931	H93	0.598730	0.800570	0.158870
H941	H94	0.545430	0.695170	0.164070
C601	C60	0.622030	0.755170	0.244470
H951	H95	0.617730	0.699670	0.259670
H961	H96	0.682930	0.803770	0.252570
N971	N97	0.766200	0.199300	0.437440
N981	N98	0.836580	0.259900	0.470320
N991	N99	0.822130	0.312800	0.505540
N1001	N100	0.737550	0.287580	0.495770
C611	C61	0.705400	0.220100	0.453980
H971	H97	0.646700	0.190900	0.438200
N1011	N101	0.816800	0.048300	0.615670
N1021	N102	0.895000	0.121200	0.613550
N1031	N103	0.958900	0.116200	0.643700
N1041	N104	0.920620	0.035920	0.667270
C621	C62	0.835100	0.995700	0.649270
H981	H98	0.793100	0.936400	0.659700
N1051	N105	0.208500	0.437300	0.011040
N1061	N106	0.264480	0.425280	0.975700
N1071	N107	0.314030	0.491880	0.936880
N1081	N108	0.290350	0.551420	0.948360
C631	C63	0.226200	0.516800	0.992840
H991	H99	0.197000	0.546100	0.009300
N1091	N109	0.024800	0.219400	0.838600
N1101	N110	0.104800	0.230500	0.835860
N1111	N111	0.111700	0.169900	0.803870
N1121	N112	0.031490	0.114240	0.783820
C641	C64	0.979600	0.144700	0.805200
H1001	H100	0.917900	0.116500	0.797500
C651	C65	0.265700	0.342100	0.973550
H1011	H101	0.266700	0.322000	0.017900
H1021	H102	0.319700	0.351500	0.951200
C661	C66	0.185200	0.272200	0.938600
H1031	H103	0.131500	0.260100	0.962700
H1041	H104	0.187500	0.216900	0.936800
C671	C67	0.179800	0.301300	0.870400
H1051	H105	0.173100	0.354200	0.872100
H1061	H106	0.235000	0.317200	0.847000
C681	C68	0.922200	0.263700	0.467200
H1071	H107	0.968800	0.320600	0.484900
H1081	H108	0.937200	0.259600	0.421900
C691	C69	0.918000	0.187600	0.506000
H1091	H109	0.866100	0.131500	0.492200
H1101	H110	0.971500	0.183600	0.497400
C701	C70	0.911500	0.200200	0.577800
H1111	H111	0.967000	0.251400	0.593000
H1121	H112	0.862900	0.212500	0.585900
N1131	N113	0.432870	0.532630	0.770770
N1141	N114	0.503250	0.593230	0.803650
N1151	N115	0.488800	0.646130	0.838870
N1161	N116	0.404220	0.620910	0.829100
C711	C71	0.372070	0.553430	0.787310
H1131	H113	0.313370	0.524230	0.771530
N1171	N117	0.483470	0.381630	0.949000
N1181	N118	0.561670	0.454530	0.946880
N1191	N119	0.625570	0.449530	0.977030
N1201	N120	0.587290	0.369250	0.000600
C721	C72	0.501770	0.329030	0.982600
H1141	H114	0.459770	0.269730	0.993030
N1211	N121	0.875170	0.770630	0.344370
N1221	N122	0.931150	0.758610	0.309030
N1231	N123	0.980700	0.825210	0.270210
N1241	N124	0.957020	0.884750	0.281690
C731	C73	0.892870	0.850130	0.326170
H1151	H115	0.863670	0.879430	0.342630
N1251	N125	0.691470	0.552730	0.171930
N1261	N126	0.771470	0.563830	0.169190
N1271	N127	0.778370	0.503230	0.137200
N1281	N128	0.698160	0.447570	0.117150
C741	C74	0.646270	0.478030	0.138530
H1161	H116	0.584570	0.449830	0.130830
C751	C75	0.932370	0.675430	0.306880
H1171	H117	0.933370	0.655330	0.351230
H1181	H118	0.986370	0.684830	0.284530
C761	C76	0.851870	0.605530	0.271930
H1191	H119	0.798170	0.593430	0.296030
H1201	H120	0.854170	0.550230	0.270130
C771	C77	0.846470	0.634630	0.203730
H1211	H121	0.839770	0.687530	0.205430
H1221	H122	0.901670	0.650530	0.180330
C781	C78	0.588870	0.597030	0.800530
H1231	H123	0.635470	0.653930	0.818230
H1241	H124	0.603870	0.592930	0.755230
C791	C79	0.584670	0.520930	0.839330
H1251	H125	0.532770	0.464830	0.825530
H1261	H126	0.638170	0.516930	0.830730
C801	C80	0.578170	0.533530	0.911130
H1271	H127	0.633670	0.584730	0.926330
H1281	H128	0.529570	0.545830	0.919230
N1291	N129	0.099530	0.865970	0.104110
N1301	N130	0.169910	0.926570	0.136990
N1311	N131	0.155460	0.979470	0.172210
N1321	N132	0.070880	0.954250	0.162440
C811	C81	0.038730	0.886770	0.120650
H1291	H129	0.980030	0.857570	0.104870
N1331	N133	0.150130	0.714970	0.282340
N1341	N134	0.228330	0.787870	0.280220
N1351	N135	0.292230	0.782870	0.310370
N1361	N136	0.253950	0.702590	0.333940
C821	C82	0.168430	0.662370	0.315940
H1301	H130	0.126430	0.603070	0.326370
N1371	N137	0.541830	0.103970	0.677710
N1381	N138	0.597810	0.091950	0.642370
N1391	N139	0.647360	0.158550	0.603550
N1401	N140	0.623680	0.218090	0.615030
C831	C83	0.559530	0.183470	0.659510
H1311	H131	0.530330	0.212770	0.675970
N1411	N141	0.358130	0.886070	0.505270
N1421	N142	0.438130	0.897170	0.502530
N1431	N143	0.445030	0.836570	0.470540
N1441	N144	0.364820	0.780910	0.450490
C841	C84	0.312930	0.811370	0.471870
H1321	H132	0.251230	0.783170	0.464170
C851	C85	0.599030	0.008770	0.640220
H1331	H133	0.600030	0.988670	0.684570
H1341	H134	0.653030	0.018170	0.617870
C861	C86	0.518530	0.938870	0.605270
H1351	H135	0.464830	0.926770	0.629370
H1361	H136	0.520830	0.883570	0.603470
C871	C87	0.513130	0.967970	0.537070
H1371	H137	0.506430	0.020870	0.538770
H1381	H138	0.568330	0.983870	0.513670
C881	C88	0.255530	0.930370	0.133870
H1391	H139	0.302130	0.987270	0.151570
H1401	H140	0.270530	0.926270	0.088570
C891	C89	0.251330	0.854270	0.172670
H1411	H141	0.199430	0.798170	0.158870
H1421	H142	0.304830	0.850270	0.164070
C901	C90	0.244830	0.866870	0.244470
H1431	H143	0.300330	0.918070	0.259670
H1441	H144	0.196230	0.879170	0.252570
Zn11	Zn1	0.000000	0.000000	0.724630
Zn21	Zn2	0.666670	0.333330	0.057960
Zn31	Zn3	0.333330	0.666670	0.391300
Zn41	Zn4	0.666670	0.333330	0.555020
Zn51	Zn5	0.333330	0.666670	0.888350
Zn61	Zn6	0.000000	0.000000	0.221690
