data_ACAKUM_clean_PM
_symmetry_space_group_name_H-M	'P1'
_cell_length_a	10.395000
_cell_length_b	10.779000
_cell_length_c	21.445000
_cell_angle_alpha	90.000000
_cell_angle_beta	90.000000
_cell_angle_gamma	112.060000
_symmetry_Int_Tables_number 1

loop_
_symmetry_equiv_pos_as_xyz
'x,y,z'

loop_
_atom_site_label
_atom_site_type_symbol
_atom_site_fract_x
_atom_site_fract_y
_atom_site_fract_z
La11	La1	0.766940	0.759430	0.527800
La21	La2	0.733060	0.240570	0.027800
La31	La3	0.233060	0.240570	0.472200
La41	La4	0.266940	0.759430	0.972200
H11	H1	0.228900	0.804900	0.673500
H21	H2	0.782500	0.178400	0.840800
H31	H3	0.287000	0.486600	0.634000
H41	H4	0.667400	0.072000	0.663500
H51	H5	0.399800	0.908800	0.804000
H61	H6	0.011600	0.299900	0.801500
H71	H7	0.214200	0.495900	0.817900
H81	H8	0.590200	0.714900	0.748700
H91	H9	0.271100	0.195100	0.173500
H101	H10	0.717500	0.821600	0.340800
H111	H11	0.213000	0.513400	0.134000
H121	H12	0.832600	0.928000	0.163500
H131	H13	0.100200	0.091200	0.304000
H141	H14	0.488400	0.700100	0.301500
H151	H15	0.285800	0.504100	0.317900
H161	H16	0.909800	0.285100	0.248700
H171	H17	0.771100	0.195100	0.326500
H181	H18	0.217500	0.821600	0.159200
H191	H19	0.713000	0.513400	0.366000
H201	H20	0.332600	0.928000	0.336500
H211	H21	0.600200	0.091200	0.196000
H221	H22	0.988400	0.700100	0.198500
H231	H23	0.785800	0.504100	0.182100
H241	H24	0.409800	0.285100	0.251300
H251	H25	0.728900	0.804900	0.826500
H261	H26	0.282500	0.178400	0.659200
H271	H27	0.787000	0.486600	0.866000
H281	H28	0.167400	0.072000	0.836500
H291	H29	0.899800	0.908800	0.696000
H301	H30	0.511600	0.299900	0.698500
H311	H31	0.714200	0.495900	0.682100
H321	H32	0.090200	0.714900	0.751300
C11	C1	0.552900	0.661300	0.629450
C21	C2	0.745500	0.141300	0.749000
C31	C3	0.716400	0.127700	0.812200
C41	C4	0.559900	0.021400	0.902460
C51	C5	0.588400	0.038400	0.833110
C61	C6	0.517600	0.980300	0.726910
C71	C7	0.088000	0.383400	0.715930
C81	C8	0.229100	0.476400	0.724930
C91	C9	0.317700	0.518600	0.673780
C101	C10	0.411200	0.905800	0.678910
C111	C11	0.646800	0.065500	0.705860
C121	C12	0.458800	0.661900	0.859080
C131	C13	0.486800	0.965900	0.790340
C141	C14	0.996300	0.305300	0.759020
C151	C15	0.452900	0.609300	0.683130
C161	C16	0.274700	0.523600	0.784270
C171	C17	0.499300	0.655200	0.742880
C181	C18	0.411400	0.612800	0.793780
C191	C19	0.947100	0.338700	0.129450
C201	C20	0.754500	0.858700	0.249000
C211	C21	0.783600	0.872300	0.312200
C221	C22	0.940100	0.978600	0.402460
C231	C23	0.911600	0.961600	0.333110
C241	C24	0.982400	0.019700	0.226910
C251	C25	0.412000	0.616600	0.215930
C261	C26	0.270900	0.523600	0.224930
C271	C27	0.182300	0.481400	0.173780
C281	C28	0.088800	0.094200	0.178910
C291	C29	0.853200	0.934500	0.205860
C301	C30	0.041200	0.338100	0.359080
C311	C31	0.013200	0.034100	0.290340
C321	C32	0.503700	0.694700	0.259020
C331	C33	0.047100	0.390700	0.183130
C341	C34	0.225300	0.476400	0.284270
C351	C35	0.000700	0.344800	0.242880
C361	C36	0.088600	0.387200	0.293780
C371	C37	0.447100	0.338700	0.370550
C381	C38	0.254500	0.858700	0.251000
C391	C39	0.283600	0.872300	0.187800
C401	C40	0.440100	0.978600	0.097540
C411	C41	0.411600	0.961600	0.166890
C421	C42	0.482400	0.019700	0.273090
C431	C43	0.912000	0.616600	0.284070
C441	C44	0.770900	0.523600	0.275070
C451	C45	0.682300	0.481400	0.326220
C461	C46	0.588800	0.094200	0.321090
C471	C47	0.353200	0.934500	0.294140
C481	C48	0.541200	0.338100	0.140920
C491	C49	0.513200	0.034100	0.209660
C501	C50	0.003700	0.694700	0.240980
C511	C51	0.547100	0.390700	0.316870
C521	C52	0.725300	0.476400	0.215730
C531	C53	0.500700	0.344800	0.257120
C541	C54	0.588600	0.387200	0.206220
C551	C55	0.052900	0.661300	0.870550
C561	C56	0.245500	0.141300	0.751000
C571	C57	0.216400	0.127700	0.687800
C581	C58	0.059900	0.021400	0.597540
C591	C59	0.088400	0.038400	0.666890
C601	C60	0.017600	0.980300	0.773090
C611	C61	0.588000	0.383400	0.784070
C621	C62	0.729100	0.476400	0.775070
C631	C63	0.817700	0.518600	0.826220
C641	C64	0.911200	0.905800	0.821090
C651	C65	0.146800	0.065500	0.794140
C661	C66	0.958800	0.661900	0.640920
C671	C67	0.986800	0.965900	0.709660
C681	C68	0.496300	0.305300	0.740980
C691	C69	0.952900	0.609300	0.816870
C701	C70	0.774700	0.523600	0.715730
C711	C71	0.999300	0.655200	0.757120
C721	C72	0.911400	0.612800	0.706220
N11	N1	0.877800	0.237100	0.726690
N21	N2	0.897900	0.275000	0.666250
N31	N3	0.025800	0.362500	0.659500
N41	N4	0.622200	0.762900	0.226690
N51	N5	0.602100	0.725000	0.166250
N61	N6	0.474200	0.637500	0.159500
N71	N7	0.122200	0.762900	0.273310
N81	N8	0.102100	0.725000	0.333750
N91	N9	0.974200	0.637500	0.340500
N101	N10	0.377800	0.237100	0.773310
N111	N11	0.397900	0.275000	0.833750
N121	N12	0.525800	0.362500	0.840500
O11	O1	0.585100	0.723500	0.869890
O21	O2	0.523900	0.601000	0.576760
O31	O3	0.290000	0.838600	0.702970
O41	O4	0.657500	0.084500	0.938280
O51	O5	0.662300	0.759700	0.637920
O61	O6	0.437700	0.909500	0.623620
O71	O7	0.365600	0.635200	0.900330
O81	O8	0.441600	0.946400	0.919620
O91	O9	0.914900	0.276500	0.369890
O101	O10	0.976100	0.399000	0.076760
O111	O11	0.210000	0.161400	0.202970
O121	O12	0.842500	0.915500	0.438280
O131	O13	0.837700	0.240300	0.137920
O141	O14	0.062300	0.090500	0.123620
O151	O15	0.134400	0.364800	0.400330
O161	O16	0.058400	0.053600	0.419620
O171	O17	0.414900	0.276500	0.130110
O181	O18	0.476100	0.399000	0.423240
O191	O19	0.710000	0.161400	0.297030
O201	O20	0.342500	0.915500	0.061720
O211	O21	0.337700	0.240300	0.362080
O221	O22	0.562300	0.090500	0.376380
O231	O23	0.634400	0.364800	0.099670
O241	O24	0.558400	0.053600	0.080380
O251	O25	0.085100	0.723500	0.630110
O261	O26	0.023900	0.601000	0.923240
O271	O27	0.790000	0.838600	0.797030
O281	O28	0.157500	0.084500	0.561720
O291	O29	0.162300	0.759700	0.862080
O301	O30	0.937700	0.909500	0.876380
O311	O31	0.865600	0.635200	0.599670
O321	O32	0.941600	0.946400	0.580380
