data_acs_PM
_symmetry_space_group_name_H-M	'P1'
_cell_length_a	9.737300
_cell_length_b	15.154200
_cell_length_c	21.169500
_cell_angle_alpha	90.000000
_cell_angle_beta	98.756000
_cell_angle_gamma	90.000000
_symmetry_Int_Tables_number 1

loop_
_symmetry_equiv_pos_as_xyz
'x,y,z'

loop_
_atom_site_label
_atom_site_type_symbol
_atom_site_fract_x
_atom_site_fract_y
_atom_site_fract_z
C11	C1	0.421100	0.336200	0.163240
C21	C2	0.454500	0.417500	0.128120
C31	C3	0.466000	0.496200	0.162420
H11	H1	0.451800	0.495700	0.205800
C41	C4	0.497400	0.575000	0.135210
C51	C5	0.521000	0.653500	0.179220
C61	C6	0.510500	0.578500	0.069640
C71	C7	0.531900	0.659900	0.037890
H21	H2	0.540400	0.713300	0.061600
C81	C8	0.459700	0.338200	0.025250
H31	H3	0.446000	0.283200	0.045000
C91	C9	0.470900	0.416900	0.063170
C101	C10	0.495400	0.498900	0.033720
C111	C11	0.183500	0.395700	0.336920
C121	C12	0.088200	0.452600	0.370320
C131	C13	0.999500	0.510700	0.333830
H41	H4	0.999600	0.513800	0.289000
C141	C14	0.910000	0.564900	0.362000
C151	C15	0.808800	0.622600	0.319730
C161	C16	0.090900	0.447100	0.436760
C171	C17	0.180000	0.387000	0.476610
H51	H5	0.239800	0.349200	0.457600
C181	C18	0.819200	0.617000	0.459510
H61	H6	0.758200	0.657100	0.434700
C191	C19	0.909000	0.561700	0.428330
C201	C20	0.999800	0.502400	0.466060
O11	O1	0.474800	0.264560	0.153150
O21	O2	0.337800	0.350080	0.202980
O31	O3	0.444800	0.663480	0.220200
O41	O4	0.624900	0.701480	0.171840
O51	O5	0.124900	0.336510	0.299450
O61	O6	0.309500	0.409530	0.346390
O71	O7	0.684900	0.603140	0.313010
O81	O8	0.859900	0.687680	0.292860
Li11	Li1	0.496200	0.150100	0.189100
Zn11	Zn1	0.269360	0.271020	0.261690
C211	C21	0.578900	0.836200	0.336760
C221	C22	0.545500	0.917500	0.371880
C231	C23	0.534000	0.996200	0.337580
H71	H7	0.548200	0.995700	0.294200
C241	C24	0.502600	0.075000	0.364790
C251	C25	0.479000	0.153500	0.320780
C261	C26	0.489500	0.078500	0.430360
C271	C27	0.468100	0.159900	0.462110
H81	H8	0.459600	0.213300	0.438400
C281	C28	0.540300	0.838200	0.474750
H91	H9	0.554000	0.783200	0.455000
C291	C29	0.529100	0.916900	0.436830
C301	C30	0.504600	0.998900	0.466280
C311	C31	0.816500	0.895700	0.163080
C321	C32	0.911800	0.952600	0.129680
C331	C33	0.000500	0.010700	0.166170
H101	H10	0.000400	0.013800	0.211000
C341	C34	0.090000	0.064900	0.138000
C351	C35	0.191200	0.122600	0.180270
C361	C36	0.909100	0.947100	0.063240
C371	C37	0.820000	0.887000	0.023390
H111	H11	0.760200	0.849200	0.042400
C381	C38	0.180800	0.117000	0.040490
H121	H12	0.241800	0.157100	0.065300
C391	C39	0.091000	0.061700	0.071670
C401	C40	0.000200	0.002400	0.033940
O91	O9	0.525200	0.764560	0.346850
O101	O10	0.662200	0.850080	0.297020
O111	O11	0.555200	0.163480	0.279800
O121	O12	0.375100	0.201480	0.328160
O131	O13	0.875100	0.836510	0.200550
O141	O14	0.690500	0.909530	0.153610
O151	O15	0.315100	0.103140	0.186990
O161	O16	0.140100	0.187680	0.207140
Li21	Li2	0.503800	0.650100	0.310900
Zn21	Zn2	0.730640	0.771020	0.238310
C411	C41	0.578900	0.663800	0.836760
C421	C42	0.545500	0.582500	0.871880
C431	C43	0.534000	0.503800	0.837580
H131	H13	0.548200	0.504300	0.794200
C441	C44	0.502600	0.425000	0.864790
C451	C45	0.479000	0.346500	0.820780
C461	C46	0.489500	0.421500	0.930360
C471	C47	0.468100	0.340100	0.962110
H141	H14	0.459600	0.286700	0.938400
C481	C48	0.540300	0.661800	0.974750
H151	H15	0.554000	0.716800	0.955000
C491	C49	0.529100	0.583100	0.936830
C501	C50	0.504600	0.501100	0.966280
C511	C51	0.816500	0.604300	0.663080
C521	C52	0.911800	0.547400	0.629680
C531	C53	0.000500	0.489300	0.666170
H161	H16	0.000400	0.486200	0.711000
C541	C54	0.090000	0.435100	0.638000
C551	C55	0.191200	0.377400	0.680270
C561	C56	0.909100	0.552900	0.563240
C571	C57	0.820000	0.613000	0.523390
H171	H17	0.760200	0.650800	0.542400
C581	C58	0.180800	0.383000	0.540490
H181	H18	0.241800	0.342900	0.565300
C591	C59	0.091000	0.438300	0.571670
C601	C60	0.000200	0.497600	0.533940
O171	O17	0.525200	0.735440	0.846850
O181	O18	0.662200	0.649920	0.797020
O191	O19	0.555200	0.336520	0.779800
O201	O20	0.375100	0.298520	0.828160
O211	O21	0.875100	0.663490	0.700550
O221	O22	0.690500	0.590470	0.653610
O231	O23	0.315100	0.396860	0.686990
O241	O24	0.140100	0.312320	0.707140
Li31	Li3	0.503800	0.849900	0.810900
Zn31	Zn3	0.730640	0.728980	0.738310
C611	C61	0.421100	0.163800	0.663240
C621	C62	0.454500	0.082500	0.628120
C631	C63	0.466000	0.003800	0.662420
H191	H19	0.451800	0.004300	0.705800
C641	C64	0.497400	0.925000	0.635210
C651	C65	0.521000	0.846500	0.679220
C661	C66	0.510500	0.921500	0.569640
C671	C67	0.531900	0.840100	0.537890
H201	H20	0.540400	0.786700	0.561600
C681	C68	0.459700	0.161800	0.525250
H211	H21	0.446000	0.216800	0.545000
C691	C69	0.470900	0.083100	0.563170
C701	C70	0.495400	0.001100	0.533720
C711	C71	0.183500	0.104300	0.836920
C721	C72	0.088200	0.047400	0.870320
C731	C73	0.999500	0.989300	0.833830
H221	H22	0.999600	0.986200	0.789000
C741	C74	0.910000	0.935100	0.862000
C751	C75	0.808800	0.877400	0.819730
C761	C76	0.090900	0.052900	0.936760
C771	C77	0.180000	0.113000	0.976610
H231	H23	0.239800	0.150800	0.957600
C781	C78	0.819200	0.883000	0.959510
H241	H24	0.758200	0.842900	0.934700
C791	C79	0.909000	0.938300	0.928330
C801	C80	0.999800	0.997600	0.966060
O251	O25	0.474800	0.235440	0.653150
O261	O26	0.337800	0.149920	0.702980
O271	O27	0.444800	0.836520	0.720200
O281	O28	0.624900	0.798520	0.671840
O291	O29	0.124900	0.163490	0.799450
O301	O30	0.309500	0.090470	0.846390
O311	O31	0.684900	0.896860	0.813010
O321	O32	0.859900	0.812320	0.792860
Li41	Li4	0.496200	0.349900	0.689100
Zn41	Zn4	0.269360	0.228980	0.761690
