data_acs_PM
_symmetry_space_group_name_H-M	'P1'
_cell_length_a	21.952400
_cell_length_b	21.952400
_cell_length_c	21.952400
_cell_angle_alpha	90.000000
_cell_angle_beta	90.000000
_cell_angle_gamma	90.000000
_symmetry_Int_Tables_number 1

loop_
_symmetry_equiv_pos_as_xyz
'x,y,z'

loop_
_atom_site_label
_atom_site_type_symbol
_atom_site_fract_x
_atom_site_fract_y
_atom_site_fract_z
Fe11	Fe1	0.760660	0.303440	0.179570
O11	O1	0.745590	0.249280	0.106900
O21	O2	0.703770	0.165890	0.149200
O31	O3	0.726520	0.262600	0.874220
O41	O4	0.686170	0.181100	0.829140
C11	C1	0.721810	0.197300	0.104260
C21	C2	0.706100	0.209000	0.874630
C31	C3	0.715900	0.202800	0.989460
H11	H1	0.723900	0.244400	0.991300
C41	C4	0.713500	0.168900	0.042740
C51	C5	0.706200	0.175000	0.933280
C61	C6	0.697100	0.112800	0.930050
H21	H2	0.691500	0.093800	0.892600
C71	C7	0.696400	0.079400	0.983700
C81	C8	0.703600	0.107200	0.040000
H31	H3	0.701800	0.084200	0.075500
N11	N1	0.692600	0.013720	0.976210
Fe21	Fe2	0.239340	0.696560	0.179570
O51	O5	0.254410	0.750720	0.106900
O61	O6	0.296230	0.834110	0.149200
O71	O7	0.273480	0.737400	0.874220
O81	O8	0.313830	0.818900	0.829140
C91	C9	0.278190	0.802700	0.104260
C101	C10	0.293900	0.791000	0.874630
C111	C11	0.284100	0.797200	0.989460
H41	H4	0.276100	0.755600	0.991300
C121	C12	0.286500	0.831100	0.042740
C131	C13	0.293800	0.825000	0.933280
C141	C14	0.302900	0.887200	0.930050
H51	H5	0.308500	0.906200	0.892600
C151	C15	0.303600	0.920600	0.983700
C161	C16	0.296400	0.892800	0.040000
H61	H6	0.298200	0.915800	0.075500
N21	N2	0.307400	0.986280	0.976210
Fe31	Fe3	0.239340	0.303440	0.820430
O91	O9	0.254410	0.249280	0.893100
O101	O10	0.296230	0.165890	0.850800
O111	O11	0.273480	0.262600	0.125780
O121	O12	0.313830	0.181100	0.170860
C171	C17	0.278190	0.197300	0.895740
C181	C18	0.293900	0.209000	0.125370
C191	C19	0.284100	0.202800	0.010540
H71	H7	0.276100	0.244400	0.008700
C201	C20	0.286500	0.168900	0.957260
C211	C21	0.293800	0.175000	0.066720
C221	C22	0.302900	0.112800	0.069950
H81	H8	0.308500	0.093800	0.107400
C231	C23	0.303600	0.079400	0.016300
C241	C24	0.296400	0.107200	0.960000
H91	H9	0.298200	0.084200	0.924500
N31	N3	0.307400	0.013720	0.023790
Fe41	Fe4	0.760660	0.696560	0.820430
O131	O13	0.745590	0.750720	0.893100
O141	O14	0.703770	0.834110	0.850800
O151	O15	0.726520	0.737400	0.125780
O161	O16	0.686170	0.818900	0.170860
C251	C25	0.721810	0.802700	0.895740
C261	C26	0.706100	0.791000	0.125370
C271	C27	0.715900	0.797200	0.010540
H101	H10	0.723900	0.755600	0.008700
C281	C28	0.713500	0.831100	0.957260
C291	C29	0.706200	0.825000	0.066720
C301	C30	0.697100	0.887200	0.069950
H111	H11	0.691500	0.906200	0.107400
C311	C31	0.696400	0.920600	0.016300
C321	C32	0.703600	0.892800	0.960000
H121	H12	0.701800	0.915800	0.924500
N41	N4	0.692600	0.986280	0.023790
Fe51	Fe5	0.179570	0.760660	0.303440
O171	O17	0.106900	0.745590	0.249280
O181	O18	0.149200	0.703770	0.165890
O191	O19	0.874220	0.726520	0.262600
O201	O20	0.829140	0.686170	0.181100
C331	C33	0.104260	0.721810	0.197300
C341	C34	0.874630	0.706100	0.209000
C351	C35	0.989460	0.715900	0.202800
H131	H13	0.991300	0.723900	0.244400
C361	C36	0.042740	0.713500	0.168900
C371	C37	0.933280	0.706200	0.175000
C381	C38	0.930050	0.697100	0.112800
H141	H14	0.892600	0.691500	0.093800
C391	C39	0.983700	0.696400	0.079400
C401	C40	0.040000	0.703600	0.107200
H151	H15	0.075500	0.701800	0.084200
N51	N5	0.976210	0.692600	0.013720
Fe61	Fe6	0.179570	0.239340	0.696560
O211	O21	0.106900	0.254410	0.750720
O221	O22	0.149200	0.296230	0.834110
O231	O23	0.874220	0.273480	0.737400
O241	O24	0.829140	0.313830	0.818900
C411	C41	0.104260	0.278190	0.802700
C421	C42	0.874630	0.293900	0.791000
C431	C43	0.989460	0.284100	0.797200
H161	H16	0.991300	0.276100	0.755600
C441	C44	0.042740	0.286500	0.831100
C451	C45	0.933280	0.293800	0.825000
C461	C46	0.930050	0.302900	0.887200
H171	H17	0.892600	0.308500	0.906200
C471	C47	0.983700	0.303600	0.920600
C481	C48	0.040000	0.296400	0.892800
H181	H18	0.075500	0.298200	0.915800
N61	N6	0.976210	0.307400	0.986280
Fe71	Fe7	0.820430	0.239340	0.303440
O251	O25	0.893100	0.254410	0.249280
O261	O26	0.850800	0.296230	0.165890
O271	O27	0.125780	0.273480	0.262600
O281	O28	0.170860	0.313830	0.181100
C491	C49	0.895740	0.278190	0.197300
C501	C50	0.125370	0.293900	0.209000
C511	C51	0.010540	0.284100	0.202800
H191	H19	0.008700	0.276100	0.244400
C521	C52	0.957260	0.286500	0.168900
C531	C53	0.066720	0.293800	0.175000
C541	C54	0.069950	0.302900	0.112800
H201	H20	0.107400	0.308500	0.093800
C551	C55	0.016300	0.303600	0.079400
C561	C56	0.960000	0.296400	0.107200
H211	H21	0.924500	0.298200	0.084200
N71	N7	0.023790	0.307400	0.013720
Fe81	Fe8	0.820430	0.760660	0.696560
O291	O29	0.893100	0.745590	0.750720
O301	O30	0.850800	0.703770	0.834110
O311	O31	0.125780	0.726520	0.737400
O321	O32	0.170860	0.686170	0.818900
C571	C57	0.895740	0.721810	0.802700
C581	C58	0.125370	0.706100	0.791000
C591	C59	0.010540	0.715900	0.797200
H221	H22	0.008700	0.723900	0.755600
C601	C60	0.957260	0.713500	0.831100
C611	C61	0.066720	0.706200	0.825000
C621	C62	0.069950	0.697100	0.887200
H231	H23	0.107400	0.691500	0.906200
C631	C63	0.016300	0.696400	0.920600
C641	C64	0.960000	0.703600	0.892800
H241	H24	0.924500	0.701800	0.915800
N81	N8	0.023790	0.692600	0.986280
Fe91	Fe9	0.303440	0.179570	0.760660
O331	O33	0.249280	0.106900	0.745590
O341	O34	0.165890	0.149200	0.703770
O351	O35	0.262600	0.874220	0.726520
O361	O36	0.181100	0.829140	0.686170
C651	C65	0.197300	0.104260	0.721810
C661	C66	0.209000	0.874630	0.706100
C671	C67	0.202800	0.989460	0.715900
H251	H25	0.244400	0.991300	0.723900
C681	C68	0.168900	0.042740	0.713500
C691	C69	0.175000	0.933280	0.706200
C701	C70	0.112800	0.930050	0.697100
H261	H26	0.093800	0.892600	0.691500
C711	C71	0.079400	0.983700	0.696400
C721	C72	0.107200	0.040000	0.703600
H271	H27	0.084200	0.075500	0.701800
N91	N9	0.013720	0.976210	0.692600
Fe101	Fe10	0.696560	0.179570	0.239340
O371	O37	0.750720	0.106900	0.254410
O381	O38	0.834110	0.149200	0.296230
O391	O39	0.737400	0.874220	0.273480
O401	O40	0.818900	0.829140	0.313830
C731	C73	0.802700	0.104260	0.278190
C741	C74	0.791000	0.874630	0.293900
C751	C75	0.797200	0.989460	0.284100
H281	H28	0.755600	0.991300	0.276100
C761	C76	0.831100	0.042740	0.286500
C771	C77	0.825000	0.933280	0.293800
C781	C78	0.887200	0.930050	0.302900
H291	H29	0.906200	0.892600	0.308500
C791	C79	0.920600	0.983700	0.303600
C801	C80	0.892800	0.040000	0.296400
H301	H30	0.915800	0.075500	0.298200
N101	N10	0.986280	0.976210	0.307400
Fe111	Fe11	0.303440	0.820430	0.239340
O411	O41	0.249280	0.893100	0.254410
O421	O42	0.165890	0.850800	0.296230
O431	O43	0.262600	0.125780	0.273480
O441	O44	0.181100	0.170860	0.313830
C811	C81	0.197300	0.895740	0.278190
C821	C82	0.209000	0.125370	0.293900
C831	C83	0.202800	0.010540	0.284100
H311	H31	0.244400	0.008700	0.276100
C841	C84	0.168900	0.957260	0.286500
C851	C85	0.175000	0.066720	0.293800
C861	C86	0.112800	0.069950	0.302900
H321	H32	0.093800	0.107400	0.308500
C871	C87	0.079400	0.016300	0.303600
C881	C88	0.107200	0.960000	0.296400
H331	H33	0.084200	0.924500	0.298200
N111	N11	0.013720	0.023790	0.307400
Fe121	Fe12	0.696560	0.820430	0.760660
O451	O45	0.750720	0.893100	0.745590
O461	O46	0.834110	0.850800	0.703770
O471	O47	0.737400	0.125780	0.726520
O481	O48	0.818900	0.170860	0.686170
C891	C89	0.802700	0.895740	0.721810
C901	C90	0.791000	0.125370	0.706100
C911	C91	0.797200	0.010540	0.715900
H341	H34	0.755600	0.008700	0.723900
C921	C92	0.831100	0.957260	0.713500
C931	C93	0.825000	0.066720	0.706200
C941	C94	0.887200	0.069950	0.697100
H351	H35	0.906200	0.107400	0.691500
C951	C95	0.920600	0.016300	0.696400
C961	C96	0.892800	0.960000	0.703600
H361	H36	0.915800	0.924500	0.701800
N121	N12	0.986280	0.023790	0.692600
Fe131	Fe13	0.803440	0.260660	0.679570
O491	O49	0.749280	0.245590	0.606900
O501	O50	0.665890	0.203770	0.649200
O511	O51	0.762600	0.226520	0.374220
O521	O52	0.681100	0.186170	0.329140
C971	C97	0.697300	0.221810	0.604260
C981	C98	0.709000	0.206100	0.374630
C991	C99	0.702800	0.215900	0.489460
H371	H37	0.744400	0.223900	0.491300
C1001	C100	0.668900	0.213500	0.542740
C1011	C101	0.675000	0.206200	0.433280
C1021	C102	0.612800	0.197100	0.430050
H381	H38	0.593800	0.191500	0.392600
C1031	C103	0.579400	0.196400	0.483700
C1041	C104	0.607200	0.203600	0.540000
H391	H39	0.584200	0.201800	0.575500
N131	N13	0.513720	0.192600	0.476210
Fe141	Fe14	0.196560	0.739340	0.679570
O531	O53	0.250720	0.754410	0.606900
O541	O54	0.334110	0.796230	0.649200
O551	O55	0.237400	0.773480	0.374220
O561	O56	0.318900	0.813830	0.329140
C1051	C105	0.302700	0.778190	0.604260
C1061	C106	0.291000	0.793900	0.374630
C1071	C107	0.297200	0.784100	0.489460
H401	H40	0.255600	0.776100	0.491300
C1081	C108	0.331100	0.786500	0.542740
C1091	C109	0.325000	0.793800	0.433280
C1101	C110	0.387200	0.802900	0.430050
H411	H41	0.406200	0.808500	0.392600
C1111	C111	0.420600	0.803600	0.483700
C1121	C112	0.392800	0.796400	0.540000
H421	H42	0.415800	0.798200	0.575500
N141	N14	0.486280	0.807400	0.476210
Fe151	Fe15	0.803440	0.739340	0.320430
O571	O57	0.749280	0.754410	0.393100
O581	O58	0.665890	0.796230	0.350800
O591	O59	0.762600	0.773480	0.625780
O601	O60	0.681100	0.813830	0.670860
C1131	C113	0.697300	0.778190	0.395740
C1141	C114	0.709000	0.793900	0.625370
C1151	C115	0.702800	0.784100	0.510540
H431	H43	0.744400	0.776100	0.508700
C1161	C116	0.668900	0.786500	0.457260
C1171	C117	0.675000	0.793800	0.566720
C1181	C118	0.612800	0.802900	0.569950
H441	H44	0.593800	0.808500	0.607400
C1191	C119	0.579400	0.803600	0.516300
C1201	C120	0.607200	0.796400	0.460000
H451	H45	0.584200	0.798200	0.424500
N151	N15	0.513720	0.807400	0.523790
Fe161	Fe16	0.196560	0.260660	0.320430
O611	O61	0.250720	0.245590	0.393100
O621	O62	0.334110	0.203770	0.350800
O631	O63	0.237400	0.226520	0.625780
O641	O64	0.318900	0.186170	0.670860
C1211	C121	0.302700	0.221810	0.395740
C1221	C122	0.291000	0.206100	0.625370
C1231	C123	0.297200	0.215900	0.510540
H461	H46	0.255600	0.223900	0.508700
C1241	C124	0.331100	0.213500	0.457260
C1251	C125	0.325000	0.206200	0.566720
C1261	C126	0.387200	0.197100	0.569950
H471	H47	0.406200	0.191500	0.607400
C1271	C127	0.420600	0.196400	0.516300
C1281	C128	0.392800	0.203600	0.460000
H481	H48	0.415800	0.201800	0.424500
N161	N16	0.486280	0.192600	0.523790
Fe171	Fe17	0.260660	0.679570	0.803440
O651	O65	0.245590	0.606900	0.749280
O661	O66	0.203770	0.649200	0.665890
O671	O67	0.226520	0.374220	0.762600
O681	O68	0.186170	0.329140	0.681100
C1291	C129	0.221810	0.604260	0.697300
C1301	C130	0.206100	0.374630	0.709000
C1311	C131	0.215900	0.489460	0.702800
H491	H49	0.223900	0.491300	0.744400
C1321	C132	0.213500	0.542740	0.668900
C1331	C133	0.206200	0.433280	0.675000
C1341	C134	0.197100	0.430050	0.612800
H501	H50	0.191500	0.392600	0.593800
C1351	C135	0.196400	0.483700	0.579400
C1361	C136	0.203600	0.540000	0.607200
H511	H51	0.201800	0.575500	0.584200
N171	N17	0.192600	0.476210	0.513720
Fe181	Fe18	0.739340	0.679570	0.196560
O691	O69	0.754410	0.606900	0.250720
O701	O70	0.796230	0.649200	0.334110
O711	O71	0.773480	0.374220	0.237400
O721	O72	0.813830	0.329140	0.318900
C1371	C137	0.778190	0.604260	0.302700
C1381	C138	0.793900	0.374630	0.291000
C1391	C139	0.784100	0.489460	0.297200
H521	H52	0.776100	0.491300	0.255600
C1401	C140	0.786500	0.542740	0.331100
C1411	C141	0.793800	0.433280	0.325000
C1421	C142	0.802900	0.430050	0.387200
H531	H53	0.808500	0.392600	0.406200
C1431	C143	0.803600	0.483700	0.420600
C1441	C144	0.796400	0.540000	0.392800
H541	H54	0.798200	0.575500	0.415800
N181	N18	0.807400	0.476210	0.486280
Fe191	Fe19	0.739340	0.320430	0.803440
O731	O73	0.754410	0.393100	0.749280
O741	O74	0.796230	0.350800	0.665890
O751	O75	0.773480	0.625780	0.762600
O761	O76	0.813830	0.670860	0.681100
C1451	C145	0.778190	0.395740	0.697300
C1461	C146	0.793900	0.625370	0.709000
C1471	C147	0.784100	0.510540	0.702800
H551	H55	0.776100	0.508700	0.744400
C1481	C148	0.786500	0.457260	0.668900
C1491	C149	0.793800	0.566720	0.675000
C1501	C150	0.802900	0.569950	0.612800
H561	H56	0.808500	0.607400	0.593800
C1511	C151	0.803600	0.516300	0.579400
C1521	C152	0.796400	0.460000	0.607200
H571	H57	0.798200	0.424500	0.584200
N191	N19	0.807400	0.523790	0.513720
Fe201	Fe20	0.260660	0.320430	0.196560
O771	O77	0.245590	0.393100	0.250720
O781	O78	0.203770	0.350800	0.334110
O791	O79	0.226520	0.625780	0.237400
O801	O80	0.186170	0.670860	0.318900
C1531	C153	0.221810	0.395740	0.302700
C1541	C154	0.206100	0.625370	0.291000
C1551	C155	0.215900	0.510540	0.297200
H581	H58	0.223900	0.508700	0.255600
C1561	C156	0.213500	0.457260	0.331100
C1571	C157	0.206200	0.566720	0.325000
C1581	C158	0.197100	0.569950	0.387200
H591	H59	0.191500	0.607400	0.406200
C1591	C159	0.196400	0.516300	0.420600
C1601	C160	0.203600	0.460000	0.392800
H601	H60	0.201800	0.424500	0.415800
N201	N20	0.192600	0.523790	0.486280
Fe211	Fe21	0.679570	0.803440	0.260660
O811	O81	0.606900	0.749280	0.245590
O821	O82	0.649200	0.665890	0.203770
O831	O83	0.374220	0.762600	0.226520
O841	O84	0.329140	0.681100	0.186170
C1611	C161	0.604260	0.697300	0.221810
C1621	C162	0.374630	0.709000	0.206100
C1631	C163	0.489460	0.702800	0.215900
H611	H61	0.491300	0.744400	0.223900
C1641	C164	0.542740	0.668900	0.213500
C1651	C165	0.433280	0.675000	0.206200
C1661	C166	0.430050	0.612800	0.197100
H621	H62	0.392600	0.593800	0.191500
C1671	C167	0.483700	0.579400	0.196400
C1681	C168	0.540000	0.607200	0.203600
H631	H63	0.575500	0.584200	0.201800
N211	N21	0.476210	0.513720	0.192600
Fe221	Fe22	0.679570	0.196560	0.739340
O851	O85	0.606900	0.250720	0.754410
O861	O86	0.649200	0.334110	0.796230
O871	O87	0.374220	0.237400	0.773480
O881	O88	0.329140	0.318900	0.813830
C1691	C169	0.604260	0.302700	0.778190
C1701	C170	0.374630	0.291000	0.793900
C1711	C171	0.489460	0.297200	0.784100
H641	H64	0.491300	0.255600	0.776100
C1721	C172	0.542740	0.331100	0.786500
C1731	C173	0.433280	0.325000	0.793800
C1741	C174	0.430050	0.387200	0.802900
H651	H65	0.392600	0.406200	0.808500
C1751	C175	0.483700	0.420600	0.803600
C1761	C176	0.540000	0.392800	0.796400
H661	H66	0.575500	0.415800	0.798200
N221	N22	0.476210	0.486280	0.807400
Fe231	Fe23	0.320430	0.803440	0.739340
O891	O89	0.393100	0.749280	0.754410
O901	O90	0.350800	0.665890	0.796230
O911	O91	0.625780	0.762600	0.773480
O921	O92	0.670860	0.681100	0.813830
C1771	C177	0.395740	0.697300	0.778190
C1781	C178	0.625370	0.709000	0.793900
C1791	C179	0.510540	0.702800	0.784100
H671	H67	0.508700	0.744400	0.776100
C1801	C180	0.457260	0.668900	0.786500
C1811	C181	0.566720	0.675000	0.793800
C1821	C182	0.569950	0.612800	0.802900
H681	H68	0.607400	0.593800	0.808500
C1831	C183	0.516300	0.579400	0.803600
C1841	C184	0.460000	0.607200	0.796400
H691	H69	0.424500	0.584200	0.798200
N231	N23	0.523790	0.513720	0.807400
Fe241	Fe24	0.320430	0.196560	0.260660
O931	O93	0.393100	0.250720	0.245590
O941	O94	0.350800	0.334110	0.203770
O951	O95	0.625780	0.237400	0.226520
O961	O96	0.670860	0.318900	0.186170
C1851	C185	0.395740	0.302700	0.221810
C1861	C186	0.625370	0.291000	0.206100
C1871	C187	0.510540	0.297200	0.215900
H701	H70	0.508700	0.255600	0.223900
C1881	C188	0.457260	0.331100	0.213500
C1891	C189	0.566720	0.325000	0.206200
C1901	C190	0.569950	0.387200	0.197100
H711	H71	0.607400	0.406200	0.191500
C1911	C191	0.516300	0.420600	0.196400
C1921	C192	0.460000	0.392800	0.203600
H721	H72	0.424500	0.415800	0.201800
N241	N24	0.523790	0.486280	0.192600
O971	O97	0.759420	0.240580	0.240580
O981	O98	0.240580	0.759420	0.240580
O991	O99	0.240580	0.240580	0.759420
O1001	O100	0.759420	0.759420	0.759420
O1011	O101	0.740580	0.259420	0.740580
O1021	O102	0.259420	0.740580	0.740580
O1031	O103	0.740580	0.740580	0.259420
O1041	O104	0.259420	0.259420	0.259420
