data_acs_PM
_symmetry_space_group_name_H-M	'P1'
_cell_length_a	21.566900
_cell_length_b	21.566900
_cell_length_c	7.796900
_cell_angle_alpha	90.000000
_cell_angle_beta	90.000000
_cell_angle_gamma	120.000000
_symmetry_Int_Tables_number 1

loop_
_symmetry_equiv_pos_as_xyz
'x,y,z'

loop_
_atom_site_label
_atom_site_type_symbol
_atom_site_fract_x
_atom_site_fract_y
_atom_site_fract_z
F11	F1	0.406700	0.053940	0.528400
F21	F2	0.307600	0.995400	0.669800
F31	F3	0.362500	0.110420	0.657700
O11	O1	0.422260	0.000730	0.837800
O21	O2	0.503490	0.086030	0.140600
N11	N1	0.495230	0.425590	0.835600
C11	C1	0.486000	0.432600	0.667600
H11	H1	0.480400	0.470800	0.632400
C21	C2	0.484300	0.386100	0.546600
H21	H2	0.477300	0.392600	0.431900
C31	C3	0.493100	0.328800	0.595200
C41	C4	0.504700	0.371200	0.882200
H31	H3	0.511900	0.366100	0.997700
C51	C5	0.504300	0.322700	0.768000
H41	H4	0.511600	0.286000	0.806100
C61	C6	0.490400	0.277500	0.464500
C71	C7	0.444700	0.259600	0.324400
H51	H5	0.417800	0.282100	0.310700
C81	C8	0.438300	0.209700	0.205600
H61	H6	0.405900	0.197500	0.115600
C91	C9	0.480500	0.177000	0.219800
C101	C10	0.529200	0.197700	0.356300
H71	H7	0.558600	0.177800	0.365500
C111	C11	0.534300	0.246600	0.476900
H81	H8	0.566800	0.259200	0.566700
C121	C12	0.474100	0.121800	0.096900
C131	C13	0.436500	0.112000	0.939100
H91	H9	0.426200	0.147500	0.907600
C141	C14	0.414500	0.055000	0.830600
C151	C15	0.373800	0.055000	0.671100
F41	F4	0.946060	0.352760	0.528400
F51	F5	0.004600	0.312200	0.669800
F61	F6	0.889580	0.252080	0.657700
O31	O3	0.999270	0.421530	0.837800
O41	O4	0.913970	0.417460	0.140600
N21	N2	0.574410	0.069640	0.835600
C161	C16	0.567400	0.053400	0.667600
H101	H10	0.529200	0.009600	0.632400
C171	C17	0.613900	0.098200	0.546600
H111	H11	0.607400	0.084700	0.431900
C181	C18	0.671200	0.164300	0.595200
C191	C19	0.628800	0.133500	0.882200
H121	H12	0.633900	0.145800	0.997700
C201	C20	0.677300	0.181600	0.768000
H131	H13	0.714000	0.225600	0.806100
C211	C21	0.722500	0.212900	0.464500
C221	C22	0.740400	0.185100	0.324400
H141	H14	0.717900	0.135700	0.310700
C231	C23	0.790300	0.228600	0.205600
H151	H15	0.802500	0.208400	0.115600
C241	C24	0.823000	0.303500	0.219800
C251	C25	0.802300	0.331500	0.356300
H161	H16	0.822200	0.380800	0.365500
C261	C26	0.753400	0.287700	0.476900
H171	H17	0.740800	0.307600	0.566700
C271	C27	0.878200	0.352300	0.096900
C281	C28	0.888000	0.324500	0.939100
H181	H18	0.852500	0.278700	0.907600
C291	C29	0.945000	0.359500	0.830600
C301	C30	0.945000	0.318800	0.671100
F71	F7	0.647240	0.593300	0.528400
F81	F8	0.687800	0.692400	0.669800
F91	F9	0.747920	0.637500	0.657700
O51	O5	0.578470	0.577740	0.837800
O61	O6	0.582540	0.496510	0.140600
N31	N3	0.930360	0.504770	0.835600
C311	C31	0.946600	0.514000	0.667600
H191	H19	0.990400	0.519600	0.632400
C321	C32	0.901800	0.515700	0.546600
H201	H20	0.915300	0.522700	0.431900
C331	C33	0.835700	0.506900	0.595200
C341	C34	0.866500	0.495300	0.882200
H211	H21	0.854200	0.488100	0.997700
C351	C35	0.818400	0.495700	0.768000
H221	H22	0.774400	0.488400	0.806100
C361	C36	0.787100	0.509600	0.464500
C371	C37	0.814900	0.555300	0.324400
H231	H23	0.864300	0.582200	0.310700
C381	C38	0.771400	0.561700	0.205600
H241	H24	0.791600	0.594100	0.115600
C391	C39	0.696500	0.519500	0.219800
C401	C40	0.668500	0.470800	0.356300
H251	H25	0.619200	0.441400	0.365500
C411	C41	0.712300	0.465700	0.476900
H261	H26	0.692400	0.433200	0.566700
C421	C42	0.647700	0.525900	0.096900
C431	C43	0.675500	0.563500	0.939100
H271	H27	0.721300	0.573800	0.907600
C441	C44	0.640500	0.585500	0.830600
C451	C45	0.681200	0.626200	0.671100
F101	F10	0.593300	0.946060	0.471600
F111	F11	0.692400	0.004600	0.330200
F121	F12	0.637500	0.889580	0.342300
O71	O7	0.577740	0.999270	0.162200
O81	O8	0.496510	0.913970	0.859400
N41	N4	0.504770	0.574410	0.164400
C461	C46	0.514000	0.567400	0.332400
H281	H28	0.519600	0.529200	0.367600
C471	C47	0.515700	0.613900	0.453400
H291	H29	0.522700	0.607400	0.568100
C481	C48	0.506900	0.671200	0.404800
C491	C49	0.495300	0.628800	0.117800
H301	H30	0.488100	0.633900	0.002300
C501	C50	0.495700	0.677300	0.232000
H311	H31	0.488400	0.714000	0.193900
C511	C51	0.509600	0.722500	0.535500
C521	C52	0.555300	0.740400	0.675600
H321	H32	0.582200	0.717900	0.689300
C531	C53	0.561700	0.790300	0.794400
H331	H33	0.594100	0.802500	0.884400
C541	C54	0.519500	0.823000	0.780200
C551	C55	0.470800	0.802300	0.643700
H341	H34	0.441400	0.822200	0.634500
C561	C56	0.465700	0.753400	0.523100
H351	H35	0.433200	0.740800	0.433300
C571	C57	0.525900	0.878200	0.903100
C581	C58	0.563500	0.888000	0.060900
H361	H36	0.573800	0.852500	0.092400
C591	C59	0.585500	0.945000	0.169400
C601	C60	0.626200	0.945000	0.328900
F131	F13	0.053940	0.647240	0.471600
F141	F14	0.995400	0.687800	0.330200
F151	F15	0.110420	0.747920	0.342300
O91	O9	0.000730	0.578470	0.162200
O101	O10	0.086030	0.582540	0.859400
N51	N5	0.425590	0.930360	0.164400
C611	C61	0.432600	0.946600	0.332400
H371	H37	0.470800	0.990400	0.367600
C621	C62	0.386100	0.901800	0.453400
H381	H38	0.392600	0.915300	0.568100
C631	C63	0.328800	0.835700	0.404800
C641	C64	0.371200	0.866500	0.117800
H391	H39	0.366100	0.854200	0.002300
C651	C65	0.322700	0.818400	0.232000
H401	H40	0.286000	0.774400	0.193900
C661	C66	0.277500	0.787100	0.535500
C671	C67	0.259600	0.814900	0.675600
H411	H41	0.282100	0.864300	0.689300
C681	C68	0.209700	0.771400	0.794400
H421	H42	0.197500	0.791600	0.884400
C691	C69	0.177000	0.696500	0.780200
C701	C70	0.197700	0.668500	0.643700
H431	H43	0.177800	0.619200	0.634500
C711	C71	0.246600	0.712300	0.523100
H441	H44	0.259200	0.692400	0.433300
C721	C72	0.121800	0.647700	0.903100
C731	C73	0.112000	0.675500	0.060900
H451	H45	0.147500	0.721300	0.092400
C741	C74	0.055000	0.640500	0.169400
C751	C75	0.055000	0.681200	0.328900
F161	F16	0.352760	0.406700	0.471600
F171	F17	0.312200	0.307600	0.330200
F181	F18	0.252080	0.362500	0.342300
O111	O11	0.421530	0.422260	0.162200
O121	O12	0.417460	0.503490	0.859400
N61	N6	0.069640	0.495230	0.164400
C761	C76	0.053400	0.486000	0.332400
H461	H46	0.009600	0.480400	0.367600
C771	C77	0.098200	0.484300	0.453400
H471	H47	0.084700	0.477300	0.568100
C781	C78	0.164300	0.493100	0.404800
C791	C79	0.133500	0.504700	0.117800
H481	H48	0.145800	0.511900	0.002300
C801	C80	0.181600	0.504300	0.232000
H491	H49	0.225600	0.511600	0.193900
C811	C81	0.212900	0.490400	0.535500
C821	C82	0.185100	0.444700	0.675600
H501	H50	0.135700	0.417800	0.689300
C831	C83	0.228600	0.438300	0.794400
H511	H51	0.208400	0.405900	0.884400
C841	C84	0.303500	0.480500	0.780200
C851	C85	0.331500	0.529200	0.643700
H521	H52	0.380800	0.558600	0.634500
C861	C86	0.287700	0.534300	0.523100
H531	H53	0.307600	0.566800	0.433300
C871	C87	0.352300	0.474100	0.903100
C881	C88	0.324500	0.436500	0.060900
H541	H54	0.278700	0.426200	0.092400
C891	C89	0.359500	0.414500	0.169400
C901	C90	0.318800	0.373800	0.328900
Cu11	Cu1	0.500000	0.000000	0.000000
Cu21	Cu2	0.000000	0.500000	0.000000
Cu31	Cu3	0.500000	0.500000	0.000000
