data_acs_PM
_symmetry_space_group_name_H-M	'P1'
_cell_length_a	36.793000
_cell_length_b	36.793000
_cell_length_c	36.793000
_cell_angle_alpha	90.000000
_cell_angle_beta	90.000000
_cell_angle_gamma	90.000000
_symmetry_Int_Tables_number 1

loop_
_symmetry_equiv_pos_as_xyz
'x,y,z'

loop_
_atom_site_label
_atom_site_type_symbol
_atom_site_fract_x
_atom_site_fract_y
_atom_site_fract_z
C11	C1	0.232700	0.052300	0.191500
H11	H1	0.254600	0.042900	0.181700
C21	C2	0.213200	0.079800	0.172800
H21	H2	0.223000	0.088500	0.150500
C31	C3	0.232700	0.552300	0.691500
H31	H3	0.254600	0.542900	0.681700
C41	C4	0.213200	0.579800	0.672800
H41	H4	0.223000	0.588500	0.650500
C51	C5	0.732700	0.052300	0.691500
H51	H5	0.754600	0.042900	0.681700
C61	C6	0.713200	0.079800	0.672800
H61	H6	0.723000	0.088500	0.650500
C71	C7	0.732700	0.552300	0.191500
H71	H7	0.754600	0.542900	0.181700
C81	C8	0.713200	0.579800	0.172800
H81	H8	0.723000	0.588500	0.150500
C91	C9	0.767300	0.947700	0.191500
H91	H9	0.745400	0.957100	0.181700
C101	C10	0.786800	0.920200	0.172800
H101	H10	0.777000	0.911500	0.150500
C111	C11	0.767300	0.447700	0.691500
H111	H11	0.745400	0.457100	0.681700
C121	C12	0.786800	0.420200	0.672800
H121	H12	0.777000	0.411500	0.650500
C131	C13	0.267300	0.947700	0.691500
H131	H13	0.245400	0.957100	0.681700
C141	C14	0.286800	0.920200	0.672800
H141	H14	0.277000	0.911500	0.650500
C151	C15	0.267300	0.447700	0.191500
H151	H15	0.245400	0.457100	0.181700
C161	C16	0.286800	0.420200	0.172800
H161	H16	0.277000	0.411500	0.150500
C171	C17	0.767300	0.052300	0.808500
H171	H17	0.745400	0.042900	0.818300
C181	C18	0.786800	0.079800	0.827200
H181	H18	0.777000	0.088500	0.849500
C191	C19	0.767300	0.552300	0.308500
H191	H19	0.745400	0.542900	0.318300
C201	C20	0.786800	0.579800	0.327200
H201	H20	0.777000	0.588500	0.349500
C211	C21	0.267300	0.052300	0.308500
H211	H21	0.245400	0.042900	0.318300
C221	C22	0.286800	0.079800	0.327200
H221	H22	0.277000	0.088500	0.349500
C231	C23	0.267300	0.552300	0.808500
H231	H23	0.245400	0.542900	0.818300
C241	C24	0.286800	0.579800	0.827200
H241	H24	0.277000	0.588500	0.849500
C251	C25	0.232700	0.947700	0.808500
H251	H25	0.254600	0.957100	0.818300
C261	C26	0.213200	0.920200	0.827200
H261	H26	0.223000	0.911500	0.849500
C271	C27	0.232700	0.447700	0.308500
H271	H27	0.254600	0.457100	0.318300
C281	C28	0.213200	0.420200	0.327200
H281	H28	0.223000	0.411500	0.349500
C291	C29	0.732700	0.947700	0.308500
H291	H29	0.754600	0.957100	0.318300
C301	C30	0.713200	0.920200	0.327200
H301	H30	0.723000	0.911500	0.349500
C311	C31	0.732700	0.447700	0.808500
H311	H31	0.754600	0.457100	0.818300
C321	C32	0.713200	0.420200	0.827200
H321	H32	0.723000	0.411500	0.849500
C331	C33	0.191500	0.232700	0.052300
H331	H33	0.181700	0.254600	0.042900
C341	C34	0.172800	0.213200	0.079800
H341	H34	0.150500	0.223000	0.088500
C351	C35	0.191500	0.732700	0.552300
H351	H35	0.181700	0.754600	0.542900
C361	C36	0.172800	0.713200	0.579800
H361	H36	0.150500	0.723000	0.588500
C371	C37	0.691500	0.232700	0.552300
H371	H37	0.681700	0.254600	0.542900
C381	C38	0.672800	0.213200	0.579800
H381	H38	0.650500	0.223000	0.588500
C391	C39	0.691500	0.732700	0.052300
H391	H39	0.681700	0.754600	0.042900
C401	C40	0.672800	0.713200	0.079800
H401	H40	0.650500	0.723000	0.088500
C411	C41	0.191500	0.767300	0.947700
H411	H41	0.181700	0.745400	0.957100
C421	C42	0.172800	0.786800	0.920200
H421	H42	0.150500	0.777000	0.911500
C431	C43	0.191500	0.267300	0.447700
H431	H43	0.181700	0.245400	0.457100
C441	C44	0.172800	0.286800	0.420200
H441	H44	0.150500	0.277000	0.411500
C451	C45	0.691500	0.767300	0.447700
H451	H45	0.681700	0.745400	0.457100
C461	C46	0.672800	0.786800	0.420200
H461	H46	0.650500	0.777000	0.411500
C471	C47	0.691500	0.267300	0.947700
H471	H47	0.681700	0.245400	0.957100
C481	C48	0.672800	0.286800	0.920200
H481	H48	0.650500	0.277000	0.911500
C491	C49	0.808500	0.767300	0.052300
H491	H49	0.818300	0.745400	0.042900
C501	C50	0.827200	0.786800	0.079800
H501	H50	0.849500	0.777000	0.088500
C511	C51	0.808500	0.267300	0.552300
H511	H51	0.818300	0.245400	0.542900
C521	C52	0.827200	0.286800	0.579800
H521	H52	0.849500	0.277000	0.588500
C531	C53	0.308500	0.767300	0.552300
H531	H53	0.318300	0.745400	0.542900
C541	C54	0.327200	0.786800	0.579800
H541	H54	0.349500	0.777000	0.588500
C551	C55	0.308500	0.267300	0.052300
H551	H55	0.318300	0.245400	0.042900
C561	C56	0.327200	0.286800	0.079800
H561	H56	0.349500	0.277000	0.088500
C571	C57	0.808500	0.232700	0.947700
H571	H57	0.818300	0.254600	0.957100
C581	C58	0.827200	0.213200	0.920200
H581	H58	0.849500	0.223000	0.911500
C591	C59	0.808500	0.732700	0.447700
H591	H59	0.818300	0.754600	0.457100
C601	C60	0.827200	0.713200	0.420200
H601	H60	0.849500	0.723000	0.411500
C611	C61	0.308500	0.232700	0.447700
H611	H61	0.318300	0.254600	0.457100
C621	C62	0.327200	0.213200	0.420200
H621	H62	0.349500	0.223000	0.411500
C631	C63	0.308500	0.732700	0.947700
H631	H63	0.318300	0.754600	0.957100
C641	C64	0.327200	0.713200	0.920200
H641	H64	0.349500	0.723000	0.911500
C651	C65	0.052300	0.191500	0.232700
H651	H65	0.042900	0.181700	0.254600
C661	C66	0.079800	0.172800	0.213200
H661	H66	0.088500	0.150500	0.223000
C671	C67	0.052300	0.691500	0.732700
H671	H67	0.042900	0.681700	0.754600
C681	C68	0.079800	0.672800	0.713200
H681	H68	0.088500	0.650500	0.723000
C691	C69	0.552300	0.191500	0.732700
H691	H69	0.542900	0.181700	0.754600
C701	C70	0.579800	0.172800	0.713200
H701	H70	0.588500	0.150500	0.723000
C711	C71	0.552300	0.691500	0.232700
H711	H71	0.542900	0.681700	0.254600
C721	C72	0.579800	0.672800	0.213200
H721	H72	0.588500	0.650500	0.223000
C731	C73	0.947700	0.191500	0.767300
H731	H73	0.957100	0.181700	0.745400
C741	C74	0.920200	0.172800	0.786800
H741	H74	0.911500	0.150500	0.777000
C751	C75	0.947700	0.691500	0.267300
H751	H75	0.957100	0.681700	0.245400
C761	C76	0.920200	0.672800	0.286800
H761	H76	0.911500	0.650500	0.277000
C771	C77	0.447700	0.191500	0.267300
H771	H77	0.457100	0.181700	0.245400
C781	C78	0.420200	0.172800	0.286800
H781	H78	0.411500	0.150500	0.277000
C791	C79	0.447700	0.691500	0.767300
H791	H79	0.457100	0.681700	0.745400
C801	C80	0.420200	0.672800	0.786800
H801	H80	0.411500	0.650500	0.777000
C811	C81	0.052300	0.808500	0.767300
H811	H81	0.042900	0.818300	0.745400
C821	C82	0.079800	0.827200	0.786800
H821	H82	0.088500	0.849500	0.777000
C831	C83	0.052300	0.308500	0.267300
H831	H83	0.042900	0.318300	0.245400
C841	C84	0.079800	0.327200	0.286800
H841	H84	0.088500	0.349500	0.277000
C851	C85	0.552300	0.808500	0.267300
H851	H85	0.542900	0.818300	0.245400
C861	C86	0.579800	0.827200	0.286800
H861	H86	0.588500	0.849500	0.277000
C871	C87	0.552300	0.308500	0.767300
H871	H87	0.542900	0.318300	0.745400
C881	C88	0.579800	0.327200	0.786800
H881	H88	0.588500	0.349500	0.777000
C891	C89	0.947700	0.808500	0.232700
H891	H89	0.957100	0.818300	0.254600
C901	C90	0.920200	0.827200	0.213200
H901	H90	0.911500	0.849500	0.223000
C911	C91	0.947700	0.308500	0.732700
H911	H91	0.957100	0.318300	0.754600
C921	C92	0.920200	0.327200	0.713200
H921	H92	0.911500	0.349500	0.723000
C931	C93	0.447700	0.808500	0.732700
H931	H93	0.457100	0.818300	0.754600
C941	C94	0.420200	0.827200	0.713200
H941	H94	0.411500	0.849500	0.723000
C951	C95	0.447700	0.308500	0.232700
H951	H95	0.457100	0.318300	0.254600
C961	C96	0.420200	0.327200	0.213200
H961	H96	0.411500	0.349500	0.223000
C971	C97	0.052300	0.232700	0.808500
H971	H97	0.042900	0.254600	0.818300
C981	C98	0.079800	0.213200	0.827200
H981	H98	0.088500	0.223000	0.849500
C991	C99	0.052300	0.732700	0.308500
H991	H99	0.042900	0.754600	0.318300
C1001	C100	0.079800	0.713200	0.327200
H1001	H100	0.088500	0.723000	0.349500
C1011	C101	0.552300	0.232700	0.308500
H1011	H101	0.542900	0.254600	0.318300
C1021	C102	0.579800	0.213200	0.327200
H1021	H102	0.588500	0.223000	0.349500
C1031	C103	0.552300	0.732700	0.808500
H1031	H103	0.542900	0.754600	0.818300
C1041	C104	0.579800	0.713200	0.827200
H1041	H104	0.588500	0.723000	0.849500
C1051	C105	0.947700	0.767300	0.808500
H1051	H105	0.957100	0.745400	0.818300
C1061	C106	0.920200	0.786800	0.827200
H1061	H106	0.911500	0.777000	0.849500
C1071	C107	0.947700	0.267300	0.308500
H1071	H107	0.957100	0.245400	0.318300
C1081	C108	0.920200	0.286800	0.327200
H1081	H108	0.911500	0.277000	0.349500
C1091	C109	0.447700	0.767300	0.308500
H1091	H109	0.457100	0.745400	0.318300
C1101	C110	0.420200	0.786800	0.327200
H1101	H110	0.411500	0.777000	0.349500
C1111	C111	0.447700	0.267300	0.808500
H1111	H111	0.457100	0.245400	0.818300
C1121	C112	0.420200	0.286800	0.827200
H1121	H112	0.411500	0.277000	0.849500
C1131	C113	0.052300	0.767300	0.191500
H1131	H113	0.042900	0.745400	0.181700
C1141	C114	0.079800	0.786800	0.172800
H1141	H114	0.088500	0.777000	0.150500
C1151	C115	0.052300	0.267300	0.691500
H1151	H115	0.042900	0.245400	0.681700
C1161	C116	0.079800	0.286800	0.672800
H1161	H116	0.088500	0.277000	0.650500
C1171	C117	0.552300	0.767300	0.691500
H1171	H117	0.542900	0.745400	0.681700
C1181	C118	0.579800	0.786800	0.672800
H1181	H118	0.588500	0.777000	0.650500
C1191	C119	0.552300	0.267300	0.191500
H1191	H119	0.542900	0.245400	0.181700
C1201	C120	0.579800	0.286800	0.172800
H1201	H120	0.588500	0.277000	0.150500
C1211	C121	0.947700	0.232700	0.191500
H1211	H121	0.957100	0.254600	0.181700
C1221	C122	0.920200	0.213200	0.172800
H1221	H122	0.911500	0.223000	0.150500
C1231	C123	0.947700	0.732700	0.691500
H1231	H123	0.957100	0.754600	0.681700
C1241	C124	0.920200	0.713200	0.672800
H1241	H124	0.911500	0.723000	0.650500
C1251	C125	0.447700	0.232700	0.691500
H1251	H125	0.457100	0.254600	0.681700
C1261	C126	0.420200	0.213200	0.672800
H1261	H126	0.411500	0.223000	0.650500
C1271	C127	0.447700	0.732700	0.191500
H1271	H127	0.457100	0.754600	0.181700
C1281	C128	0.420200	0.713200	0.172800
H1281	H128	0.411500	0.723000	0.150500
C1291	C129	0.232700	0.191500	0.947700
H1291	H129	0.254600	0.181700	0.957100
C1301	C130	0.213200	0.172800	0.920200
H1301	H130	0.223000	0.150500	0.911500
C1311	C131	0.232700	0.691500	0.447700
H1311	H131	0.254600	0.681700	0.457100
C1321	C132	0.213200	0.672800	0.420200
H1321	H132	0.223000	0.650500	0.411500
C1331	C133	0.732700	0.191500	0.447700
H1331	H133	0.754600	0.181700	0.457100
C1341	C134	0.713200	0.172800	0.420200
H1341	H134	0.723000	0.150500	0.411500
C1351	C135	0.732700	0.691500	0.947700
H1351	H135	0.754600	0.681700	0.957100
C1361	C136	0.713200	0.672800	0.920200
H1361	H136	0.723000	0.650500	0.911500
C1371	C137	0.767300	0.191500	0.052300
H1371	H137	0.745400	0.181700	0.042900
C1381	C138	0.786800	0.172800	0.079800
H1381	H138	0.777000	0.150500	0.088500
C1391	C139	0.767300	0.691500	0.552300
H1391	H139	0.745400	0.681700	0.542900
C1401	C140	0.786800	0.672800	0.579800
H1401	H140	0.777000	0.650500	0.588500
C1411	C141	0.267300	0.191500	0.552300
H1411	H141	0.245400	0.181700	0.542900
C1421	C142	0.286800	0.172800	0.579800
H1421	H142	0.277000	0.150500	0.588500
C1431	C143	0.267300	0.691500	0.052300
H1431	H143	0.245400	0.681700	0.042900
C1441	C144	0.286800	0.672800	0.079800
H1441	H144	0.277000	0.650500	0.088500
C1451	C145	0.767300	0.808500	0.947700
H1451	H145	0.745400	0.818300	0.957100
C1461	C146	0.786800	0.827200	0.920200
H1461	H146	0.777000	0.849500	0.911500
C1471	C147	0.767300	0.308500	0.447700
H1471	H147	0.745400	0.318300	0.457100
C1481	C148	0.786800	0.327200	0.420200
H1481	H148	0.777000	0.349500	0.411500
C1491	C149	0.267300	0.808500	0.447700
H1491	H149	0.245400	0.818300	0.457100
C1501	C150	0.286800	0.827200	0.420200
H1501	H150	0.277000	0.849500	0.411500
C1511	C151	0.267300	0.308500	0.947700
H1511	H151	0.245400	0.318300	0.957100
C1521	C152	0.286800	0.327200	0.920200
H1521	H152	0.277000	0.349500	0.911500
C1531	C153	0.232700	0.808500	0.052300
H1531	H153	0.254600	0.818300	0.042900
C1541	C154	0.213200	0.827200	0.079800
H1541	H154	0.223000	0.849500	0.088500
C1551	C155	0.232700	0.308500	0.552300
H1551	H155	0.254600	0.318300	0.542900
C1561	C156	0.213200	0.327200	0.579800
H1561	H156	0.223000	0.349500	0.588500
C1571	C157	0.732700	0.808500	0.552300
H1571	H157	0.754600	0.818300	0.542900
C1581	C158	0.713200	0.827200	0.579800
H1581	H158	0.723000	0.849500	0.588500
C1591	C159	0.732700	0.308500	0.052300
H1591	H159	0.754600	0.318300	0.042900
C1601	C160	0.713200	0.327200	0.079800
H1601	H160	0.723000	0.349500	0.088500
C1611	C161	0.191500	0.052300	0.767300
H1611	H161	0.181700	0.042900	0.745400
C1621	C162	0.172800	0.079800	0.786800
H1621	H162	0.150500	0.088500	0.777000
C1631	C163	0.191500	0.552300	0.267300
H1631	H163	0.181700	0.542900	0.245400
C1641	C164	0.172800	0.579800	0.286800
H1641	H164	0.150500	0.588500	0.277000
C1651	C165	0.691500	0.052300	0.267300
H1651	H165	0.681700	0.042900	0.245400
C1661	C166	0.672800	0.079800	0.286800
H1661	H166	0.650500	0.088500	0.277000
C1671	C167	0.691500	0.552300	0.767300
H1671	H167	0.681700	0.542900	0.745400
C1681	C168	0.672800	0.579800	0.786800
H1681	H168	0.650500	0.588500	0.777000
C1691	C169	0.191500	0.947700	0.232700
H1691	H169	0.181700	0.957100	0.254600
C1701	C170	0.172800	0.920200	0.213200
H1701	H170	0.150500	0.911500	0.223000
C1711	C171	0.191500	0.447700	0.732700
H1711	H171	0.181700	0.457100	0.754600
C1721	C172	0.172800	0.420200	0.713200
H1721	H172	0.150500	0.411500	0.723000
C1731	C173	0.691500	0.947700	0.732700
H1731	H173	0.681700	0.957100	0.754600
C1741	C174	0.672800	0.920200	0.713200
H1741	H174	0.650500	0.911500	0.723000
C1751	C175	0.691500	0.447700	0.232700
H1751	H175	0.681700	0.457100	0.254600
C1761	C176	0.672800	0.420200	0.213200
H1761	H176	0.650500	0.411500	0.223000
C1771	C177	0.808500	0.052300	0.232700
H1771	H177	0.818300	0.042900	0.254600
C1781	C178	0.827200	0.079800	0.213200
H1781	H178	0.849500	0.088500	0.223000
C1791	C179	0.808500	0.552300	0.732700
H1791	H179	0.818300	0.542900	0.754600
C1801	C180	0.827200	0.579800	0.713200
H1801	H180	0.849500	0.588500	0.723000
C1811	C181	0.308500	0.052300	0.732700
H1811	H181	0.318300	0.042900	0.754600
C1821	C182	0.327200	0.079800	0.713200
H1821	H182	0.349500	0.088500	0.723000
C1831	C183	0.308500	0.552300	0.232700
H1831	H183	0.318300	0.542900	0.254600
C1841	C184	0.327200	0.579800	0.213200
H1841	H184	0.349500	0.588500	0.223000
C1851	C185	0.808500	0.947700	0.767300
H1851	H185	0.818300	0.957100	0.745400
C1861	C186	0.827200	0.920200	0.786800
H1861	H186	0.849500	0.911500	0.777000
C1871	C187	0.808500	0.447700	0.267300
H1871	H187	0.818300	0.457100	0.245400
C1881	C188	0.827200	0.420200	0.286800
H1881	H188	0.849500	0.411500	0.277000
C1891	C189	0.308500	0.947700	0.267300
H1891	H189	0.318300	0.957100	0.245400
C1901	C190	0.327200	0.920200	0.286800
H1901	H190	0.349500	0.911500	0.277000
C1911	C191	0.308500	0.447700	0.767300
H1911	H191	0.318300	0.457100	0.745400
C1921	C192	0.327200	0.420200	0.786800
H1921	H192	0.349500	0.411500	0.777000
C1931	C193	0.767300	0.947700	0.808500
H1931	H193	0.745400	0.957100	0.818300
C1941	C194	0.786800	0.920200	0.827200
H1941	H194	0.777000	0.911500	0.849500
C1951	C195	0.767300	0.447700	0.308500
H1951	H195	0.745400	0.457100	0.318300
C1961	C196	0.786800	0.420200	0.327200
H1961	H196	0.777000	0.411500	0.349500
C1971	C197	0.267300	0.947700	0.308500
H1971	H197	0.245400	0.957100	0.318300
C1981	C198	0.286800	0.920200	0.327200
H1981	H198	0.277000	0.911500	0.349500
C1991	C199	0.267300	0.447700	0.808500
H1991	H199	0.245400	0.457100	0.818300
C2001	C200	0.286800	0.420200	0.827200
H2001	H200	0.277000	0.411500	0.849500
C2011	C201	0.232700	0.052300	0.808500
H2011	H201	0.254600	0.042900	0.818300
C2021	C202	0.213200	0.079800	0.827200
H2021	H202	0.223000	0.088500	0.849500
C2031	C203	0.232700	0.552300	0.308500
H2031	H203	0.254600	0.542900	0.318300
C2041	C204	0.213200	0.579800	0.327200
H2041	H204	0.223000	0.588500	0.349500
C2051	C205	0.732700	0.052300	0.308500
H2051	H205	0.754600	0.042900	0.318300
C2061	C206	0.713200	0.079800	0.327200
H2061	H206	0.723000	0.088500	0.349500
C2071	C207	0.732700	0.552300	0.808500
H2071	H207	0.754600	0.542900	0.818300
C2081	C208	0.713200	0.579800	0.827200
H2081	H208	0.723000	0.588500	0.849500
C2091	C209	0.232700	0.947700	0.191500
H2091	H209	0.254600	0.957100	0.181700
C2101	C210	0.213200	0.920200	0.172800
H2101	H210	0.223000	0.911500	0.150500
C2111	C211	0.232700	0.447700	0.691500
H2111	H211	0.254600	0.457100	0.681700
C2121	C212	0.213200	0.420200	0.672800
H2121	H212	0.223000	0.411500	0.650500
C2131	C213	0.732700	0.947700	0.691500
H2131	H213	0.754600	0.957100	0.681700
C2141	C214	0.713200	0.920200	0.672800
H2141	H214	0.723000	0.911500	0.650500
C2151	C215	0.732700	0.447700	0.191500
H2151	H215	0.754600	0.457100	0.181700
C2161	C216	0.713200	0.420200	0.172800
H2161	H216	0.723000	0.411500	0.150500
C2171	C217	0.767300	0.052300	0.191500
H2171	H217	0.745400	0.042900	0.181700
C2181	C218	0.786800	0.079800	0.172800
H2181	H218	0.777000	0.088500	0.150500
C2191	C219	0.767300	0.552300	0.691500
H2191	H219	0.745400	0.542900	0.681700
C2201	C220	0.786800	0.579800	0.672800
H2201	H220	0.777000	0.588500	0.650500
C2211	C221	0.267300	0.052300	0.691500
H2211	H221	0.245400	0.042900	0.681700
C2221	C222	0.286800	0.079800	0.672800
H2221	H222	0.277000	0.088500	0.650500
C2231	C223	0.267300	0.552300	0.191500
H2231	H223	0.245400	0.542900	0.181700
C2241	C224	0.286800	0.579800	0.172800
H2241	H224	0.277000	0.588500	0.150500
C2251	C225	0.808500	0.767300	0.947700
H2251	H225	0.818300	0.745400	0.957100
C2261	C226	0.827200	0.786800	0.920200
H2261	H226	0.849500	0.777000	0.911500
C2271	C227	0.808500	0.267300	0.447700
H2271	H227	0.818300	0.245400	0.457100
C2281	C228	0.827200	0.286800	0.420200
H2281	H228	0.849500	0.277000	0.411500
C2291	C229	0.308500	0.767300	0.447700
H2291	H229	0.318300	0.745400	0.457100
C2301	C230	0.327200	0.786800	0.420200
H2301	H230	0.349500	0.777000	0.411500
C2311	C231	0.308500	0.267300	0.947700
H2311	H231	0.318300	0.245400	0.957100
C2321	C232	0.327200	0.286800	0.920200
H2321	H232	0.349500	0.277000	0.911500
C2331	C233	0.808500	0.232700	0.052300
H2331	H233	0.818300	0.254600	0.042900
C2341	C234	0.827200	0.213200	0.079800
H2341	H234	0.849500	0.223000	0.088500
C2351	C235	0.808500	0.732700	0.552300
H2351	H235	0.818300	0.754600	0.542900
C2361	C236	0.827200	0.713200	0.579800
H2361	H236	0.849500	0.723000	0.588500
C2371	C237	0.308500	0.232700	0.552300
H2371	H237	0.318300	0.254600	0.542900
C2381	C238	0.327200	0.213200	0.579800
H2381	H238	0.349500	0.223000	0.588500
C2391	C239	0.308500	0.732700	0.052300
H2391	H239	0.318300	0.754600	0.042900
C2401	C240	0.327200	0.713200	0.079800
H2401	H240	0.349500	0.723000	0.088500
C2411	C241	0.191500	0.232700	0.947700
H2411	H241	0.181700	0.254600	0.957100
C2421	C242	0.172800	0.213200	0.920200
H2421	H242	0.150500	0.223000	0.911500
C2431	C243	0.191500	0.732700	0.447700
H2431	H243	0.181700	0.754600	0.457100
C2441	C244	0.172800	0.713200	0.420200
H2441	H244	0.150500	0.723000	0.411500
C2451	C245	0.691500	0.232700	0.447700
H2451	H245	0.681700	0.254600	0.457100
C2461	C246	0.672800	0.213200	0.420200
H2461	H246	0.650500	0.223000	0.411500
C2471	C247	0.691500	0.732700	0.947700
H2471	H247	0.681700	0.754600	0.957100
C2481	C248	0.672800	0.713200	0.920200
H2481	H248	0.650500	0.723000	0.911500
C2491	C249	0.191500	0.767300	0.052300
H2491	H249	0.181700	0.745400	0.042900
C2501	C250	0.172800	0.786800	0.079800
H2501	H250	0.150500	0.777000	0.088500
C2511	C251	0.191500	0.267300	0.552300
H2511	H251	0.181700	0.245400	0.542900
C2521	C252	0.172800	0.286800	0.579800
H2521	H252	0.150500	0.277000	0.588500
C2531	C253	0.691500	0.767300	0.552300
H2531	H253	0.681700	0.745400	0.542900
C2541	C254	0.672800	0.786800	0.579800
H2541	H254	0.650500	0.777000	0.588500
C2551	C255	0.691500	0.267300	0.052300
H2551	H255	0.681700	0.245400	0.042900
C2561	C256	0.672800	0.286800	0.079800
H2561	H256	0.650500	0.277000	0.088500
C2571	C257	0.947700	0.808500	0.767300
H2571	H257	0.957100	0.818300	0.745400
C2581	C258	0.920200	0.827200	0.786800
H2581	H258	0.911500	0.849500	0.777000
C2591	C259	0.947700	0.308500	0.267300
H2591	H259	0.957100	0.318300	0.245400
C2601	C260	0.920200	0.327200	0.286800
H2601	H260	0.911500	0.349500	0.277000
C2611	C261	0.447700	0.808500	0.267300
H2611	H261	0.457100	0.818300	0.245400
C2621	C262	0.420200	0.827200	0.286800
H2621	H262	0.411500	0.849500	0.277000
C2631	C263	0.447700	0.308500	0.767300
H2631	H263	0.457100	0.318300	0.745400
C2641	C264	0.420200	0.327200	0.786800
H2641	H264	0.411500	0.349500	0.777000
C2651	C265	0.052300	0.808500	0.232700
H2651	H265	0.042900	0.818300	0.254600
C2661	C266	0.079800	0.827200	0.213200
H2661	H266	0.088500	0.849500	0.223000
C2671	C267	0.052300	0.308500	0.732700
H2671	H267	0.042900	0.318300	0.754600
C2681	C268	0.079800	0.327200	0.713200
H2681	H268	0.088500	0.349500	0.723000
C2691	C269	0.552300	0.808500	0.732700
H2691	H269	0.542900	0.818300	0.754600
C2701	C270	0.579800	0.827200	0.713200
H2701	H270	0.588500	0.849500	0.723000
C2711	C271	0.552300	0.308500	0.232700
H2711	H271	0.542900	0.318300	0.254600
C2721	C272	0.579800	0.327200	0.213200
H2721	H272	0.588500	0.349500	0.223000
C2731	C273	0.947700	0.191500	0.232700
H2731	H273	0.957100	0.181700	0.254600
C2741	C274	0.920200	0.172800	0.213200
H2741	H274	0.911500	0.150500	0.223000
C2751	C275	0.947700	0.691500	0.732700
H2751	H275	0.957100	0.681700	0.754600
C2761	C276	0.920200	0.672800	0.713200
H2761	H276	0.911500	0.650500	0.723000
C2771	C277	0.447700	0.191500	0.732700
H2771	H277	0.457100	0.181700	0.754600
C2781	C278	0.420200	0.172800	0.713200
H2781	H278	0.411500	0.150500	0.723000
C2791	C279	0.447700	0.691500	0.232700
H2791	H279	0.457100	0.681700	0.254600
C2801	C280	0.420200	0.672800	0.213200
H2801	H280	0.411500	0.650500	0.223000
C2811	C281	0.052300	0.191500	0.767300
H2811	H281	0.042900	0.181700	0.745400
C2821	C282	0.079800	0.172800	0.786800
H2821	H282	0.088500	0.150500	0.777000
C2831	C283	0.052300	0.691500	0.267300
H2831	H283	0.042900	0.681700	0.245400
C2841	C284	0.079800	0.672800	0.286800
H2841	H284	0.088500	0.650500	0.277000
C2851	C285	0.552300	0.191500	0.267300
H2851	H285	0.542900	0.181700	0.245400
C2861	C286	0.579800	0.172800	0.286800
H2861	H286	0.588500	0.150500	0.277000
C2871	C287	0.552300	0.691500	0.767300
H2871	H287	0.542900	0.681700	0.745400
C2881	C288	0.579800	0.672800	0.786800
H2881	H288	0.588500	0.650500	0.777000
C2891	C289	0.947700	0.767300	0.191500
H2891	H289	0.957100	0.745400	0.181700
C2901	C290	0.920200	0.786800	0.172800
H2901	H290	0.911500	0.777000	0.150500
C2911	C291	0.947700	0.267300	0.691500
H2911	H291	0.957100	0.245400	0.681700
C2921	C292	0.920200	0.286800	0.672800
H2921	H292	0.911500	0.277000	0.650500
C2931	C293	0.447700	0.767300	0.691500
H2931	H293	0.457100	0.745400	0.681700
C2941	C294	0.420200	0.786800	0.672800
H2941	H294	0.411500	0.777000	0.650500
C2951	C295	0.447700	0.267300	0.191500
H2951	H295	0.457100	0.245400	0.181700
C2961	C296	0.420200	0.286800	0.172800
H2961	H296	0.411500	0.277000	0.150500
C2971	C297	0.052300	0.232700	0.191500
H2971	H297	0.042900	0.254600	0.181700
C2981	C298	0.079800	0.213200	0.172800
H2981	H298	0.088500	0.223000	0.150500
C2991	C299	0.052300	0.732700	0.691500
H2991	H299	0.042900	0.754600	0.681700
C3001	C300	0.079800	0.713200	0.672800
H3001	H300	0.088500	0.723000	0.650500
C3011	C301	0.552300	0.232700	0.691500
H3011	H301	0.542900	0.254600	0.681700
C3021	C302	0.579800	0.213200	0.672800
H3021	H302	0.588500	0.223000	0.650500
C3031	C303	0.552300	0.732700	0.191500
H3031	H303	0.542900	0.754600	0.181700
C3041	C304	0.579800	0.713200	0.172800
H3041	H304	0.588500	0.723000	0.150500
C3051	C305	0.947700	0.232700	0.808500
H3051	H305	0.957100	0.254600	0.818300
C3061	C306	0.920200	0.213200	0.827200
H3061	H306	0.911500	0.223000	0.849500
C3071	C307	0.947700	0.732700	0.308500
H3071	H307	0.957100	0.754600	0.318300
C3081	C308	0.920200	0.713200	0.327200
H3081	H308	0.911500	0.723000	0.349500
C3091	C309	0.447700	0.232700	0.308500
H3091	H309	0.457100	0.254600	0.318300
C3101	C310	0.420200	0.213200	0.327200
H3101	H310	0.411500	0.223000	0.349500
C3111	C311	0.447700	0.732700	0.808500
H3111	H311	0.457100	0.754600	0.818300
C3121	C312	0.420200	0.713200	0.827200
H3121	H312	0.411500	0.723000	0.849500
C3131	C313	0.052300	0.767300	0.808500
H3131	H313	0.042900	0.745400	0.818300
C3141	C314	0.079800	0.786800	0.827200
H3141	H314	0.088500	0.777000	0.849500
C3151	C315	0.052300	0.267300	0.308500
H3151	H315	0.042900	0.245400	0.318300
C3161	C316	0.079800	0.286800	0.327200
H3161	H316	0.088500	0.277000	0.349500
C3171	C317	0.552300	0.767300	0.308500
H3171	H317	0.542900	0.745400	0.318300
C3181	C318	0.579800	0.786800	0.327200
H3181	H318	0.588500	0.777000	0.349500
C3191	C319	0.552300	0.267300	0.808500
H3191	H319	0.542900	0.245400	0.818300
C3201	C320	0.579800	0.286800	0.827200
H3201	H320	0.588500	0.277000	0.849500
C3211	C321	0.767300	0.808500	0.052300
H3211	H321	0.745400	0.818300	0.042900
C3221	C322	0.786800	0.827200	0.079800
H3221	H322	0.777000	0.849500	0.088500
C3231	C323	0.767300	0.308500	0.552300
H3231	H323	0.745400	0.318300	0.542900
C3241	C324	0.786800	0.327200	0.579800
H3241	H324	0.777000	0.349500	0.588500
C3251	C325	0.267300	0.808500	0.552300
H3251	H325	0.245400	0.818300	0.542900
C3261	C326	0.286800	0.827200	0.579800
H3261	H326	0.277000	0.849500	0.588500
C3271	C327	0.267300	0.308500	0.052300
H3271	H327	0.245400	0.318300	0.042900
C3281	C328	0.286800	0.327200	0.079800
H3281	H328	0.277000	0.349500	0.088500
C3291	C329	0.232700	0.808500	0.947700
H3291	H329	0.254600	0.818300	0.957100
C3301	C330	0.213200	0.827200	0.920200
H3301	H330	0.223000	0.849500	0.911500
C3311	C331	0.232700	0.308500	0.447700
H3311	H331	0.254600	0.318300	0.457100
C3321	C332	0.213200	0.327200	0.420200
H3321	H332	0.223000	0.349500	0.411500
C3331	C333	0.732700	0.808500	0.447700
H3331	H333	0.754600	0.818300	0.457100
C3341	C334	0.713200	0.827200	0.420200
H3341	H334	0.723000	0.849500	0.411500
C3351	C335	0.732700	0.308500	0.947700
H3351	H335	0.754600	0.318300	0.957100
C3361	C336	0.713200	0.327200	0.920200
H3361	H336	0.723000	0.349500	0.911500
C3371	C337	0.232700	0.191500	0.052300
H3371	H337	0.254600	0.181700	0.042900
C3381	C338	0.213200	0.172800	0.079800
H3381	H338	0.223000	0.150500	0.088500
C3391	C339	0.232700	0.691500	0.552300
H3391	H339	0.254600	0.681700	0.542900
C3401	C340	0.213200	0.672800	0.579800
H3401	H340	0.223000	0.650500	0.588500
C3411	C341	0.732700	0.191500	0.552300
H3411	H341	0.754600	0.181700	0.542900
C3421	C342	0.713200	0.172800	0.579800
H3421	H342	0.723000	0.150500	0.588500
C3431	C343	0.732700	0.691500	0.052300
H3431	H343	0.754600	0.681700	0.042900
C3441	C344	0.713200	0.672800	0.079800
H3441	H344	0.723000	0.650500	0.088500
C3451	C345	0.767300	0.191500	0.947700
H3451	H345	0.745400	0.181700	0.957100
C3461	C346	0.786800	0.172800	0.920200
H3461	H346	0.777000	0.150500	0.911500
C3471	C347	0.767300	0.691500	0.447700
H3471	H347	0.745400	0.681700	0.457100
C3481	C348	0.786800	0.672800	0.420200
H3481	H348	0.777000	0.650500	0.411500
C3491	C349	0.267300	0.191500	0.447700
H3491	H349	0.245400	0.181700	0.457100
C3501	C350	0.286800	0.172800	0.420200
H3501	H350	0.277000	0.150500	0.411500
C3511	C351	0.267300	0.691500	0.947700
H3511	H351	0.245400	0.681700	0.957100
C3521	C352	0.286800	0.672800	0.920200
H3521	H352	0.277000	0.650500	0.911500
C3531	C353	0.808500	0.947700	0.232700
H3531	H353	0.818300	0.957100	0.254600
C3541	C354	0.827200	0.920200	0.213200
H3541	H354	0.849500	0.911500	0.223000
C3551	C355	0.808500	0.447700	0.732700
H3551	H355	0.818300	0.457100	0.754600
C3561	C356	0.827200	0.420200	0.713200
H3561	H356	0.849500	0.411500	0.723000
C3571	C357	0.308500	0.947700	0.732700
H3571	H357	0.318300	0.957100	0.754600
C3581	C358	0.327200	0.920200	0.713200
H3581	H358	0.349500	0.911500	0.723000
C3591	C359	0.308500	0.447700	0.232700
H3591	H359	0.318300	0.457100	0.254600
C3601	C360	0.327200	0.420200	0.213200
H3601	H360	0.349500	0.411500	0.223000
C3611	C361	0.808500	0.052300	0.767300
H3611	H361	0.818300	0.042900	0.745400
C3621	C362	0.827200	0.079800	0.786800
H3621	H362	0.849500	0.088500	0.777000
C3631	C363	0.808500	0.552300	0.267300
H3631	H363	0.818300	0.542900	0.245400
C3641	C364	0.827200	0.579800	0.286800
H3641	H364	0.849500	0.588500	0.277000
C3651	C365	0.308500	0.052300	0.267300
H3651	H365	0.318300	0.042900	0.245400
C3661	C366	0.327200	0.079800	0.286800
H3661	H366	0.349500	0.088500	0.277000
C3671	C367	0.308500	0.552300	0.767300
H3671	H367	0.318300	0.542900	0.745400
C3681	C368	0.327200	0.579800	0.786800
H3681	H368	0.349500	0.588500	0.777000
C3691	C369	0.191500	0.947700	0.767300
H3691	H369	0.181700	0.957100	0.745400
C3701	C370	0.172800	0.920200	0.786800
H3701	H370	0.150500	0.911500	0.777000
C3711	C371	0.191500	0.447700	0.267300
H3711	H371	0.181700	0.457100	0.245400
C3721	C372	0.172800	0.420200	0.286800
H3721	H372	0.150500	0.411500	0.277000
C3731	C373	0.691500	0.947700	0.267300
H3731	H373	0.681700	0.957100	0.245400
C3741	C374	0.672800	0.920200	0.286800
H3741	H374	0.650500	0.911500	0.277000
C3751	C375	0.691500	0.447700	0.767300
H3751	H375	0.681700	0.457100	0.745400
C3761	C376	0.672800	0.420200	0.786800
H3761	H376	0.650500	0.411500	0.777000
C3771	C377	0.191500	0.052300	0.232700
H3771	H377	0.181700	0.042900	0.254600
C3781	C378	0.172800	0.079800	0.213200
H3781	H378	0.150500	0.088500	0.223000
C3791	C379	0.191500	0.552300	0.732700
H3791	H379	0.181700	0.542900	0.754600
C3801	C380	0.172800	0.579800	0.713200
H3801	H380	0.150500	0.588500	0.723000
C3811	C381	0.691500	0.052300	0.732700
H3811	H381	0.681700	0.042900	0.754600
C3821	C382	0.672800	0.079800	0.713200
H3821	H382	0.650500	0.088500	0.723000
C3831	C383	0.691500	0.552300	0.232700
H3831	H383	0.681700	0.542900	0.254600
C3841	C384	0.672800	0.579800	0.213200
H3841	H384	0.650500	0.588500	0.223000
C3851	C385	0.183800	0.093500	0.183800
N11	N1	0.220820	0.040500	0.220820
N21	N2	0.163200	0.119400	0.163200
C3861	C386	0.183800	0.593500	0.683800
N31	N3	0.220820	0.540500	0.720820
N41	N4	0.163200	0.619400	0.663200
C3871	C387	0.683800	0.093500	0.683800
N51	N5	0.720820	0.040500	0.720820
N61	N6	0.663200	0.119400	0.663200
C3881	C388	0.683800	0.593500	0.183800
N71	N7	0.720820	0.540500	0.220820
N81	N8	0.663200	0.619400	0.163200
C3891	C389	0.816200	0.906500	0.183800
N91	N9	0.779180	0.959500	0.220820
N101	N10	0.836800	0.880600	0.163200
C3901	C390	0.816200	0.406500	0.683800
N111	N11	0.779180	0.459500	0.720820
N121	N12	0.836800	0.380600	0.663200
C3911	C391	0.316200	0.906500	0.683800
N131	N13	0.279180	0.959500	0.720820
N141	N14	0.336800	0.880600	0.663200
C3921	C392	0.316200	0.406500	0.183800
N151	N15	0.279180	0.459500	0.220820
N161	N16	0.336800	0.380600	0.163200
C3931	C393	0.816200	0.093500	0.816200
N171	N17	0.779180	0.040500	0.779180
N181	N18	0.836800	0.119400	0.836800
C3941	C394	0.816200	0.593500	0.316200
N191	N19	0.779180	0.540500	0.279180
N201	N20	0.836800	0.619400	0.336800
C3951	C395	0.316200	0.093500	0.316200
N211	N21	0.279180	0.040500	0.279180
N221	N22	0.336800	0.119400	0.336800
C3961	C396	0.316200	0.593500	0.816200
N231	N23	0.279180	0.540500	0.779180
N241	N24	0.336800	0.619400	0.836800
C3971	C397	0.183800	0.906500	0.816200
N251	N25	0.220820	0.959500	0.779180
N261	N26	0.163200	0.880600	0.836800
C3981	C398	0.183800	0.406500	0.316200
N271	N27	0.220820	0.459500	0.279180
N281	N28	0.163200	0.380600	0.336800
C3991	C399	0.683800	0.906500	0.316200
N291	N29	0.720820	0.959500	0.279180
N301	N30	0.663200	0.880600	0.336800
C4001	C400	0.683800	0.406500	0.816200
N311	N31	0.720820	0.459500	0.779180
N321	N32	0.663200	0.380600	0.836800
C4011	C401	0.183800	0.183800	0.093500
N331	N33	0.220820	0.220820	0.040500
N341	N34	0.163200	0.163200	0.119400
C4021	C402	0.183800	0.683800	0.593500
N351	N35	0.220820	0.720820	0.540500
N361	N36	0.163200	0.663200	0.619400
C4031	C403	0.683800	0.183800	0.593500
N371	N37	0.720820	0.220820	0.540500
N381	N38	0.663200	0.163200	0.619400
C4041	C404	0.683800	0.683800	0.093500
N391	N39	0.720820	0.720820	0.040500
N401	N40	0.663200	0.663200	0.119400
C4051	C405	0.183800	0.816200	0.906500
N411	N41	0.220820	0.779180	0.959500
N421	N42	0.163200	0.836800	0.880600
C4061	C406	0.183800	0.316200	0.406500
N431	N43	0.220820	0.279180	0.459500
N441	N44	0.163200	0.336800	0.380600
C4071	C407	0.683800	0.816200	0.406500
N451	N45	0.720820	0.779180	0.459500
N461	N46	0.663200	0.836800	0.380600
C4081	C408	0.683800	0.316200	0.906500
N471	N47	0.720820	0.279180	0.959500
N481	N48	0.663200	0.336800	0.880600
C4091	C409	0.816200	0.816200	0.093500
N491	N49	0.779180	0.779180	0.040500
N501	N50	0.836800	0.836800	0.119400
C4101	C410	0.816200	0.316200	0.593500
N511	N51	0.779180	0.279180	0.540500
N521	N52	0.836800	0.336800	0.619400
C4111	C411	0.316200	0.816200	0.593500
N531	N53	0.279180	0.779180	0.540500
N541	N54	0.336800	0.836800	0.619400
C4121	C412	0.316200	0.316200	0.093500
N551	N55	0.279180	0.279180	0.040500
N561	N56	0.336800	0.336800	0.119400
C4131	C413	0.816200	0.183800	0.906500
N571	N57	0.779180	0.220820	0.959500
N581	N58	0.836800	0.163200	0.880600
C4141	C414	0.816200	0.683800	0.406500
N591	N59	0.779180	0.720820	0.459500
N601	N60	0.836800	0.663200	0.380600
C4151	C415	0.316200	0.183800	0.406500
N611	N61	0.279180	0.220820	0.459500
N621	N62	0.336800	0.163200	0.380600
C4161	C416	0.316200	0.683800	0.906500
N631	N63	0.279180	0.720820	0.959500
N641	N64	0.336800	0.663200	0.880600
C4171	C417	0.093500	0.183800	0.183800
N651	N65	0.040500	0.220820	0.220820
N661	N66	0.119400	0.163200	0.163200
C4181	C418	0.093500	0.683800	0.683800
N671	N67	0.040500	0.720820	0.720820
N681	N68	0.119400	0.663200	0.663200
C4191	C419	0.593500	0.183800	0.683800
N691	N69	0.540500	0.220820	0.720820
N701	N70	0.619400	0.163200	0.663200
C4201	C420	0.593500	0.683800	0.183800
N711	N71	0.540500	0.720820	0.220820
N721	N72	0.619400	0.663200	0.163200
C4211	C421	0.906500	0.183800	0.816200
N731	N73	0.959500	0.220820	0.779180
N741	N74	0.880600	0.163200	0.836800
C4221	C422	0.906500	0.683800	0.316200
N751	N75	0.959500	0.720820	0.279180
N761	N76	0.880600	0.663200	0.336800
C4231	C423	0.406500	0.183800	0.316200
N771	N77	0.459500	0.220820	0.279180
N781	N78	0.380600	0.163200	0.336800
C4241	C424	0.406500	0.683800	0.816200
N791	N79	0.459500	0.720820	0.779180
N801	N80	0.380600	0.663200	0.836800
C4251	C425	0.093500	0.816200	0.816200
N811	N81	0.040500	0.779180	0.779180
N821	N82	0.119400	0.836800	0.836800
C4261	C426	0.093500	0.316200	0.316200
N831	N83	0.040500	0.279180	0.279180
N841	N84	0.119400	0.336800	0.336800
C4271	C427	0.593500	0.816200	0.316200
N851	N85	0.540500	0.779180	0.279180
N861	N86	0.619400	0.836800	0.336800
C4281	C428	0.593500	0.316200	0.816200
N871	N87	0.540500	0.279180	0.779180
N881	N88	0.619400	0.336800	0.836800
C4291	C429	0.906500	0.816200	0.183800
N891	N89	0.959500	0.779180	0.220820
N901	N90	0.880600	0.836800	0.163200
C4301	C430	0.906500	0.316200	0.683800
N911	N91	0.959500	0.279180	0.720820
N921	N92	0.880600	0.336800	0.663200
C4311	C431	0.406500	0.816200	0.683800
N931	N93	0.459500	0.779180	0.720820
N941	N94	0.380600	0.836800	0.663200
C4321	C432	0.406500	0.316200	0.183800
N951	N95	0.459500	0.279180	0.220820
N961	N96	0.380600	0.336800	0.163200
C4331	C433	0.093500	0.183800	0.816200
N971	N97	0.040500	0.220820	0.779180
N981	N98	0.119400	0.163200	0.836800
C4341	C434	0.093500	0.683800	0.316200
N991	N99	0.040500	0.720820	0.279180
N1001	N100	0.119400	0.663200	0.336800
C4351	C435	0.593500	0.183800	0.316200
N1011	N101	0.540500	0.220820	0.279180
N1021	N102	0.619400	0.163200	0.336800
C4361	C436	0.593500	0.683800	0.816200
N1031	N103	0.540500	0.720820	0.779180
N1041	N104	0.619400	0.663200	0.836800
C4371	C437	0.906500	0.816200	0.816200
N1051	N105	0.959500	0.779180	0.779180
N1061	N106	0.880600	0.836800	0.836800
C4381	C438	0.906500	0.316200	0.316200
N1071	N107	0.959500	0.279180	0.279180
N1081	N108	0.880600	0.336800	0.336800
C4391	C439	0.406500	0.816200	0.316200
N1091	N109	0.459500	0.779180	0.279180
N1101	N110	0.380600	0.836800	0.336800
C4401	C440	0.406500	0.316200	0.816200
N1111	N111	0.459500	0.279180	0.779180
N1121	N112	0.380600	0.336800	0.836800
C4411	C441	0.093500	0.816200	0.183800
N1131	N113	0.040500	0.779180	0.220820
N1141	N114	0.119400	0.836800	0.163200
C4421	C442	0.093500	0.316200	0.683800
N1151	N115	0.040500	0.279180	0.720820
N1161	N116	0.119400	0.336800	0.663200
C4431	C443	0.593500	0.816200	0.683800
N1171	N117	0.540500	0.779180	0.720820
N1181	N118	0.619400	0.836800	0.663200
C4441	C444	0.593500	0.316200	0.183800
N1191	N119	0.540500	0.279180	0.220820
N1201	N120	0.619400	0.336800	0.163200
C4451	C445	0.906500	0.183800	0.183800
N1211	N121	0.959500	0.220820	0.220820
N1221	N122	0.880600	0.163200	0.163200
C4461	C446	0.906500	0.683800	0.683800
N1231	N123	0.959500	0.720820	0.720820
N1241	N124	0.880600	0.663200	0.663200
C4471	C447	0.406500	0.183800	0.683800
N1251	N125	0.459500	0.220820	0.720820
N1261	N126	0.380600	0.163200	0.663200
C4481	C448	0.406500	0.683800	0.183800
N1271	N127	0.459500	0.720820	0.220820
N1281	N128	0.380600	0.663200	0.163200
C4491	C449	0.183800	0.183800	0.906500
N1291	N129	0.220820	0.220820	0.959500
N1301	N130	0.163200	0.163200	0.880600
C4501	C450	0.183800	0.683800	0.406500
N1311	N131	0.220820	0.720820	0.459500
N1321	N132	0.163200	0.663200	0.380600
C4511	C451	0.683800	0.183800	0.406500
N1331	N133	0.720820	0.220820	0.459500
N1341	N134	0.663200	0.163200	0.380600
C4521	C452	0.683800	0.683800	0.906500
N1351	N135	0.720820	0.720820	0.959500
N1361	N136	0.663200	0.663200	0.880600
C4531	C453	0.816200	0.183800	0.093500
N1371	N137	0.779180	0.220820	0.040500
N1381	N138	0.836800	0.163200	0.119400
C4541	C454	0.816200	0.683800	0.593500
N1391	N139	0.779180	0.720820	0.540500
N1401	N140	0.836800	0.663200	0.619400
C4551	C455	0.316200	0.183800	0.593500
N1411	N141	0.279180	0.220820	0.540500
N1421	N142	0.336800	0.163200	0.619400
C4561	C456	0.316200	0.683800	0.093500
N1431	N143	0.279180	0.720820	0.040500
N1441	N144	0.336800	0.663200	0.119400
C4571	C457	0.816200	0.816200	0.906500
N1451	N145	0.779180	0.779180	0.959500
N1461	N146	0.836800	0.836800	0.880600
C4581	C458	0.816200	0.316200	0.406500
N1471	N147	0.779180	0.279180	0.459500
N1481	N148	0.836800	0.336800	0.380600
C4591	C459	0.316200	0.816200	0.406500
N1491	N149	0.279180	0.779180	0.459500
N1501	N150	0.336800	0.836800	0.380600
C4601	C460	0.316200	0.316200	0.906500
N1511	N151	0.279180	0.279180	0.959500
N1521	N152	0.336800	0.336800	0.880600
C4611	C461	0.183800	0.816200	0.093500
N1531	N153	0.220820	0.779180	0.040500
N1541	N154	0.163200	0.836800	0.119400
C4621	C462	0.183800	0.316200	0.593500
N1551	N155	0.220820	0.279180	0.540500
N1561	N156	0.163200	0.336800	0.619400
C4631	C463	0.683800	0.816200	0.593500
N1571	N157	0.720820	0.779180	0.540500
N1581	N158	0.663200	0.836800	0.619400
C4641	C464	0.683800	0.316200	0.093500
N1591	N159	0.720820	0.279180	0.040500
N1601	N160	0.663200	0.336800	0.119400
C4651	C465	0.183800	0.093500	0.816200
N1611	N161	0.220820	0.040500	0.779180
N1621	N162	0.163200	0.119400	0.836800
C4661	C466	0.183800	0.593500	0.316200
N1631	N163	0.220820	0.540500	0.279180
N1641	N164	0.163200	0.619400	0.336800
C4671	C467	0.683800	0.093500	0.316200
N1651	N165	0.720820	0.040500	0.279180
N1661	N166	0.663200	0.119400	0.336800
C4681	C468	0.683800	0.593500	0.816200
N1671	N167	0.720820	0.540500	0.779180
N1681	N168	0.663200	0.619400	0.836800
C4691	C469	0.183800	0.906500	0.183800
N1691	N169	0.220820	0.959500	0.220820
N1701	N170	0.163200	0.880600	0.163200
C4701	C470	0.183800	0.406500	0.683800
N1711	N171	0.220820	0.459500	0.720820
N1721	N172	0.163200	0.380600	0.663200
C4711	C471	0.683800	0.906500	0.683800
N1731	N173	0.720820	0.959500	0.720820
N1741	N174	0.663200	0.880600	0.663200
C4721	C472	0.683800	0.406500	0.183800
N1751	N175	0.720820	0.459500	0.220820
N1761	N176	0.663200	0.380600	0.163200
C4731	C473	0.816200	0.093500	0.183800
N1771	N177	0.779180	0.040500	0.220820
N1781	N178	0.836800	0.119400	0.163200
C4741	C474	0.816200	0.593500	0.683800
N1791	N179	0.779180	0.540500	0.720820
N1801	N180	0.836800	0.619400	0.663200
C4751	C475	0.316200	0.093500	0.683800
N1811	N181	0.279180	0.040500	0.720820
N1821	N182	0.336800	0.119400	0.663200
C4761	C476	0.316200	0.593500	0.183800
N1831	N183	0.279180	0.540500	0.220820
N1841	N184	0.336800	0.619400	0.163200
C4771	C477	0.816200	0.906500	0.816200
N1851	N185	0.779180	0.959500	0.779180
N1861	N186	0.836800	0.880600	0.836800
C4781	C478	0.816200	0.406500	0.316200
N1871	N187	0.779180	0.459500	0.279180
N1881	N188	0.836800	0.380600	0.336800
C4791	C479	0.316200	0.906500	0.316200
N1891	N189	0.279180	0.959500	0.279180
N1901	N190	0.336800	0.880600	0.336800
C4801	C480	0.316200	0.406500	0.816200
N1911	N191	0.279180	0.459500	0.779180
N1921	N192	0.336800	0.380600	0.836800
C4811	C481	0.185400	0.000000	0.314600
N1931	N193	0.208600	0.000000	0.291400
S11	S1	0.157960	0.000000	0.342040
C4821	C482	0.185400	0.500000	0.814600
N1941	N194	0.208600	0.500000	0.791400
S21	S2	0.157960	0.500000	0.842040
C4831	C483	0.814600	0.000000	0.314600
N1951	N195	0.791400	0.000000	0.291400
S31	S3	0.842040	0.000000	0.342040
C4841	C484	0.814600	0.500000	0.814600
N1961	N196	0.791400	0.500000	0.791400
S41	S4	0.842040	0.500000	0.842040
C4851	C485	0.314600	0.500000	0.314600
N1971	N197	0.291400	0.500000	0.291400
S51	S5	0.342040	0.500000	0.342040
C4861	C486	0.814600	0.000000	0.685400
N1981	N198	0.791400	0.000000	0.708600
S61	S6	0.842040	0.000000	0.657960
C4871	C487	0.814600	0.500000	0.185400
N1991	N199	0.791400	0.500000	0.208600
S71	S7	0.842040	0.500000	0.157960
C4881	C488	0.314600	0.000000	0.185400
N2001	N200	0.291400	0.000000	0.208600
S81	S8	0.342040	0.000000	0.157960
C4891	C489	0.185400	0.000000	0.685400
N2011	N201	0.208600	0.000000	0.708600
S91	S9	0.157960	0.000000	0.657960
C4901	C490	0.185400	0.500000	0.185400
N2021	N202	0.208600	0.500000	0.208600
S101	S10	0.157960	0.500000	0.157960
C4911	C491	0.314600	0.185400	0.000000
N2031	N203	0.291400	0.208600	0.000000
S111	S11	0.342040	0.157960	0.000000
C4921	C492	0.314600	0.685400	0.500000
N2041	N204	0.291400	0.708600	0.500000
S121	S12	0.342040	0.657960	0.500000
C4931	C493	0.314600	0.814600	0.000000
N2051	N205	0.291400	0.791400	0.000000
S131	S13	0.342040	0.842040	0.000000
C4941	C494	0.314600	0.314600	0.500000
N2061	N206	0.291400	0.291400	0.500000
S141	S14	0.342040	0.342040	0.500000
C4951	C495	0.685400	0.814600	0.000000
N2071	N207	0.708600	0.791400	0.000000
S151	S15	0.657960	0.842040	0.000000
C4961	C496	0.685400	0.314600	0.500000
N2081	N208	0.708600	0.291400	0.500000
S161	S16	0.657960	0.342040	0.500000
C4971	C497	0.185400	0.314600	0.000000
N2091	N209	0.208600	0.291400	0.000000
S171	S17	0.157960	0.342040	0.000000
C4981	C498	0.685400	0.185400	0.000000
N2101	N210	0.708600	0.208600	0.000000
S181	S18	0.657960	0.157960	0.000000
C4991	C499	0.685400	0.685400	0.500000
N2111	N211	0.708600	0.708600	0.500000
S191	S19	0.657960	0.657960	0.500000
C5001	C500	0.185400	0.185400	0.500000
N2121	N212	0.208600	0.208600	0.500000
S201	S20	0.157960	0.157960	0.500000
C5011	C501	0.000000	0.314600	0.185400
N2131	N213	0.000000	0.291400	0.208600
S211	S21	0.000000	0.342040	0.157960
C5021	C502	0.500000	0.314600	0.685400
N2141	N214	0.500000	0.291400	0.708600
S221	S22	0.500000	0.342040	0.657960
C5031	C503	0.000000	0.314600	0.814600
N2151	N215	0.000000	0.291400	0.791400
S231	S23	0.000000	0.342040	0.842040
C5041	C504	0.500000	0.314600	0.314600
N2161	N216	0.500000	0.291400	0.291400
S241	S24	0.500000	0.342040	0.342040
C5051	C505	0.000000	0.685400	0.814600
N2171	N217	0.000000	0.708600	0.791400
S251	S25	0.000000	0.657960	0.842040
C5061	C506	0.000000	0.185400	0.314600
N2181	N218	0.000000	0.208600	0.291400
S261	S26	0.000000	0.157960	0.342040
C5071	C507	0.500000	0.685400	0.314600
N2191	N219	0.500000	0.708600	0.291400
S271	S27	0.500000	0.657960	0.342040
C5081	C508	0.000000	0.685400	0.185400
N2201	N220	0.000000	0.708600	0.208600
S281	S28	0.000000	0.657960	0.157960
C5091	C509	0.500000	0.685400	0.685400
N2211	N221	0.500000	0.708600	0.708600
S291	S29	0.500000	0.657960	0.657960
C5101	C510	0.500000	0.185400	0.185400
N2221	N222	0.500000	0.208600	0.208600
S301	S30	0.500000	0.157960	0.157960
C5111	C511	0.000000	0.185400	0.685400
N2231	N223	0.000000	0.208600	0.708600
S311	S31	0.000000	0.157960	0.657960
C5121	C512	0.000000	0.814600	0.685400
N2241	N224	0.000000	0.791400	0.708600
S321	S32	0.000000	0.842040	0.657960
C5131	C513	0.500000	0.814600	0.185400
N2251	N225	0.500000	0.791400	0.208600
S331	S33	0.500000	0.842040	0.157960
C5141	C514	0.000000	0.814600	0.314600
N2261	N226	0.000000	0.791400	0.291400
S341	S34	0.000000	0.842040	0.342040
C5151	C515	0.500000	0.814600	0.814600
N2271	N227	0.500000	0.791400	0.791400
S351	S35	0.500000	0.842040	0.842040
C5161	C516	0.500000	0.185400	0.814600
N2281	N228	0.500000	0.208600	0.791400
S361	S36	0.500000	0.157960	0.842040
C5171	C517	0.185400	0.814600	0.500000
N2291	N229	0.208600	0.791400	0.500000
S371	S37	0.157960	0.842040	0.500000
C5181	C518	0.814600	0.314600	0.000000
N2301	N230	0.791400	0.291400	0.000000
S381	S38	0.842040	0.342040	0.000000
C5191	C519	0.814600	0.814600	0.500000
N2311	N231	0.791400	0.791400	0.500000
S391	S39	0.842040	0.842040	0.500000
C5201	C520	0.814600	0.685400	0.000000
N2321	N232	0.791400	0.708600	0.000000
S401	S40	0.842040	0.657960	0.000000
C5211	C521	0.814600	0.185400	0.500000
N2331	N233	0.791400	0.208600	0.500000
S411	S41	0.842040	0.157960	0.500000
C5221	C522	0.185400	0.685400	0.000000
N2341	N234	0.208600	0.708600	0.000000
S421	S42	0.157960	0.657960	0.000000
C5231	C523	0.314600	0.000000	0.814600
N2351	N235	0.291400	0.000000	0.791400
S431	S43	0.342040	0.000000	0.842040
C5241	C524	0.314600	0.500000	0.685400
N2361	N236	0.291400	0.500000	0.708600
S441	S44	0.342040	0.500000	0.657960
C5251	C525	0.685400	0.000000	0.185400
N2371	N237	0.708600	0.000000	0.208600
S451	S45	0.657960	0.000000	0.157960
C5261	C526	0.685400	0.500000	0.685400
N2381	N238	0.708600	0.500000	0.708600
S461	S46	0.657960	0.500000	0.657960
C5271	C527	0.685400	0.000000	0.814600
N2391	N239	0.708600	0.000000	0.791400
S471	S47	0.657960	0.000000	0.842040
C5281	C528	0.685400	0.500000	0.314600
N2401	N240	0.708600	0.500000	0.291400
S481	S48	0.657960	0.500000	0.342040
Co11	Co1	0.250000	0.000000	0.250000
Co21	Co2	0.250000	0.500000	0.750000
Co31	Co3	0.750000	0.000000	0.250000
Co41	Co4	0.750000	0.500000	0.750000
Co51	Co5	0.250000	0.500000	0.250000
Co61	Co6	0.750000	0.000000	0.750000
Co71	Co7	0.750000	0.500000	0.250000
Co81	Co8	0.250000	0.000000	0.750000
Co91	Co9	0.250000	0.250000	0.000000
Co101	Co10	0.250000	0.750000	0.500000
Co111	Co11	0.250000	0.750000	0.000000
Co121	Co12	0.250000	0.250000	0.500000
Co131	Co13	0.750000	0.750000	0.000000
Co141	Co14	0.750000	0.250000	0.500000
Co151	Co15	0.750000	0.250000	0.000000
Co161	Co16	0.750000	0.750000	0.500000
Co171	Co17	0.000000	0.250000	0.250000
Co181	Co18	0.500000	0.250000	0.750000
Co191	Co19	0.000000	0.250000	0.750000
Co201	Co20	0.500000	0.250000	0.250000
Co211	Co21	0.000000	0.750000	0.750000
Co221	Co22	0.500000	0.750000	0.250000
Co231	Co23	0.000000	0.750000	0.250000
Co241	Co24	0.500000	0.750000	0.750000
C5291	C529	0.179900	0.132000	0.132000
C5301	C530	0.179900	0.632000	0.632000
C5311	C531	0.679900	0.132000	0.632000
C5321	C532	0.679900	0.632000	0.132000
C5331	C533	0.820100	0.868000	0.132000
C5341	C534	0.820100	0.368000	0.632000
C5351	C535	0.320100	0.868000	0.632000
C5361	C536	0.320100	0.368000	0.132000
C5371	C537	0.820100	0.132000	0.868000
C5381	C538	0.820100	0.632000	0.368000
C5391	C539	0.320100	0.132000	0.368000
C5401	C540	0.320100	0.632000	0.868000
C5411	C541	0.179900	0.868000	0.868000
C5421	C542	0.179900	0.368000	0.368000
C5431	C543	0.679900	0.868000	0.368000
C5441	C544	0.679900	0.368000	0.868000
C5451	C545	0.132000	0.179900	0.132000
C5461	C546	0.132000	0.679900	0.632000
C5471	C547	0.632000	0.179900	0.632000
C5481	C548	0.632000	0.679900	0.132000
C5491	C549	0.132000	0.820100	0.868000
C5501	C550	0.132000	0.320100	0.368000
C5511	C551	0.632000	0.820100	0.368000
C5521	C552	0.632000	0.320100	0.868000
C5531	C553	0.868000	0.820100	0.132000
C5541	C554	0.868000	0.320100	0.632000
C5551	C555	0.368000	0.820100	0.632000
C5561	C556	0.368000	0.320100	0.132000
C5571	C557	0.868000	0.179900	0.868000
C5581	C558	0.868000	0.679900	0.368000
C5591	C559	0.368000	0.179900	0.368000
C5601	C560	0.368000	0.679900	0.868000
C5611	C561	0.132000	0.132000	0.179900
C5621	C562	0.132000	0.632000	0.679900
C5631	C563	0.632000	0.132000	0.679900
C5641	C564	0.632000	0.632000	0.179900
C5651	C565	0.868000	0.132000	0.820100
C5661	C566	0.868000	0.632000	0.320100
C5671	C567	0.368000	0.132000	0.320100
C5681	C568	0.368000	0.632000	0.820100
C5691	C569	0.132000	0.868000	0.820100
C5701	C570	0.132000	0.368000	0.320100
C5711	C571	0.632000	0.868000	0.320100
C5721	C572	0.632000	0.368000	0.820100
C5731	C573	0.868000	0.868000	0.179900
C5741	C574	0.868000	0.368000	0.679900
C5751	C575	0.368000	0.868000	0.679900
C5761	C576	0.368000	0.368000	0.179900
C5771	C577	0.132000	0.179900	0.868000
C5781	C578	0.132000	0.679900	0.368000
C5791	C579	0.632000	0.179900	0.368000
C5801	C580	0.632000	0.679900	0.868000
C5811	C581	0.868000	0.820100	0.868000
C5821	C582	0.868000	0.320100	0.368000
C5831	C583	0.368000	0.820100	0.368000
C5841	C584	0.368000	0.320100	0.868000
C5851	C585	0.132000	0.820100	0.132000
C5861	C586	0.132000	0.320100	0.632000
C5871	C587	0.632000	0.820100	0.632000
C5881	C588	0.632000	0.320100	0.132000
C5891	C589	0.868000	0.179900	0.132000
C5901	C590	0.868000	0.679900	0.632000
C5911	C591	0.368000	0.179900	0.632000
C5921	C592	0.368000	0.679900	0.132000
C5931	C593	0.179900	0.132000	0.868000
C5941	C594	0.179900	0.632000	0.368000
C5951	C595	0.679900	0.132000	0.368000
C5961	C596	0.679900	0.632000	0.868000
C5971	C597	0.820100	0.132000	0.132000
C5981	C598	0.820100	0.632000	0.632000
C5991	C599	0.320100	0.132000	0.632000
C6001	C600	0.320100	0.632000	0.132000
C6011	C601	0.820100	0.868000	0.868000
C6021	C602	0.820100	0.368000	0.368000
C6031	C603	0.320100	0.868000	0.368000
C6041	C604	0.320100	0.368000	0.868000
C6051	C605	0.179900	0.868000	0.132000
C6061	C606	0.179900	0.368000	0.632000
C6071	C607	0.679900	0.868000	0.632000
C6081	C608	0.679900	0.368000	0.132000
C6091	C609	0.132000	0.132000	0.820100
C6101	C610	0.132000	0.632000	0.320100
C6111	C611	0.632000	0.132000	0.320100
C6121	C612	0.632000	0.632000	0.820100
C6131	C613	0.132000	0.868000	0.179900
C6141	C614	0.132000	0.368000	0.679900
C6151	C615	0.632000	0.868000	0.679900
C6161	C616	0.632000	0.368000	0.179900
C6171	C617	0.868000	0.132000	0.179900
C6181	C618	0.868000	0.632000	0.679900
C6191	C619	0.368000	0.132000	0.679900
C6201	C620	0.368000	0.632000	0.179900
C6211	C621	0.868000	0.868000	0.820100
C6221	C622	0.868000	0.368000	0.320100
C6231	C623	0.368000	0.868000	0.320100
C6241	C624	0.368000	0.368000	0.820100
