data_acs_PM
_symmetry_space_group_name_H-M	'P1'
_cell_length_a	21.719000
_cell_length_b	19.469000
_cell_length_c	20.835000
_cell_angle_alpha	90.000000
_cell_angle_beta	108.856000
_cell_angle_gamma	90.000000
_symmetry_Int_Tables_number 1

loop_
_symmetry_equiv_pos_as_xyz
'x,y,z'

loop_
_atom_site_label
_atom_site_type_symbol
_atom_site_fract_x
_atom_site_fract_y
_atom_site_fract_z
Zn11	Zn1	0.737160	0.726010	0.710300
Zn21	Zn2	0.727870	0.227570	0.934650
Zn31	Zn3	0.258090	0.803370	0.624820
O11	O1	0.657760	0.739000	0.632700
C11	C1	0.770900	0.337600	0.888100
N11	N1	0.792400	0.197500	0.023000
N21	N2	0.797700	0.764100	0.663900
N31	N3	0.873300	0.187700	0.121700
C21	C2	0.848200	0.220500	0.061400
N41	N4	0.878700	0.798900	0.625800
O21	O2	0.734400	0.630400	0.734800
C31	C3	0.600100	0.730900	0.632200
C41	C4	0.737200	0.056500	0.770800
O31	O3	0.818700	0.300300	0.898700
C51	C5	0.549000	0.729500	0.563500
C61	C6	0.770600	0.070500	0.015300
C71	C7	0.786700	0.609500	0.781200
C81	C8	0.828700	0.131700	0.127900
H11	H1	0.810900	0.140600	0.164200
H21	H2	0.850300	0.087300	0.135200
C91	C9	0.744400	0.997000	0.727600
C101	C10	0.781400	0.537400	0.806300
C111	C11	0.941800	0.805100	0.626200
H31	H3	0.950800	0.831500	0.593100
C121	C12	0.836800	0.506700	0.850600
H41	H4	0.876400	0.529800	0.862800
C131	C13	0.684100	0.060800	0.792400
H51	H5	0.650400	0.029100	0.777900
C141	C14	0.760300	0.884000	0.651700
C151	C15	0.860000	0.758200	0.672100
C161	C16	0.775800	0.136000	0.057300
H61	H6	0.733700	0.144300	0.063900
O41	O4	0.585300	0.717300	0.682300
C171	C17	0.910200	0.722200	0.718700
H71	H7	0.900800	0.692100	0.748900
C181	C18	0.943400	0.291600	0.095900
H81	H8	0.969200	0.325900	0.086700
C191	C19	0.820000	0.051400	0.992100
H91	H9	0.857700	0.077800	0.003100
C201	C20	0.690700	0.966300	0.681300
H101	H10	0.649200	0.983300	0.675200
C211	C21	0.774000	0.407500	0.859500
C221	C22	0.833200	0.442600	0.876400
H111	H11	0.870600	0.422200	0.905400
C231	C23	0.715000	0.031300	0.999100
H121	H12	0.680700	0.044000	0.014200
C241	C24	0.717900	0.437800	0.816400
H131	H13	0.678000	0.415600	0.806100
C251	C25	0.699400	0.909400	0.643700
H141	H14	0.663300	0.888600	0.613000
C261	C26	0.806400	0.971200	0.734600
H151	H15	0.843000	0.991300	0.765200
C271	C27	0.930600	0.203100	0.168200
H161	H16	0.945300	0.177300	0.207800
C281	C28	0.973500	0.730800	0.720600
H171	H17	0.006600	0.707900	0.753500
C291	C29	0.812700	0.917000	0.696800
H181	H18	0.854300	0.901100	0.701500
C301	C30	0.967200	0.255600	0.158200
C311	C31	0.769800	0.820100	0.614000
H191	H19	0.728200	0.805500	0.581500
O51	O5	0.835000	0.645000	0.806400
C321	C32	0.989700	0.774300	0.672800
C331	C33	0.722900	0.503400	0.788500
H201	H20	0.686300	0.523500	0.757800
C341	C34	0.820800	0.830200	0.577600
H211	H21	0.808200	0.806800	0.534200
H221	H22	0.827700	0.878600	0.570700
C351	C35	0.784700	0.106400	0.792800
H231	H23	0.820200	0.107300	0.777200
O61	O6	0.720200	0.321900	0.898300
O71	O7	0.251300	0.886000	0.571100
C361	C36	0.564200	0.730000	0.506500
H241	H24	0.607600	0.732600	0.509000
O81	O8	0.265300	0.945800	0.660300
C371	C37	0.483600	0.726700	0.556600
H251	H25	0.471300	0.722400	0.595200
C381	C38	0.257500	0.004100	0.556100
C391	C39	0.256600	0.938800	0.598900
C401	C40	0.245000	0.065100	0.577300
H261	H26	0.239700	0.068600	0.619700
C411	C41	0.885000	0.278300	0.049400
H271	H27	0.869000	0.305400	0.010800
C421	C42	0.263800	0.997200	0.493300
H281	H28	0.271100	0.954200	0.477600
C431	C43	0.249500	0.117900	0.476500
C441	C44	0.239700	0.123600	0.538400
H291	H29	0.229700	0.165800	0.553600
C451	C45	0.259500	0.052700	0.454500
H301	H30	0.263400	0.047700	0.411600
C461	C46	0.074000	0.845100	0.646900
H311	H31	0.043800	0.880400	0.632900
C471	C47	0.134900	0.851500	0.639000
H321	H32	0.145400	0.891100	0.619800
N51	N5	0.180160	0.798700	0.659800
C481	C48	0.164500	0.739600	0.688500
H331	H33	0.194700	0.704300	0.702400
C491	C49	0.103600	0.733200	0.696400
H341	H34	0.093100	0.693600	0.715600
C501	C50	0.058400	0.785900	0.675600
C511	C51	0.105800	0.262800	0.324300
H351	H35	0.114700	0.248100	0.368900
N61	N6	0.153830	0.295400	0.304700
C521	C52	0.140600	0.317400	0.238100
H361	H36	0.172700	0.339100	0.225000
C531	C53	0.079200	0.306800	0.191100
H371	H37	0.070300	0.321500	0.146600
C541	C54	0.031190	0.274200	0.210700
C551	C55	0.044500	0.252200	0.277300
H381	H38	0.012300	0.230400	0.290400
C561	C56	0.759400	0.952100	0.935000
C571	C57	0.753400	0.892900	0.888100
C581	C58	0.814900	0.993600	0.952400
H391	H39	0.849200	0.981900	0.936900
C591	C59	0.710500	0.971300	0.959300
H401	H40	0.673200	0.944300	0.949300
C601	C60	0.689900	0.823800	0.795200
H411	H41	0.649200	0.812600	0.764900
C611	C61	0.798100	0.805600	0.837700
H421	H42	0.835000	0.781800	0.836900
C621	C62	0.681600	0.113700	0.836500
H431	H43	0.644800	0.117000	0.850000
C631	C63	0.693400	0.875400	0.842600
H441	H44	0.655900	0.897800	0.843600
C641	C64	0.804800	0.854200	0.885700
H451	H45	0.845500	0.861400	0.917800
C651	C65	0.778200	0.154000	0.837700
H461	H46	0.811900	0.185500	0.853900
N71	N7	0.740600	0.790100	0.790800
N81	N8	0.728500	0.159300	0.860300
O91	O9	0.652100	0.211900	0.963100
O101	O10	0.575700	0.212000	0.866800
C661	C66	0.545200	0.208200	0.965800
C671	C67	0.594300	0.209100	0.926800
C681	C68	0.479900	0.210100	0.932600
H471	H47	0.465400	0.213700	0.885500
C691	C69	0.565300	0.207000	0.034400
H481	H48	0.609400	0.204100	0.058900
O111	O11	0.257800	0.735400	0.551400
C701	C70	0.254100	0.681500	0.574300
O121	O12	0.261900	0.664200	0.634300
Zn41	Zn4	0.237160	0.226010	0.710300
Zn51	Zn5	0.227870	0.727570	0.934650
Zn61	Zn6	0.758090	0.303370	0.624820
O131	O13	0.157760	0.239000	0.632700
C711	C71	0.270900	0.837600	0.888100
N91	N9	0.292400	0.697500	0.023000
N101	N10	0.297700	0.264100	0.663900
N111	N11	0.373300	0.687700	0.121700
C721	C72	0.348200	0.720500	0.061400
N121	N12	0.378700	0.298900	0.625800
O141	O14	0.234400	0.130400	0.734800
C731	C73	0.100100	0.230900	0.632200
C741	C74	0.237200	0.556500	0.770800
O151	O15	0.318700	0.800300	0.898700
C751	C75	0.049000	0.229500	0.563500
C761	C76	0.270600	0.570500	0.015300
C771	C77	0.286700	0.109500	0.781200
C781	C78	0.328700	0.631700	0.127900
H491	H49	0.310900	0.640600	0.164200
H501	H50	0.350300	0.587300	0.135200
C791	C79	0.244400	0.497000	0.727600
C801	C80	0.281400	0.037400	0.806300
C811	C81	0.441800	0.305100	0.626200
H511	H51	0.450800	0.331500	0.593100
C821	C82	0.336800	0.006700	0.850600
H521	H52	0.376400	0.029800	0.862800
C831	C83	0.184100	0.560800	0.792400
H531	H53	0.150400	0.529100	0.777900
C841	C84	0.260300	0.384000	0.651700
C851	C85	0.360000	0.258200	0.672100
C861	C86	0.275800	0.636000	0.057300
H541	H54	0.233700	0.644300	0.063900
O161	O16	0.085300	0.217300	0.682300
C871	C87	0.410200	0.222200	0.718700
H551	H55	0.400800	0.192100	0.748900
C881	C88	0.443400	0.791600	0.095900
H561	H56	0.469200	0.825900	0.086700
C891	C89	0.320000	0.551400	0.992100
H571	H57	0.357700	0.577800	0.003100
C901	C90	0.190700	0.466300	0.681300
H581	H58	0.149200	0.483300	0.675200
C911	C91	0.274000	0.907500	0.859500
C921	C92	0.333200	0.942600	0.876400
H591	H59	0.370600	0.922200	0.905400
C931	C93	0.215000	0.531300	0.999100
H601	H60	0.180700	0.544000	0.014200
C941	C94	0.217900	0.937800	0.816400
H611	H61	0.178000	0.915600	0.806100
C951	C95	0.199400	0.409400	0.643700
H621	H62	0.163300	0.388600	0.613000
C961	C96	0.306400	0.471200	0.734600
H631	H63	0.343000	0.491300	0.765200
C971	C97	0.430600	0.703100	0.168200
H641	H64	0.445300	0.677300	0.207800
C981	C98	0.473500	0.230800	0.720600
H651	H65	0.506600	0.207900	0.753500
C991	C99	0.312700	0.417000	0.696800
H661	H66	0.354300	0.401100	0.701500
C1001	C100	0.467200	0.755600	0.158200
C1011	C101	0.269800	0.320100	0.614000
H671	H67	0.228200	0.305500	0.581500
O171	O17	0.335000	0.145000	0.806400
C1021	C102	0.489700	0.274300	0.672800
C1031	C103	0.222900	0.003400	0.788500
H681	H68	0.186300	0.023500	0.757800
C1041	C104	0.320800	0.330200	0.577600
H691	H69	0.308200	0.306800	0.534200
H701	H70	0.327700	0.378600	0.570700
C1051	C105	0.284700	0.606400	0.792800
H711	H71	0.320200	0.607300	0.777200
O181	O18	0.220200	0.821900	0.898300
O191	O19	0.751300	0.386000	0.571100
C1061	C106	0.064200	0.230000	0.506500
H721	H72	0.107600	0.232600	0.509000
O201	O20	0.765300	0.445800	0.660300
C1071	C107	0.983600	0.226700	0.556600
H731	H73	0.971300	0.222400	0.595200
C1081	C108	0.757500	0.504100	0.556100
C1091	C109	0.756600	0.438800	0.598900
C1101	C110	0.745000	0.565100	0.577300
H741	H74	0.739700	0.568600	0.619700
C1111	C111	0.385000	0.778300	0.049400
H751	H75	0.369000	0.805400	0.010800
C1121	C112	0.763800	0.497200	0.493300
H761	H76	0.771100	0.454200	0.477600
C1131	C113	0.749500	0.617900	0.476500
C1141	C114	0.739700	0.623600	0.538400
H771	H77	0.729700	0.665800	0.553600
C1151	C115	0.759500	0.552700	0.454500
H781	H78	0.763400	0.547700	0.411600
C1161	C116	0.574000	0.345100	0.646900
H791	H79	0.543800	0.380400	0.632900
C1171	C117	0.634900	0.351500	0.639000
H801	H80	0.645400	0.391100	0.619800
N131	N13	0.680160	0.298700	0.659800
C1181	C118	0.664500	0.239600	0.688500
H811	H81	0.694700	0.204300	0.702400
C1191	C119	0.603600	0.233200	0.696400
H821	H82	0.593100	0.193600	0.715600
C1201	C120	0.558400	0.285900	0.675600
C1211	C121	0.605800	0.762800	0.324300
H831	H83	0.614700	0.748100	0.368900
N141	N14	0.653830	0.795400	0.304700
C1221	C122	0.640600	0.817400	0.238100
H841	H84	0.672700	0.839100	0.225000
C1231	C123	0.579200	0.806800	0.191100
H851	H85	0.570300	0.821500	0.146600
C1241	C124	0.531190	0.774200	0.210700
C1251	C125	0.544500	0.752200	0.277300
H861	H86	0.512300	0.730400	0.290400
C1261	C126	0.259400	0.452100	0.935000
C1271	C127	0.253400	0.392900	0.888100
C1281	C128	0.314900	0.493600	0.952400
H871	H87	0.349200	0.481900	0.936900
C1291	C129	0.210500	0.471300	0.959300
H881	H88	0.173200	0.444300	0.949300
C1301	C130	0.189900	0.323800	0.795200
H891	H89	0.149200	0.312600	0.764900
C1311	C131	0.298100	0.305600	0.837700
H901	H90	0.335000	0.281800	0.836900
C1321	C132	0.181600	0.613700	0.836500
H911	H91	0.144800	0.617000	0.850000
C1331	C133	0.193400	0.375400	0.842600
H921	H92	0.155900	0.397800	0.843600
C1341	C134	0.304800	0.354200	0.885700
H931	H93	0.345500	0.361400	0.917800
C1351	C135	0.278200	0.654000	0.837700
H941	H94	0.311900	0.685500	0.853900
N151	N15	0.240600	0.290100	0.790800
N161	N16	0.228500	0.659300	0.860300
O211	O21	0.152100	0.711900	0.963100
O221	O22	0.075700	0.712000	0.866800
C1361	C136	0.045200	0.708200	0.965800
C1371	C137	0.094300	0.709100	0.926800
C1381	C138	0.979900	0.710100	0.932600
H951	H95	0.965400	0.713700	0.885500
C1391	C139	0.065300	0.707000	0.034400
H961	H96	0.109400	0.704100	0.058900
O231	O23	0.757800	0.235400	0.551400
C1401	C140	0.754100	0.181500	0.574300
O241	O24	0.761900	0.164200	0.634300
Zn71	Zn7	0.262840	0.726010	0.289700
Zn81	Zn8	0.272130	0.227570	0.065350
Zn91	Zn9	0.741910	0.803370	0.375180
O251	O25	0.342240	0.739000	0.367300
C1411	C141	0.229100	0.337600	0.111900
N171	N17	0.207600	0.197500	0.977000
N181	N18	0.202300	0.764100	0.336100
N191	N19	0.126700	0.187700	0.878300
C1421	C142	0.151800	0.220500	0.938600
N201	N20	0.121300	0.798900	0.374200
O261	O26	0.265600	0.630400	0.265200
C1431	C143	0.399900	0.730900	0.367800
C1441	C144	0.262800	0.056500	0.229200
O271	O27	0.181300	0.300300	0.101300
C1451	C145	0.451000	0.729500	0.436500
C1461	C146	0.229400	0.070500	0.984700
C1471	C147	0.213300	0.609500	0.218800
C1481	C148	0.171300	0.131700	0.872100
H971	H97	0.189100	0.140600	0.835800
H981	H98	0.149700	0.087300	0.864800
C1491	C149	0.255600	0.997000	0.272400
C1501	C150	0.218600	0.537400	0.193700
C1511	C151	0.058200	0.805100	0.373800
H991	H99	0.049200	0.831500	0.406900
C1521	C152	0.163200	0.506700	0.149400
H1001	H100	0.123600	0.529800	0.137200
C1531	C153	0.315900	0.060800	0.207600
H1011	H101	0.349600	0.029100	0.222100
C1541	C154	0.239700	0.884000	0.348300
C1551	C155	0.140000	0.758200	0.327900
C1561	C156	0.224200	0.136000	0.942700
H1021	H102	0.266300	0.144300	0.936100
O281	O28	0.414700	0.717300	0.317700
C1571	C157	0.089800	0.722200	0.281300
H1031	H103	0.099200	0.692100	0.251100
C1581	C158	0.056600	0.291600	0.904100
H1041	H104	0.030800	0.325900	0.913300
C1591	C159	0.180000	0.051400	0.007900
H1051	H105	0.142300	0.077800	0.996900
C1601	C160	0.309300	0.966300	0.318700
H1061	H106	0.350800	0.983300	0.324800
C1611	C161	0.226000	0.407500	0.140500
C1621	C162	0.166800	0.442600	0.123600
H1071	H107	0.129400	0.422200	0.094600
C1631	C163	0.285000	0.031300	0.000900
H1081	H108	0.319300	0.044000	0.985800
C1641	C164	0.282100	0.437800	0.183600
H1091	H109	0.322000	0.415600	0.193900
C1651	C165	0.300600	0.909400	0.356300
H1101	H110	0.336700	0.888600	0.387000
C1661	C166	0.193600	0.971200	0.265400
H1111	H111	0.157000	0.991300	0.234800
C1671	C167	0.069400	0.203100	0.831800
H1121	H112	0.054700	0.177300	0.792200
C1681	C168	0.026500	0.730800	0.279400
H1131	H113	0.993400	0.707900	0.246500
C1691	C169	0.187300	0.917000	0.303200
H1141	H114	0.145700	0.901100	0.298500
C1701	C170	0.032800	0.255600	0.841800
C1711	C171	0.230200	0.820100	0.386000
H1151	H115	0.271800	0.805500	0.418500
O291	O29	0.165000	0.645000	0.193600
C1721	C172	0.010300	0.774300	0.327200
C1731	C173	0.277100	0.503400	0.211500
H1161	H116	0.313700	0.523500	0.242200
C1741	C174	0.179200	0.830200	0.422400
H1171	H117	0.191800	0.806800	0.465800
H1181	H118	0.172300	0.878600	0.429300
C1751	C175	0.215300	0.106400	0.207200
H1191	H119	0.179800	0.107300	0.222800
O301	O30	0.279800	0.321900	0.101700
O311	O31	0.748700	0.886000	0.428900
C1761	C176	0.435800	0.730000	0.493500
H1201	H120	0.392400	0.732600	0.491000
O321	O32	0.734700	0.945800	0.339700
C1771	C177	0.516400	0.726700	0.443400
H1211	H121	0.528700	0.722400	0.404800
C1781	C178	0.742500	0.004100	0.443900
C1791	C179	0.743400	0.938800	0.401100
C1801	C180	0.755000	0.065100	0.422700
H1221	H122	0.760300	0.068600	0.380300
C1811	C181	0.115000	0.278300	0.950600
H1231	H123	0.131000	0.305400	0.989200
C1821	C182	0.736200	0.997200	0.506700
H1241	H124	0.728900	0.954200	0.522400
C1831	C183	0.750500	0.117900	0.523500
C1841	C184	0.760300	0.123600	0.461600
H1251	H125	0.770300	0.165800	0.446400
C1851	C185	0.740500	0.052700	0.545500
H1261	H126	0.736600	0.047700	0.588400
C1861	C186	0.926000	0.845100	0.353100
H1271	H127	0.956200	0.880400	0.367100
C1871	C187	0.865100	0.851500	0.361000
H1281	H128	0.854600	0.891100	0.380200
N211	N21	0.819840	0.798700	0.340200
C1881	C188	0.835500	0.739600	0.311500
H1291	H129	0.805300	0.704300	0.297600
C1891	C189	0.896400	0.733200	0.303600
H1301	H130	0.906900	0.693600	0.284400
C1901	C190	0.941600	0.785900	0.324400
C1911	C191	0.894200	0.262800	0.675700
H1311	H131	0.885300	0.248100	0.631100
N221	N22	0.846170	0.295400	0.695300
C1921	C192	0.859400	0.317400	0.761900
H1321	H132	0.827300	0.339100	0.775000
C1931	C193	0.920800	0.306800	0.808900
H1331	H133	0.929700	0.321500	0.853400
C1941	C194	0.968810	0.274200	0.789300
C1951	C195	0.955500	0.252200	0.722700
H1341	H134	0.987700	0.230400	0.709600
C1961	C196	0.240600	0.952100	0.065000
C1971	C197	0.246600	0.892900	0.111900
C1981	C198	0.185100	0.993600	0.047600
H1351	H135	0.150800	0.981900	0.063100
C1991	C199	0.289500	0.971300	0.040700
H1361	H136	0.326800	0.944300	0.050700
C2001	C200	0.310100	0.823800	0.204800
H1371	H137	0.350800	0.812600	0.235100
C2011	C201	0.201900	0.805600	0.162300
H1381	H138	0.165000	0.781800	0.163100
C2021	C202	0.318400	0.113700	0.163500
H1391	H139	0.355200	0.117000	0.150000
C2031	C203	0.306600	0.875400	0.157400
H1401	H140	0.344100	0.897800	0.156400
C2041	C204	0.195200	0.854200	0.114300
H1411	H141	0.154500	0.861400	0.082200
C2051	C205	0.221800	0.154000	0.162300
H1421	H142	0.188100	0.185500	0.146100
N231	N23	0.259400	0.790100	0.209200
N241	N24	0.271500	0.159300	0.139700
O331	O33	0.347900	0.211900	0.036900
O341	O34	0.424300	0.212000	0.133200
C2061	C206	0.454800	0.208200	0.034200
C2071	C207	0.405700	0.209100	0.073200
C2081	C208	0.520100	0.210100	0.067400
H1431	H143	0.534600	0.213700	0.114500
C2091	C209	0.434700	0.207000	0.965600
H1441	H144	0.390600	0.204100	0.941100
O351	O35	0.742200	0.735400	0.448600
C2101	C210	0.745900	0.681500	0.425700
O361	O36	0.738100	0.664200	0.365700
Zn101	Zn10	0.762840	0.226010	0.289700
Zn111	Zn11	0.772130	0.727570	0.065350
Zn121	Zn12	0.241910	0.303370	0.375180
O371	O37	0.842240	0.239000	0.367300
C2111	C211	0.729100	0.837600	0.111900
N251	N25	0.707600	0.697500	0.977000
N261	N26	0.702300	0.264100	0.336100
N271	N27	0.626700	0.687700	0.878300
C2121	C212	0.651800	0.720500	0.938600
N281	N28	0.621300	0.298900	0.374200
O381	O38	0.765600	0.130400	0.265200
C2131	C213	0.899900	0.230900	0.367800
C2141	C214	0.762800	0.556500	0.229200
O391	O39	0.681300	0.800300	0.101300
C2151	C215	0.951000	0.229500	0.436500
C2161	C216	0.729400	0.570500	0.984700
C2171	C217	0.713300	0.109500	0.218800
C2181	C218	0.671300	0.631700	0.872100
H1451	H145	0.689100	0.640600	0.835800
H1461	H146	0.649700	0.587300	0.864800
C2191	C219	0.755600	0.497000	0.272400
C2201	C220	0.718600	0.037400	0.193700
C2211	C221	0.558200	0.305100	0.373800
H1471	H147	0.549200	0.331500	0.406900
C2221	C222	0.663200	0.006700	0.149400
H1481	H148	0.623600	0.029800	0.137200
C2231	C223	0.815900	0.560800	0.207600
H1491	H149	0.849600	0.529100	0.222100
C2241	C224	0.739700	0.384000	0.348300
C2251	C225	0.640000	0.258200	0.327900
C2261	C226	0.724200	0.636000	0.942700
H1501	H150	0.766300	0.644300	0.936100
O401	O40	0.914700	0.217300	0.317700
C2271	C227	0.589800	0.222200	0.281300
H1511	H151	0.599200	0.192100	0.251100
C2281	C228	0.556600	0.791600	0.904100
H1521	H152	0.530800	0.825900	0.913300
C2291	C229	0.680000	0.551400	0.007900
H1531	H153	0.642300	0.577800	0.996900
C2301	C230	0.809300	0.466300	0.318700
H1541	H154	0.850800	0.483300	0.324800
C2311	C231	0.726000	0.907500	0.140500
C2321	C232	0.666800	0.942600	0.123600
H1551	H155	0.629400	0.922200	0.094600
C2331	C233	0.785000	0.531300	0.000900
H1561	H156	0.819300	0.544000	0.985800
C2341	C234	0.782100	0.937800	0.183600
H1571	H157	0.822000	0.915600	0.193900
C2351	C235	0.800600	0.409400	0.356300
H1581	H158	0.836700	0.388600	0.387000
C2361	C236	0.693600	0.471200	0.265400
H1591	H159	0.657000	0.491300	0.234800
C2371	C237	0.569400	0.703100	0.831800
H1601	H160	0.554700	0.677300	0.792200
C2381	C238	0.526500	0.230800	0.279400
H1611	H161	0.493400	0.207900	0.246500
C2391	C239	0.687300	0.417000	0.303200
H1621	H162	0.645700	0.401100	0.298500
C2401	C240	0.532800	0.755600	0.841800
C2411	C241	0.730200	0.320100	0.386000
H1631	H163	0.771800	0.305500	0.418500
O411	O41	0.665000	0.145000	0.193600
C2421	C242	0.510300	0.274300	0.327200
C2431	C243	0.777100	0.003400	0.211500
H1641	H164	0.813700	0.023500	0.242200
C2441	C244	0.679200	0.330200	0.422400
H1651	H165	0.691800	0.306800	0.465800
H1661	H166	0.672300	0.378600	0.429300
C2451	C245	0.715300	0.606400	0.207200
H1671	H167	0.679800	0.607300	0.222800
O421	O42	0.779800	0.821900	0.101700
O431	O43	0.248700	0.386000	0.428900
C2461	C246	0.935800	0.230000	0.493500
H1681	H168	0.892400	0.232600	0.491000
O441	O44	0.234700	0.445800	0.339700
C2471	C247	0.016400	0.226700	0.443400
H1691	H169	0.028700	0.222400	0.404800
C2481	C248	0.242500	0.504100	0.443900
C2491	C249	0.243400	0.438800	0.401100
C2501	C250	0.255000	0.565100	0.422700
H1701	H170	0.260300	0.568600	0.380300
C2511	C251	0.615000	0.778300	0.950600
H1711	H171	0.631000	0.805400	0.989200
C2521	C252	0.236200	0.497200	0.506700
H1721	H172	0.228900	0.454200	0.522400
C2531	C253	0.250500	0.617900	0.523500
C2541	C254	0.260300	0.623600	0.461600
H1731	H173	0.270300	0.665800	0.446400
C2551	C255	0.240500	0.552700	0.545500
H1741	H174	0.236600	0.547700	0.588400
C2561	C256	0.426000	0.345100	0.353100
H1751	H175	0.456200	0.380400	0.367100
C2571	C257	0.365100	0.351500	0.361000
H1761	H176	0.354600	0.391100	0.380200
N291	N29	0.319840	0.298700	0.340200
C2581	C258	0.335500	0.239600	0.311500
H1771	H177	0.305300	0.204300	0.297600
C2591	C259	0.396400	0.233200	0.303600
H1781	H178	0.406900	0.193600	0.284400
C2601	C260	0.441600	0.285900	0.324400
C2611	C261	0.394200	0.762800	0.675700
H1791	H179	0.385300	0.748100	0.631100
N301	N30	0.346170	0.795400	0.695300
C2621	C262	0.359400	0.817400	0.761900
H1801	H180	0.327300	0.839100	0.775000
C2631	C263	0.420800	0.806800	0.808900
H1811	H181	0.429700	0.821500	0.853400
C2641	C264	0.468810	0.774200	0.789300
C2651	C265	0.455500	0.752200	0.722700
H1821	H182	0.487700	0.730400	0.709600
C2661	C266	0.740600	0.452100	0.065000
C2671	C267	0.746600	0.392900	0.111900
C2681	C268	0.685100	0.493600	0.047600
H1831	H183	0.650800	0.481900	0.063100
C2691	C269	0.789500	0.471300	0.040700
H1841	H184	0.826800	0.444300	0.050700
C2701	C270	0.810100	0.323800	0.204800
H1851	H185	0.850800	0.312600	0.235100
C2711	C271	0.701900	0.305600	0.162300
H1861	H186	0.665000	0.281800	0.163100
C2721	C272	0.818400	0.613700	0.163500
H1871	H187	0.855200	0.617000	0.150000
C2731	C273	0.806600	0.375400	0.157400
H1881	H188	0.844100	0.397800	0.156400
C2741	C274	0.695200	0.354200	0.114300
H1891	H189	0.654500	0.361400	0.082200
C2751	C275	0.721800	0.654000	0.162300
H1901	H190	0.688100	0.685500	0.146100
N311	N31	0.759400	0.290100	0.209200
N321	N32	0.771500	0.659300	0.139700
O451	O45	0.847900	0.711900	0.036900
O461	O46	0.924300	0.712000	0.133200
C2761	C276	0.954800	0.708200	0.034200
C2771	C277	0.905700	0.709100	0.073200
C2781	C278	0.020100	0.710100	0.067400
H1911	H191	0.034600	0.713700	0.114500
C2791	C279	0.934700	0.707000	0.965600
H1921	H192	0.890600	0.704100	0.941100
O471	O47	0.242200	0.235400	0.448600
C2801	C280	0.245900	0.181500	0.425700
O481	O48	0.238100	0.164200	0.365700
