data_acs_PM
_symmetry_space_group_name_H-M	'P1'
_cell_length_a	30.594000
_cell_length_b	30.594000
_cell_length_c	15.964600
_cell_angle_alpha	90.000000
_cell_angle_beta	90.000000
_cell_angle_gamma	120.000000
_symmetry_Int_Tables_number 1

loop_
_symmetry_equiv_pos_as_xyz
'x,y,z'

loop_
_atom_site_label
_atom_site_type_symbol
_atom_site_fract_x
_atom_site_fract_y
_atom_site_fract_z
N11	N1	0.518500	0.454100	0.571500
C11	C1	0.564600	0.461200	0.557200
C21	C2	0.582600	0.431700	0.595800
H11	H1	0.614900	0.437400	0.584800
C31	C3	0.551100	0.394500	0.649700
H21	H2	0.560500	0.373000	0.674600
C41	C4	0.503900	0.390000	0.665800
H31	H3	0.482800	0.366800	0.705500
C51	C5	0.487900	0.418900	0.625000
H41	H4	0.455700	0.413900	0.634700
N21	N2	0.569900	0.524500	0.456900
N31	N3	0.604900	0.558230	0.405000
N41	N4	0.640400	0.516600	0.470300
C61	C6	0.644100	0.552000	0.413100
C71	C7	0.591600	0.499200	0.495300
N51	N5	0.775140	0.638100	0.259300
C81	C8	0.732700	0.638500	0.247600
H51	H5	0.730600	0.656300	0.201900
C91	C9	0.691300	0.614200	0.298700
H61	H6	0.663500	0.618400	0.291800
C101	C10	0.692100	0.583300	0.360500
C111	C11	0.735500	0.584700	0.378100
H71	H7	0.738700	0.567800	0.423900
C121	C12	0.775000	0.612400	0.325200
H81	H8	0.805100	0.613100	0.337200
N61	N6	0.185170	0.787430	0.904830
C131	C13	0.231270	0.794530	0.890530
C141	C14	0.249270	0.765030	0.929130
H91	H9	0.281570	0.770730	0.918130
C151	C15	0.217770	0.727830	0.983030
H101	H10	0.227170	0.706330	0.007930
C161	C16	0.170570	0.723330	0.999130
H111	H11	0.149470	0.700130	0.038830
C171	C17	0.154570	0.752230	0.958330
H121	H12	0.122370	0.747230	0.968030
N71	N7	0.236570	0.857830	0.790230
N81	N8	0.271570	0.891560	0.738330
N91	N9	0.307070	0.849930	0.803630
C181	C18	0.310770	0.885330	0.746430
C191	C19	0.258270	0.832530	0.828630
N101	N10	0.441810	0.971430	0.592630
C201	C20	0.399370	0.971830	0.580930
H131	H13	0.397270	0.989630	0.535230
C211	C21	0.357970	0.947530	0.632030
H141	H14	0.330170	0.951730	0.625130
C221	C22	0.358770	0.916630	0.693830
C231	C23	0.402170	0.918030	0.711430
H151	H15	0.405370	0.901130	0.757230
C241	C24	0.441670	0.945730	0.658530
H161	H16	0.471770	0.946430	0.670530
N111	N11	0.851830	0.120770	0.238170
C251	C25	0.897930	0.127870	0.223870
C261	C26	0.915930	0.098370	0.262470
H171	H17	0.948230	0.104070	0.251470
C271	C27	0.884430	0.061170	0.316370
H181	H18	0.893830	0.039670	0.341270
C281	C28	0.837230	0.056670	0.332470
H191	H19	0.816130	0.033470	0.372170
C291	C29	0.821230	0.085570	0.291670
H201	H20	0.789030	0.080570	0.301370
N121	N12	0.903230	0.191170	0.123570
N131	N13	0.938230	0.224900	0.071670
N141	N14	0.973730	0.183270	0.136970
C301	C30	0.977430	0.218670	0.079770
C311	C31	0.924930	0.165870	0.161970
N151	N15	0.108470	0.304770	0.925970
C321	C32	0.066030	0.305170	0.914270
H211	H21	0.063930	0.322970	0.868570
C331	C33	0.024630	0.280870	0.965370
H221	H22	0.996830	0.285070	0.958470
C341	C34	0.025430	0.249970	0.027170
C351	C35	0.068830	0.251370	0.044770
H231	H23	0.072030	0.234470	0.090570
C361	C36	0.108330	0.279070	0.991870
H241	H24	0.138430	0.279770	0.003870
N161	N16	0.545900	0.064400	0.571500
C371	C37	0.538800	0.103400	0.557200
C381	C38	0.568300	0.150900	0.595800
H251	H25	0.562600	0.177500	0.584800
C391	C39	0.605500	0.156600	0.649700
H261	H26	0.627000	0.187500	0.674600
C401	C40	0.610000	0.113900	0.665800
H271	H27	0.633200	0.116000	0.705500
C411	C41	0.581100	0.069000	0.625000
H281	H28	0.586100	0.041800	0.634700
N171	N17	0.475500	0.045400	0.456900
N181	N18	0.441770	0.046670	0.405000
N191	N19	0.483400	0.123800	0.470300
C421	C42	0.448000	0.092100	0.413100
C431	C43	0.500800	0.092400	0.495300
N201	N20	0.361900	0.137040	0.259300
C441	C44	0.361500	0.094200	0.247600
H291	H29	0.343700	0.074300	0.201900
C451	C45	0.385800	0.077100	0.298700
H301	H30	0.381600	0.045100	0.291800
C461	C46	0.416700	0.108800	0.360500
C471	C47	0.415300	0.150800	0.378100
H311	H31	0.432200	0.170900	0.423900
C481	C48	0.387600	0.162600	0.325200
H321	H32	0.386900	0.192000	0.337200
N211	N21	0.212570	0.397730	0.904830
C491	C49	0.205470	0.436730	0.890530
C501	C50	0.234970	0.484230	0.929130
H331	H33	0.229270	0.510830	0.918130
C511	C51	0.272170	0.489930	0.983030
H341	H34	0.293670	0.520830	0.007930
C521	C52	0.276670	0.447230	0.999130
H351	H35	0.299870	0.449330	0.038830
C531	C53	0.247770	0.402330	0.958330
H361	H36	0.252770	0.375130	0.968030
N221	N22	0.142170	0.378730	0.790230
N231	N23	0.108440	0.380000	0.738330
N241	N24	0.150070	0.457130	0.803630
C541	C54	0.114670	0.425430	0.746430
C551	C55	0.167470	0.425730	0.828630
N251	N25	0.028570	0.470370	0.592630
C561	C56	0.028170	0.427530	0.580930
H371	H37	0.010370	0.407630	0.535230
C571	C57	0.052470	0.410430	0.632030
H381	H38	0.048270	0.378430	0.625130
C581	C58	0.083370	0.442130	0.693830
C591	C59	0.081970	0.484130	0.711430
H391	H39	0.098870	0.504230	0.757230
C601	C60	0.054270	0.495930	0.658530
H401	H40	0.053570	0.525330	0.670530
N261	N26	0.879230	0.731070	0.238170
C611	C61	0.872130	0.770070	0.223870
C621	C62	0.901630	0.817570	0.262470
H411	H41	0.895930	0.844170	0.251470
C631	C63	0.938830	0.823270	0.316370
H421	H42	0.960330	0.854170	0.341270
C641	C64	0.943330	0.780570	0.332470
H431	H43	0.966530	0.782670	0.372170
C651	C65	0.914430	0.735670	0.291670
H441	H44	0.919430	0.708470	0.301370
N271	N27	0.808830	0.712070	0.123570
N281	N28	0.775100	0.713340	0.071670
N291	N29	0.816730	0.790470	0.136970
C661	C66	0.781330	0.758770	0.079770
C671	C67	0.834130	0.759070	0.161970
N301	N30	0.695230	0.803710	0.925970
C681	C68	0.694830	0.760870	0.914270
H451	H45	0.677030	0.740970	0.868570
C691	C69	0.719130	0.743770	0.965370
H461	H46	0.714930	0.711770	0.958470
C701	C70	0.750030	0.775470	0.027170
C711	C71	0.748630	0.817470	0.044770
H471	H47	0.765530	0.837570	0.090570
C721	C72	0.720930	0.829270	0.991870
H481	H48	0.720230	0.858670	0.003870
N311	N31	0.935600	0.481500	0.571500
C731	C73	0.896600	0.435400	0.557200
C741	C74	0.849100	0.417400	0.595800
H491	H49	0.822500	0.385100	0.584800
C751	C75	0.843400	0.448900	0.649700
H501	H50	0.812500	0.439500	0.674600
C761	C76	0.886100	0.496100	0.665800
H511	H51	0.884000	0.517200	0.705500
C771	C77	0.931000	0.512100	0.625000
H521	H52	0.958200	0.544300	0.634700
N321	N32	0.954600	0.430100	0.456900
N331	N33	0.953330	0.395100	0.405000
N341	N34	0.876200	0.359600	0.470300
C781	C78	0.907900	0.355900	0.413100
C791	C79	0.907600	0.408400	0.495300
N351	N35	0.862960	0.224860	0.259300
C801	C80	0.905800	0.267300	0.247600
H531	H53	0.925700	0.269400	0.201900
C811	C81	0.922900	0.308700	0.298700
H541	H54	0.954900	0.336500	0.291800
C821	C82	0.891200	0.307900	0.360500
C831	C83	0.849200	0.264500	0.378100
H551	H55	0.829100	0.261300	0.423900
C841	C84	0.837400	0.225000	0.325200
H561	H56	0.808000	0.194900	0.337200
N361	N36	0.602270	0.814830	0.904830
C851	C85	0.563270	0.768730	0.890530
C861	C86	0.515770	0.750730	0.929130
H571	H57	0.489170	0.718430	0.918130
C871	C87	0.510070	0.782230	0.983030
H581	H58	0.479170	0.772830	0.007930
C881	C88	0.552770	0.829430	0.999130
H591	H59	0.550670	0.850530	0.038830
C891	C89	0.597670	0.845430	0.958330
H601	H60	0.624870	0.877630	0.968030
N371	N37	0.621270	0.763430	0.790230
N381	N38	0.620000	0.728430	0.738330
N391	N39	0.542870	0.692930	0.803630
C901	C90	0.574570	0.689230	0.746430
C911	C91	0.574270	0.741730	0.828630
N401	N40	0.529630	0.558190	0.592630
C921	C92	0.572470	0.600630	0.580930
H611	H61	0.592370	0.602730	0.535230
C931	C93	0.589570	0.642030	0.632030
H621	H62	0.621570	0.669830	0.625130
C941	C94	0.557870	0.641230	0.693830
C951	C95	0.515870	0.597830	0.711430
H631	H63	0.495770	0.594630	0.757230
C961	C96	0.504070	0.558330	0.658530
H641	H64	0.474670	0.528230	0.670530
N411	N41	0.268930	0.148170	0.238170
C971	C97	0.229930	0.102070	0.223870
C981	C98	0.182430	0.084070	0.262470
H651	H65	0.155830	0.051770	0.251470
C991	C99	0.176730	0.115570	0.316370
H661	H66	0.145830	0.106170	0.341270
C1001	C100	0.219430	0.162770	0.332470
H671	H67	0.217330	0.183870	0.372170
C1011	C101	0.264330	0.178770	0.291670
H681	H68	0.291530	0.210970	0.301370
N421	N42	0.287930	0.096770	0.123570
N431	N43	0.286660	0.061770	0.071670
N441	N44	0.209530	0.026270	0.136970
C1021	C102	0.241230	0.022570	0.079770
C1031	C103	0.240930	0.075070	0.161970
N451	N45	0.196290	0.891530	0.925970
C1041	C104	0.239130	0.933970	0.914270
H691	H69	0.259030	0.936070	0.868570
C1051	C105	0.256230	0.975370	0.965370
H701	H70	0.288230	0.003170	0.958470
C1061	C106	0.224530	0.974570	0.027170
C1071	C107	0.182530	0.931170	0.044770
H711	H71	0.162430	0.927970	0.090570
C1081	C108	0.170730	0.891670	0.991870
H721	H72	0.141330	0.861570	0.003870
N461	N46	0.481500	0.545900	0.428500
C1091	C109	0.435400	0.538800	0.442800
C1101	C110	0.417400	0.568300	0.404200
H731	H73	0.385100	0.562600	0.415200
C1111	C111	0.448900	0.605500	0.350300
H741	H74	0.439500	0.627000	0.325400
C1121	C112	0.496100	0.610000	0.334200
H751	H75	0.517200	0.633200	0.294500
C1131	C113	0.512100	0.581100	0.375000
H761	H76	0.544300	0.586100	0.365300
N471	N47	0.430100	0.475500	0.543100
N481	N48	0.395100	0.441770	0.595000
N491	N49	0.359600	0.483400	0.529700
C1141	C114	0.355900	0.448000	0.586900
C1151	C115	0.408400	0.500800	0.504700
N501	N50	0.224860	0.361900	0.740700
C1161	C116	0.267300	0.361500	0.752400
H771	H77	0.269400	0.343700	0.798100
C1171	C117	0.308700	0.385800	0.701300
H781	H78	0.336500	0.381600	0.708200
C1181	C118	0.307900	0.416700	0.639500
C1191	C119	0.264500	0.415300	0.621900
H791	H79	0.261300	0.432200	0.576100
C1201	C120	0.225000	0.387600	0.674800
H801	H80	0.194900	0.386900	0.662800
N511	N51	0.148170	0.879230	0.761830
C1211	C121	0.102070	0.872130	0.776130
C1221	C122	0.084070	0.901630	0.737530
H811	H81	0.051770	0.895930	0.748530
C1231	C123	0.115570	0.938830	0.683630
H821	H82	0.106170	0.960330	0.658730
C1241	C124	0.162770	0.943330	0.667530
H831	H83	0.183870	0.966530	0.627830
C1251	C125	0.178770	0.914430	0.708330
H841	H84	0.210970	0.919430	0.698630
N521	N52	0.096770	0.808830	0.876430
N531	N53	0.061770	0.775100	0.928330
N541	N54	0.026270	0.816730	0.863030
C1261	C126	0.022570	0.781330	0.920230
C1271	C127	0.075070	0.834130	0.838030
N551	N55	0.891530	0.695230	0.074030
C1281	C128	0.933970	0.694830	0.085730
H851	H85	0.936070	0.677030	0.131430
C1291	C129	0.975370	0.719130	0.034630
H861	H86	0.003170	0.714930	0.041530
C1301	C130	0.974570	0.750030	0.972830
C1311	C131	0.931170	0.748630	0.955230
H871	H87	0.927970	0.765530	0.909430
C1321	C132	0.891670	0.720930	0.008130
H881	H88	0.861570	0.720230	0.996130
N561	N56	0.814830	0.212570	0.095170
C1331	C133	0.768730	0.205470	0.109470
C1341	C134	0.750730	0.234970	0.070870
H891	H89	0.718430	0.229270	0.081870
C1351	C135	0.782230	0.272170	0.016970
H901	H90	0.772830	0.293670	0.992070
C1361	C136	0.829430	0.276670	0.000870
H911	H91	0.850530	0.299870	0.961170
C1371	C137	0.845430	0.247770	0.041670
H921	H92	0.877630	0.252770	0.031970
N571	N57	0.763430	0.142170	0.209770
N581	N58	0.728430	0.108440	0.261670
N591	N59	0.692930	0.150070	0.196370
C1381	C138	0.689230	0.114670	0.253570
C1391	C139	0.741730	0.167470	0.171370
N601	N60	0.558190	0.028570	0.407370
C1401	C140	0.600630	0.028170	0.419070
H931	H93	0.602730	0.010370	0.464770
C1411	C141	0.642030	0.052470	0.367970
H941	H94	0.669830	0.048270	0.374870
C1421	C142	0.641230	0.083370	0.306170
C1431	C143	0.597830	0.081970	0.288570
H951	H95	0.594630	0.098870	0.242770
C1441	C144	0.558330	0.054270	0.341470
H961	H96	0.528230	0.053570	0.329470
N611	N61	0.454100	0.935600	0.428500
C1451	C145	0.461200	0.896600	0.442800
C1461	C146	0.431700	0.849100	0.404200
H971	H97	0.437400	0.822500	0.415200
C1471	C147	0.394500	0.843400	0.350300
H981	H98	0.373000	0.812500	0.325400
C1481	C148	0.390000	0.886100	0.334200
H991	H99	0.366800	0.884000	0.294500
C1491	C149	0.418900	0.931000	0.375000
H1001	H100	0.413900	0.958200	0.365300
N621	N62	0.524500	0.954600	0.543100
N631	N63	0.558230	0.953330	0.595000
N641	N64	0.516600	0.876200	0.529700
C1501	C150	0.552000	0.907900	0.586900
C1511	C151	0.499200	0.907600	0.504700
N651	N65	0.638100	0.862960	0.740700
C1521	C152	0.638500	0.905800	0.752400
H1011	H101	0.656300	0.925700	0.798100
C1531	C153	0.614200	0.922900	0.701300
H1021	H102	0.618400	0.954900	0.708200
C1541	C154	0.583300	0.891200	0.639500
C1551	C155	0.584700	0.849200	0.621900
H1031	H103	0.567800	0.829100	0.576100
C1561	C156	0.612400	0.837400	0.674800
H1041	H104	0.613100	0.808000	0.662800
N661	N66	0.120770	0.268930	0.761830
C1571	C157	0.127870	0.229930	0.776130
C1581	C158	0.098370	0.182430	0.737530
H1051	H105	0.104070	0.155830	0.748530
C1591	C159	0.061170	0.176730	0.683630
H1061	H106	0.039670	0.145830	0.658730
C1601	C160	0.056670	0.219430	0.667530
H1071	H107	0.033470	0.217330	0.627830
C1611	C161	0.085570	0.264330	0.708330
H1081	H108	0.080570	0.291530	0.698630
N671	N67	0.191170	0.287930	0.876430
N681	N68	0.224900	0.286660	0.928330
N691	N69	0.183270	0.209530	0.863030
C1621	C162	0.218670	0.241230	0.920230
C1631	C163	0.165870	0.240930	0.838030
N701	N70	0.304770	0.196290	0.074030
C1641	C164	0.305170	0.239130	0.085730
H1091	H109	0.322970	0.259030	0.131430
C1651	C165	0.280870	0.256230	0.034630
H1101	H110	0.285070	0.288230	0.041530
C1661	C166	0.249970	0.224530	0.972830
C1671	C167	0.251370	0.182530	0.955230
H1111	H111	0.234470	0.162430	0.909430
C1681	C168	0.279070	0.170730	0.008130
H1121	H112	0.279770	0.141330	0.996130
N711	N71	0.787430	0.602270	0.095170
C1691	C169	0.794530	0.563270	0.109470
C1701	C170	0.765030	0.515770	0.070870
H1131	H113	0.770730	0.489170	0.081870
C1711	C171	0.727830	0.510070	0.016970
H1141	H114	0.706330	0.479170	0.992070
C1721	C172	0.723330	0.552770	0.000870
H1151	H115	0.700130	0.550670	0.961170
C1731	C173	0.752230	0.597670	0.041670
H1161	H116	0.747230	0.624870	0.031970
N721	N72	0.857830	0.621270	0.209770
N731	N73	0.891560	0.620000	0.261670
N741	N74	0.849930	0.542870	0.196370
C1741	C174	0.885330	0.574570	0.253570
C1751	C175	0.832530	0.574270	0.171370
N751	N75	0.971430	0.529630	0.407370
C1761	C176	0.971830	0.572470	0.419070
H1171	H117	0.989630	0.592370	0.464770
C1771	C177	0.947530	0.589570	0.367970
H1181	H118	0.951730	0.621570	0.374870
C1781	C178	0.916630	0.557870	0.306170
C1791	C179	0.918030	0.515870	0.288570
H1191	H119	0.901130	0.495770	0.242770
C1801	C180	0.945730	0.504070	0.341470
H1201	H120	0.946430	0.474670	0.329470
N761	N76	0.064400	0.518500	0.428500
C1811	C181	0.103400	0.564600	0.442800
C1821	C182	0.150900	0.582600	0.404200
H1211	H121	0.177500	0.614900	0.415200
C1831	C183	0.156600	0.551100	0.350300
H1221	H122	0.187500	0.560500	0.325400
C1841	C184	0.113900	0.503900	0.334200
H1231	H123	0.116000	0.482800	0.294500
C1851	C185	0.069000	0.487900	0.375000
H1241	H124	0.041800	0.455700	0.365300
N771	N77	0.045400	0.569900	0.543100
N781	N78	0.046670	0.604900	0.595000
N791	N79	0.123800	0.640400	0.529700
C1861	C186	0.092100	0.644100	0.586900
C1871	C187	0.092400	0.591600	0.504700
N801	N80	0.137040	0.775140	0.740700
C1881	C188	0.094200	0.732700	0.752400
H1251	H125	0.074300	0.730600	0.798100
C1891	C189	0.077100	0.691300	0.701300
H1261	H126	0.045100	0.663500	0.708200
C1901	C190	0.108800	0.692100	0.639500
C1911	C191	0.150800	0.735500	0.621900
H1271	H127	0.170900	0.738700	0.576100
C1921	C192	0.162600	0.775000	0.674800
H1281	H128	0.192000	0.805100	0.662800
N811	N81	0.731070	0.851830	0.761830
C1931	C193	0.770070	0.897930	0.776130
C1941	C194	0.817570	0.915930	0.737530
H1291	H129	0.844170	0.948230	0.748530
C1951	C195	0.823270	0.884430	0.683630
H1301	H130	0.854170	0.893830	0.658730
C1961	C196	0.780570	0.837230	0.667530
H1311	H131	0.782670	0.816130	0.627830
C1971	C197	0.735670	0.821230	0.708330
H1321	H132	0.708470	0.789030	0.698630
N821	N82	0.712070	0.903230	0.876430
N831	N83	0.713340	0.938230	0.928330
N841	N84	0.790470	0.973730	0.863030
C1981	C198	0.758770	0.977430	0.920230
C1991	C199	0.759070	0.924930	0.838030
N851	N85	0.803710	0.108470	0.074030
C2001	C200	0.760870	0.066030	0.085730
H1331	H133	0.740970	0.063930	0.131430
C2011	C201	0.743770	0.024630	0.034630
H1341	H134	0.711770	0.996830	0.041530
C2021	C202	0.775470	0.025430	0.972830
C2031	C203	0.817470	0.068830	0.955230
H1351	H135	0.837570	0.072030	0.909430
C2041	C204	0.829270	0.108330	0.008130
H1361	H136	0.858670	0.138430	0.996130
N861	N86	0.397730	0.185170	0.095170
C2051	C205	0.436730	0.231270	0.109470
C2061	C206	0.484230	0.249270	0.070870
H1371	H137	0.510830	0.281570	0.081870
C2071	C207	0.489930	0.217770	0.016970
H1381	H138	0.520830	0.227170	0.992070
C2081	C208	0.447230	0.170570	0.000870
H1391	H139	0.449330	0.149470	0.961170
C2091	C209	0.402330	0.154570	0.041670
H1401	H140	0.375130	0.122370	0.031970
N871	N87	0.378730	0.236570	0.209770
N881	N88	0.380000	0.271570	0.261670
N891	N89	0.457130	0.307070	0.196370
C2101	C210	0.425430	0.310770	0.253570
C2111	C211	0.425730	0.258270	0.171370
N901	N90	0.470370	0.441810	0.407370
C2121	C212	0.427530	0.399370	0.419070
H1411	H141	0.407630	0.397270	0.464770
C2131	C213	0.410430	0.357970	0.367970
H1421	H142	0.378430	0.330170	0.374870
C2141	C214	0.442130	0.358770	0.306170
C2151	C215	0.484130	0.402170	0.288570
H1431	H143	0.504230	0.405370	0.242770
C2161	C216	0.495930	0.441670	0.341470
H1441	H144	0.525330	0.471770	0.329470
Ni11	Ni1	0.500000	0.500000	0.500000
Ni21	Ni2	0.166670	0.833330	0.833330
Ni31	Ni3	0.833330	0.166670	0.166670
Ni41	Ni4	0.500000	0.000000	0.500000
Ni51	Ni5	0.166670	0.333330	0.833330
Ni61	Ni6	0.833330	0.666670	0.166670
Ni71	Ni7	0.000000	0.500000	0.500000
Ni81	Ni8	0.666670	0.833330	0.833330
Ni91	Ni9	0.333330	0.166670	0.166670
N911	N91	0.454100	0.518500	0.928500
C2171	C217	0.461200	0.564600	0.942800
C2181	C218	0.431700	0.582600	0.904200
H1451	H145	0.437400	0.614900	0.915200
C2191	C219	0.394500	0.551100	0.850300
H1461	H146	0.373000	0.560500	0.825400
C2201	C220	0.390000	0.503900	0.834200
H1471	H147	0.366800	0.482800	0.794500
C2211	C221	0.418900	0.487900	0.875000
H1481	H148	0.413900	0.455700	0.865300
N921	N92	0.524500	0.569900	0.043100
N931	N93	0.558230	0.604900	0.095000
N941	N94	0.516600	0.640400	0.029700
C2221	C222	0.552000	0.644100	0.086900
C2231	C223	0.499200	0.591600	0.004700
N951	N95	0.638100	0.775140	0.240700
C2241	C224	0.638500	0.732700	0.252400
H1491	H149	0.656300	0.730600	0.298100
C2251	C225	0.614200	0.691300	0.201300
H1501	H150	0.618400	0.663500	0.208200
C2261	C226	0.583300	0.692100	0.139500
C2271	C227	0.584700	0.735500	0.121900
H1511	H151	0.567800	0.738700	0.076100
C2281	C228	0.612400	0.775000	0.174800
H1521	H152	0.613100	0.805100	0.162800
N961	N96	0.120770	0.851830	0.261830
C2291	C229	0.127870	0.897930	0.276130
C2301	C230	0.098370	0.915930	0.237530
H1531	H153	0.104070	0.948230	0.248530
C2311	C231	0.061170	0.884430	0.183630
H1541	H154	0.039670	0.893830	0.158730
C2321	C232	0.056670	0.837230	0.167530
H1551	H155	0.033470	0.816130	0.127830
C2331	C233	0.085570	0.821230	0.208330
H1561	H156	0.080570	0.789030	0.198630
N971	N97	0.191170	0.903230	0.376430
N981	N98	0.224900	0.938230	0.428330
N991	N99	0.183270	0.973730	0.363030
C2341	C234	0.218670	0.977430	0.420230
C2351	C235	0.165870	0.924930	0.338030
N1001	N100	0.304770	0.108470	0.574030
C2361	C236	0.305170	0.066030	0.585730
H1571	H157	0.322970	0.063930	0.631430
C2371	C237	0.280870	0.024630	0.534630
H1581	H158	0.285070	0.996830	0.541530
C2381	C238	0.249970	0.025430	0.472830
C2391	C239	0.251370	0.068830	0.455230
H1591	H159	0.234470	0.072030	0.409430
C2401	C240	0.279070	0.108330	0.508130
H1601	H160	0.279770	0.138430	0.496130
N1011	N101	0.787430	0.185170	0.595170
C2411	C241	0.794530	0.231270	0.609470
C2421	C242	0.765030	0.249270	0.570870
H1611	H161	0.770730	0.281570	0.581870
C2431	C243	0.727830	0.217770	0.516970
H1621	H162	0.706330	0.227170	0.492070
C2441	C244	0.723330	0.170570	0.500870
H1631	H163	0.700130	0.149470	0.461170
C2451	C245	0.752230	0.154570	0.541670
H1641	H164	0.747230	0.122370	0.531970
N1021	N102	0.857830	0.236570	0.709770
N1031	N103	0.891560	0.271570	0.761670
N1041	N104	0.849930	0.307070	0.696370
C2461	C246	0.885330	0.310770	0.753570
C2471	C247	0.832530	0.258270	0.671370
N1051	N105	0.971430	0.441810	0.907370
C2481	C248	0.971830	0.399370	0.919070
H1651	H165	0.989630	0.397270	0.964770
C2491	C249	0.947530	0.357970	0.867970
H1661	H166	0.951730	0.330170	0.874870
C2501	C250	0.916630	0.358770	0.806170
C2511	C251	0.918030	0.402170	0.788570
H1671	H167	0.901130	0.405370	0.742770
C2521	C252	0.945730	0.441670	0.841470
H1681	H168	0.946430	0.471770	0.829470
N1061	N106	0.064400	0.545900	0.928500
C2531	C253	0.103400	0.538800	0.942800
C2541	C254	0.150900	0.568300	0.904200
H1691	H169	0.177500	0.562600	0.915200
C2551	C255	0.156600	0.605500	0.850300
H1701	H170	0.187500	0.627000	0.825400
C2561	C256	0.113900	0.610000	0.834200
H1711	H171	0.116000	0.633200	0.794500
C2571	C257	0.069000	0.581100	0.875000
H1721	H172	0.041800	0.586100	0.865300
N1071	N107	0.045400	0.475500	0.043100
N1081	N108	0.046670	0.441770	0.095000
N1091	N109	0.123800	0.483400	0.029700
C2581	C258	0.092100	0.448000	0.086900
C2591	C259	0.092400	0.500800	0.004700
N1101	N110	0.137040	0.361900	0.240700
C2601	C260	0.094200	0.361500	0.252400
H1731	H173	0.074300	0.343700	0.298100
C2611	C261	0.077100	0.385800	0.201300
H1741	H174	0.045100	0.381600	0.208200
C2621	C262	0.108800	0.416700	0.139500
C2631	C263	0.150800	0.415300	0.121900
H1751	H175	0.170900	0.432200	0.076100
C2641	C264	0.162600	0.387600	0.174800
H1761	H176	0.192000	0.386900	0.162800
N1111	N111	0.731070	0.879230	0.261830
C2651	C265	0.770070	0.872130	0.276130
C2661	C266	0.817570	0.901630	0.237530
H1771	H177	0.844170	0.895930	0.248530
C2671	C267	0.823270	0.938830	0.183630
H1781	H178	0.854170	0.960330	0.158730
C2681	C268	0.780570	0.943330	0.167530
H1791	H179	0.782670	0.966530	0.127830
C2691	C269	0.735670	0.914430	0.208330
H1801	H180	0.708470	0.919430	0.198630
N1121	N112	0.712070	0.808830	0.376430
N1131	N113	0.713340	0.775100	0.428330
N1141	N114	0.790470	0.816730	0.363030
C2701	C270	0.758770	0.781330	0.420230
C2711	C271	0.759070	0.834130	0.338030
N1151	N115	0.803710	0.695230	0.574030
C2721	C272	0.760870	0.694830	0.585730
H1811	H181	0.740970	0.677030	0.631430
C2731	C273	0.743770	0.719130	0.534630
H1821	H182	0.711770	0.714930	0.541530
C2741	C274	0.775470	0.750030	0.472830
C2751	C275	0.817470	0.748630	0.455230
H1831	H183	0.837570	0.765530	0.409430
C2761	C276	0.829270	0.720930	0.508130
H1841	H184	0.858670	0.720230	0.496130
N1161	N116	0.397730	0.212570	0.595170
C2771	C277	0.436730	0.205470	0.609470
C2781	C278	0.484230	0.234970	0.570870
H1851	H185	0.510830	0.229270	0.581870
C2791	C279	0.489930	0.272170	0.516970
H1861	H186	0.520830	0.293670	0.492070
C2801	C280	0.447230	0.276670	0.500870
H1871	H187	0.449330	0.299870	0.461170
C2811	C281	0.402330	0.247770	0.541670
H1881	H188	0.375130	0.252770	0.531970
N1171	N117	0.378730	0.142170	0.709770
N1181	N118	0.380000	0.108440	0.761670
N1191	N119	0.457130	0.150070	0.696370
C2821	C282	0.425430	0.114670	0.753570
C2831	C283	0.425730	0.167470	0.671370
N1201	N120	0.470370	0.028570	0.907370
C2841	C284	0.427530	0.028170	0.919070
H1891	H189	0.407630	0.010370	0.964770
C2851	C285	0.410430	0.052470	0.867970
H1901	H190	0.378430	0.048270	0.874870
C2861	C286	0.442130	0.083370	0.806170
C2871	C287	0.484130	0.081970	0.788570
H1911	H191	0.504230	0.098870	0.742770
C2881	C288	0.495930	0.054270	0.841470
H1921	H192	0.525330	0.053570	0.829470
N1211	N121	0.481500	0.935600	0.928500
C2891	C289	0.435400	0.896600	0.942800
C2901	C290	0.417400	0.849100	0.904200
H1931	H193	0.385100	0.822500	0.915200
C2911	C291	0.448900	0.843400	0.850300
H1941	H194	0.439500	0.812500	0.825400
C2921	C292	0.496100	0.886100	0.834200
H1951	H195	0.517200	0.884000	0.794500
C2931	C293	0.512100	0.931000	0.875000
H1961	H196	0.544300	0.958200	0.865300
N1221	N122	0.430100	0.954600	0.043100
N1231	N123	0.395100	0.953330	0.095000
N1241	N124	0.359600	0.876200	0.029700
C2941	C294	0.355900	0.907900	0.086900
C2951	C295	0.408400	0.907600	0.004700
N1251	N125	0.224860	0.862960	0.240700
C2961	C296	0.267300	0.905800	0.252400
H1971	H197	0.269400	0.925700	0.298100
C2971	C297	0.308700	0.922900	0.201300
H1981	H198	0.336500	0.954900	0.208200
C2981	C298	0.307900	0.891200	0.139500
C2991	C299	0.264500	0.849200	0.121900
H1991	H199	0.261300	0.829100	0.076100
C3001	C300	0.225000	0.837400	0.174800
H2001	H200	0.194900	0.808000	0.162800
N1261	N126	0.148170	0.268930	0.261830
C3011	C301	0.102070	0.229930	0.276130
C3021	C302	0.084070	0.182430	0.237530
H2011	H201	0.051770	0.155830	0.248530
C3031	C303	0.115570	0.176730	0.183630
H2021	H202	0.106170	0.145830	0.158730
C3041	C304	0.162770	0.219430	0.167530
H2031	H203	0.183870	0.217330	0.127830
C3051	C305	0.178770	0.264330	0.208330
H2041	H204	0.210970	0.291530	0.198630
N1271	N127	0.096770	0.287930	0.376430
N1281	N128	0.061770	0.286660	0.428330
N1291	N129	0.026270	0.209530	0.363030
C3061	C306	0.022570	0.241230	0.420230
C3071	C307	0.075070	0.240930	0.338030
N1301	N130	0.891530	0.196290	0.574030
C3081	C308	0.933970	0.239130	0.585730
H2051	H205	0.936070	0.259030	0.631430
C3091	C309	0.975370	0.256230	0.534630
H2061	H206	0.003170	0.288230	0.541530
C3101	C310	0.974570	0.224530	0.472830
C3111	C311	0.931170	0.182530	0.455230
H2071	H207	0.927970	0.162430	0.409430
C3121	C312	0.891670	0.170730	0.508130
H2081	H208	0.861570	0.141330	0.496130
N1311	N131	0.814830	0.602270	0.595170
C3131	C313	0.768730	0.563270	0.609470
C3141	C314	0.750730	0.515770	0.570870
H2091	H209	0.718430	0.489170	0.581870
C3151	C315	0.782230	0.510070	0.516970
H2101	H210	0.772830	0.479170	0.492070
C3161	C316	0.829430	0.552770	0.500870
H2111	H211	0.850530	0.550670	0.461170
C3171	C317	0.845430	0.597670	0.541670
H2121	H212	0.877630	0.624870	0.531970
N1321	N132	0.763430	0.621270	0.709770
N1331	N133	0.728430	0.620000	0.761670
N1341	N134	0.692930	0.542870	0.696370
C3181	C318	0.689230	0.574570	0.753570
C3191	C319	0.741730	0.574270	0.671370
N1351	N135	0.558190	0.529630	0.907370
C3201	C320	0.600630	0.572470	0.919070
H2131	H213	0.602730	0.592370	0.964770
C3211	C321	0.642030	0.589570	0.867970
H2141	H214	0.669830	0.621570	0.874870
C3221	C322	0.641230	0.557870	0.806170
C3231	C323	0.597830	0.515870	0.788570
H2151	H215	0.594630	0.495770	0.742770
C3241	C324	0.558330	0.504070	0.841470
H2161	H216	0.528230	0.474670	0.829470
N1361	N136	0.545900	0.481500	0.071500
C3251	C325	0.538800	0.435400	0.057200
C3261	C326	0.568300	0.417400	0.095800
H2171	H217	0.562600	0.385100	0.084800
C3271	C327	0.605500	0.448900	0.149700
H2181	H218	0.627000	0.439500	0.174600
C3281	C328	0.610000	0.496100	0.165800
H2191	H219	0.633200	0.517200	0.205500
C3291	C329	0.581100	0.512100	0.125000
H2201	H220	0.586100	0.544300	0.134700
N1371	N137	0.475500	0.430100	0.956900
N1381	N138	0.441770	0.395100	0.905000
N1391	N139	0.483400	0.359600	0.970300
C3301	C330	0.448000	0.355900	0.913100
C3311	C331	0.500800	0.408400	0.995300
N1401	N140	0.361900	0.224860	0.759300
C3321	C332	0.361500	0.267300	0.747600
H2211	H221	0.343700	0.269400	0.701900
C3331	C333	0.385800	0.308700	0.798700
H2221	H222	0.381600	0.336500	0.791800
C3341	C334	0.416700	0.307900	0.860500
C3351	C335	0.415300	0.264500	0.878100
H2231	H223	0.432200	0.261300	0.923900
C3361	C336	0.387600	0.225000	0.825200
H2241	H224	0.386900	0.194900	0.837200
N1411	N141	0.212570	0.814830	0.404830
C3371	C337	0.205470	0.768730	0.390530
C3381	C338	0.234970	0.750730	0.429130
H2251	H225	0.229270	0.718430	0.418130
C3391	C339	0.272170	0.782230	0.483030
H2261	H226	0.293670	0.772830	0.507930
C3401	C340	0.276670	0.829430	0.499130
H2271	H227	0.299870	0.850530	0.538830
C3411	C341	0.247770	0.845430	0.458330
H2281	H228	0.252770	0.877630	0.468030
N1421	N142	0.142170	0.763430	0.290230
N1431	N143	0.108440	0.728430	0.238330
N1441	N144	0.150070	0.692930	0.303630
C3421	C342	0.114670	0.689230	0.246430
C3431	C343	0.167470	0.741730	0.328630
N1451	N145	0.028570	0.558190	0.092630
C3441	C344	0.028170	0.600630	0.080930
H2291	H229	0.010370	0.602730	0.035230
C3451	C345	0.052470	0.642030	0.132030
H2301	H230	0.048270	0.669830	0.125130
C3461	C346	0.083370	0.641230	0.193830
C3471	C347	0.081970	0.597830	0.211430
H2311	H231	0.098870	0.594630	0.257230
C3481	C348	0.054270	0.558330	0.158530
H2321	H232	0.053570	0.528230	0.170530
N1461	N146	0.879230	0.148170	0.738170
C3491	C349	0.872130	0.102070	0.723870
C3501	C350	0.901630	0.084070	0.762470
H2331	H233	0.895930	0.051770	0.751470
C3511	C351	0.938830	0.115570	0.816370
H2341	H234	0.960330	0.106170	0.841270
C3521	C352	0.943330	0.162770	0.832470
H2351	H235	0.966530	0.183870	0.872170
C3531	C353	0.914430	0.178770	0.791670
H2361	H236	0.919430	0.210970	0.801370
N1471	N147	0.808830	0.096770	0.623570
N1481	N148	0.775100	0.061770	0.571670
N1491	N149	0.816730	0.026270	0.636970
C3541	C354	0.781330	0.022570	0.579770
C3551	C355	0.834130	0.075070	0.661970
N1501	N150	0.695230	0.891530	0.425970
C3561	C356	0.694830	0.933970	0.414270
H2371	H237	0.677030	0.936070	0.368570
C3571	C357	0.719130	0.975370	0.465370
H2381	H238	0.714930	0.003170	0.458470
C3581	C358	0.750030	0.974570	0.527170
C3591	C359	0.748630	0.931170	0.544770
H2391	H239	0.765530	0.927970	0.590570
C3601	C360	0.720930	0.891670	0.491870
H2401	H240	0.720230	0.861570	0.503870
N1511	N151	0.935600	0.454100	0.071500
C3611	C361	0.896600	0.461200	0.057200
C3621	C362	0.849100	0.431700	0.095800
H2411	H241	0.822500	0.437400	0.084800
C3631	C363	0.843400	0.394500	0.149700
H2421	H242	0.812500	0.373000	0.174600
C3641	C364	0.886100	0.390000	0.165800
H2431	H243	0.884000	0.366800	0.205500
C3651	C365	0.931000	0.418900	0.125000
H2441	H244	0.958200	0.413900	0.134700
N1521	N152	0.954600	0.524500	0.956900
N1531	N153	0.953330	0.558230	0.905000
N1541	N154	0.876200	0.516600	0.970300
C3661	C366	0.907900	0.552000	0.913100
C3671	C367	0.907600	0.499200	0.995300
N1551	N155	0.862960	0.638100	0.759300
C3681	C368	0.905800	0.638500	0.747600
H2451	H245	0.925700	0.656300	0.701900
C3691	C369	0.922900	0.614200	0.798700
H2461	H246	0.954900	0.618400	0.791800
C3701	C370	0.891200	0.583300	0.860500
C3711	C371	0.849200	0.584700	0.878100
H2471	H247	0.829100	0.567800	0.923900
C3721	C372	0.837400	0.612400	0.825200
H2481	H248	0.808000	0.613100	0.837200
N1561	N156	0.602270	0.787430	0.404830
C3731	C373	0.563270	0.794530	0.390530
C3741	C374	0.515770	0.765030	0.429130
H2491	H249	0.489170	0.770730	0.418130
C3751	C375	0.510070	0.727830	0.483030
H2501	H250	0.479170	0.706330	0.507930
C3761	C376	0.552770	0.723330	0.499130
H2511	H251	0.550670	0.700130	0.538830
C3771	C377	0.597670	0.752230	0.458330
H2521	H252	0.624870	0.747230	0.468030
N1571	N157	0.621270	0.857830	0.290230
N1581	N158	0.620000	0.891560	0.238330
N1591	N159	0.542870	0.849930	0.303630
C3781	C378	0.574570	0.885330	0.246430
C3791	C379	0.574270	0.832530	0.328630
N1601	N160	0.529630	0.971430	0.092630
C3801	C380	0.572470	0.971830	0.080930
H2531	H253	0.592370	0.989630	0.035230
C3811	C381	0.589570	0.947530	0.132030
H2541	H254	0.621570	0.951730	0.125130
C3821	C382	0.557870	0.916630	0.193830
C3831	C383	0.515870	0.918030	0.211430
H2551	H255	0.495770	0.901130	0.257230
C3841	C384	0.504070	0.945730	0.158530
H2561	H256	0.474670	0.946430	0.170530
N1611	N161	0.268930	0.120770	0.738170
C3851	C385	0.229930	0.127870	0.723870
C3861	C386	0.182430	0.098370	0.762470
H2571	H257	0.155830	0.104070	0.751470
C3871	C387	0.176730	0.061170	0.816370
H2581	H258	0.145830	0.039670	0.841270
C3881	C388	0.219430	0.056670	0.832470
H2591	H259	0.217330	0.033470	0.872170
C3891	C389	0.264330	0.085570	0.791670
H2601	H260	0.291530	0.080570	0.801370
N1621	N162	0.287930	0.191170	0.623570
N1631	N163	0.286660	0.224900	0.571670
N1641	N164	0.209530	0.183270	0.636970
C3901	C390	0.241230	0.218670	0.579770
C3911	C391	0.240930	0.165870	0.661970
N1651	N165	0.196290	0.304770	0.425970
C3921	C392	0.239130	0.305170	0.414270
H2611	H261	0.259030	0.322970	0.368570
C3931	C393	0.256230	0.280870	0.465370
H2621	H262	0.288230	0.285070	0.458470
C3941	C394	0.224530	0.249970	0.527170
C3951	C395	0.182530	0.251370	0.544770
H2631	H263	0.162430	0.234470	0.590570
C3961	C396	0.170730	0.279070	0.491870
H2641	H264	0.141330	0.279770	0.503870
N1661	N166	0.518500	0.064400	0.071500
C3971	C397	0.564600	0.103400	0.057200
C3981	C398	0.582600	0.150900	0.095800
H2651	H265	0.614900	0.177500	0.084800
C3991	C399	0.551100	0.156600	0.149700
H2661	H266	0.560500	0.187500	0.174600
C4001	C400	0.503900	0.113900	0.165800
H2671	H267	0.482800	0.116000	0.205500
C4011	C401	0.487900	0.069000	0.125000
H2681	H268	0.455700	0.041800	0.134700
N1671	N167	0.569900	0.045400	0.956900
N1681	N168	0.604900	0.046670	0.905000
N1691	N169	0.640400	0.123800	0.970300
C4021	C402	0.644100	0.092100	0.913100
C4031	C403	0.591600	0.092400	0.995300
N1701	N170	0.775140	0.137040	0.759300
C4041	C404	0.732700	0.094200	0.747600
H2691	H269	0.730600	0.074300	0.701900
C4051	C405	0.691300	0.077100	0.798700
H2701	H270	0.663500	0.045100	0.791800
C4061	C406	0.692100	0.108800	0.860500
C4071	C407	0.735500	0.150800	0.878100
H2711	H271	0.738700	0.170900	0.923900
C4081	C408	0.775000	0.162600	0.825200
H2721	H272	0.805100	0.192000	0.837200
N1711	N171	0.185170	0.397730	0.404830
C4091	C409	0.231270	0.436730	0.390530
C4101	C410	0.249270	0.484230	0.429130
H2731	H273	0.281570	0.510830	0.418130
C4111	C411	0.217770	0.489930	0.483030
H2741	H274	0.227170	0.520830	0.507930
C4121	C412	0.170570	0.447230	0.499130
H2751	H275	0.149470	0.449330	0.538830
C4131	C413	0.154570	0.402330	0.458330
H2761	H276	0.122370	0.375130	0.468030
N1721	N172	0.236570	0.378730	0.290230
N1731	N173	0.271570	0.380000	0.238330
N1741	N174	0.307070	0.457130	0.303630
C4141	C414	0.310770	0.425430	0.246430
C4151	C415	0.258270	0.425730	0.328630
N1751	N175	0.441810	0.470370	0.092630
C4161	C416	0.399370	0.427530	0.080930
H2771	H277	0.397270	0.407630	0.035230
C4171	C417	0.357970	0.410430	0.132030
H2781	H278	0.330170	0.378430	0.125130
C4181	C418	0.358770	0.442130	0.193830
C4191	C419	0.402170	0.484130	0.211430
H2791	H279	0.405370	0.504230	0.257230
C4201	C420	0.441670	0.495930	0.158530
H2801	H280	0.471770	0.525330	0.170530
N1761	N176	0.851830	0.731070	0.738170
C4211	C421	0.897930	0.770070	0.723870
C4221	C422	0.915930	0.817570	0.762470
H2811	H281	0.948230	0.844170	0.751470
C4231	C423	0.884430	0.823270	0.816370
H2821	H282	0.893830	0.854170	0.841270
C4241	C424	0.837230	0.780570	0.832470
H2831	H283	0.816130	0.782670	0.872170
C4251	C425	0.821230	0.735670	0.791670
H2841	H284	0.789030	0.708470	0.801370
N1771	N177	0.903230	0.712070	0.623570
N1781	N178	0.938230	0.713340	0.571670
N1791	N179	0.973730	0.790470	0.636970
C4261	C426	0.977430	0.758770	0.579770
C4271	C427	0.924930	0.759070	0.661970
N1801	N180	0.108470	0.803710	0.425970
C4281	C428	0.066030	0.760870	0.414270
H2851	H285	0.063930	0.740970	0.368570
C4291	C429	0.024630	0.743770	0.465370
H2861	H286	0.996830	0.711770	0.458470
C4301	C430	0.025430	0.775470	0.527170
C4311	C431	0.068830	0.817470	0.544770
H2871	H287	0.072030	0.837570	0.590570
C4321	C432	0.108330	0.829270	0.491870
H2881	H288	0.138430	0.858670	0.503870
Ni101	Ni10	0.500000	0.500000	0.000000
Ni111	Ni11	0.166670	0.833330	0.333330
Ni121	Ni12	0.833330	0.166670	0.666670
Ni131	Ni13	0.000000	0.500000	0.000000
Ni141	Ni14	0.666670	0.833330	0.333330
Ni151	Ni15	0.333330	0.166670	0.666670
Ni161	Ni16	0.500000	0.000000	0.000000
Ni171	Ni17	0.166670	0.333330	0.333330
Ni181	Ni18	0.833330	0.666670	0.666670
