data_acs_PM
_symmetry_space_group_name_H-M	'P1'
_cell_length_a	21.881500
_cell_length_b	21.881500
_cell_length_c	75.310000
_cell_angle_alpha	90.000000
_cell_angle_beta	90.000000
_cell_angle_gamma	120.000000
_symmetry_Int_Tables_number 1

loop_
_symmetry_equiv_pos_as_xyz
'x,y,z'

loop_
_atom_site_label
_atom_site_type_symbol
_atom_site_fract_x
_atom_site_fract_y
_atom_site_fract_z
Ag11	Ag1	0.432430	0.740440	0.005470
Ag21	Ag2	0.431750	0.692760	0.857490
Ca11	Ca1	0.630540	0.867500	0.906210
S11	S1	0.458570	0.758140	0.961300
S21	S2	0.364710	0.790510	0.019440
N11	N1	0.534200	0.815500	0.990930
N21	N2	0.534800	0.719300	0.843140
O11	O1	0.581300	0.891600	0.934840
O21	O2	0.628800	0.826000	0.936890
O31	O3	0.674600	0.893800	0.877670
O41	O4	0.779500	0.986000	0.879290
C11	C1	0.535400	0.815300	0.973540
C21	C2	0.598100	0.859400	0.963500
C31	C3	0.659200	0.905100	0.973240
H11	H1	0.700900	0.935900	0.967400
C41	C4	0.656000	0.903300	0.991550
H21	H2	0.696100	0.931900	0.998200
C51	C5	0.592900	0.858800	0.999860
H31	H3	0.591200	0.858900	0.012200
C61	C6	0.603100	0.859400	0.943750
C71	C7	0.729900	0.934500	0.870960
C81	C8	0.734600	0.929300	0.850700
C91	C9	0.798000	0.947600	0.841140
C101	C10	0.594200	0.737000	0.851920
H41	H4	0.593000	0.738100	0.864300
C111	C11	0.656900	0.753700	0.843970
H51	H5	0.696500	0.763500	0.850700
C121	C12	0.659100	0.755200	0.826070
H61	H6	0.701500	0.768500	0.820300
Ag31	Ag3	0.099100	0.073770	0.338800
Ag41	Ag4	0.098420	0.026090	0.190830
Ca21	Ca2	0.297210	0.200830	0.239540
S31	S3	0.125240	0.091470	0.294630
S41	S4	0.031380	0.123840	0.352770
N31	N3	0.200870	0.148830	0.324260
N41	N4	0.201470	0.052630	0.176470
O51	O5	0.247970	0.224930	0.268170
O61	O6	0.295470	0.159330	0.270220
O71	O7	0.341270	0.227130	0.211000
O81	O8	0.446170	0.319330	0.212620
C131	C13	0.202070	0.148630	0.306870
C141	C14	0.264770	0.192730	0.296830
C151	C15	0.325870	0.238430	0.306570
H71	H7	0.367570	0.269230	0.300730
C161	C16	0.322670	0.236630	0.324880
H81	H8	0.362770	0.265230	0.331530
C171	C17	0.259570	0.192130	0.333190
H91	H9	0.257870	0.192230	0.345530
C181	C18	0.269770	0.192730	0.277080
C191	C19	0.396570	0.267830	0.204290
C201	C20	0.401270	0.262630	0.184030
C211	C21	0.464670	0.280930	0.174470
C221	C22	0.260870	0.070330	0.185250
H101	H10	0.259670	0.071430	0.197630
C231	C23	0.323570	0.087030	0.177300
H111	H11	0.363170	0.096830	0.184030
C241	C24	0.325770	0.088530	0.159400
H121	H12	0.368170	0.101830	0.153630
Ag51	Ag5	0.765760	0.407110	0.672130
Ag61	Ag6	0.765080	0.359430	0.524160
Ca31	Ca3	0.963870	0.534170	0.572880
S51	S5	0.791900	0.424810	0.627970
S61	S6	0.698040	0.457180	0.686110
N51	N5	0.867530	0.482170	0.657600
N61	N6	0.868130	0.385970	0.509810
O91	O9	0.914630	0.558270	0.601510
O101	O10	0.962130	0.492670	0.603560
O111	O11	0.007930	0.560470	0.544340
O121	O12	0.112830	0.652670	0.545960
C251	C25	0.868730	0.481970	0.640210
C261	C26	0.931430	0.526070	0.630170
C271	C27	0.992530	0.571770	0.639910
H131	H13	0.034230	0.602570	0.634070
C281	C28	0.989330	0.569970	0.658220
H141	H14	0.029430	0.598570	0.664870
C291	C29	0.926230	0.525470	0.666530
H151	H15	0.924530	0.525570	0.678870
C301	C30	0.936430	0.526070	0.610420
C311	C31	0.063230	0.601170	0.537630
C321	C32	0.067930	0.595970	0.517370
C331	C33	0.131330	0.614270	0.507810
C341	C34	0.927530	0.403670	0.518590
H161	H16	0.926330	0.404770	0.530970
C351	C35	0.990230	0.420370	0.510640
H171	H17	0.029830	0.430170	0.517370
C361	C36	0.992430	0.421870	0.492740
H181	H18	0.034830	0.435170	0.486970
Ag71	Ag7	0.259560	0.691990	0.005470
Ag81	Ag8	0.307240	0.738990	0.857490
Ca41	Ca4	0.132500	0.763040	0.906210
S71	S7	0.241860	0.700430	0.961300
S81	S8	0.209490	0.574200	0.019440
N71	N7	0.184500	0.718700	0.990930
N81	N8	0.280700	0.815500	0.843140
O131	O13	0.108400	0.689700	0.934840
O141	O14	0.174000	0.802800	0.936890
O151	O15	0.106200	0.780800	0.877670
O161	O16	0.014000	0.793500	0.879290
C371	C37	0.184700	0.720100	0.973540
C381	C38	0.140600	0.738700	0.963500
C391	C39	0.094900	0.754100	0.973240
H191	H19	0.064100	0.765000	0.967400
C401	C40	0.096700	0.752700	0.991550
H201	H20	0.068100	0.764200	0.998200
C411	C41	0.141200	0.734100	0.999860
H211	H21	0.141100	0.732300	0.012200
C421	C42	0.140600	0.743700	0.943750
C431	C43	0.065500	0.795400	0.870960
C441	C44	0.070700	0.805300	0.850700
C451	C45	0.052400	0.850400	0.841140
C461	C46	0.263000	0.857200	0.851920
H221	H22	0.261900	0.854900	0.864300
C471	C47	0.246300	0.903200	0.843970
H231	H23	0.236500	0.933000	0.850700
C481	C48	0.244800	0.903900	0.826070
H241	H24	0.231500	0.933000	0.820300
Ag91	Ag9	0.926230	0.025320	0.338800
Ag101	Ag10	0.973910	0.072320	0.190830
Ca51	Ca5	0.799170	0.096370	0.239540
S91	S9	0.908530	0.033760	0.294630
S101	S10	0.876160	0.907530	0.352770
N91	N9	0.851170	0.052030	0.324260
N101	N10	0.947370	0.148830	0.176470
O171	O17	0.775070	0.023030	0.268170
O181	O18	0.840670	0.136130	0.270220
O191	O19	0.772870	0.114130	0.211000
O201	O20	0.680670	0.126830	0.212620
C491	C49	0.851370	0.053430	0.306870
C501	C50	0.807270	0.072030	0.296830
C511	C51	0.761570	0.087430	0.306570
H251	H25	0.730770	0.098330	0.300730
C521	C52	0.763370	0.086030	0.324880
H261	H26	0.734770	0.097530	0.331530
C531	C53	0.807870	0.067430	0.333190
H271	H27	0.807770	0.065630	0.345530
C541	C54	0.807270	0.077030	0.277080
C551	C55	0.732170	0.128730	0.204290
C561	C56	0.737370	0.138630	0.184030
C571	C57	0.719070	0.183730	0.174470
C581	C58	0.929670	0.190530	0.185250
H281	H28	0.928570	0.188230	0.197630
C591	C59	0.912970	0.236530	0.177300
H291	H29	0.903170	0.266330	0.184030
C601	C60	0.911470	0.237230	0.159400
H301	H30	0.898170	0.266330	0.153630
Ag111	Ag11	0.592890	0.358660	0.672130
Ag121	Ag12	0.640570	0.405660	0.524160
Ca61	Ca6	0.465830	0.429710	0.572880
S111	S11	0.575190	0.367100	0.627970
S121	S12	0.542820	0.240870	0.686110
N111	N11	0.517830	0.385370	0.657600
N121	N12	0.614030	0.482170	0.509810
O211	O21	0.441730	0.356370	0.601510
O221	O22	0.507330	0.469470	0.603560
O231	O23	0.439530	0.447470	0.544340
O241	O24	0.347330	0.460170	0.545960
C611	C61	0.518030	0.386770	0.640210
C621	C62	0.473930	0.405370	0.630170
C631	C63	0.428230	0.420770	0.639910
H311	H31	0.397430	0.431670	0.634070
C641	C64	0.430030	0.419370	0.658220
H321	H32	0.401430	0.430870	0.664870
C651	C65	0.474530	0.400770	0.666530
H331	H33	0.474430	0.398970	0.678870
C661	C66	0.473930	0.410370	0.610420
C671	C67	0.398830	0.462070	0.537630
C681	C68	0.404030	0.471970	0.517370
C691	C69	0.385730	0.517070	0.507810
C701	C70	0.596330	0.523870	0.518590
H341	H34	0.595230	0.521570	0.530970
C711	C71	0.579630	0.569870	0.510640
H351	H35	0.569830	0.599670	0.517370
C721	C72	0.578130	0.570570	0.492740
H361	H36	0.564830	0.599670	0.486970
Ag131	Ag13	0.308010	0.567570	0.005470
Ag141	Ag14	0.261010	0.568250	0.857490
Ca71	Ca7	0.236960	0.369460	0.906210
S131	S13	0.299570	0.541430	0.961300
S141	S14	0.425800	0.635290	0.019440
N131	N13	0.281300	0.465800	0.990930
N141	N14	0.184500	0.465200	0.843140
O251	O25	0.310300	0.418700	0.934840
O261	O26	0.197200	0.371200	0.936890
O271	O27	0.219200	0.325400	0.877670
O281	O28	0.206500	0.220500	0.879290
C731	C73	0.279900	0.464600	0.973540
C741	C74	0.261300	0.401900	0.963500
C751	C75	0.245900	0.340800	0.973240
H371	H37	0.235000	0.299100	0.967400
C761	C76	0.247300	0.344000	0.991550
H381	H38	0.235800	0.303900	0.998200
C771	C77	0.265900	0.407100	0.999860
H391	H39	0.267700	0.408800	0.012200
C781	C78	0.256300	0.396900	0.943750
C791	C79	0.204600	0.270100	0.870960
C801	C80	0.194700	0.265400	0.850700
C811	C81	0.149600	0.202000	0.841140
C821	C82	0.142800	0.405800	0.851920
H401	H40	0.145100	0.407000	0.864300
C831	C83	0.096800	0.343100	0.843970
H411	H41	0.067000	0.303500	0.850700
C841	C84	0.096100	0.340900	0.826070
H421	H42	0.067000	0.298500	0.820300
Ag151	Ag15	0.974680	0.900900	0.338800
Ag161	Ag16	0.927680	0.901580	0.190830
Ca81	Ca8	0.903630	0.702790	0.239540
S151	S15	0.966240	0.874760	0.294630
S161	S16	0.092470	0.968620	0.352770
N151	N15	0.947970	0.799130	0.324260
N161	N16	0.851170	0.798530	0.176470
O291	O29	0.976970	0.752030	0.268170
O301	O30	0.863870	0.704530	0.270220
O311	O31	0.885870	0.658730	0.211000
O321	O32	0.873170	0.553830	0.212620
C851	C85	0.946570	0.797930	0.306870
C861	C86	0.927970	0.735230	0.296830
C871	C87	0.912570	0.674130	0.306570
H431	H43	0.901670	0.632430	0.300730
C881	C88	0.913970	0.677330	0.324880
H441	H44	0.902470	0.637230	0.331530
C891	C89	0.932570	0.740430	0.333190
H451	H45	0.934370	0.742130	0.345530
C901	C90	0.922970	0.730230	0.277080
C911	C91	0.871270	0.603430	0.204290
C921	C92	0.861370	0.598730	0.184030
C931	C93	0.816270	0.535330	0.174470
C941	C94	0.809470	0.739130	0.185250
H461	H46	0.811770	0.740330	0.197630
C951	C95	0.763470	0.676430	0.177300
H471	H47	0.733670	0.636830	0.184030
C961	C96	0.762770	0.674230	0.159400
H481	H48	0.733670	0.631830	0.153630
Ag171	Ag17	0.641340	0.234240	0.672130
Ag181	Ag18	0.594340	0.234920	0.524160
Ca91	Ca9	0.570290	0.036130	0.572880
S171	S17	0.632900	0.208100	0.627970
S181	S18	0.759130	0.301960	0.686110
N171	N17	0.614630	0.132470	0.657600
N181	N18	0.517830	0.131870	0.509810
O331	O33	0.643630	0.085370	0.601510
O341	O34	0.530530	0.037870	0.603560
O351	O35	0.552530	0.992070	0.544340
O361	O36	0.539830	0.887170	0.545960
C971	C97	0.613230	0.131270	0.640210
C981	C98	0.594630	0.068570	0.630170
C991	C99	0.579230	0.007470	0.639910
H491	H49	0.568330	0.965770	0.634070
C1001	C100	0.580630	0.010670	0.658220
H501	H50	0.569130	0.970570	0.664870
C1011	C101	0.599230	0.073770	0.666530
H511	H51	0.601030	0.075470	0.678870
C1021	C102	0.589630	0.063570	0.610420
C1031	C103	0.537930	0.936770	0.537630
C1041	C104	0.528030	0.932070	0.517370
C1051	C105	0.482930	0.868670	0.507810
C1061	C106	0.476130	0.072470	0.518590
H521	H52	0.478430	0.073670	0.530970
C1071	C107	0.430130	0.009770	0.510640
H531	H53	0.400330	0.970170	0.517370
C1081	C108	0.429430	0.007570	0.492740
H541	H54	0.400330	0.965170	0.486970
Ag191	Ag19	0.740440	0.432430	0.494530
Ag201	Ag20	0.692760	0.431750	0.642510
Ca101	Ca10	0.867500	0.630540	0.593790
S191	S19	0.758140	0.458570	0.538700
S201	S20	0.790510	0.364710	0.480560
N191	N19	0.815500	0.534200	0.509070
N201	N20	0.719300	0.534800	0.656860
O371	O37	0.891600	0.581300	0.565160
O381	O38	0.826000	0.628800	0.563110
O391	O39	0.893800	0.674600	0.622330
O401	O40	0.986000	0.779500	0.620710
C1091	C109	0.815300	0.535400	0.526460
C1101	C110	0.859400	0.598100	0.536500
C1111	C111	0.905100	0.659200	0.526760
H551	H55	0.935900	0.700900	0.532600
C1121	C112	0.903300	0.656000	0.508450
H561	H56	0.931900	0.696100	0.501800
C1131	C113	0.858800	0.592900	0.500140
H571	H57	0.858900	0.591200	0.487800
C1141	C114	0.859400	0.603100	0.556250
C1151	C115	0.934500	0.729900	0.629040
C1161	C116	0.929300	0.734600	0.649300
C1171	C117	0.947600	0.798000	0.658860
C1181	C118	0.737000	0.594200	0.648080
H581	H58	0.738100	0.593000	0.635700
C1191	C119	0.753700	0.656900	0.656030
H591	H59	0.763500	0.696500	0.649300
C1201	C120	0.755200	0.659100	0.673930
H601	H60	0.768500	0.701500	0.679700
Ag211	Ag21	0.407110	0.765760	0.827870
Ag221	Ag22	0.359430	0.765080	0.975840
Ca111	Ca11	0.534170	0.963870	0.927120
S211	S21	0.424810	0.791900	0.872030
S221	S22	0.457180	0.698040	0.813890
N211	N21	0.482170	0.867530	0.842400
N221	N22	0.385970	0.868130	0.990190
O411	O41	0.558270	0.914630	0.898490
O421	O42	0.492670	0.962130	0.896440
O431	O43	0.560470	0.007930	0.955660
O441	O44	0.652670	0.112830	0.954040
C1211	C121	0.481970	0.868730	0.859790
C1221	C122	0.526070	0.931430	0.869830
C1231	C123	0.571770	0.992530	0.860090
H611	H61	0.602570	0.034230	0.865930
C1241	C124	0.569970	0.989330	0.841780
H621	H62	0.598570	0.029430	0.835130
C1251	C125	0.525470	0.926230	0.833470
H631	H63	0.525570	0.924530	0.821130
C1261	C126	0.526070	0.936430	0.889580
C1271	C127	0.601170	0.063230	0.962370
C1281	C128	0.595970	0.067930	0.982630
C1291	C129	0.614270	0.131330	0.992190
C1301	C130	0.403670	0.927530	0.981410
H641	H64	0.404770	0.926330	0.969030
C1311	C131	0.420370	0.990230	0.989360
H651	H65	0.430170	0.029830	0.982630
C1321	C132	0.421870	0.992430	0.007260
H661	H66	0.435170	0.034830	0.013030
Ag231	Ag23	0.073770	0.099100	0.161200
Ag241	Ag24	0.026090	0.098420	0.309170
Ca121	Ca12	0.200830	0.297210	0.260460
S231	S23	0.091470	0.125240	0.205370
S241	S24	0.123840	0.031380	0.147230
N231	N23	0.148830	0.200870	0.175740
N241	N24	0.052630	0.201470	0.323530
O451	O45	0.224930	0.247970	0.231830
O461	O46	0.159330	0.295470	0.229780
O471	O47	0.227130	0.341270	0.289000
O481	O48	0.319330	0.446170	0.287380
C1331	C133	0.148630	0.202070	0.193130
C1341	C134	0.192730	0.264770	0.203170
C1351	C135	0.238430	0.325870	0.193430
H671	H67	0.269230	0.367570	0.199270
C1361	C136	0.236630	0.322670	0.175120
H681	H68	0.265230	0.362770	0.168470
C1371	C137	0.192130	0.259570	0.166810
H691	H69	0.192230	0.257870	0.154470
C1381	C138	0.192730	0.269770	0.222920
C1391	C139	0.267830	0.396570	0.295710
C1401	C140	0.262630	0.401270	0.315970
C1411	C141	0.280930	0.464670	0.325530
C1421	C142	0.070330	0.260870	0.314750
H701	H70	0.071430	0.259670	0.302370
C1431	C143	0.087030	0.323570	0.322700
H711	H71	0.096830	0.363170	0.315970
C1441	C144	0.088530	0.325770	0.340600
H721	H72	0.101830	0.368170	0.346370
Ag251	Ag25	0.691990	0.259560	0.494530
Ag261	Ag26	0.738990	0.307240	0.642510
Ca131	Ca13	0.763040	0.132500	0.593790
S251	S25	0.700430	0.241860	0.538700
S261	S26	0.574200	0.209490	0.480560
N251	N25	0.718700	0.184500	0.509070
N261	N26	0.815500	0.280700	0.656860
O491	O49	0.689700	0.108400	0.565160
O501	O50	0.802800	0.174000	0.563110
O511	O51	0.780800	0.106200	0.622330
O521	O52	0.793500	0.014000	0.620710
C1451	C145	0.720100	0.184700	0.526460
C1461	C146	0.738700	0.140600	0.536500
C1471	C147	0.754100	0.094900	0.526760
H731	H73	0.765000	0.064100	0.532600
C1481	C148	0.752700	0.096700	0.508450
H741	H74	0.764200	0.068100	0.501800
C1491	C149	0.734100	0.141200	0.500140
H751	H75	0.732300	0.141100	0.487800
C1501	C150	0.743700	0.140600	0.556250
C1511	C151	0.795400	0.065500	0.629040
C1521	C152	0.805300	0.070700	0.649300
C1531	C153	0.850400	0.052400	0.658860
C1541	C154	0.857200	0.263000	0.648080
H761	H76	0.854900	0.261900	0.635700
C1551	C155	0.903200	0.246300	0.656030
H771	H77	0.933000	0.236500	0.649300
C1561	C156	0.903900	0.244800	0.673930
H781	H78	0.933000	0.231500	0.679700
Ag271	Ag27	0.358660	0.592890	0.827870
Ag281	Ag28	0.405660	0.640570	0.975840
Ca141	Ca14	0.429710	0.465830	0.927120
S271	S27	0.367100	0.575190	0.872030
S281	S28	0.240870	0.542820	0.813890
N271	N27	0.385370	0.517830	0.842400
N281	N28	0.482170	0.614030	0.990190
O531	O53	0.356370	0.441730	0.898490
O541	O54	0.469470	0.507330	0.896440
O551	O55	0.447470	0.439530	0.955660
O561	O56	0.460170	0.347330	0.954040
C1571	C157	0.386770	0.518030	0.859790
C1581	C158	0.405370	0.473930	0.869830
C1591	C159	0.420770	0.428230	0.860090
H791	H79	0.431670	0.397430	0.865930
C1601	C160	0.419370	0.430030	0.841780
H801	H80	0.430870	0.401430	0.835130
C1611	C161	0.400770	0.474530	0.833470
H811	H81	0.398970	0.474430	0.821130
C1621	C162	0.410370	0.473930	0.889580
C1631	C163	0.462070	0.398830	0.962370
C1641	C164	0.471970	0.404030	0.982630
C1651	C165	0.517070	0.385730	0.992190
C1661	C166	0.523870	0.596330	0.981410
H821	H82	0.521570	0.595230	0.969030
C1671	C167	0.569870	0.579630	0.989360
H831	H83	0.599670	0.569830	0.982630
C1681	C168	0.570570	0.578130	0.007260
H841	H84	0.599670	0.564830	0.013030
Ag291	Ag29	0.025320	0.926230	0.161200
Ag301	Ag30	0.072320	0.973910	0.309170
Ca151	Ca15	0.096370	0.799170	0.260460
S291	S29	0.033760	0.908530	0.205370
S301	S30	0.907530	0.876160	0.147230
N291	N29	0.052030	0.851170	0.175740
N301	N30	0.148830	0.947370	0.323530
O571	O57	0.023030	0.775070	0.231830
O581	O58	0.136130	0.840670	0.229780
O591	O59	0.114130	0.772870	0.289000
O601	O60	0.126830	0.680670	0.287380
C1691	C169	0.053430	0.851370	0.193130
C1701	C170	0.072030	0.807270	0.203170
C1711	C171	0.087430	0.761570	0.193430
H851	H85	0.098330	0.730770	0.199270
C1721	C172	0.086030	0.763370	0.175120
H861	H86	0.097530	0.734770	0.168470
C1731	C173	0.067430	0.807870	0.166810
H871	H87	0.065630	0.807770	0.154470
C1741	C174	0.077030	0.807270	0.222920
C1751	C175	0.128730	0.732170	0.295710
C1761	C176	0.138630	0.737370	0.315970
C1771	C177	0.183730	0.719070	0.325530
C1781	C178	0.190530	0.929670	0.314750
H881	H88	0.188230	0.928570	0.302370
C1791	C179	0.236530	0.912970	0.322700
H891	H89	0.266330	0.903170	0.315970
C1801	C180	0.237230	0.911470	0.340600
H901	H90	0.266330	0.898170	0.346370
Ag311	Ag31	0.567570	0.308010	0.494530
Ag321	Ag32	0.568250	0.261010	0.642510
Ca161	Ca16	0.369460	0.236960	0.593790
S311	S31	0.541430	0.299570	0.538700
S321	S32	0.635290	0.425800	0.480560
N311	N31	0.465800	0.281300	0.509070
N321	N32	0.465200	0.184500	0.656860
O611	O61	0.418700	0.310300	0.565160
O621	O62	0.371200	0.197200	0.563110
O631	O63	0.325400	0.219200	0.622330
O641	O64	0.220500	0.206500	0.620710
C1811	C181	0.464600	0.279900	0.526460
C1821	C182	0.401900	0.261300	0.536500
C1831	C183	0.340800	0.245900	0.526760
H911	H91	0.299100	0.235000	0.532600
C1841	C184	0.344000	0.247300	0.508450
H921	H92	0.303900	0.235800	0.501800
C1851	C185	0.407100	0.265900	0.500140
H931	H93	0.408800	0.267700	0.487800
C1861	C186	0.396900	0.256300	0.556250
C1871	C187	0.270100	0.204600	0.629040
C1881	C188	0.265400	0.194700	0.649300
C1891	C189	0.202000	0.149600	0.658860
C1901	C190	0.405800	0.142800	0.648080
H941	H94	0.407000	0.145100	0.635700
C1911	C191	0.343100	0.096800	0.656030
H951	H95	0.303500	0.067000	0.649300
C1921	C192	0.340900	0.096100	0.673930
H961	H96	0.298500	0.067000	0.679700
Ag331	Ag33	0.234240	0.641340	0.827870
Ag341	Ag34	0.234920	0.594340	0.975840
Ca171	Ca17	0.036130	0.570290	0.927120
S331	S33	0.208100	0.632900	0.872030
S341	S34	0.301960	0.759130	0.813890
N331	N33	0.132470	0.614630	0.842400
N341	N34	0.131870	0.517830	0.990190
O651	O65	0.085370	0.643630	0.898490
O661	O66	0.037870	0.530530	0.896440
O671	O67	0.992070	0.552530	0.955660
O681	O68	0.887170	0.539830	0.954040
C1931	C193	0.131270	0.613230	0.859790
C1941	C194	0.068570	0.594630	0.869830
C1951	C195	0.007470	0.579230	0.860090
H971	H97	0.965770	0.568330	0.865930
C1961	C196	0.010670	0.580630	0.841780
H981	H98	0.970570	0.569130	0.835130
C1971	C197	0.073770	0.599230	0.833470
H991	H99	0.075470	0.601030	0.821130
C1981	C198	0.063570	0.589630	0.889580
C1991	C199	0.936770	0.537930	0.962370
C2001	C200	0.932070	0.528030	0.982630
C2011	C201	0.868670	0.482930	0.992190
C2021	C202	0.072470	0.476130	0.981410
H1001	H100	0.073670	0.478430	0.969030
C2031	C203	0.009770	0.430130	0.989360
H1011	H101	0.970170	0.400330	0.982630
C2041	C204	0.007570	0.429430	0.007260
H1021	H102	0.965170	0.400330	0.013030
Ag351	Ag35	0.900900	0.974680	0.161200
Ag361	Ag36	0.901580	0.927680	0.309170
Ca181	Ca18	0.702790	0.903630	0.260460
S351	S35	0.874760	0.966240	0.205370
S361	S36	0.968620	0.092470	0.147230
N351	N35	0.799130	0.947970	0.175740
N361	N36	0.798530	0.851170	0.323530
O691	O69	0.752030	0.976970	0.231830
O701	O70	0.704530	0.863870	0.229780
O711	O71	0.658730	0.885870	0.289000
O721	O72	0.553830	0.873170	0.287380
C2051	C205	0.797930	0.946570	0.193130
C2061	C206	0.735230	0.927970	0.203170
C2071	C207	0.674130	0.912570	0.193430
H1031	H103	0.632430	0.901670	0.199270
C2081	C208	0.677330	0.913970	0.175120
H1041	H104	0.637230	0.902470	0.168470
C2091	C209	0.740430	0.932570	0.166810
H1051	H105	0.742130	0.934370	0.154470
C2101	C210	0.730230	0.922970	0.222920
C2111	C211	0.603430	0.871270	0.295710
C2121	C212	0.598730	0.861370	0.315970
C2131	C213	0.535330	0.816270	0.325530
C2141	C214	0.739130	0.809470	0.314750
H1061	H106	0.740330	0.811770	0.302370
C2151	C215	0.676430	0.763470	0.322700
H1071	H107	0.636830	0.733670	0.315970
C2161	C216	0.674230	0.762770	0.340600
H1081	H108	0.631830	0.733670	0.346370
Ag371	Ag37	0.567570	0.259560	0.994530
Ag381	Ag38	0.568250	0.307240	0.142510
Ca191	Ca19	0.369460	0.132500	0.093790
S371	S37	0.541430	0.241860	0.038700
S381	S38	0.635290	0.209490	0.980560
N371	N37	0.465800	0.184500	0.009070
N381	N38	0.465200	0.280700	0.156860
O731	O73	0.418700	0.108400	0.065160
O741	O74	0.371200	0.174000	0.063110
O751	O75	0.325400	0.106200	0.122330
O761	O76	0.220500	0.014000	0.120710
C2171	C217	0.464600	0.184700	0.026460
C2181	C218	0.401900	0.140600	0.036500
C2191	C219	0.340800	0.094900	0.026760
H1091	H109	0.299100	0.064100	0.032600
C2201	C220	0.344000	0.096700	0.008450
H1101	H110	0.303900	0.068100	0.001800
C2211	C221	0.407100	0.141200	0.000140
H1111	H111	0.408800	0.141100	0.987800
C2221	C222	0.396900	0.140600	0.056250
C2231	C223	0.270100	0.065500	0.129040
C2241	C224	0.265400	0.070700	0.149300
C2251	C225	0.202000	0.052400	0.158860
C2261	C226	0.405800	0.263000	0.148080
H1121	H112	0.407000	0.261900	0.135700
C2271	C227	0.343100	0.246300	0.156030
H1131	H113	0.303500	0.236500	0.149300
C2281	C228	0.340900	0.244800	0.173930
H1141	H114	0.298500	0.231500	0.179700
Ag391	Ag39	0.234240	0.592890	0.327870
Ag401	Ag40	0.234920	0.640570	0.475840
Ca201	Ca20	0.036130	0.465830	0.427120
S391	S39	0.208100	0.575190	0.372030
S401	S40	0.301960	0.542820	0.313890
N391	N39	0.132470	0.517830	0.342400
N401	N40	0.131870	0.614030	0.490190
O771	O77	0.085370	0.441730	0.398490
O781	O78	0.037870	0.507330	0.396440
O791	O79	0.992070	0.439530	0.455660
O801	O80	0.887170	0.347330	0.454040
C2291	C229	0.131270	0.518030	0.359790
C2301	C230	0.068570	0.473930	0.369830
C2311	C231	0.007470	0.428230	0.360090
H1151	H115	0.965770	0.397430	0.365930
C2321	C232	0.010670	0.430030	0.341780
H1161	H116	0.970570	0.401430	0.335130
C2331	C233	0.073770	0.474530	0.333470
H1171	H117	0.075470	0.474430	0.321130
C2341	C234	0.063570	0.473930	0.389580
C2351	C235	0.936770	0.398830	0.462370
C2361	C236	0.932070	0.404030	0.482630
C2371	C237	0.868670	0.385730	0.492190
C2381	C238	0.072470	0.596330	0.481410
H1181	H118	0.073670	0.595230	0.469030
C2391	C239	0.009770	0.579630	0.489360
H1191	H119	0.970170	0.569830	0.482630
C2401	C240	0.007570	0.578130	0.507260
H1201	H120	0.965170	0.564830	0.513030
Ag411	Ag41	0.900900	0.926230	0.661200
Ag421	Ag42	0.901580	0.973910	0.809170
Ca211	Ca21	0.702790	0.799170	0.760460
S411	S41	0.874760	0.908530	0.705370
S421	S42	0.968620	0.876160	0.647230
N411	N41	0.799130	0.851170	0.675740
N421	N42	0.798530	0.947370	0.823530
O811	O81	0.752030	0.775070	0.731830
O821	O82	0.704530	0.840670	0.729780
O831	O83	0.658730	0.772870	0.789000
O841	O84	0.553830	0.680670	0.787380
C2411	C241	0.797930	0.851370	0.693130
C2421	C242	0.735230	0.807270	0.703170
C2431	C243	0.674130	0.761570	0.693430
H1211	H121	0.632430	0.730770	0.699270
C2441	C244	0.677330	0.763370	0.675120
H1221	H122	0.637230	0.734770	0.668470
C2451	C245	0.740430	0.807870	0.666810
H1231	H123	0.742130	0.807770	0.654470
C2461	C246	0.730230	0.807270	0.722920
C2471	C247	0.603430	0.732170	0.795710
C2481	C248	0.598730	0.737370	0.815970
C2491	C249	0.535330	0.719070	0.825530
C2501	C250	0.739130	0.929670	0.814750
H1241	H124	0.740330	0.928570	0.802370
C2511	C251	0.676430	0.912970	0.822700
H1251	H125	0.636830	0.903170	0.815970
C2521	C252	0.674230	0.911470	0.840600
H1261	H126	0.631830	0.898170	0.846370
Ag431	Ag43	0.740440	0.308010	0.994530
Ag441	Ag44	0.692760	0.261010	0.142510
Ca221	Ca22	0.867500	0.236960	0.093790
S431	S43	0.758140	0.299570	0.038700
S441	S44	0.790510	0.425800	0.980560
N431	N43	0.815500	0.281300	0.009070
N441	N44	0.719300	0.184500	0.156860
O851	O85	0.891600	0.310300	0.065160
O861	O86	0.826000	0.197200	0.063110
O871	O87	0.893800	0.219200	0.122330
O881	O88	0.986000	0.206500	0.120710
C2531	C253	0.815300	0.279900	0.026460
C2541	C254	0.859400	0.261300	0.036500
C2551	C255	0.905100	0.245900	0.026760
H1271	H127	0.935900	0.235000	0.032600
C2561	C256	0.903300	0.247300	0.008450
H1281	H128	0.931900	0.235800	0.001800
C2571	C257	0.858800	0.265900	0.000140
H1291	H129	0.858900	0.267700	0.987800
C2581	C258	0.859400	0.256300	0.056250
C2591	C259	0.934500	0.204600	0.129040
C2601	C260	0.929300	0.194700	0.149300
C2611	C261	0.947600	0.149600	0.158860
C2621	C262	0.737000	0.142800	0.148080
H1301	H130	0.738100	0.145100	0.135700
C2631	C263	0.753700	0.096800	0.156030
H1311	H131	0.763500	0.067000	0.149300
C2641	C264	0.755200	0.096100	0.173930
H1321	H132	0.768500	0.067000	0.179700
Ag451	Ag45	0.407110	0.641340	0.327870
Ag461	Ag46	0.359430	0.594340	0.475840
Ca231	Ca23	0.534170	0.570290	0.427120
S451	S45	0.424810	0.632900	0.372030
S461	S46	0.457180	0.759130	0.313890
N451	N45	0.482170	0.614630	0.342400
N461	N46	0.385970	0.517830	0.490190
O891	O89	0.558270	0.643630	0.398490
O901	O90	0.492670	0.530530	0.396440
O911	O91	0.560470	0.552530	0.455660
O921	O92	0.652670	0.539830	0.454040
C2651	C265	0.481970	0.613230	0.359790
C2661	C266	0.526070	0.594630	0.369830
C2671	C267	0.571770	0.579230	0.360090
H1331	H133	0.602570	0.568330	0.365930
C2681	C268	0.569970	0.580630	0.341780
H1341	H134	0.598570	0.569130	0.335130
C2691	C269	0.525470	0.599230	0.333470
H1351	H135	0.525570	0.601030	0.321130
C2701	C270	0.526070	0.589630	0.389580
C2711	C271	0.601170	0.537930	0.462370
C2721	C272	0.595970	0.528030	0.482630
C2731	C273	0.614270	0.482930	0.492190
C2741	C274	0.403670	0.476130	0.481410
H1361	H136	0.404770	0.478430	0.469030
C2751	C275	0.420370	0.430130	0.489360
H1371	H137	0.430170	0.400330	0.482630
C2761	C276	0.421870	0.429430	0.507260
H1381	H138	0.435170	0.400330	0.513030
Ag471	Ag47	0.073770	0.974680	0.661200
Ag481	Ag48	0.026090	0.927680	0.809170
Ca241	Ca24	0.200830	0.903630	0.760460
S471	S47	0.091470	0.966240	0.705370
S481	S48	0.123840	0.092470	0.647230
N471	N47	0.148830	0.947970	0.675740
N481	N48	0.052630	0.851170	0.823530
O931	O93	0.224930	0.976970	0.731830
O941	O94	0.159330	0.863870	0.729780
O951	O95	0.227130	0.885870	0.789000
O961	O96	0.319330	0.873170	0.787380
C2771	C277	0.148630	0.946570	0.693130
C2781	C278	0.192730	0.927970	0.703170
C2791	C279	0.238430	0.912570	0.693430
H1391	H139	0.269230	0.901670	0.699270
C2801	C280	0.236630	0.913970	0.675120
H1401	H140	0.265230	0.902470	0.668470
C2811	C281	0.192130	0.932570	0.666810
H1411	H141	0.192230	0.934370	0.654470
C2821	C282	0.192730	0.922970	0.722920
C2831	C283	0.267830	0.871270	0.795710
C2841	C284	0.262630	0.861370	0.815970
C2851	C285	0.280930	0.816270	0.825530
C2861	C286	0.070330	0.809470	0.814750
H1421	H142	0.071430	0.811770	0.802370
C2871	C287	0.087030	0.763470	0.822700
H1431	H143	0.096830	0.733670	0.815970
C2881	C288	0.088530	0.762770	0.840600
H1441	H144	0.101830	0.733670	0.846370
Ag491	Ag49	0.691990	0.432430	0.994530
Ag501	Ag50	0.738990	0.431750	0.142510
Ca251	Ca25	0.763040	0.630540	0.093790
S491	S49	0.700430	0.458570	0.038700
S501	S50	0.574200	0.364710	0.980560
N491	N49	0.718700	0.534200	0.009070
N501	N50	0.815500	0.534800	0.156860
O971	O97	0.689700	0.581300	0.065160
O981	O98	0.802800	0.628800	0.063110
O991	O99	0.780800	0.674600	0.122330
O1001	O100	0.793500	0.779500	0.120710
C2891	C289	0.720100	0.535400	0.026460
C2901	C290	0.738700	0.598100	0.036500
C2911	C291	0.754100	0.659200	0.026760
H1451	H145	0.765000	0.700900	0.032600
C2921	C292	0.752700	0.656000	0.008450
H1461	H146	0.764200	0.696100	0.001800
C2931	C293	0.734100	0.592900	0.000140
H1471	H147	0.732300	0.591200	0.987800
C2941	C294	0.743700	0.603100	0.056250
C2951	C295	0.795400	0.729900	0.129040
C2961	C296	0.805300	0.734600	0.149300
C2971	C297	0.850400	0.798000	0.158860
C2981	C298	0.857200	0.594200	0.148080
H1481	H148	0.854900	0.593000	0.135700
C2991	C299	0.903200	0.656900	0.156030
H1491	H149	0.933000	0.696500	0.149300
C3001	C300	0.903900	0.659100	0.173930
H1501	H150	0.933000	0.701500	0.179700
Ag511	Ag51	0.358660	0.765760	0.327870
Ag521	Ag52	0.405660	0.765080	0.475840
Ca261	Ca26	0.429710	0.963870	0.427120
S511	S51	0.367100	0.791900	0.372030
S521	S52	0.240870	0.698040	0.313890
N511	N51	0.385370	0.867530	0.342400
N521	N52	0.482170	0.868130	0.490190
O1011	O101	0.356370	0.914630	0.398490
O1021	O102	0.469470	0.962130	0.396440
O1031	O103	0.447470	0.007930	0.455660
O1041	O104	0.460170	0.112830	0.454040
C3011	C301	0.386770	0.868730	0.359790
C3021	C302	0.405370	0.931430	0.369830
C3031	C303	0.420770	0.992530	0.360090
H1511	H151	0.431670	0.034230	0.365930
C3041	C304	0.419370	0.989330	0.341780
H1521	H152	0.430870	0.029430	0.335130
C3051	C305	0.400770	0.926230	0.333470
H1531	H153	0.398970	0.924530	0.321130
C3061	C306	0.410370	0.936430	0.389580
C3071	C307	0.462070	0.063230	0.462370
C3081	C308	0.471970	0.067930	0.482630
C3091	C309	0.517070	0.131330	0.492190
C3101	C310	0.523870	0.927530	0.481410
H1541	H154	0.521570	0.926330	0.469030
C3111	C311	0.569870	0.990230	0.489360
H1551	H155	0.599670	0.029830	0.482630
C3121	C312	0.570570	0.992430	0.507260
H1561	H156	0.599670	0.034830	0.513030
Ag531	Ag53	0.025320	0.099100	0.661200
Ag541	Ag54	0.072320	0.098420	0.809170
Ca271	Ca27	0.096370	0.297210	0.760460
S531	S53	0.033760	0.125240	0.705370
S541	S54	0.907530	0.031380	0.647230
N531	N53	0.052030	0.200870	0.675740
N541	N54	0.148830	0.201470	0.823530
O1051	O105	0.023030	0.247970	0.731830
O1061	O106	0.136130	0.295470	0.729780
O1071	O107	0.114130	0.341270	0.789000
O1081	O108	0.126830	0.446170	0.787380
C3131	C313	0.053430	0.202070	0.693130
C3141	C314	0.072030	0.264770	0.703170
C3151	C315	0.087430	0.325870	0.693430
H1571	H157	0.098330	0.367570	0.699270
C3161	C316	0.086030	0.322670	0.675120
H1581	H158	0.097530	0.362770	0.668470
C3171	C317	0.067430	0.259570	0.666810
H1591	H159	0.065630	0.257870	0.654470
C3181	C318	0.077030	0.269770	0.722920
C3191	C319	0.128730	0.396570	0.795710
C3201	C320	0.138630	0.401270	0.815970
C3211	C321	0.183730	0.464670	0.825530
C3221	C322	0.190530	0.260870	0.814750
H1601	H160	0.188230	0.259670	0.802370
C3231	C323	0.236530	0.323570	0.822700
H1611	H161	0.266330	0.363170	0.815970
C3241	C324	0.237230	0.325770	0.840600
H1621	H162	0.266330	0.368170	0.846370
Ag551	Ag55	0.259560	0.567570	0.505470
Ag561	Ag56	0.307240	0.568250	0.357490
Ca281	Ca28	0.132500	0.369460	0.406210
S551	S55	0.241860	0.541430	0.461300
S561	S56	0.209490	0.635290	0.519440
N551	N55	0.184500	0.465800	0.490930
N561	N56	0.280700	0.465200	0.343140
O1091	O109	0.108400	0.418700	0.434840
O1101	O110	0.174000	0.371200	0.436890
O1111	O111	0.106200	0.325400	0.377670
O1121	O112	0.014000	0.220500	0.379290
C3251	C325	0.184700	0.464600	0.473540
C3261	C326	0.140600	0.401900	0.463500
C3271	C327	0.094900	0.340800	0.473240
H1631	H163	0.064100	0.299100	0.467400
C3281	C328	0.096700	0.344000	0.491550
H1641	H164	0.068100	0.303900	0.498200
C3291	C329	0.141200	0.407100	0.499860
H1651	H165	0.141100	0.408800	0.512200
C3301	C330	0.140600	0.396900	0.443750
C3311	C331	0.065500	0.270100	0.370960
C3321	C332	0.070700	0.265400	0.350700
C3331	C333	0.052400	0.202000	0.341140
C3341	C334	0.263000	0.405800	0.351920
H1661	H166	0.261900	0.407000	0.364300
C3351	C335	0.246300	0.343100	0.343970
H1671	H167	0.236500	0.303500	0.350700
C3361	C336	0.244800	0.340900	0.326070
H1681	H168	0.231500	0.298500	0.320300
Ag571	Ag57	0.926230	0.900900	0.838800
Ag581	Ag58	0.973910	0.901580	0.690830
Ca291	Ca29	0.799170	0.702790	0.739540
S571	S57	0.908530	0.874760	0.794630
S581	S58	0.876160	0.968620	0.852770
N571	N57	0.851170	0.799130	0.824260
N581	N58	0.947370	0.798530	0.676470
O1131	O113	0.775070	0.752030	0.768170
O1141	O114	0.840670	0.704530	0.770220
O1151	O115	0.772870	0.658730	0.711000
O1161	O116	0.680670	0.553830	0.712620
C3371	C337	0.851370	0.797930	0.806870
C3381	C338	0.807270	0.735230	0.796830
C3391	C339	0.761570	0.674130	0.806570
H1691	H169	0.730770	0.632430	0.800730
C3401	C340	0.763370	0.677330	0.824880
H1701	H170	0.734770	0.637230	0.831530
C3411	C341	0.807870	0.740430	0.833190
H1711	H171	0.807770	0.742130	0.845530
C3421	C342	0.807270	0.730230	0.777080
C3431	C343	0.732170	0.603430	0.704290
C3441	C344	0.737370	0.598730	0.684030
C3451	C345	0.719070	0.535330	0.674470
C3461	C346	0.929670	0.739130	0.685250
H1721	H172	0.928570	0.740330	0.697630
C3471	C347	0.912970	0.676430	0.677300
H1731	H173	0.903170	0.636830	0.684030
C3481	C348	0.911470	0.674230	0.659400
H1741	H174	0.898170	0.631830	0.653630
Ag591	Ag59	0.592890	0.234240	0.172130
Ag601	Ag60	0.640570	0.234920	0.024160
Ca301	Ca30	0.465830	0.036130	0.072880
S591	S59	0.575190	0.208100	0.127970
S601	S60	0.542820	0.301960	0.186110
N591	N59	0.517830	0.132470	0.157600
N601	N60	0.614030	0.131870	0.009810
O1171	O117	0.441730	0.085370	0.101510
O1181	O118	0.507330	0.037870	0.103560
O1191	O119	0.439530	0.992070	0.044340
O1201	O120	0.347330	0.887170	0.045960
C3491	C349	0.518030	0.131270	0.140210
C3501	C350	0.473930	0.068570	0.130170
C3511	C351	0.428230	0.007470	0.139910
H1751	H175	0.397430	0.965770	0.134070
C3521	C352	0.430030	0.010670	0.158220
H1761	H176	0.401430	0.970570	0.164870
C3531	C353	0.474530	0.073770	0.166530
H1771	H177	0.474430	0.075470	0.178870
C3541	C354	0.473930	0.063570	0.110420
C3551	C355	0.398830	0.936770	0.037630
C3561	C356	0.404030	0.932070	0.017370
C3571	C357	0.385730	0.868670	0.007810
C3581	C358	0.596330	0.072470	0.018590
H1781	H178	0.595230	0.073670	0.030970
C3591	C359	0.579630	0.009770	0.010640
H1791	H179	0.569830	0.970170	0.017370
C3601	C360	0.578130	0.007570	0.992740
H1801	H180	0.564830	0.965170	0.986970
Ag611	Ag61	0.308010	0.740440	0.505470
Ag621	Ag62	0.261010	0.692760	0.357490
Ca311	Ca31	0.236960	0.867500	0.406210
S611	S61	0.299570	0.758140	0.461300
S621	S62	0.425800	0.790510	0.519440
N611	N61	0.281300	0.815500	0.490930
N621	N62	0.184500	0.719300	0.343140
O1211	O121	0.310300	0.891600	0.434840
O1221	O122	0.197200	0.826000	0.436890
O1231	O123	0.219200	0.893800	0.377670
O1241	O124	0.206500	0.986000	0.379290
C3611	C361	0.279900	0.815300	0.473540
C3621	C362	0.261300	0.859400	0.463500
C3631	C363	0.245900	0.905100	0.473240
H1811	H181	0.235000	0.935900	0.467400
C3641	C364	0.247300	0.903300	0.491550
H1821	H182	0.235800	0.931900	0.498200
C3651	C365	0.265900	0.858800	0.499860
H1831	H183	0.267700	0.858900	0.512200
C3661	C366	0.256300	0.859400	0.443750
C3671	C367	0.204600	0.934500	0.370960
C3681	C368	0.194700	0.929300	0.350700
C3691	C369	0.149600	0.947600	0.341140
C3701	C370	0.142800	0.737000	0.351920
H1841	H184	0.145100	0.738100	0.364300
C3711	C371	0.096800	0.753700	0.343970
H1851	H185	0.067000	0.763500	0.350700
C3721	C372	0.096100	0.755200	0.326070
H1861	H186	0.067000	0.768500	0.320300
Ag631	Ag63	0.974680	0.073770	0.838800
Ag641	Ag64	0.927680	0.026090	0.690830
Ca321	Ca32	0.903630	0.200830	0.739540
S631	S63	0.966240	0.091470	0.794630
S641	S64	0.092470	0.123840	0.852770
N631	N63	0.947970	0.148830	0.824260
N641	N64	0.851170	0.052630	0.676470
O1251	O125	0.976970	0.224930	0.768170
O1261	O126	0.863870	0.159330	0.770220
O1271	O127	0.885870	0.227130	0.711000
O1281	O128	0.873170	0.319330	0.712620
C3731	C373	0.946570	0.148630	0.806870
C3741	C374	0.927970	0.192730	0.796830
C3751	C375	0.912570	0.238430	0.806570
H1871	H187	0.901670	0.269230	0.800730
C3761	C376	0.913970	0.236630	0.824880
H1881	H188	0.902470	0.265230	0.831530
C3771	C377	0.932570	0.192130	0.833190
H1891	H189	0.934370	0.192230	0.845530
C3781	C378	0.922970	0.192730	0.777080
C3791	C379	0.871270	0.267830	0.704290
C3801	C380	0.861370	0.262630	0.684030
C3811	C381	0.816270	0.280930	0.674470
C3821	C382	0.809470	0.070330	0.685250
H1901	H190	0.811770	0.071430	0.697630
C3831	C383	0.763470	0.087030	0.677300
H1911	H191	0.733670	0.096830	0.684030
C3841	C384	0.762770	0.088530	0.659400
H1921	H192	0.733670	0.101830	0.653630
Ag651	Ag65	0.641340	0.407110	0.172130
Ag661	Ag66	0.594340	0.359430	0.024160
Ca331	Ca33	0.570290	0.534170	0.072880
S651	S65	0.632900	0.424810	0.127970
S661	S66	0.759130	0.457180	0.186110
N651	N65	0.614630	0.482170	0.157600
N661	N66	0.517830	0.385970	0.009810
O1291	O129	0.643630	0.558270	0.101510
O1301	O130	0.530530	0.492670	0.103560
O1311	O131	0.552530	0.560470	0.044340
O1321	O132	0.539830	0.652670	0.045960
C3851	C385	0.613230	0.481970	0.140210
C3861	C386	0.594630	0.526070	0.130170
C3871	C387	0.579230	0.571770	0.139910
H1931	H193	0.568330	0.602570	0.134070
C3881	C388	0.580630	0.569970	0.158220
H1941	H194	0.569130	0.598570	0.164870
C3891	C389	0.599230	0.525470	0.166530
H1951	H195	0.601030	0.525570	0.178870
C3901	C390	0.589630	0.526070	0.110420
C3911	C391	0.537930	0.601170	0.037630
C3921	C392	0.528030	0.595970	0.017370
C3931	C393	0.482930	0.614270	0.007810
C3941	C394	0.476130	0.403670	0.018590
H1961	H196	0.478430	0.404770	0.030970
C3951	C395	0.430130	0.420370	0.010640
H1971	H197	0.400330	0.430170	0.017370
C3961	C396	0.429430	0.421870	0.992740
H1981	H198	0.400330	0.435170	0.986970
Ag671	Ag67	0.432430	0.691990	0.505470
Ag681	Ag68	0.431750	0.738990	0.357490
Ca341	Ca34	0.630540	0.763040	0.406210
S671	S67	0.458570	0.700430	0.461300
S681	S68	0.364710	0.574200	0.519440
N671	N67	0.534200	0.718700	0.490930
N681	N68	0.534800	0.815500	0.343140
O1331	O133	0.581300	0.689700	0.434840
O1341	O134	0.628800	0.802800	0.436890
O1351	O135	0.674600	0.780800	0.377670
O1361	O136	0.779500	0.793500	0.379290
C3971	C397	0.535400	0.720100	0.473540
C3981	C398	0.598100	0.738700	0.463500
C3991	C399	0.659200	0.754100	0.473240
H1991	H199	0.700900	0.765000	0.467400
C4001	C400	0.656000	0.752700	0.491550
H2001	H200	0.696100	0.764200	0.498200
C4011	C401	0.592900	0.734100	0.499860
H2011	H201	0.591200	0.732300	0.512200
C4021	C402	0.603100	0.743700	0.443750
C4031	C403	0.729900	0.795400	0.370960
C4041	C404	0.734600	0.805300	0.350700
C4051	C405	0.798000	0.850400	0.341140
C4061	C406	0.594200	0.857200	0.351920
H2021	H202	0.593000	0.854900	0.364300
C4071	C407	0.656900	0.903200	0.343970
H2031	H203	0.696500	0.933000	0.350700
C4081	C408	0.659100	0.903900	0.326070
H2041	H204	0.701500	0.933000	0.320300
Ag691	Ag69	0.099100	0.025320	0.838800
Ag701	Ag70	0.098420	0.072320	0.690830
Ca351	Ca35	0.297210	0.096370	0.739540
S691	S69	0.125240	0.033760	0.794630
S701	S70	0.031380	0.907530	0.852770
N691	N69	0.200870	0.052030	0.824260
N701	N70	0.201470	0.148830	0.676470
O1371	O137	0.247970	0.023030	0.768170
O1381	O138	0.295470	0.136130	0.770220
O1391	O139	0.341270	0.114130	0.711000
O1401	O140	0.446170	0.126830	0.712620
C4091	C409	0.202070	0.053430	0.806870
C4101	C410	0.264770	0.072030	0.796830
C4111	C411	0.325870	0.087430	0.806570
H2051	H205	0.367570	0.098330	0.800730
C4121	C412	0.322670	0.086030	0.824880
H2061	H206	0.362770	0.097530	0.831530
C4131	C413	0.259570	0.067430	0.833190
H2071	H207	0.257870	0.065630	0.845530
C4141	C414	0.269770	0.077030	0.777080
C4151	C415	0.396570	0.128730	0.704290
C4161	C416	0.401270	0.138630	0.684030
C4171	C417	0.464670	0.183730	0.674470
C4181	C418	0.260870	0.190530	0.685250
H2081	H208	0.259670	0.188230	0.697630
C4191	C419	0.323570	0.236530	0.677300
H2091	H209	0.363170	0.266330	0.684030
C4201	C420	0.325770	0.237230	0.659400
H2101	H210	0.368170	0.266330	0.653630
Ag711	Ag71	0.765760	0.358660	0.172130
Ag721	Ag72	0.765080	0.405660	0.024160
Ca361	Ca36	0.963870	0.429710	0.072880
S711	S71	0.791900	0.367100	0.127970
S721	S72	0.698040	0.240870	0.186110
N711	N71	0.867530	0.385370	0.157600
N721	N72	0.868130	0.482170	0.009810
O1411	O141	0.914630	0.356370	0.101510
O1421	O142	0.962130	0.469470	0.103560
O1431	O143	0.007930	0.447470	0.044340
O1441	O144	0.112830	0.460170	0.045960
C4211	C421	0.868730	0.386770	0.140210
C4221	C422	0.931430	0.405370	0.130170
C4231	C423	0.992530	0.420770	0.139910
H2111	H211	0.034230	0.431670	0.134070
C4241	C424	0.989330	0.419370	0.158220
H2121	H212	0.029430	0.430870	0.164870
C4251	C425	0.926230	0.400770	0.166530
H2131	H213	0.924530	0.398970	0.178870
C4261	C426	0.936430	0.410370	0.110420
C4271	C427	0.063230	0.462070	0.037630
C4281	C428	0.067930	0.471970	0.017370
C4291	C429	0.131330	0.517070	0.007810
C4301	C430	0.927530	0.523870	0.018590
H2141	H214	0.926330	0.521570	0.030970
C4311	C431	0.990230	0.569870	0.010640
H2151	H215	0.029830	0.599670	0.017370
C4321	C432	0.992430	0.570570	0.992740
H2161	H216	0.034830	0.599670	0.986970
