data_ACUFEK_clean_PM
_symmetry_space_group_name_H-M	'P1'
_cell_length_a	32.968000
_cell_length_b	32.968000
_cell_length_c	32.975700
_cell_angle_alpha	60.007700
_cell_angle_beta	60.007700
_cell_angle_gamma	60.000000
_symmetry_Int_Tables_number 1

loop_
_symmetry_equiv_pos_as_xyz
'x,y,z'

loop_
_atom_site_label
_atom_site_type_symbol
_atom_site_fract_x
_atom_site_fract_y
_atom_site_fract_z
Cu11	Cu1	0.363390	0.443700	0.290140
Cu21	Cu2	0.443700	0.902770	0.290140
Cu31	Cu3	0.902770	0.363390	0.290140
Cu41	Cu4	0.363390	0.902770	0.290140
Cu51	Cu5	0.443700	0.363390	0.290140
Cu61	Cu6	0.902770	0.443700	0.290140
Cu71	Cu7	0.903610	0.443060	0.749720
Cu81	Cu8	0.903270	0.363020	0.830440
Cu91	Cu9	0.443060	0.903610	0.749720
Cu101	Cu10	0.363010	0.903270	0.830450
Cu111	Cu11	0.903610	0.903610	0.749720
Cu121	Cu12	0.903270	0.903270	0.830440
H11	H1	0.059900	0.281100	0.785200
H21	H2	0.143000	0.241500	0.748900
H31	H3	0.142600	0.356900	0.625600
H41	H4	0.060200	0.396200	0.661300
H51	H5	0.365700	0.239100	0.527500
H61	H6	0.398400	0.278200	0.443500
H71	H7	0.275000	0.396200	0.272500
H81	H8	0.236200	0.356700	0.269800
H91	H9	0.751000	0.412000	0.916300
H101	H10	0.669500	0.446600	0.954100
H111	H11	0.664300	0.564100	0.831700
H121	H12	0.746400	0.529000	0.795100
H131	H13	0.450100	0.565300	0.051000
H141	H14	0.408200	0.528800	0.133500
H151	H15	0.409200	0.530100	0.315700
H161	H16	0.447000	0.568100	0.319000
H171	H17	0.281100	0.873800	0.785200
H181	H18	0.241500	0.866600	0.748900
H191	H19	0.356900	0.874900	0.625600
H201	H20	0.396200	0.882300	0.661300
H211	H21	0.239100	0.867700	0.527500
H221	H22	0.278200	0.879900	0.443500
H231	H23	0.396200	0.056300	0.272500
H241	H24	0.356700	0.137300	0.269800
H251	H25	0.412000	0.920700	0.916300
H261	H26	0.446600	0.929800	0.954100
H271	H27	0.564100	0.939900	0.831700
H281	H28	0.529000	0.929500	0.795100
H291	H29	0.565300	0.933600	0.051000
H301	H30	0.528800	0.929500	0.133500
H311	H31	0.530100	0.745000	0.315700
H321	H32	0.568100	0.665900	0.319000
H331	H33	0.873800	0.059900	0.785200
H341	H34	0.866600	0.143000	0.748900
H351	H35	0.874900	0.142600	0.625600
H361	H36	0.882300	0.060200	0.661300
H371	H37	0.867700	0.365700	0.527500
H381	H38	0.879900	0.398400	0.443500
H391	H39	0.056300	0.275000	0.272500
H401	H40	0.137300	0.236200	0.269800
H411	H41	0.920700	0.751000	0.916300
H421	H42	0.929800	0.669500	0.954100
H431	H43	0.939900	0.664300	0.831700
H441	H44	0.929500	0.746400	0.795100
H451	H45	0.933600	0.450100	0.051000
H461	H46	0.929500	0.408200	0.133500
H471	H47	0.745000	0.409200	0.315700
H481	H48	0.665900	0.447000	0.319000
H491	H49	0.059900	0.873800	0.785200
H501	H50	0.143000	0.866600	0.748900
H511	H51	0.142600	0.874900	0.625600
H521	H52	0.060200	0.882300	0.661300
H531	H53	0.365700	0.867700	0.527500
H541	H54	0.398400	0.879900	0.443500
H551	H55	0.275000	0.056300	0.272500
H561	H56	0.236200	0.137300	0.269800
H571	H57	0.751000	0.920700	0.916300
H581	H58	0.669500	0.929800	0.954100
H591	H59	0.664300	0.939900	0.831700
H601	H60	0.746400	0.929500	0.795100
H611	H61	0.450100	0.933600	0.051000
H621	H62	0.408200	0.929500	0.133500
H631	H63	0.409200	0.745000	0.315700
H641	H64	0.447000	0.665900	0.319000
H651	H65	0.281100	0.059900	0.785200
H661	H66	0.241500	0.143000	0.748900
H671	H67	0.356900	0.142600	0.625600
H681	H68	0.396200	0.060200	0.661300
H691	H69	0.239100	0.365700	0.527500
H701	H70	0.278200	0.398400	0.443500
H711	H71	0.396200	0.275000	0.272500
H721	H72	0.356700	0.236200	0.269800
H731	H73	0.412000	0.751000	0.916300
H741	H74	0.446600	0.669500	0.954100
H751	H75	0.564100	0.664300	0.831700
H761	H76	0.529000	0.746400	0.795100
H771	H77	0.565300	0.450100	0.051000
H781	H78	0.528800	0.408200	0.133500
H791	H79	0.530100	0.409200	0.315700
H801	H80	0.568100	0.447000	0.319000
H811	H81	0.873800	0.281100	0.785200
H821	H82	0.866600	0.241500	0.748900
H831	H83	0.874900	0.356900	0.625600
H841	H84	0.882300	0.396200	0.661300
H851	H85	0.867700	0.239100	0.527500
H861	H86	0.879900	0.278200	0.443500
H871	H87	0.056300	0.396200	0.272500
H881	H88	0.137300	0.356700	0.269800
H891	H89	0.920700	0.412000	0.916300
H901	H90	0.929800	0.446600	0.954100
H911	H91	0.939900	0.564100	0.831700
H921	H92	0.929500	0.529000	0.795100
H931	H93	0.933600	0.565300	0.051000
H941	H94	0.929500	0.528800	0.133500
H951	H95	0.745000	0.530100	0.315700
H961	H96	0.665900	0.568100	0.319000
C11	C1	0.995270	0.364370	0.751990
C21	C2	0.049430	0.341930	0.728110
C31	C3	0.075950	0.296950	0.752350
C41	C4	0.126470	0.272770	0.730690
C51	C5	0.150590	0.295690	0.683230
C61	C6	0.125890	0.341090	0.658030
C71	C7	0.076270	0.364670	0.679390
C81	C8	0.202510	0.272010	0.656770
C91	C9	0.347840	0.270740	0.511180
C101	C10	0.366650	0.294150	0.461650
C111	C11	0.291450	0.363850	0.272050
C121	C12	0.268740	0.340340	0.269680
C131	C13	0.812040	0.440940	0.829480
C141	C14	0.757540	0.465140	0.852280
C151	C15	0.733540	0.442940	0.898780
C161	C16	0.684760	0.463660	0.921520
C171	C17	0.657370	0.508870	0.897790
C181	C18	0.681580	0.533080	0.849460
C191	C19	0.730470	0.511870	0.827590
C201	C20	0.603540	0.537740	0.921280
C211	C21	0.466410	0.533010	0.067770
C221	C22	0.440540	0.511440	0.118080
C231	C23	0.441610	0.513110	0.316270
C241	C24	0.463090	0.535290	0.319630
C251	C25	0.364370	0.888370	0.751990
C261	C26	0.341930	0.880530	0.728110
C271	C27	0.296950	0.874750	0.752350
C281	C28	0.272770	0.870070	0.730690
C291	C29	0.295690	0.870490	0.683230
C301	C30	0.341090	0.874990	0.658030
C311	C31	0.364670	0.879670	0.679390
C321	C32	0.272010	0.868710	0.656770
C331	C33	0.270740	0.870240	0.511180
C341	C34	0.294150	0.877550	0.461650
C351	C35	0.363850	0.072650	0.272050
C361	C36	0.340340	0.121240	0.269680
C371	C37	0.440940	0.917540	0.829480
C381	C38	0.465140	0.925040	0.852280
C391	C39	0.442940	0.924740	0.898780
C401	C40	0.463660	0.930060	0.921520
C411	C41	0.508870	0.935970	0.897790
C421	C42	0.533080	0.935880	0.849460
C431	C43	0.511870	0.930070	0.827590
C441	C44	0.537740	0.937440	0.921280
C451	C45	0.533010	0.932810	0.067770
C461	C46	0.511440	0.929940	0.118080
C471	C47	0.513110	0.729010	0.316270
C481	C48	0.535290	0.681990	0.319630
C491	C49	0.888370	0.995270	0.751990
C501	C50	0.880530	0.049430	0.728110
C511	C51	0.874750	0.075950	0.752350
C521	C52	0.870070	0.126470	0.730690
C531	C53	0.870490	0.150590	0.683230
C541	C54	0.874990	0.125890	0.658030
C551	C55	0.879670	0.076270	0.679390
C561	C56	0.868710	0.202510	0.656770
C571	C57	0.870240	0.347840	0.511180
C581	C58	0.877550	0.366650	0.461650
C591	C59	0.072650	0.291450	0.272050
C601	C60	0.121240	0.268740	0.269680
C611	C61	0.917540	0.812040	0.829480
C621	C62	0.925040	0.757540	0.852280
C631	C63	0.924740	0.733540	0.898780
C641	C64	0.930060	0.684760	0.921520
C651	C65	0.935970	0.657370	0.897790
C661	C66	0.935880	0.681580	0.849460
C671	C67	0.930070	0.730470	0.827590
C681	C68	0.937440	0.603540	0.921280
C691	C69	0.932810	0.466410	0.067770
C701	C70	0.929940	0.440540	0.118080
C711	C71	0.729010	0.441610	0.316270
C721	C72	0.681990	0.463090	0.319630
C731	C73	0.995270	0.888370	0.751990
C741	C74	0.049430	0.880530	0.728110
C751	C75	0.075950	0.874750	0.752350
C761	C76	0.126470	0.870070	0.730690
C771	C77	0.150590	0.870490	0.683230
C781	C78	0.125890	0.874990	0.658030
C791	C79	0.076270	0.879670	0.679390
C801	C80	0.202510	0.868710	0.656770
C811	C81	0.347840	0.870240	0.511180
C821	C82	0.366650	0.877550	0.461650
C831	C83	0.291450	0.072650	0.272050
C841	C84	0.268740	0.121240	0.269680
C851	C85	0.812040	0.917540	0.829480
C861	C86	0.757540	0.925040	0.852280
C871	C87	0.733540	0.924740	0.898780
C881	C88	0.684760	0.930060	0.921520
C891	C89	0.657370	0.935970	0.897790
C901	C90	0.681580	0.935880	0.849460
C911	C91	0.730470	0.930070	0.827590
C921	C92	0.603540	0.937440	0.921280
C931	C93	0.466410	0.932810	0.067770
C941	C94	0.440540	0.929940	0.118080
C951	C95	0.441610	0.729010	0.316270
C961	C96	0.463090	0.681990	0.319630
C971	C97	0.364370	0.995270	0.751990
C981	C98	0.341930	0.049430	0.728110
C991	C99	0.296950	0.075950	0.752350
C1001	C100	0.272770	0.126470	0.730690
C1011	C101	0.295690	0.150590	0.683230
C1021	C102	0.341090	0.125890	0.658030
C1031	C103	0.364670	0.076270	0.679390
C1041	C104	0.272010	0.202510	0.656770
C1051	C105	0.270740	0.347840	0.511180
C1061	C106	0.294150	0.366650	0.461650
C1071	C107	0.363850	0.291450	0.272050
C1081	C108	0.340340	0.268740	0.269680
C1091	C109	0.440940	0.812040	0.829480
C1101	C110	0.465140	0.757540	0.852280
C1111	C111	0.442940	0.733540	0.898780
C1121	C112	0.463660	0.684760	0.921520
C1131	C113	0.508870	0.657370	0.897790
C1141	C114	0.533080	0.681580	0.849460
C1151	C115	0.511870	0.730470	0.827590
C1161	C116	0.537740	0.603540	0.921280
C1171	C117	0.533010	0.466410	0.067770
C1181	C118	0.511440	0.440540	0.118080
C1191	C119	0.513110	0.441610	0.316270
C1201	C120	0.535290	0.463090	0.319630
C1211	C121	0.888370	0.364370	0.751990
C1221	C122	0.880530	0.341930	0.728110
C1231	C123	0.874750	0.296950	0.752350
C1241	C124	0.870070	0.272770	0.730690
C1251	C125	0.870490	0.295690	0.683230
C1261	C126	0.874990	0.341090	0.658030
C1271	C127	0.879670	0.364670	0.679390
C1281	C128	0.868710	0.272010	0.656770
C1291	C129	0.870240	0.270740	0.511180
C1301	C130	0.877550	0.294150	0.461650
C1311	C131	0.072650	0.363850	0.272050
C1321	C132	0.121240	0.340340	0.269680
C1331	C133	0.917540	0.440940	0.829480
C1341	C134	0.925040	0.465140	0.852280
C1351	C135	0.924740	0.442940	0.898780
C1361	C136	0.930060	0.463660	0.921520
C1371	C137	0.935970	0.508870	0.897790
C1381	C138	0.935880	0.533080	0.849460
C1391	C139	0.930070	0.511870	0.827590
C1401	C140	0.937440	0.537740	0.921280
C1411	C141	0.932810	0.533010	0.067770
C1421	C142	0.929940	0.511440	0.118080
C1431	C143	0.729010	0.513110	0.316270
C1441	C144	0.681990	0.535290	0.319630
C1451	C145	0.270350	0.270350	0.592600
C1461	C146	0.298240	0.298240	0.536830
C1471	C147	0.340160	0.340160	0.438070
C1481	C148	0.364850	0.364850	0.382900
C1491	C149	0.363420	0.363420	0.278740
C1501	C150	0.338880	0.338880	0.273910
C1511	C151	0.292900	0.292900	0.267250
C1521	C152	0.267420	0.267420	0.265240
C1531	C153	0.441490	0.441490	0.303580
C1541	C154	0.465210	0.465210	0.313570
C1551	C155	0.509620	0.509620	0.324040
C1561	C156	0.535060	0.535060	0.328270
C1571	C157	0.270350	0.866700	0.592600
C1581	C158	0.298240	0.866690	0.536830
C1591	C159	0.340160	0.881610	0.438070
C1601	C160	0.364850	0.887400	0.382900
C1611	C161	0.363420	0.994420	0.278740
C1621	C162	0.338880	0.048330	0.273910
C1631	C163	0.292900	0.146950	0.267250
C1641	C164	0.267420	0.199920	0.265240
C1651	C165	0.441490	0.813440	0.303580
C1661	C166	0.465210	0.756010	0.313570
C1671	C167	0.509620	0.656720	0.324040
C1681	C168	0.535060	0.601610	0.328270
C1691	C169	0.866700	0.270350	0.592600
C1701	C170	0.866690	0.298240	0.536830
C1711	C171	0.881610	0.340160	0.438070
C1721	C172	0.887400	0.364850	0.382900
C1731	C173	0.994420	0.363420	0.278740
C1741	C174	0.048330	0.338880	0.273910
C1751	C175	0.146950	0.292900	0.267250
C1761	C176	0.199920	0.267420	0.265240
C1771	C177	0.813440	0.441490	0.303580
C1781	C178	0.756010	0.465210	0.313570
C1791	C179	0.656720	0.509620	0.324040
C1801	C180	0.601610	0.535060	0.328270
C1811	C181	0.537180	0.537180	0.991060
C1821	C182	0.511090	0.511090	0.043530
C1831	C183	0.464490	0.464490	0.143130
C1841	C184	0.440960	0.440960	0.199020
C1851	C185	0.537180	0.934580	0.991060
C1861	C186	0.511090	0.934290	0.043530
C1871	C187	0.464490	0.927890	0.143130
C1881	C188	0.440960	0.919060	0.199020
C1891	C189	0.934580	0.537180	0.991060
C1901	C190	0.934290	0.511090	0.043530
C1911	C191	0.927890	0.464490	0.143130
C1921	C192	0.919060	0.440960	0.199020
N11	N1	0.224090	0.295690	0.612130
N21	N2	0.583250	0.511720	0.969640
N31	N3	0.295690	0.868090	0.612130
N41	N4	0.511720	0.935390	0.969640
N51	N5	0.868090	0.224090	0.612130
N61	N6	0.935390	0.583250	0.969640
N71	N7	0.224090	0.868090	0.612130
N81	N8	0.583250	0.935390	0.969640
N91	N9	0.295690	0.224090	0.612130
N101	N10	0.511720	0.583250	0.969640
N111	N11	0.868090	0.295690	0.612130
N121	N12	0.935390	0.511720	0.969640
N131	N13	0.221560	0.291940	0.264940
N141	N14	0.291940	0.221560	0.264940
N151	N15	0.221560	0.221560	0.264940
N161	N16	0.226000	0.226000	0.680500
N171	N17	0.226000	0.867500	0.680500
N181	N18	0.867500	0.226000	0.680500
N191	N19	0.583400	0.583400	0.895750
N201	N20	0.583400	0.937450	0.895750
N211	N21	0.937450	0.583400	0.895750
N221	N22	0.580940	0.510630	0.327490
N231	N23	0.510630	0.580940	0.327490
N241	N24	0.580940	0.580940	0.327490
O11	O1	0.975280	0.339220	0.794500
O21	O2	0.974850	0.406680	0.726580
O31	O3	0.340430	0.407890	0.362440
O41	O4	0.338910	0.407010	0.280480
O51	O5	0.832110	0.398770	0.853630
O61	O6	0.832520	0.466720	0.785620
O71	O7	0.398190	0.466460	0.218400
O81	O8	0.399550	0.467430	0.300730
O91	O9	0.339220	0.891000	0.794500
O101	O10	0.406680	0.891890	0.726580
O111	O11	0.407890	0.889240	0.362440
O121	O12	0.407010	0.973600	0.280480
O131	O13	0.398770	0.915490	0.853630
O141	O14	0.466720	0.915140	0.785620
O151	O15	0.466460	0.916950	0.218400
O161	O16	0.467430	0.832290	0.300730
O171	O17	0.891000	0.975280	0.794500
O181	O18	0.891890	0.974850	0.726580
O191	O19	0.889240	0.340430	0.362440
O201	O20	0.973600	0.338910	0.280480
O211	O21	0.915490	0.832110	0.853630
O221	O22	0.915140	0.832520	0.785620
O231	O23	0.916950	0.398190	0.218400
O241	O24	0.832290	0.399550	0.300730
O251	O25	0.975280	0.891000	0.794500
O261	O26	0.974850	0.891890	0.726580
O271	O27	0.340430	0.889240	0.362440
O281	O28	0.338910	0.973600	0.280480
O291	O29	0.832110	0.915490	0.853630
O301	O30	0.832520	0.915140	0.785620
O311	O31	0.398190	0.916950	0.218400
O321	O32	0.399550	0.832290	0.300730
O331	O33	0.339220	0.975280	0.794500
O341	O34	0.406680	0.974850	0.726580
O351	O35	0.407890	0.340430	0.362440
O361	O36	0.407010	0.338910	0.280480
O371	O37	0.398770	0.832110	0.853630
O381	O38	0.466720	0.832520	0.785620
O391	O39	0.466460	0.398190	0.218400
O401	O40	0.467430	0.399550	0.300730
O411	O41	0.891000	0.339220	0.794500
O421	O42	0.891890	0.406680	0.726580
O431	O43	0.889240	0.407890	0.362440
O441	O44	0.973600	0.407010	0.280480
O451	O45	0.915490	0.398770	0.853630
O461	O46	0.915140	0.466720	0.785620
O471	O47	0.916950	0.466460	0.218400
O481	O48	0.832290	0.467430	0.300730
Cu131	Cu13	0.636610	0.097230	0.709860
Cu141	Cu14	0.556300	0.636610	0.709860
Cu151	Cu15	0.097230	0.556300	0.709860
Cu161	Cu16	0.636610	0.556300	0.709860
Cu171	Cu17	0.556300	0.097230	0.709860
Cu181	Cu18	0.097230	0.636610	0.709860
Cu191	Cu19	0.096390	0.096390	0.250280
Cu201	Cu20	0.096730	0.096730	0.169550
Cu211	Cu21	0.556940	0.096390	0.250280
Cu221	Cu22	0.636980	0.096730	0.169560
Cu231	Cu23	0.096390	0.556940	0.250280
Cu241	Cu24	0.096730	0.636990	0.169550
H971	H97	0.940100	0.126200	0.214800
H981	H98	0.857000	0.133400	0.251100
H991	H99	0.857400	0.125100	0.374400
H1001	H100	0.939800	0.117700	0.338700
H1011	H101	0.634300	0.132300	0.472500
H1021	H102	0.601600	0.120100	0.556500
H1031	H103	0.725000	0.943700	0.727500
H1041	H104	0.763800	0.862700	0.730200
H1051	H105	0.249000	0.079300	0.083700
H1061	H106	0.330500	0.070200	0.045900
H1071	H107	0.335700	0.060100	0.168300
H1081	H108	0.253600	0.070500	0.204900
H1091	H109	0.549900	0.066400	0.949000
H1101	H110	0.591800	0.070500	0.866500
H1111	H111	0.590800	0.255000	0.684300
H1121	H112	0.553000	0.334100	0.681000
H1131	H113	0.718900	0.940100	0.214800
H1141	H114	0.758500	0.857000	0.251100
H1151	H115	0.643100	0.857400	0.374400
H1161	H116	0.603800	0.939800	0.338700
H1171	H117	0.760900	0.634300	0.472500
H1181	H118	0.721800	0.601600	0.556500
H1191	H119	0.603800	0.725000	0.727500
H1201	H120	0.643300	0.763800	0.730200
H1211	H121	0.588000	0.249000	0.083700
H1221	H122	0.553400	0.330500	0.045900
H1231	H123	0.435900	0.335700	0.168300
H1241	H124	0.471000	0.253600	0.204900
H1251	H125	0.434700	0.549900	0.949000
H1261	H126	0.471200	0.591800	0.866500
H1271	H127	0.469900	0.590800	0.684300
H1281	H128	0.431900	0.553000	0.681000
H1291	H129	0.126200	0.718900	0.214800
H1301	H130	0.133400	0.758500	0.251100
H1311	H131	0.125100	0.643100	0.374400
H1321	H132	0.117700	0.603800	0.338700
H1331	H133	0.132300	0.760900	0.472500
H1341	H134	0.120100	0.721800	0.556500
H1351	H135	0.943700	0.603800	0.727500
H1361	H136	0.862700	0.643300	0.730200
H1371	H137	0.079300	0.588000	0.083700
H1381	H138	0.070200	0.553400	0.045900
H1391	H139	0.060100	0.435900	0.168300
H1401	H140	0.070500	0.471000	0.204900
H1411	H141	0.066400	0.434700	0.949000
H1421	H142	0.070500	0.471200	0.866500
H1431	H143	0.255000	0.469900	0.684300
H1441	H144	0.334100	0.431900	0.681000
H1451	H145	0.940100	0.718900	0.214800
H1461	H146	0.857000	0.758500	0.251100
H1471	H147	0.857400	0.643100	0.374400
H1481	H148	0.939800	0.603800	0.338700
H1491	H149	0.634300	0.760900	0.472500
H1501	H150	0.601600	0.721800	0.556500
H1511	H151	0.725000	0.603800	0.727500
H1521	H152	0.763800	0.643300	0.730200
H1531	H153	0.249000	0.588000	0.083700
H1541	H154	0.330500	0.553400	0.045900
H1551	H155	0.335700	0.435900	0.168300
H1561	H156	0.253600	0.471000	0.204900
H1571	H157	0.549900	0.434700	0.949000
H1581	H158	0.591800	0.471200	0.866500
H1591	H159	0.590800	0.469900	0.684300
H1601	H160	0.553000	0.431900	0.681000
H1611	H161	0.718900	0.126200	0.214800
H1621	H162	0.758500	0.133400	0.251100
H1631	H163	0.643100	0.125100	0.374400
H1641	H164	0.603800	0.117700	0.338700
H1651	H165	0.760900	0.132300	0.472500
H1661	H166	0.721800	0.120100	0.556500
H1671	H167	0.603800	0.943700	0.727500
H1681	H168	0.643300	0.862700	0.730200
H1691	H169	0.588000	0.079300	0.083700
H1701	H170	0.553400	0.070200	0.045900
H1711	H171	0.435900	0.060100	0.168300
H1721	H172	0.471000	0.070500	0.204900
H1731	H173	0.434700	0.066400	0.949000
H1741	H174	0.471200	0.070500	0.866500
H1751	H175	0.469900	0.255000	0.684300
H1761	H176	0.431900	0.334100	0.681000
H1771	H177	0.126200	0.940100	0.214800
H1781	H178	0.133400	0.857000	0.251100
H1791	H179	0.125100	0.857400	0.374400
H1801	H180	0.117700	0.939800	0.338700
H1811	H181	0.132300	0.634300	0.472500
H1821	H182	0.120100	0.601600	0.556500
H1831	H183	0.943700	0.725000	0.727500
H1841	H184	0.862700	0.763800	0.730200
H1851	H185	0.079300	0.249000	0.083700
H1861	H186	0.070200	0.330500	0.045900
H1871	H187	0.060100	0.335700	0.168300
H1881	H188	0.070500	0.253600	0.204900
H1891	H189	0.066400	0.549900	0.949000
H1901	H190	0.070500	0.591800	0.866500
H1911	H191	0.255000	0.590800	0.684300
H1921	H192	0.334100	0.553000	0.681000
C1931	C193	0.004730	0.111630	0.248010
C1941	C194	0.950570	0.119470	0.271890
C1951	C195	0.924050	0.125250	0.247650
C1961	C196	0.873530	0.129930	0.269310
C1971	C197	0.849410	0.129510	0.316770
C1981	C198	0.874110	0.125010	0.341970
C1991	C199	0.923730	0.120330	0.320610
C2001	C200	0.797490	0.131290	0.343230
C2011	C201	0.652160	0.129760	0.488820
C2021	C202	0.633350	0.122450	0.538350
C2031	C203	0.708550	0.927350	0.727950
C2041	C204	0.731260	0.878760	0.730320
C2051	C205	0.187960	0.082460	0.170520
C2061	C206	0.242460	0.074960	0.147720
C2071	C207	0.266460	0.075260	0.101220
C2081	C208	0.315240	0.069940	0.078480
C2091	C209	0.342630	0.064030	0.102210
C2101	C210	0.318420	0.064120	0.150540
C2111	C211	0.269530	0.069930	0.172410
C2121	C212	0.396460	0.062560	0.078720
C2131	C213	0.533590	0.067190	0.932230
C2141	C214	0.559460	0.070060	0.881920
C2151	C215	0.558390	0.270990	0.683730
C2161	C216	0.536910	0.318010	0.680370
C2171	C217	0.635630	0.004730	0.248010
C2181	C218	0.658070	0.950570	0.271890
C2191	C219	0.703050	0.924050	0.247650
C2201	C220	0.727230	0.873530	0.269310
C2211	C221	0.704310	0.849410	0.316770
C2221	C222	0.658910	0.874110	0.341970
C2231	C223	0.635330	0.923730	0.320610
C2241	C224	0.727990	0.797490	0.343230
C2251	C225	0.729260	0.652160	0.488820
C2261	C226	0.705850	0.633350	0.538350
C2271	C227	0.636150	0.708550	0.727950
C2281	C228	0.659660	0.731260	0.730320
C2291	C229	0.559060	0.187960	0.170520
C2301	C230	0.534860	0.242460	0.147720
C2311	C231	0.557060	0.266460	0.101220
C2321	C232	0.536340	0.315240	0.078480
C2331	C233	0.491130	0.342630	0.102210
C2341	C234	0.466920	0.318420	0.150540
C2351	C235	0.488130	0.269530	0.172410
C2361	C236	0.462260	0.396460	0.078720
C2371	C237	0.466990	0.533590	0.932230
C2381	C238	0.488560	0.559460	0.881920
C2391	C239	0.486890	0.558390	0.683730
C2401	C240	0.464710	0.536910	0.680370
C2411	C241	0.111630	0.635630	0.248010
C2421	C242	0.119470	0.658070	0.271890
C2431	C243	0.125250	0.703050	0.247650
C2441	C244	0.129930	0.727230	0.269310
C2451	C245	0.129510	0.704310	0.316770
C2461	C246	0.125010	0.658910	0.341970
C2471	C247	0.120330	0.635330	0.320610
C2481	C248	0.131290	0.727990	0.343230
C2491	C249	0.129760	0.729260	0.488820
C2501	C250	0.122450	0.705850	0.538350
C2511	C251	0.927350	0.636150	0.727950
C2521	C252	0.878760	0.659660	0.730320
C2531	C253	0.082460	0.559060	0.170520
C2541	C254	0.074960	0.534860	0.147720
C2551	C255	0.075260	0.557060	0.101220
C2561	C256	0.069940	0.536340	0.078480
C2571	C257	0.064030	0.491130	0.102210
C2581	C258	0.064120	0.466920	0.150540
C2591	C259	0.069930	0.488130	0.172410
C2601	C260	0.062560	0.462260	0.078720
C2611	C261	0.067190	0.466990	0.932230
C2621	C262	0.070060	0.488560	0.881920
C2631	C263	0.270990	0.486890	0.683730
C2641	C264	0.318010	0.464710	0.680370
C2651	C265	0.004730	0.635630	0.248010
C2661	C266	0.950570	0.658070	0.271890
C2671	C267	0.924050	0.703050	0.247650
C2681	C268	0.873530	0.727230	0.269310
C2691	C269	0.849410	0.704310	0.316770
C2701	C270	0.874110	0.658910	0.341970
C2711	C271	0.923730	0.635330	0.320610
C2721	C272	0.797490	0.727990	0.343230
C2731	C273	0.652160	0.729260	0.488820
C2741	C274	0.633350	0.705850	0.538350
C2751	C275	0.708550	0.636150	0.727950
C2761	C276	0.731260	0.659660	0.730320
C2771	C277	0.187960	0.559060	0.170520
C2781	C278	0.242460	0.534860	0.147720
C2791	C279	0.266460	0.557060	0.101220
C2801	C280	0.315240	0.536340	0.078480
C2811	C281	0.342630	0.491130	0.102210
C2821	C282	0.318420	0.466920	0.150540
C2831	C283	0.269530	0.488130	0.172410
C2841	C284	0.396460	0.462260	0.078720
C2851	C285	0.533590	0.466990	0.932230
C2861	C286	0.559460	0.488560	0.881920
C2871	C287	0.558390	0.486890	0.683730
C2881	C288	0.536910	0.464710	0.680370
C2891	C289	0.635630	0.111630	0.248010
C2901	C290	0.658070	0.119470	0.271890
C2911	C291	0.703050	0.125250	0.247650
C2921	C292	0.727230	0.129930	0.269310
C2931	C293	0.704310	0.129510	0.316770
C2941	C294	0.658910	0.125010	0.341970
C2951	C295	0.635330	0.120330	0.320610
C2961	C296	0.727990	0.131290	0.343230
C2971	C297	0.729260	0.129760	0.488820
C2981	C298	0.705850	0.122450	0.538350
C2991	C299	0.636150	0.927350	0.727950
C3001	C300	0.659660	0.878760	0.730320
C3011	C301	0.559060	0.082460	0.170520
C3021	C302	0.534860	0.074960	0.147720
C3031	C303	0.557060	0.075260	0.101220
C3041	C304	0.536340	0.069940	0.078480
C3051	C305	0.491130	0.064030	0.102210
C3061	C306	0.466920	0.064120	0.150540
C3071	C307	0.488130	0.069930	0.172410
C3081	C308	0.462260	0.062560	0.078720
C3091	C309	0.466990	0.067190	0.932230
C3101	C310	0.488560	0.070060	0.881920
C3111	C311	0.486890	0.270990	0.683730
C3121	C312	0.464710	0.318010	0.680370
C3131	C313	0.111630	0.004730	0.248010
C3141	C314	0.119470	0.950570	0.271890
C3151	C315	0.125250	0.924050	0.247650
C3161	C316	0.129930	0.873530	0.269310
C3171	C317	0.129510	0.849410	0.316770
C3181	C318	0.125010	0.874110	0.341970
C3191	C319	0.120330	0.923730	0.320610
C3201	C320	0.131290	0.797490	0.343230
C3211	C321	0.129760	0.652160	0.488820
C3221	C322	0.122450	0.633350	0.538350
C3231	C323	0.927350	0.708550	0.727950
C3241	C324	0.878760	0.731260	0.730320
C3251	C325	0.082460	0.187960	0.170520
C3261	C326	0.074960	0.242460	0.147720
C3271	C327	0.075260	0.266460	0.101220
C3281	C328	0.069940	0.315240	0.078480
C3291	C329	0.064030	0.342630	0.102210
C3301	C330	0.064120	0.318420	0.150540
C3311	C331	0.069930	0.269530	0.172410
C3321	C332	0.062560	0.396460	0.078720
C3331	C333	0.067190	0.533590	0.932230
C3341	C334	0.070060	0.559460	0.881920
C3351	C335	0.270990	0.558390	0.683730
C3361	C336	0.318010	0.536910	0.680370
C3371	C337	0.729650	0.133300	0.407400
C3381	C338	0.701760	0.133310	0.463170
C3391	C339	0.659840	0.118390	0.561930
C3401	C340	0.635150	0.112600	0.617100
C3411	C341	0.636580	0.005580	0.721260
C3421	C342	0.661120	0.951670	0.726090
C3431	C343	0.707100	0.853050	0.732750
C3441	C344	0.732580	0.800080	0.734760
C3451	C345	0.558510	0.186560	0.696420
C3461	C346	0.534790	0.243990	0.686430
C3471	C347	0.490380	0.343280	0.675960
C3481	C348	0.464940	0.398390	0.671730
C3491	C349	0.729650	0.729650	0.407400
C3501	C350	0.701760	0.701760	0.463170
C3511	C351	0.659840	0.659840	0.561930
C3521	C352	0.635150	0.635150	0.617100
C3531	C353	0.636580	0.636580	0.721260
C3541	C354	0.661120	0.661120	0.726090
C3551	C355	0.707100	0.707100	0.732750
C3561	C356	0.732580	0.732580	0.734760
C3571	C357	0.558510	0.558510	0.696420
C3581	C358	0.534790	0.534790	0.686430
C3591	C359	0.490380	0.490380	0.675960
C3601	C360	0.464940	0.464940	0.671730
C3611	C361	0.133300	0.729650	0.407400
C3621	C362	0.133310	0.701760	0.463170
C3631	C363	0.118390	0.659840	0.561930
C3641	C364	0.112600	0.635150	0.617100
C3651	C365	0.005580	0.636580	0.721260
C3661	C366	0.951670	0.661120	0.726090
C3671	C367	0.853050	0.707100	0.732750
C3681	C368	0.800080	0.732580	0.734760
C3691	C369	0.186560	0.558510	0.696420
C3701	C370	0.243990	0.534790	0.686430
C3711	C371	0.343280	0.490380	0.675960
C3721	C372	0.398390	0.464940	0.671730
C3731	C373	0.462820	0.065420	0.008940
C3741	C374	0.488910	0.065710	0.956470
C3751	C375	0.535510	0.072110	0.856870
C3761	C376	0.559040	0.080940	0.800980
C3771	C377	0.462820	0.462820	0.008940
C3781	C378	0.488910	0.488910	0.956470
C3791	C379	0.535510	0.535510	0.856870
C3801	C380	0.559040	0.559040	0.800980
C3811	C381	0.065420	0.462820	0.008940
C3821	C382	0.065710	0.488910	0.956470
C3831	C383	0.072110	0.535510	0.856870
C3841	C384	0.080940	0.559040	0.800980
N251	N25	0.775910	0.131910	0.387870
N261	N26	0.416750	0.064610	0.030360
N271	N27	0.704310	0.775910	0.387870
N281	N28	0.488280	0.416750	0.030360
N291	N29	0.131910	0.704310	0.387870
N301	N30	0.064610	0.488280	0.030360
N311	N31	0.775910	0.704310	0.387870
N321	N32	0.416750	0.488280	0.030360
N331	N33	0.704310	0.131910	0.387870
N341	N34	0.488280	0.064610	0.030360
N351	N35	0.131910	0.775910	0.387870
N361	N36	0.064610	0.416750	0.030360
N371	N37	0.778440	0.778440	0.735060
N381	N38	0.708060	0.778440	0.735060
N391	N39	0.778440	0.708060	0.735060
N401	N40	0.774000	0.132500	0.319500
N411	N41	0.774000	0.774000	0.319500
N421	N42	0.132500	0.774000	0.319500
N431	N43	0.416600	0.062550	0.104250
N441	N44	0.416600	0.416600	0.104250
N451	N45	0.062550	0.416600	0.104250
N461	N46	0.419060	0.419060	0.672510
N471	N47	0.489370	0.419060	0.672510
N481	N48	0.419060	0.489370	0.672510
O491	O49	0.024720	0.109000	0.205500
O501	O50	0.025150	0.108110	0.273420
O511	O51	0.659570	0.110760	0.637560
O521	O52	0.661090	0.026400	0.719520
O531	O53	0.167890	0.084510	0.146370
O541	O54	0.167480	0.084860	0.214380
O551	O55	0.601810	0.083050	0.781600
O561	O56	0.600450	0.167710	0.699270
O571	O57	0.660780	0.024720	0.205500
O581	O58	0.593320	0.025150	0.273420
O591	O59	0.592110	0.659570	0.637560
O601	O60	0.592990	0.661090	0.719520
O611	O61	0.601230	0.167890	0.146370
O621	O62	0.533280	0.167480	0.214380
O631	O63	0.533540	0.601810	0.781600
O641	O64	0.532570	0.600450	0.699270
O651	O65	0.109000	0.660780	0.205500
O661	O66	0.108110	0.593320	0.273420
O671	O67	0.110760	0.592110	0.637560
O681	O68	0.026400	0.592990	0.719520
O691	O69	0.084510	0.601230	0.146370
O701	O70	0.084860	0.533280	0.214380
O711	O71	0.083050	0.533540	0.781600
O721	O72	0.167710	0.532570	0.699270
O731	O73	0.024720	0.660780	0.205500
O741	O74	0.025150	0.593320	0.273420
O751	O75	0.659570	0.592110	0.637560
O761	O76	0.661090	0.592990	0.719520
O771	O77	0.167890	0.601230	0.146370
O781	O78	0.167480	0.533280	0.214380
O791	O79	0.601810	0.533540	0.781600
O801	O80	0.600450	0.532570	0.699270
O811	O81	0.660780	0.109000	0.205500
O821	O82	0.593320	0.108110	0.273420
O831	O83	0.592110	0.110760	0.637560
O841	O84	0.592990	0.026400	0.719520
O851	O85	0.601230	0.084510	0.146370
O861	O86	0.533280	0.084860	0.214380
O871	O87	0.533540	0.083050	0.781600
O881	O88	0.532570	0.167710	0.699270
O891	O89	0.109000	0.024720	0.205500
O901	O90	0.108110	0.025150	0.273420
O911	O91	0.110760	0.659570	0.637560
O921	O92	0.026400	0.661090	0.719520
O931	O93	0.084510	0.167890	0.146370
O941	O94	0.084860	0.167480	0.214380
O951	O95	0.083050	0.601810	0.781600
O961	O96	0.167710	0.600450	0.699270
