data_ACUJOZ_manual_PM
_symmetry_space_group_name_H-M	'P1'
_cell_length_a	46.582000
_cell_length_b	46.582000
_cell_length_c	21.332000
_cell_angle_alpha	90.000000
_cell_angle_beta	90.000000
_cell_angle_gamma	120.000000
_symmetry_Int_Tables_number 1

loop_
_symmetry_equiv_pos_as_xyz
'x,y,z'

loop_
_atom_site_label
_atom_site_type_symbol
_atom_site_fract_x
_atom_site_fract_y
_atom_site_fract_z
Cr11	Cr1	0.610150	0.409960	0.179570
Cr21	Cr2	0.590040	0.200190	0.179570
Cr31	Cr3	0.799810	0.389850	0.179570
Cr41	Cr4	0.389850	0.590040	0.820430
Cr51	Cr5	0.409960	0.799810	0.820430
Cr61	Cr6	0.200190	0.610150	0.820430
Cr71	Cr7	0.276820	0.743290	0.512900
Cr81	Cr8	0.256710	0.533520	0.512900
Cr91	Cr9	0.466480	0.723180	0.512900
Cr101	Cr10	0.056520	0.923370	0.153760
Cr111	Cr11	0.076630	0.133140	0.153760
Cr121	Cr12	0.866860	0.943480	0.153760
Cr131	Cr13	0.943480	0.076630	0.846240
Cr141	Cr14	0.923370	0.866860	0.846240
Cr151	Cr15	0.133140	0.056520	0.846240
Cr161	Cr16	0.723180	0.256710	0.487100
Cr171	Cr17	0.743290	0.466480	0.487100
Cr181	Cr18	0.533520	0.276820	0.487100
Cu11	Cu1	0.764970	0.735860	0.495980
Cu21	Cu2	0.264140	0.029110	0.495980
Cu31	Cu3	0.970890	0.235030	0.495980
Cu41	Cu4	0.235030	0.264140	0.504020
Cu51	Cu5	0.735860	0.970890	0.504020
Cu61	Cu6	0.029110	0.764970	0.504020
Cu71	Cu7	0.431640	0.069190	0.829310
Cu81	Cu8	0.930810	0.362440	0.829310
Cu91	Cu9	0.637560	0.568360	0.829310
Cu101	Cu10	0.901700	0.597470	0.837350
Cu111	Cu11	0.402530	0.304220	0.837350
Cu121	Cu12	0.695780	0.098300	0.837350
Cu131	Cu13	0.098300	0.402530	0.162650
Cu141	Cu14	0.597470	0.695780	0.162650
Cu151	Cu15	0.304220	0.901700	0.162650
Cu161	Cu16	0.568360	0.930810	0.170690
Cu171	Cu17	0.069190	0.637560	0.170690
Cu181	Cu18	0.362440	0.431640	0.170690
Cu191	Cu19	0.730780	0.767810	0.470300
Cu201	Cu20	0.232190	0.962970	0.470300
Cu211	Cu21	0.037030	0.269220	0.470300
Cu221	Cu22	0.269220	0.232190	0.529700
Cu231	Cu23	0.767810	0.037030	0.529700
Cu241	Cu24	0.962970	0.730780	0.529700
Cu251	Cu25	0.397450	0.101140	0.803630
Cu261	Cu26	0.898860	0.296300	0.803630
Cu271	Cu27	0.703700	0.602550	0.803630
Cu281	Cu28	0.935890	0.565520	0.863030
Cu291	Cu29	0.434480	0.370360	0.863030
Cu301	Cu30	0.629640	0.064110	0.863030
Cu311	Cu31	0.064110	0.434480	0.136970
Cu321	Cu32	0.565520	0.629640	0.136970
Cu331	Cu33	0.370360	0.935890	0.136970
Cu341	Cu34	0.602550	0.898860	0.196370
Cu351	Cu35	0.101140	0.703700	0.196370
Cu361	Cu36	0.296300	0.397450	0.196370
Cu371	Cu37	0.577300	0.444470	0.154590
Cu381	Cu38	0.555530	0.132830	0.154590
Cu391	Cu39	0.867170	0.422700	0.154590
Cu401	Cu40	0.422700	0.555530	0.845410
Cu411	Cu41	0.444470	0.867170	0.845410
Cu421	Cu42	0.132830	0.577300	0.845410
Cu431	Cu43	0.243970	0.777800	0.487920
Cu441	Cu44	0.222200	0.466160	0.487920
Cu451	Cu45	0.533840	0.756030	0.487920
Cu461	Cu46	0.089370	0.888860	0.178740
Cu471	Cu47	0.111140	0.200500	0.178740
Cu481	Cu48	0.799500	0.910630	0.178740
Cu491	Cu49	0.910630	0.111140	0.821260
Cu501	Cu50	0.888860	0.799500	0.821260
Cu511	Cu51	0.200500	0.089370	0.821260
Cu521	Cu52	0.756030	0.222200	0.512080
Cu531	Cu53	0.777800	0.533840	0.512080
Cu541	Cu54	0.466160	0.243970	0.512080
C11	C1	0.682520	0.552900	0.329000
C21	C2	0.447100	0.129620	0.329000
C31	C3	0.870380	0.317480	0.329000
C41	C4	0.317480	0.447100	0.671000
C51	C5	0.552900	0.870380	0.671000
C61	C6	0.129620	0.682520	0.671000
C71	C7	0.349190	0.886230	0.662330
C81	C8	0.113770	0.462950	0.662330
C91	C9	0.537050	0.650810	0.662330
C101	C10	0.984150	0.780430	0.004330
C111	C11	0.219570	0.203710	0.004330
C121	C12	0.796290	0.015850	0.004330
C131	C13	0.015850	0.219570	0.995670
C141	C14	0.780430	0.796290	0.995670
C151	C15	0.203710	0.984150	0.995670
C161	C16	0.650810	0.113770	0.337670
C171	C17	0.886230	0.537050	0.337670
C181	C18	0.462950	0.349190	0.337670
C191	C19	0.702880	0.547490	0.369000
C201	C20	0.452510	0.155390	0.369000
C211	C21	0.844610	0.297120	0.369000
C221	C22	0.297120	0.452510	0.631000
C231	C23	0.547490	0.844610	0.631000
C241	C24	0.155390	0.702880	0.631000
C251	C25	0.369550	0.880820	0.702330
C261	C26	0.119180	0.488720	0.702330
C271	C27	0.511280	0.630450	0.702330
C281	C28	0.963790	0.785840	0.964330
C291	C29	0.214160	0.177940	0.964330
C301	C30	0.822060	0.036210	0.964330
C311	C31	0.036210	0.214160	0.035670
C321	C32	0.785840	0.822060	0.035670
C331	C33	0.177940	0.963790	0.035670
C341	C34	0.630450	0.119180	0.297670
C351	C35	0.880820	0.511280	0.297670
C361	C36	0.488720	0.369550	0.297670
C371	C37	0.700900	0.516710	0.370300
C381	C38	0.483290	0.184190	0.370300
C391	C39	0.815810	0.299100	0.370300
C401	C40	0.299100	0.483290	0.629700
C411	C41	0.516710	0.815810	0.629700
C421	C42	0.184190	0.700900	0.629700
C431	C43	0.367570	0.850040	0.703630
C441	C44	0.149960	0.517520	0.703630
C451	C45	0.482480	0.632430	0.703630
C461	C46	0.965770	0.816620	0.963030
C471	C47	0.183380	0.149140	0.963030
C481	C48	0.850860	0.034230	0.963030
C491	C49	0.034230	0.183380	0.036970
C501	C50	0.816620	0.850860	0.036970
C511	C51	0.149140	0.965770	0.036970
C521	C52	0.632430	0.149960	0.296370
C531	C53	0.850040	0.482480	0.296370
C541	C54	0.517520	0.367570	0.296370
C551	C55	0.678500	0.491350	0.331600
C561	C56	0.508650	0.187150	0.331600
C571	C57	0.812850	0.321500	0.331600
C581	C58	0.321500	0.508650	0.668400
C591	C59	0.491350	0.812850	0.668400
C601	C60	0.187150	0.678500	0.668400
C611	C61	0.345170	0.824680	0.664930
C621	C62	0.175320	0.520480	0.664930
C631	C63	0.479520	0.654830	0.664930
C641	C64	0.988170	0.841980	0.001730
C651	C65	0.158020	0.146180	0.001730
C661	C66	0.853820	0.011830	0.001730
C671	C67	0.011830	0.158020	0.998270
C681	C68	0.841980	0.853820	0.998270
C691	C69	0.146180	0.988170	0.998270
C701	C70	0.654830	0.175320	0.335070
C711	C71	0.824680	0.479520	0.335070
C721	C72	0.520480	0.345170	0.335070
C731	C73	0.658180	0.496760	0.291600
C741	C74	0.503240	0.161420	0.291600
C751	C75	0.838580	0.341820	0.291600
C761	C76	0.341820	0.503240	0.708400
C771	C77	0.496760	0.838580	0.708400
C781	C78	0.161420	0.658180	0.708400
C791	C79	0.324850	0.830090	0.624930
C801	C80	0.169910	0.494750	0.624930
C811	C81	0.505250	0.675150	0.624930
C821	C82	0.008490	0.836570	0.041730
C831	C83	0.163430	0.171910	0.041730
C841	C84	0.828090	0.991510	0.041730
C851	C85	0.991510	0.163430	0.958270
C861	C86	0.836570	0.828090	0.958270
C871	C87	0.171910	0.008490	0.958270
C881	C88	0.675150	0.169910	0.375070
C891	C89	0.830090	0.505250	0.375070
C901	C90	0.494750	0.324850	0.375070
C911	C91	0.660160	0.527540	0.290300
C921	C92	0.472460	0.132620	0.290300
C931	C93	0.867380	0.339840	0.290300
C941	C94	0.339840	0.472460	0.709700
C951	C95	0.527540	0.867380	0.709700
C961	C96	0.132620	0.660160	0.709700
C971	C97	0.326830	0.860870	0.623630
C981	C98	0.139130	0.465950	0.623630
C991	C99	0.534050	0.673170	0.623630
C1001	C100	0.006510	0.805790	0.043030
C1011	C101	0.194210	0.200710	0.043030
C1021	C102	0.799290	0.993490	0.043030
C1031	C103	0.993490	0.194210	0.956970
C1041	C104	0.805790	0.799290	0.956970
C1051	C105	0.200710	0.006510	0.956970
C1061	C106	0.673170	0.139130	0.376370
C1071	C107	0.860870	0.534050	0.376370
C1081	C108	0.465950	0.326830	0.376370
C1091	C109	0.667210	0.681820	0.307800
C1101	C110	0.318180	0.985390	0.307800
C1111	C111	0.014610	0.332790	0.307800
C1121	C112	0.332790	0.318180	0.692200
C1131	C113	0.681820	0.014610	0.692200
C1141	C114	0.985390	0.667210	0.692200
C1151	C115	0.333880	0.015150	0.641130
C1161	C116	0.984850	0.318720	0.641130
C1171	C117	0.681280	0.666120	0.641130
C1181	C118	0.999460	0.651510	0.025530
C1191	C119	0.348490	0.347940	0.025530
C1201	C120	0.652060	0.000540	0.025530
C1211	C121	0.000540	0.348490	0.974470
C1221	C122	0.651510	0.652060	0.974470
C1231	C123	0.347940	0.999460	0.974470
C1241	C124	0.666120	0.984850	0.358870
C1251	C125	0.015150	0.681280	0.358870
C1261	C126	0.318720	0.333880	0.358870
C1271	C127	0.642150	0.653760	0.269400
C1281	C128	0.346240	0.988390	0.269400
C1291	C129	0.011610	0.357850	0.269400
C1301	C130	0.357850	0.346240	0.730600
C1311	C131	0.653760	0.011610	0.730600
C1321	C132	0.988390	0.642150	0.730600
C1331	C133	0.308820	0.987090	0.602730
C1341	C134	0.012910	0.321720	0.602730
C1351	C135	0.678280	0.691180	0.602730
C1361	C136	0.024520	0.679570	0.063930
C1371	C137	0.320430	0.344940	0.063930
C1381	C138	0.655060	0.975480	0.063930
C1391	C139	0.975480	0.320430	0.936070
C1401	C140	0.679570	0.655060	0.936070
C1411	C141	0.344940	0.024520	0.936070
C1421	C142	0.691180	0.012910	0.397270
C1431	C143	0.987090	0.678280	0.397270
C1441	C144	0.321720	0.308820	0.397270
C1451	C145	0.645240	0.626730	0.273500
C1461	C146	0.373270	0.018510	0.273500
C1471	C147	0.981490	0.354760	0.273500
C1481	C148	0.354760	0.373270	0.726500
C1491	C149	0.626730	0.981490	0.726500
C1501	C150	0.018510	0.645240	0.726500
C1511	C151	0.311910	0.960060	0.606830
C1521	C152	0.039940	0.351840	0.606830
C1531	C153	0.648160	0.688090	0.606830
C1541	C154	0.021430	0.706600	0.059830
C1551	C155	0.293400	0.314820	0.059830
C1561	C156	0.685180	0.978570	0.059830
C1571	C157	0.978570	0.293400	0.940170
C1581	C158	0.706600	0.685180	0.940170
C1591	C159	0.314820	0.021430	0.940170
C1601	C160	0.688090	0.039940	0.393170
C1611	C161	0.960060	0.648160	0.393170
C1621	C162	0.351840	0.311910	0.393170
C1631	C163	0.662390	0.620370	0.315100
C1641	C164	0.379630	0.042020	0.315100
C1651	C165	0.957980	0.337610	0.315100
C1661	C166	0.337610	0.379630	0.684900
C1671	C167	0.620370	0.957980	0.684900
C1681	C168	0.042020	0.662390	0.684900
C1691	C169	0.329060	0.953700	0.648430
C1701	C170	0.046300	0.375350	0.648430
C1711	C171	0.624650	0.670940	0.648430
C1721	C172	0.004280	0.712960	0.018230
C1731	C173	0.287040	0.291310	0.018230
C1741	C174	0.708690	0.995720	0.018230
C1751	C175	0.995720	0.287040	0.981770
C1761	C176	0.712960	0.708690	0.981770
C1771	C177	0.291310	0.004280	0.981770
C1781	C178	0.670940	0.046300	0.351570
C1791	C179	0.953700	0.624650	0.351570
C1801	C180	0.375350	0.329060	0.351570
C1811	C181	0.694440	0.648300	0.346400
C1821	C182	0.351700	0.046140	0.346400
C1831	C183	0.953860	0.305560	0.346400
C1841	C184	0.305560	0.351700	0.653600
C1851	C185	0.648300	0.953860	0.653600
C1861	C186	0.046140	0.694440	0.653600
C1871	C187	0.361110	0.981630	0.679730
C1881	C188	0.018370	0.379470	0.679730
C1891	C189	0.620530	0.638890	0.679730
C1901	C190	0.972230	0.685030	0.986930
C1911	C191	0.314970	0.287190	0.986930
C1921	C192	0.712810	0.027770	0.986930
C1931	C193	0.027770	0.314970	0.013070
C1941	C194	0.685030	0.712810	0.013070
C1951	C195	0.287190	0.972230	0.013070
C1961	C196	0.638890	0.018370	0.320270
C1971	C197	0.981630	0.620530	0.320270
C1981	C198	0.379470	0.361110	0.320270
C1991	C199	0.689340	0.676640	0.346500
C2001	C200	0.323360	0.012700	0.346500
C2011	C201	0.987300	0.310660	0.346500
C2021	C202	0.310660	0.323360	0.653500
C2031	C203	0.676640	0.987300	0.653500
C2041	C204	0.012700	0.689340	0.653500
C2051	C205	0.356010	0.009970	0.679830
C2061	C206	0.990030	0.346030	0.679830
C2071	C207	0.653970	0.643990	0.679830
C2081	C208	0.977330	0.656690	0.986830
C2091	C209	0.343310	0.320630	0.986830
C2101	C210	0.679370	0.022670	0.986830
C2111	C211	0.022670	0.343310	0.013170
C2121	C212	0.656690	0.679370	0.013170
C2131	C213	0.320630	0.977330	0.013170
C2141	C214	0.643990	0.990030	0.320170
C2151	C215	0.009970	0.653970	0.320170
C2161	C216	0.346030	0.356010	0.320170
C2171	C217	0.850350	0.877260	0.692600
C2181	C218	0.122740	0.973090	0.692600
C2191	C219	0.026910	0.149650	0.692600
C2201	C220	0.149650	0.122740	0.307400
C2211	C221	0.877260	0.026910	0.307400
C2221	C222	0.973090	0.850350	0.307400
C2231	C223	0.517020	0.210590	0.025930
C2241	C224	0.789410	0.306420	0.025930
C2251	C225	0.693580	0.482980	0.025930
C2261	C226	0.816320	0.456070	0.640730
C2271	C227	0.543930	0.360240	0.640730
C2281	C228	0.639760	0.183680	0.640730
C2291	C229	0.183680	0.543930	0.359270
C2301	C230	0.456070	0.639760	0.359270
C2311	C231	0.360240	0.816320	0.359270
C2321	C232	0.482980	0.789410	0.974070
C2331	C233	0.210590	0.693580	0.974070
C2341	C234	0.306420	0.517020	0.974070
C2351	C235	0.823770	0.879790	0.662000
C2361	C236	0.120210	0.943980	0.662000
C2371	C237	0.056020	0.176230	0.662000
C2381	C238	0.176230	0.120210	0.338000
C2391	C239	0.879790	0.056020	0.338000
C2401	C240	0.943980	0.823770	0.338000
C2411	C241	0.490440	0.213120	0.995330
C2421	C242	0.786880	0.277310	0.995330
C2431	C243	0.722690	0.509560	0.995330
C2441	C244	0.842900	0.453540	0.671330
C2451	C245	0.546460	0.389350	0.671330
C2461	C246	0.610650	0.157100	0.671330
C2471	C247	0.157100	0.546460	0.328670
C2481	C248	0.453540	0.610650	0.328670
C2491	C249	0.389350	0.842900	0.328670
C2501	C250	0.509560	0.786880	0.004670
C2511	C251	0.213120	0.722690	0.004670
C2521	C252	0.277310	0.490440	0.004670
C2531	C253	0.801650	0.848530	0.626400
C2541	C254	0.151470	0.953120	0.626400
C2551	C255	0.046880	0.198350	0.626400
C2561	C256	0.198350	0.151470	0.373600
C2571	C257	0.848530	0.046880	0.373600
C2581	C258	0.953120	0.801650	0.373600
C2591	C259	0.468320	0.181860	0.959730
C2601	C260	0.818140	0.286450	0.959730
C2611	C261	0.713550	0.531680	0.959730
C2621	C262	0.865020	0.484800	0.706930
C2631	C263	0.515200	0.380210	0.706930
C2641	C264	0.619790	0.134980	0.706930
C2651	C265	0.134980	0.515200	0.293070
C2661	C266	0.484800	0.619790	0.293070
C2671	C267	0.380210	0.865020	0.293070
C2681	C268	0.531680	0.818140	0.040270
C2691	C269	0.181860	0.713550	0.040270
C2701	C270	0.286450	0.468320	0.040270
C2711	C271	0.805970	0.824700	0.610300
C2721	C272	0.175300	0.981270	0.610300
C2731	C273	0.018730	0.194030	0.610300
C2741	C274	0.194030	0.175300	0.389700
C2751	C275	0.824700	0.018730	0.389700
C2761	C276	0.981270	0.805970	0.389700
C2771	C277	0.472640	0.158030	0.943630
C2781	C278	0.841970	0.314600	0.943630
C2791	C279	0.685400	0.527360	0.943630
C2801	C280	0.860700	0.508630	0.723030
C2811	C281	0.491370	0.352060	0.723030
C2821	C282	0.647940	0.139300	0.723030
C2831	C283	0.139300	0.491370	0.276970
C2841	C284	0.508630	0.647940	0.276970
C2851	C285	0.352060	0.860700	0.276970
C2861	C286	0.527360	0.841970	0.056370
C2871	C287	0.158030	0.685400	0.056370
C2881	C288	0.314600	0.472640	0.056370
C2891	C289	0.823100	0.814800	0.658500
C2901	C290	0.185200	0.008300	0.658500
C2911	C291	0.991700	0.176900	0.658500
C2921	C292	0.176900	0.185200	0.341500
C2931	C293	0.814800	0.991700	0.341500
C2941	C294	0.008300	0.823100	0.341500
C2951	C295	0.489770	0.148130	0.991830
C2961	C296	0.851870	0.341630	0.991830
C2971	C297	0.658370	0.510230	0.991830
C2981	C298	0.843570	0.518530	0.674830
C2991	C299	0.481470	0.325030	0.674830
C3001	C300	0.674970	0.156430	0.674830
C3011	C301	0.156430	0.481470	0.325170
C3021	C302	0.518530	0.674970	0.325170
C3031	C303	0.325030	0.843570	0.325170
C3041	C304	0.510230	0.851870	0.008170
C3051	C305	0.148130	0.658370	0.008170
C3061	C306	0.341630	0.489770	0.008170
C3071	C307	0.848740	0.843630	0.698900
C3081	C308	0.156370	0.005110	0.698900
C3091	C309	0.994890	0.151260	0.698900
C3101	C310	0.151260	0.156370	0.301100
C3111	C311	0.843630	0.994890	0.301100
C3121	C312	0.005110	0.848740	0.301100
C3131	C313	0.515410	0.176960	0.032230
C3141	C314	0.823040	0.338440	0.032230
C3151	C315	0.661560	0.484590	0.032230
C3161	C316	0.817930	0.489700	0.634430
C3171	C317	0.510300	0.328220	0.634430
C3181	C318	0.671780	0.182070	0.634430
C3191	C319	0.182070	0.510300	0.365570
C3201	C320	0.489700	0.671780	0.365570
C3211	C321	0.328220	0.817930	0.365570
C3221	C322	0.484590	0.823040	0.967770
C3231	C323	0.176960	0.661560	0.967770
C3241	C324	0.338440	0.515410	0.967770
C3251	C325	0.530720	0.322800	0.053030
C3261	C326	0.677200	0.207920	0.053030
C3271	C327	0.792080	0.469280	0.053030
C3281	C328	0.469280	0.677200	0.946970
C3291	C329	0.322800	0.792080	0.946970
C3301	C330	0.207920	0.530720	0.946970
C3311	C331	0.197390	0.656130	0.386360
C3321	C332	0.343870	0.541250	0.386360
C3331	C333	0.458750	0.802610	0.386360
C3341	C334	0.135950	0.010530	0.280300
C3351	C335	0.989470	0.125410	0.280300
C3361	C336	0.874590	0.864050	0.280300
C3371	C337	0.864050	0.989470	0.719700
C3381	C338	0.010530	0.874590	0.719700
C3391	C339	0.125410	0.135950	0.719700
C3401	C340	0.802610	0.343870	0.613640
C3411	C341	0.656130	0.458750	0.613640
C3421	C342	0.541250	0.197390	0.613640
C3431	C343	0.529390	0.351220	0.050430
C3441	C344	0.648780	0.178170	0.050430
C3451	C345	0.821830	0.470610	0.050430
C3461	C346	0.470610	0.648780	0.949570
C3471	C347	0.351220	0.821830	0.949570
C3481	C348	0.178170	0.529390	0.949570
C3491	C349	0.196060	0.684550	0.383760
C3501	C350	0.315450	0.511500	0.383760
C3511	C351	0.488500	0.803940	0.383760
C3521	C352	0.137280	0.982110	0.282900
C3531	C353	0.017890	0.155160	0.282900
C3541	C354	0.844840	0.862720	0.282900
C3551	C355	0.862720	0.017890	0.717100
C3561	C356	0.982110	0.844840	0.717100
C3571	C357	0.155160	0.137280	0.717100
C3581	C358	0.803940	0.315450	0.616240
C3591	C359	0.684550	0.488500	0.616240
C3601	C360	0.511500	0.196060	0.616240
C3611	C361	0.505800	0.354760	0.012130
C3621	C362	0.645240	0.151040	0.012130
C3631	C363	0.848960	0.494200	0.012130
C3641	C364	0.494200	0.645240	0.987870
C3651	C365	0.354760	0.848960	0.987870
C3661	C366	0.151040	0.505800	0.987870
C3671	C367	0.172470	0.688090	0.345460
C3681	C368	0.311910	0.484370	0.345460
C3691	C369	0.515630	0.827530	0.345460
C3701	C370	0.160870	0.978570	0.321200
C3711	C371	0.021430	0.182290	0.321200
C3721	C372	0.817710	0.839130	0.321200
C3731	C373	0.839130	0.021430	0.678800
C3741	C374	0.978570	0.817710	0.678800
C3751	C375	0.182290	0.160870	0.678800
C3761	C376	0.827530	0.311910	0.654540
C3771	C377	0.688090	0.515630	0.654540
C3781	C378	0.484370	0.172470	0.654540
C3791	C379	0.481450	0.327790	0.973130
C3801	C380	0.672210	0.153660	0.973130
C3811	C381	0.846340	0.518550	0.973130
C3821	C382	0.518550	0.672210	0.026870
C3831	C383	0.327790	0.846340	0.026870
C3841	C384	0.153660	0.481450	0.026870
C3851	C385	0.148120	0.661120	0.306460
C3861	C386	0.338880	0.486990	0.306460
C3871	C387	0.513010	0.851880	0.306460
C3881	C388	0.185220	0.005540	0.360200
C3891	C389	0.994460	0.179670	0.360200
C3901	C390	0.820330	0.814780	0.360200
C3911	C391	0.814780	0.994460	0.639800
C3921	C392	0.005540	0.820330	0.639800
C3931	C393	0.179670	0.185220	0.639800
C3941	C394	0.851880	0.338880	0.693540
C3951	C395	0.661120	0.513010	0.693540
C3961	C396	0.486990	0.148120	0.693540
C3971	C397	0.488480	0.299130	0.959530
C3981	C398	0.700870	0.189350	0.959530
C3991	C399	0.810650	0.511520	0.959530
C4001	C400	0.511520	0.700870	0.040470
C4011	C401	0.299130	0.810650	0.040470
C4021	C402	0.189350	0.488480	0.040470
C4031	C403	0.155150	0.632460	0.292860
C4041	C404	0.367540	0.522680	0.292860
C4051	C405	0.477320	0.844850	0.292860
C4061	C406	0.178190	0.034200	0.373800
C4071	C407	0.965800	0.143980	0.373800
C4081	C408	0.856020	0.821810	0.373800
C4091	C409	0.821810	0.965800	0.626200
C4101	C410	0.034200	0.856020	0.626200
C4111	C411	0.143980	0.178190	0.626200
C4121	C412	0.844850	0.367540	0.707140
C4131	C413	0.632460	0.477320	0.707140
C4141	C414	0.522680	0.155150	0.707140
C4151	C415	0.507200	0.293970	0.004630
C4161	C416	0.706030	0.213230	0.004630
C4171	C417	0.786770	0.492800	0.004630
C4181	C418	0.492800	0.706030	0.995370
C4191	C419	0.293970	0.786770	0.995370
C4201	C420	0.213230	0.507200	0.995370
C4211	C421	0.173870	0.627300	0.337960
C4221	C422	0.372700	0.546560	0.337960
C4231	C423	0.453440	0.826130	0.337960
C4241	C424	0.159470	0.039360	0.328700
C4251	C425	0.960640	0.120100	0.328700
C4261	C426	0.879900	0.840530	0.328700
C4271	C427	0.840530	0.960640	0.671300
C4281	C428	0.039360	0.879900	0.671300
C4291	C429	0.120100	0.159470	0.671300
C4301	C430	0.826130	0.372700	0.662040
C4311	C431	0.627300	0.453440	0.662040
C4321	C432	0.546560	0.173870	0.662040
C4331	C433	0.713700	0.700600	0.386400
C4341	C434	0.299400	0.013100	0.386400
C4351	C435	0.986900	0.286300	0.386400
C4361	C436	0.286300	0.299400	0.613600
C4371	C437	0.700600	0.986900	0.613600
C4381	C438	0.013100	0.713700	0.613600
C4391	C439	0.380370	0.033930	0.719730
C4401	C440	0.966070	0.346430	0.719730
C4411	C441	0.653570	0.619630	0.719730
C4421	C442	0.952970	0.632730	0.946930
C4431	C443	0.367270	0.320230	0.946930
C4441	C444	0.679770	0.047030	0.946930
C4451	C445	0.047030	0.367270	0.053070
C4461	C446	0.632730	0.679770	0.053070
C4471	C447	0.320230	0.952970	0.053070
C4481	C448	0.619630	0.966070	0.280270
C4491	C449	0.033930	0.653570	0.280270
C4501	C450	0.346430	0.380370	0.280270
C4511	C451	0.511470	0.263830	0.021330
C4521	C452	0.736170	0.247640	0.021330
C4531	C453	0.752360	0.488530	0.021330
C4541	C454	0.488530	0.736170	0.978670
C4551	C455	0.263830	0.752360	0.978670
C4561	C456	0.247640	0.511470	0.978670
C4571	C457	0.178140	0.597160	0.354660
C4581	C458	0.402840	0.580970	0.354660
C4591	C459	0.419030	0.821860	0.354660
C4601	C460	0.155200	0.069500	0.312000
C4611	C461	0.930500	0.085690	0.312000
C4621	C462	0.914310	0.844800	0.312000
C4631	C463	0.844800	0.930500	0.688000
C4641	C464	0.069500	0.914310	0.688000
C4651	C465	0.085690	0.155200	0.688000
C4661	C466	0.821860	0.402840	0.645340
C4671	C467	0.597160	0.419030	0.645340
C4681	C468	0.580970	0.178140	0.645340
C4691	C469	0.689400	0.588800	0.338000
C4701	C470	0.411200	0.100600	0.338000
C4711	C471	0.899400	0.310600	0.338000
C4721	C472	0.310600	0.411200	0.662000
C4731	C473	0.588800	0.899400	0.662000
C4741	C474	0.100600	0.689400	0.662000
C4751	C475	0.356070	0.922130	0.671330
C4761	C476	0.077870	0.433930	0.671330
C4771	C477	0.566070	0.643930	0.671330
C4781	C478	0.977270	0.744530	0.995330
C4791	C479	0.255470	0.232730	0.995330
C4801	C480	0.767270	0.022730	0.995330
C4811	C481	0.022730	0.255470	0.004670
C4821	C482	0.744530	0.767270	0.004670
C4831	C483	0.232730	0.977270	0.004670
C4841	C484	0.643930	0.077870	0.328670
C4851	C485	0.922130	0.566070	0.328670
C4861	C486	0.433930	0.356070	0.328670
C4871	C487	0.456370	0.331730	0.935230
C4881	C488	0.668270	0.124640	0.935230
C4891	C489	0.875360	0.543630	0.935230
C4901	C490	0.543630	0.668270	0.064770
C4911	C491	0.331730	0.875360	0.064770
C4921	C492	0.124640	0.456370	0.064770
C4931	C493	0.123040	0.665060	0.268560
C4941	C494	0.334940	0.457970	0.268560
C4951	C495	0.542030	0.876960	0.268560
C4961	C496	0.210300	0.001600	0.398100
C4971	C497	0.998400	0.208690	0.398100
C4981	C498	0.791310	0.789700	0.398100
C4991	C499	0.789700	0.998400	0.601900
C5001	C500	0.001600	0.791310	0.601900
C5011	C501	0.208690	0.210300	0.601900
C5021	C502	0.876960	0.334940	0.731440
C5031	C503	0.665060	0.542030	0.731440
C5041	C504	0.457970	0.123040	0.731440
C5051	C505	0.668600	0.591600	0.301000
C5061	C506	0.408400	0.077000	0.301000
C5071	C507	0.923000	0.331400	0.301000
C5081	C508	0.331400	0.408400	0.699000
C5091	C509	0.591600	0.923000	0.699000
C5101	C510	0.077000	0.668600	0.699000
C5111	C511	0.335270	0.924930	0.634330
C5121	C512	0.075070	0.410330	0.634330
C5131	C513	0.589670	0.664730	0.634330
C5141	C514	0.998070	0.741730	0.032330
C5151	C515	0.258270	0.256330	0.032330
C5161	C516	0.743670	0.001930	0.032330
C5171	C517	0.001930	0.258270	0.967670
C5181	C518	0.741730	0.743670	0.967670
C5191	C519	0.256330	0.998070	0.967670
C5201	C520	0.664730	0.075070	0.365670
C5211	C521	0.924930	0.589670	0.365670
C5221	C522	0.410330	0.335270	0.365670
C5231	C523	0.823800	0.911900	0.650100
C5241	C524	0.088100	0.911900	0.650100
C5251	C525	0.088100	0.176200	0.650100
C5261	C526	0.176200	0.088100	0.349900
C5271	C527	0.911900	0.088100	0.349900
C5281	C528	0.911900	0.823800	0.349900
C5291	C529	0.490470	0.245230	0.983430
C5301	C530	0.754770	0.245230	0.983430
C5311	C531	0.754770	0.509530	0.983430
C5321	C532	0.842870	0.421430	0.683230
C5331	C533	0.578570	0.421430	0.683230
C5341	C534	0.578570	0.157130	0.683230
C5351	C535	0.157130	0.578570	0.316770
C5361	C536	0.421430	0.578570	0.316770
C5371	C537	0.421430	0.842870	0.316770
C5381	C538	0.509530	0.754770	0.016570
C5391	C539	0.245230	0.754770	0.016570
C5401	C540	0.245230	0.490470	0.016570
C5411	C541	0.633400	0.469000	0.251300
C5421	C542	0.531000	0.164400	0.251300
C5431	C543	0.835600	0.366600	0.251300
C5441	C544	0.366600	0.531000	0.748700
C5451	C545	0.469000	0.835600	0.748700
C5461	C546	0.164400	0.633400	0.748700
C5471	C547	0.300070	0.802330	0.584630
C5481	C548	0.197670	0.497730	0.584630
C5491	C549	0.502270	0.699930	0.584630
C5501	C550	0.033270	0.864330	0.082030
C5511	C551	0.135670	0.168930	0.082030
C5521	C552	0.831070	0.966730	0.082030
C5531	C553	0.966730	0.135670	0.917970
C5541	C554	0.864330	0.831070	0.917970
C5551	C555	0.168930	0.033270	0.917970
C5561	C556	0.699930	0.197670	0.415370
C5571	C557	0.802330	0.502270	0.415370
C5581	C558	0.497730	0.300070	0.415370
C5591	C559	0.557070	0.380130	0.082130
C5601	C560	0.619870	0.176940	0.082130
C5611	C561	0.823060	0.442930	0.082130
C5621	C562	0.442930	0.619870	0.917870
C5631	C563	0.380130	0.823060	0.917870
C5641	C564	0.176940	0.557070	0.917870
C5651	C565	0.223740	0.713460	0.415460
C5661	C566	0.286540	0.510270	0.415460
C5671	C567	0.489730	0.776260	0.415460
C5681	C568	0.109600	0.953200	0.251200
C5691	C569	0.046800	0.156390	0.251200
C5701	C570	0.843610	0.890400	0.251200
C5711	C571	0.890400	0.046800	0.748800
C5721	C572	0.953200	0.843610	0.748800
C5731	C573	0.156390	0.109600	0.748800
C5741	C574	0.776260	0.286540	0.584540
C5751	C575	0.713460	0.489730	0.584540
C5761	C576	0.510270	0.223740	0.584540
C5771	C577	0.781100	0.800100	0.560100
C5781	C578	0.199900	0.981000	0.560100
C5791	C579	0.019000	0.218900	0.560100
C5801	C580	0.218900	0.199900	0.439900
C5811	C581	0.800100	0.019000	0.439900
C5821	C582	0.981000	0.781100	0.439900
C5831	C583	0.447770	0.133430	0.893430
C5841	C584	0.866570	0.314330	0.893430
C5851	C585	0.685670	0.552230	0.893430
C5861	C586	0.885570	0.533230	0.773230
C5871	C587	0.466770	0.352330	0.773230
C5881	C588	0.647670	0.114430	0.773230
C5891	C589	0.114430	0.466770	0.226770
C5901	C590	0.533230	0.647670	0.226770
C5911	C591	0.352330	0.885570	0.226770
C5921	C592	0.552230	0.866570	0.106570
C5931	C593	0.133430	0.685670	0.106570
C5941	C594	0.314330	0.447770	0.106570
C5951	C595	0.617800	0.653700	0.222700
C5961	C596	0.346300	0.964100	0.222700
C5971	C597	0.035900	0.382200	0.222700
C5981	C598	0.382200	0.346300	0.777300
C5991	C599	0.653700	0.035900	0.777300
C6001	C600	0.964100	0.617800	0.777300
C6011	C601	0.284470	0.987030	0.556030
C6021	C602	0.012970	0.297430	0.556030
C6031	C603	0.702570	0.715530	0.556030
C6041	C604	0.048870	0.679630	0.110630
C6051	C605	0.320370	0.369230	0.110630
C6061	C606	0.630770	0.951130	0.110630
C6071	C607	0.951130	0.320370	0.889370
C6081	C608	0.679630	0.630770	0.889370
C6091	C609	0.369230	0.048870	0.889370
C6101	C610	0.715530	0.012970	0.443970
C6111	C611	0.987030	0.702570	0.443970
C6121	C612	0.297430	0.284470	0.443970
C6131	C613	0.868900	0.838000	0.744200
C6141	C614	0.162000	0.030900	0.744200
C6151	C615	0.969100	0.131100	0.744200
C6161	C616	0.131100	0.162000	0.255800
C6171	C617	0.838000	0.969100	0.255800
C6181	C618	0.030900	0.868900	0.255800
C6191	C619	0.535570	0.171330	0.077530
C6201	C620	0.828670	0.364230	0.077530
C6211	C621	0.635770	0.464430	0.077530
C6221	C622	0.797770	0.495330	0.589130
C6231	C623	0.504670	0.302430	0.589130
C6241	C624	0.697570	0.202230	0.589130
C6251	C625	0.202230	0.504670	0.410870
C6261	C626	0.495330	0.697570	0.410870
C6271	C627	0.302430	0.797770	0.410870
C6281	C628	0.464430	0.828670	0.922470
C6291	C629	0.171330	0.635770	0.922470
C6301	C630	0.364230	0.535570	0.922470
C6311	C631	0.727100	0.514900	0.410700
C6321	C632	0.485100	0.212200	0.410700
C6331	C633	0.787800	0.272900	0.410700
C6341	C634	0.272900	0.485100	0.589300
C6351	C635	0.514900	0.787800	0.589300
C6361	C636	0.212200	0.727100	0.589300
C6371	C637	0.393770	0.848230	0.744030
C6381	C638	0.151770	0.545530	0.744030
C6391	C639	0.454470	0.606230	0.744030
C6401	C640	0.939570	0.818430	0.922630
C6411	C641	0.181570	0.121130	0.922630
C6421	C642	0.878870	0.060430	0.922630
C6431	C643	0.060430	0.181570	0.077370
C6441	C644	0.818430	0.878870	0.077370
C6451	C645	0.121130	0.939570	0.077370
C6461	C646	0.606230	0.151770	0.255970
C6471	C647	0.848230	0.454470	0.255970
C6481	C648	0.545530	0.393770	0.255970
O11	O1	0.735200	0.704500	0.424800
O21	O2	0.295500	0.030700	0.424800
O31	O3	0.969300	0.264800	0.424800
O41	O4	0.264800	0.295500	0.575200
O51	O5	0.704500	0.969300	0.575200
O61	O6	0.030700	0.735200	0.575200
O71	O7	0.401870	0.037830	0.758130
O81	O8	0.962170	0.364030	0.758130
O91	O9	0.635970	0.598130	0.758130
O101	O10	0.931470	0.628830	0.908530
O111	O11	0.371170	0.302630	0.908530
O121	O12	0.697370	0.068530	0.908530
O131	O13	0.068530	0.371170	0.091470
O141	O14	0.628830	0.697370	0.091470
O151	O15	0.302630	0.931470	0.091470
O161	O16	0.598130	0.962170	0.241870
O171	O17	0.037830	0.635970	0.241870
O181	O18	0.364030	0.401870	0.241870
O191	O19	0.434870	0.304630	0.903730
O201	O20	0.695370	0.130240	0.903730
O211	O21	0.869760	0.565130	0.903730
O221	O22	0.565130	0.695370	0.096270
O231	O23	0.304630	0.869760	0.096270
O241	O24	0.130240	0.434870	0.096270
O251	O25	0.101540	0.637960	0.237060
O261	O26	0.362040	0.463570	0.237060
O271	O27	0.536430	0.898460	0.237060
O281	O28	0.231800	0.028700	0.429600
O291	O29	0.971300	0.203090	0.429600
O301	O30	0.796910	0.768200	0.429600
O311	O31	0.768200	0.971300	0.570400
O321	O32	0.028700	0.796910	0.570400
O331	O33	0.203090	0.231800	0.570400
O341	O34	0.898460	0.362040	0.762940
O351	O35	0.637960	0.536430	0.762940
O361	O36	0.463570	0.101540	0.762940
O371	O37	0.706700	0.731700	0.405400
O381	O38	0.268300	0.975000	0.405400
O391	O39	0.025000	0.293300	0.405400
O401	O40	0.293300	0.268300	0.594600
O411	O41	0.731700	0.025000	0.594600
O421	O42	0.975000	0.706700	0.594600
O431	O43	0.373370	0.065030	0.738730
O441	O44	0.934970	0.308330	0.738730
O451	O45	0.691670	0.626630	0.738730
O461	O46	0.959970	0.601630	0.927930
O471	O47	0.398370	0.358330	0.927930
O481	O48	0.641670	0.040030	0.927930
O491	O49	0.040030	0.398370	0.072070
O501	O50	0.601630	0.641670	0.072070
O511	O51	0.358330	0.959970	0.072070
O521	O52	0.626630	0.934970	0.261270
O531	O53	0.065030	0.691670	0.261270
O541	O54	0.308330	0.373370	0.261270
O551	O55	0.462570	0.360930	0.924130
O561	O56	0.639070	0.101640	0.924130
O571	O57	0.898360	0.537430	0.924130
O581	O58	0.537430	0.639070	0.075870
O591	O59	0.360930	0.898360	0.075870
O601	O60	0.101640	0.462570	0.075870
O611	O61	0.129240	0.694260	0.257460
O621	O62	0.305740	0.434970	0.257460
O631	O63	0.565030	0.870760	0.257460
O641	O64	0.204100	0.972400	0.409200
O651	O65	0.027600	0.231690	0.409200
O661	O66	0.768310	0.795900	0.409200
O671	O67	0.795900	0.027600	0.590800
O681	O68	0.972400	0.768310	0.590800
O691	O69	0.231690	0.204100	0.590800
O701	O70	0.870760	0.305740	0.742540
O711	O71	0.694260	0.565030	0.742540
O721	O72	0.434970	0.129240	0.742540
O731	O73	0.553370	0.409730	0.099430
O741	O74	0.590270	0.143640	0.099430
O751	O75	0.856360	0.446630	0.099430
O761	O76	0.446630	0.590270	0.900570
O771	O77	0.409730	0.856360	0.900570
O781	O78	0.143640	0.553370	0.900570
O791	O79	0.220040	0.743060	0.432760
O801	O80	0.256940	0.476970	0.432760
O811	O81	0.523030	0.779960	0.432760
O821	O82	0.113300	0.923600	0.233900
O831	O83	0.076400	0.189690	0.233900
O841	O84	0.810310	0.886700	0.233900
O851	O85	0.886700	0.076400	0.766100
O861	O86	0.923600	0.810310	0.766100
O871	O87	0.189690	0.113300	0.766100
O881	O88	0.779960	0.256940	0.567240
O891	O89	0.743060	0.523030	0.567240
O901	O90	0.476970	0.220040	0.567240
O911	O91	0.580170	0.385030	0.127930
O921	O92	0.614970	0.195140	0.127930
O931	O93	0.804860	0.419830	0.127930
O941	O94	0.419830	0.614970	0.872070
O951	O95	0.385030	0.804860	0.872070
O961	O96	0.195140	0.580170	0.872070
O971	O97	0.246840	0.718360	0.461260
O981	O98	0.281640	0.528470	0.461260
O991	O99	0.471530	0.753160	0.461260
O1001	O100	0.086500	0.948300	0.205400
O1011	O101	0.051700	0.138190	0.205400
O1021	O102	0.861810	0.913500	0.205400
O1031	O103	0.913500	0.051700	0.794600
O1041	O104	0.948300	0.861810	0.794600
O1051	O105	0.138190	0.086500	0.794600
O1061	O106	0.753160	0.281640	0.538740
O1071	O107	0.718360	0.471530	0.538740
O1081	O108	0.528470	0.246840	0.538740
O1091	O109	0.891600	0.865000	0.776000
O1101	O110	0.135000	0.026600	0.776000
O1111	O111	0.973400	0.108400	0.776000
O1121	O112	0.108400	0.135000	0.224000
O1131	O113	0.865000	0.973400	0.224000
O1141	O114	0.026600	0.891600	0.224000
O1151	O115	0.558270	0.198330	0.109330
O1161	O116	0.801670	0.359930	0.109330
O1171	O117	0.640070	0.441730	0.109330
O1181	O118	0.775070	0.468330	0.557330
O1191	O119	0.531670	0.306730	0.557330
O1201	O120	0.693270	0.224930	0.557330
O1211	O121	0.224930	0.531670	0.442670
O1221	O122	0.468330	0.693270	0.442670
O1231	O123	0.306730	0.775070	0.442670
O1241	O124	0.441730	0.801670	0.890670
O1251	O125	0.198330	0.640070	0.890670
O1261	O126	0.359930	0.558270	0.890670
O1271	O127	0.865300	0.807800	0.757700
O1281	O128	0.192200	0.057500	0.757700
O1291	O129	0.942500	0.134700	0.757700
O1301	O130	0.134700	0.192200	0.242300
O1311	O131	0.807800	0.942500	0.242300
O1321	O132	0.057500	0.865300	0.242300
O1331	O133	0.531970	0.141130	0.091030
O1341	O134	0.858870	0.390830	0.091030
O1351	O135	0.609170	0.468030	0.091030
O1361	O136	0.801370	0.525530	0.575630
O1371	O137	0.474470	0.275830	0.575630
O1381	O138	0.724170	0.198630	0.575630
O1391	O139	0.198630	0.474470	0.424370
O1401	O140	0.525530	0.724170	0.424370
O1411	O141	0.275830	0.801370	0.424370
O1421	O142	0.468030	0.858870	0.908970
O1431	O143	0.141130	0.609170	0.908970
O1441	O144	0.390830	0.531970	0.908970
O1451	O145	0.612600	0.475300	0.220500
O1461	O146	0.524700	0.137300	0.220500
O1471	O147	0.862700	0.387400	0.220500
O1481	O148	0.387400	0.524700	0.779500
O1491	O149	0.475300	0.862700	0.779500
O1501	O150	0.137300	0.612600	0.779500
O1511	O151	0.279270	0.808630	0.553830
O1521	O152	0.191370	0.470630	0.553830
O1531	O153	0.529370	0.720730	0.553830
O1541	O154	0.054070	0.858030	0.112830
O1551	O155	0.141970	0.196030	0.112830
O1561	O156	0.803970	0.945930	0.112830
O1571	O157	0.945930	0.141970	0.887170
O1581	O158	0.858030	0.803970	0.887170
O1591	O159	0.196030	0.054070	0.887170
O1601	O160	0.720730	0.191370	0.446170
O1611	O161	0.808630	0.529370	0.446170
O1621	O162	0.470630	0.279270	0.446170
O1631	O163	0.634400	0.440800	0.243000
O1641	O164	0.559200	0.193600	0.243000
O1651	O165	0.806400	0.365600	0.243000
O1661	O166	0.365600	0.559200	0.757000
O1671	O167	0.440800	0.806400	0.757000
O1681	O168	0.193600	0.634400	0.757000
O1691	O169	0.301070	0.774130	0.576330
O1701	O170	0.225870	0.526930	0.576330
O1711	O171	0.473070	0.698930	0.576330
O1721	O172	0.032270	0.892530	0.090330
O1731	O173	0.107470	0.139730	0.090330
O1741	O174	0.860270	0.967730	0.090330
O1751	O175	0.967730	0.107470	0.909670
O1761	O176	0.892530	0.860270	0.909670
O1771	O177	0.139730	0.032270	0.909670
O1781	O178	0.698930	0.225870	0.423670
O1791	O179	0.774130	0.473070	0.423670
O1801	O180	0.526930	0.301070	0.423670
O1811	O181	0.622800	0.686600	0.220000
O1821	O182	0.313400	0.936200	0.220000
O1831	O183	0.063800	0.377200	0.220000
O1841	O184	0.377200	0.313400	0.780000
O1851	O185	0.686600	0.063800	0.780000
O1861	O186	0.936200	0.622800	0.780000
O1871	O187	0.289470	0.019930	0.553330
O1881	O188	0.980070	0.269530	0.553330
O1891	O189	0.730470	0.710530	0.553330
O1901	O190	0.043870	0.646730	0.113330
O1911	O191	0.353270	0.397130	0.113330
O1921	O192	0.602870	0.956130	0.113330
O1931	O193	0.956130	0.353270	0.886670
O1941	O194	0.646730	0.602870	0.886670
O1951	O195	0.397130	0.043870	0.886670
O1961	O196	0.710530	0.980070	0.446670
O1971	O197	0.019930	0.730470	0.446670
O1981	O198	0.269530	0.289470	0.446670
O1991	O199	0.591800	0.635200	0.182600
O2001	O200	0.364800	0.956600	0.182600
O2011	O201	0.043400	0.408200	0.182600
O2021	O202	0.408200	0.364800	0.817400
O2031	O203	0.635200	0.043400	0.817400
O2041	O204	0.956600	0.591800	0.817400
O2051	O205	0.258470	0.968530	0.515930
O2061	O206	0.031470	0.289930	0.515930
O2071	O207	0.710070	0.741530	0.515930
O2081	O208	0.074870	0.698130	0.150730
O2091	O209	0.301870	0.376730	0.150730
O2101	O210	0.623270	0.925130	0.150730
O2111	O211	0.925130	0.301870	0.849270
O2121	O212	0.698130	0.623270	0.849270
O2131	O213	0.376730	0.074870	0.849270
O2141	O214	0.741530	0.031470	0.484070
O2151	O215	0.968530	0.710070	0.484070
O2161	O216	0.289930	0.258470	0.484070
O2171	O217	0.789200	0.774000	0.555200
O2181	O218	0.226000	0.015200	0.555200
O2191	O219	0.984800	0.210800	0.555200
O2201	O220	0.210800	0.226000	0.444800
O2211	O221	0.774000	0.984800	0.444800
O2221	O222	0.015200	0.789200	0.444800
O2231	O223	0.455870	0.107330	0.888530
O2241	O224	0.892670	0.348530	0.888530
O2251	O225	0.651470	0.544130	0.888530
O2261	O226	0.877470	0.559330	0.778130
O2271	O227	0.440670	0.318130	0.778130
O2281	O228	0.681870	0.122530	0.778130
O2291	O229	0.122530	0.440670	0.221870
O2301	O230	0.559330	0.681870	0.221870
O2311	O231	0.318130	0.877470	0.221870
O2321	O232	0.544130	0.892670	0.111470
O2331	O233	0.107330	0.651470	0.111470
O2341	O234	0.348530	0.455870	0.111470
O2351	O235	0.755300	0.788800	0.515300
O2361	O236	0.211200	0.966500	0.515300
O2371	O237	0.033500	0.244700	0.515300
O2381	O238	0.244700	0.211200	0.484700
O2391	O239	0.788800	0.033500	0.484700
O2401	O240	0.966500	0.755300	0.484700
O2411	O241	0.421970	0.122130	0.848630
O2421	O242	0.877870	0.299830	0.848630
O2431	O243	0.700170	0.578030	0.848630
O2441	O244	0.911370	0.544530	0.818030
O2451	O245	0.455470	0.366830	0.818030
O2461	O246	0.633170	0.088630	0.818030
O2471	O247	0.088630	0.455470	0.181970
O2481	O248	0.544530	0.633170	0.181970
O2491	O249	0.366830	0.911370	0.181970
O2501	O250	0.578030	0.877870	0.151370
O2511	O251	0.122130	0.700170	0.151370
O2521	O252	0.299830	0.421970	0.151370
O2531	O253	0.752700	0.530600	0.465100
O2541	O254	0.469400	0.222100	0.465100
O2551	O255	0.777900	0.247300	0.465100
O2561	O256	0.247300	0.469400	0.534900
O2571	O257	0.530600	0.777900	0.534900
O2581	O258	0.222100	0.752700	0.534900
O2591	O259	0.419370	0.863930	0.798430
O2601	O260	0.136070	0.555430	0.798430
O2611	O261	0.444570	0.580630	0.798430
O2621	O262	0.913970	0.802730	0.868230
O2631	O263	0.197270	0.111230	0.868230
O2641	O264	0.888770	0.086030	0.868230
O2651	O265	0.086030	0.197270	0.131770
O2661	O266	0.802730	0.888770	0.131770
O2671	O267	0.111230	0.913970	0.131770
O2681	O268	0.580630	0.136070	0.201570
O2691	O269	0.863930	0.444570	0.201570
O2701	O270	0.555430	0.419370	0.201570
H11	H1	0.721210	0.568290	0.400760
H21	H2	0.431710	0.152920	0.400760
H31	H3	0.847080	0.278790	0.400760
H41	H4	0.278790	0.431710	0.599240
H51	H5	0.568290	0.847080	0.599240
H61	H6	0.152920	0.721210	0.599240
H71	H7	0.387880	0.901620	0.734090
H81	H8	0.098380	0.486250	0.734090
H91	H9	0.513750	0.612120	0.734090
H101	H10	0.945460	0.765040	0.932570
H111	H11	0.234960	0.180410	0.932570
H121	H12	0.819590	0.054540	0.932570
H131	H13	0.054540	0.234960	0.067430
H141	H14	0.765040	0.819590	0.067430
H151	H15	0.180410	0.945460	0.067430
H161	H16	0.612120	0.098380	0.265910
H171	H17	0.901620	0.513750	0.265910
H181	H18	0.486250	0.387880	0.265910
H191	H19	0.676810	0.466080	0.332710
H201	H20	0.533920	0.210730	0.332710
H211	H21	0.789270	0.323190	0.332710
H221	H22	0.323190	0.533920	0.667290
H231	H23	0.466080	0.789270	0.667290
H241	H24	0.210730	0.676810	0.667290
H251	H25	0.343480	0.799410	0.666040
H261	H26	0.200590	0.544060	0.666040
H271	H27	0.455940	0.656520	0.666040
H281	H28	0.989860	0.867250	0.000620
H291	H29	0.132750	0.122600	0.000620
H301	H30	0.877400	0.010140	0.000620
H311	H31	0.010140	0.132750	0.999380
H321	H32	0.867250	0.877400	0.999380
H331	H33	0.122600	0.989860	0.999380
H341	H34	0.656520	0.200590	0.333960
H351	H35	0.799410	0.455940	0.333960
H361	H36	0.544060	0.343480	0.333960
H371	H37	0.643450	0.531980	0.257500
H381	H38	0.468020	0.111470	0.257500
H391	H39	0.888530	0.356550	0.257500
H401	H40	0.356550	0.468020	0.742500
H411	H41	0.531980	0.888530	0.742500
H421	H42	0.111470	0.643450	0.742500
H431	H43	0.310120	0.865310	0.590830
H441	H44	0.134690	0.444800	0.590830
H451	H45	0.555200	0.689880	0.590830
H461	H46	0.023220	0.801350	0.075830
H471	H47	0.198650	0.221860	0.075830
H481	H48	0.778140	0.976780	0.075830
H491	H49	0.976780	0.198650	0.924170
H501	H50	0.801350	0.778140	0.924170
H511	H51	0.221860	0.023220	0.924170
H521	H52	0.689880	0.134690	0.409170
H531	H53	0.865310	0.555200	0.409170
H541	H54	0.444800	0.310120	0.409170
H551	H55	0.668560	0.706930	0.306100
H561	H56	0.293070	0.961630	0.306100
H571	H57	0.038370	0.331440	0.306100
H581	H58	0.331440	0.293070	0.693900
H591	H59	0.706930	0.038370	0.693900
H601	H60	0.961630	0.668560	0.693900
H611	H61	0.335230	0.040260	0.639430
H621	H62	0.959740	0.294960	0.639430
H631	H63	0.705040	0.664770	0.639430
H641	H64	0.998110	0.626400	0.027230
H651	H65	0.373600	0.371700	0.027230
H661	H66	0.628300	0.001890	0.027230
H671	H67	0.001890	0.373600	0.972770
H681	H68	0.626400	0.628300	0.972770
H691	H69	0.371700	0.998110	0.972770
H701	H70	0.664770	0.959740	0.360570
H711	H71	0.040260	0.705040	0.360570
H721	H72	0.294960	0.335230	0.360570
H731	H73	0.632100	0.605720	0.238230
H741	H74	0.394280	0.026380	0.238230
H751	H75	0.973620	0.367900	0.238230
H761	H76	0.367900	0.394280	0.761770
H771	H77	0.605720	0.973620	0.761770
H781	H78	0.026380	0.632100	0.761770
H791	H79	0.298770	0.939050	0.571560
H801	H80	0.060950	0.359710	0.571560
H811	H81	0.640290	0.701230	0.571560
H821	H82	0.034570	0.727610	0.095100
H831	H83	0.272390	0.306950	0.095100
H841	H84	0.693050	0.965430	0.095100
H851	H85	0.965430	0.272390	0.904900
H861	H86	0.727610	0.693050	0.904900
H871	H87	0.306950	0.034570	0.904900
H881	H88	0.701230	0.060950	0.428440
H891	H89	0.939050	0.640290	0.428440
H901	H90	0.359710	0.298770	0.428440
H911	H91	0.714660	0.643010	0.362600
H921	H92	0.356990	0.071650	0.362600
H931	H93	0.928350	0.285340	0.362600
H941	H94	0.285340	0.356990	0.637400
H951	H95	0.643010	0.928350	0.637400
H961	H96	0.071650	0.714660	0.637400
H971	H97	0.381330	0.976340	0.695930
H981	H98	0.023660	0.404980	0.695930
H991	H99	0.595020	0.618670	0.695930
H1001	H100	0.952010	0.690320	0.970730
H1011	H101	0.309680	0.261680	0.970730
H1021	H102	0.738320	0.047990	0.970730
H1031	H103	0.047990	0.309680	0.029270
H1041	H104	0.690320	0.738320	0.029270
H1051	H105	0.261680	0.952010	0.029270
H1061	H106	0.618670	0.023660	0.304070
H1071	H107	0.976340	0.595020	0.304070
H1081	H108	0.404980	0.381330	0.304070
H1091	H109	0.872710	0.900400	0.712240
H1101	H110	0.099600	0.972310	0.712240
H1111	H111	0.027690	0.127290	0.712240
H1121	H112	0.127290	0.099600	0.287760
H1131	H113	0.900400	0.027690	0.287760
H1141	H114	0.972310	0.872710	0.287760
H1151	H115	0.539380	0.233730	0.045570
H1161	H116	0.766270	0.305640	0.045570
H1171	H117	0.694360	0.460620	0.045570
H1181	H118	0.793960	0.432930	0.621090
H1191	H119	0.567070	0.361020	0.621090
H1201	H120	0.638980	0.206040	0.621090
H1211	H121	0.206040	0.567070	0.378910
H1221	H122	0.432930	0.638980	0.378910
H1231	H123	0.361020	0.793960	0.378910
H1241	H124	0.460620	0.766270	0.954430
H1251	H125	0.233730	0.694360	0.954430
H1261	H126	0.305640	0.539380	0.954430
H1271	H127	0.776340	0.843440	0.609290
H1281	H128	0.156560	0.932900	0.609290
H1291	H129	0.067100	0.223660	0.609290
H1301	H130	0.223660	0.156560	0.390710
H1311	H131	0.843440	0.067100	0.390710
H1321	H132	0.932900	0.776340	0.390710
H1331	H133	0.443010	0.176770	0.942620
H1341	H134	0.823230	0.266230	0.942620
H1351	H135	0.733770	0.556990	0.942620
H1361	H136	0.890330	0.489890	0.724040
H1371	H137	0.510110	0.400430	0.724040
H1381	H138	0.599570	0.109670	0.724040
H1391	H139	0.109670	0.510110	0.275960
H1401	H140	0.489890	0.599570	0.275960
H1411	H141	0.400430	0.890330	0.275960
H1421	H142	0.556990	0.823230	0.057380
H1431	H143	0.176770	0.733770	0.057380
H1441	H144	0.266230	0.443010	0.057380
H1451	H145	0.816600	0.787810	0.662580
H1461	H146	0.212190	0.028790	0.662580
H1471	H147	0.971210	0.183400	0.662580
H1481	H148	0.183400	0.212190	0.337420
H1491	H149	0.787810	0.971210	0.337420
H1501	H150	0.028790	0.816600	0.337420
H1511	H151	0.483270	0.121140	0.995910
H1521	H152	0.878860	0.362120	0.995910
H1531	H153	0.637880	0.516730	0.995910
H1541	H154	0.850070	0.545520	0.670750
H1551	H155	0.454480	0.304540	0.670750
H1561	H156	0.695460	0.149930	0.670750
H1571	H157	0.149930	0.454480	0.329250
H1581	H158	0.545520	0.695460	0.329250
H1591	H159	0.304540	0.850070	0.329250
H1601	H160	0.516730	0.878860	0.004090
H1611	H161	0.121140	0.637880	0.004090
H1621	H162	0.362120	0.483270	0.004090
H1631	H163	0.547820	0.320340	0.088120
H1641	H164	0.679660	0.227480	0.088120
H1651	H165	0.772520	0.452180	0.088120
H1661	H166	0.452180	0.679660	0.911880
H1671	H167	0.320340	0.772520	0.911880
H1681	H168	0.227480	0.547820	0.911880
H1691	H169	0.214490	0.653670	0.421450
H1701	H170	0.346330	0.560810	0.421450
H1711	H171	0.439190	0.785510	0.421450
H1721	H172	0.118850	0.012990	0.245210
H1731	H173	0.987010	0.105850	0.245210
H1741	H174	0.894150	0.881150	0.245210
H1751	H175	0.881150	0.987010	0.754790
H1761	H176	0.012990	0.894150	0.754790
H1771	H177	0.105850	0.118850	0.754790
H1781	H178	0.785510	0.346330	0.578550
H1791	H179	0.653670	0.439190	0.578550
H1801	H180	0.560810	0.214490	0.578550
H1811	H181	0.505780	0.379230	0.011680
H1821	H182	0.620770	0.126550	0.011680
H1831	H183	0.873450	0.494220	0.011680
H1841	H184	0.494220	0.620770	0.988320
H1851	H185	0.379230	0.873450	0.988320
H1861	H186	0.126550	0.505780	0.988320
H1871	H187	0.172450	0.712560	0.345010
H1881	H188	0.287440	0.459880	0.345010
H1891	H189	0.540120	0.827550	0.345010
H1901	H190	0.160890	0.954100	0.321650
H1911	H191	0.045900	0.206780	0.321650
H1921	H192	0.793220	0.839110	0.321650
H1931	H193	0.839110	0.045900	0.678350
H1941	H194	0.954100	0.793220	0.678350
H1951	H195	0.206780	0.160890	0.678350
H1961	H196	0.827550	0.287440	0.654990
H1971	H197	0.712560	0.540120	0.654990
H1981	H198	0.459880	0.172450	0.654990
H1991	H199	0.478530	0.283810	0.914910
H2001	H200	0.716190	0.194720	0.914910
H2011	H201	0.805280	0.521470	0.914910
H2021	H202	0.521470	0.716190	0.085090
H2031	H203	0.283810	0.805280	0.085090
H2041	H204	0.194720	0.478530	0.085090
H2051	H205	0.145200	0.617140	0.248240
H2061	H206	0.382860	0.528050	0.248240
H2071	H207	0.471950	0.854800	0.248240
H2081	H208	0.188140	0.049520	0.418420
H2091	H209	0.950480	0.138610	0.418420
H2101	H210	0.861390	0.811860	0.418420
H2111	H211	0.811860	0.950480	0.581580
H2121	H212	0.049520	0.861390	0.581580
H2131	H213	0.138610	0.188140	0.581580
H2141	H214	0.854800	0.382860	0.751760
H2151	H215	0.617140	0.471950	0.751760
H2161	H216	0.528050	0.145200	0.751760
H2171	H217	0.530110	0.266410	0.058680
H2181	H218	0.733590	0.263700	0.058680
H2191	H219	0.736300	0.469890	0.058680
H2201	H220	0.469890	0.733590	0.941320
H2211	H221	0.266410	0.736300	0.941320
H2221	H222	0.263700	0.530110	0.941320
H2231	H223	0.196780	0.599740	0.392010
H2241	H224	0.400260	0.597030	0.392010
H2251	H225	0.402970	0.803220	0.392010
H2261	H226	0.136560	0.066920	0.274650
H2271	H227	0.933080	0.069630	0.274650
H2281	H228	0.930370	0.863440	0.274650
H2291	H229	0.863440	0.933080	0.725350
H2301	H230	0.066920	0.930370	0.725350
H2311	H231	0.069630	0.136560	0.725350
H2321	H232	0.803220	0.400260	0.607990
H2331	H233	0.599740	0.402970	0.607990
H2341	H234	0.597030	0.196780	0.607990
H2351	H235	0.709490	0.606210	0.371970
H2361	H236	0.393790	0.103280	0.371970
H2371	H237	0.896720	0.290510	0.371970
H2381	H238	0.290510	0.393790	0.628030
H2391	H239	0.606210	0.896720	0.628030
H2401	H240	0.103280	0.709490	0.628030
H2411	H241	0.376160	0.939540	0.705300
H2421	H242	0.060460	0.436610	0.705300
H2431	H243	0.563390	0.623840	0.705300
H2441	H244	0.957180	0.727120	0.961360
H2451	H245	0.272880	0.230050	0.961360
H2461	H246	0.769950	0.042820	0.961360
H2471	H247	0.042820	0.272880	0.038640
H2481	H248	0.727120	0.769950	0.038640
H2491	H249	0.230050	0.957180	0.038640
H2501	H250	0.623840	0.060460	0.294700
H2511	H251	0.939540	0.563390	0.294700
H2521	H252	0.436610	0.376160	0.294700
H2531	H253	0.655340	0.574170	0.260120
H2541	H254	0.425830	0.081170	0.260120
H2551	H255	0.918830	0.344660	0.260120
H2561	H256	0.344660	0.425830	0.739880
H2571	H257	0.574170	0.918830	0.739880
H2581	H258	0.081170	0.655340	0.739880
H2591	H259	0.322010	0.907500	0.593450
H2601	H260	0.092500	0.414500	0.593450
H2611	H261	0.585500	0.677990	0.593450
H2621	H262	0.011330	0.759160	0.073210
H2631	H263	0.240840	0.252160	0.073210
H2641	H264	0.747840	0.988670	0.073210
H2651	H265	0.988670	0.240840	0.926790
H2661	H266	0.759160	0.747840	0.926790
H2671	H267	0.252160	0.011330	0.926790
H2681	H268	0.677990	0.092500	0.406550
H2691	H269	0.907500	0.585500	0.406550
H2701	H270	0.414500	0.322010	0.406550
H2711	H271	0.806640	0.912870	0.613110
H2721	H272	0.087130	0.893770	0.613110
H2731	H273	0.106230	0.193360	0.613110
H2741	H274	0.193360	0.087130	0.386890
H2751	H275	0.912870	0.106230	0.386890
H2761	H276	0.893770	0.806640	0.386890
H2771	H277	0.473310	0.246200	0.946440
H2781	H278	0.753800	0.227100	0.946440
H2791	H279	0.772900	0.526690	0.946440
H2801	H280	0.860030	0.420460	0.720220
H2811	H281	0.579540	0.439560	0.720220
H2821	H282	0.560440	0.139970	0.720220
H2831	H283	0.139970	0.579540	0.279780
H2841	H284	0.420460	0.560440	0.279780
H2851	H285	0.439560	0.860030	0.279780
H2861	H286	0.526690	0.753800	0.053560
H2871	H287	0.246200	0.772900	0.053560
H2881	H288	0.227100	0.473310	0.053560
