data_ADARAA_clean_PM
_symmetry_space_group_name_H-M	'P1'
_cell_length_a	38.805000
_cell_length_b	38.805000
_cell_length_c	38.805000
_cell_angle_alpha	90.000000
_cell_angle_beta	90.000000
_cell_angle_gamma	90.000000
_symmetry_Int_Tables_number 1

loop_
_symmetry_equiv_pos_as_xyz
'x,y,z'

loop_
_atom_site_label
_atom_site_type_symbol
_atom_site_fract_x
_atom_site_fract_y
_atom_site_fract_z
Co11	Co1	0.950340	0.366260	0.973910
Co21	Co2	0.959950	0.225340	0.468590
Co31	Co3	0.966440	0.314490	0.704000
Co41	Co4	0.549660	0.633740	0.473910
Co51	Co5	0.540050	0.774660	0.968590
Co61	Co6	0.533560	0.685510	0.204000
Co71	Co7	0.049660	0.866260	0.526090
Co81	Co8	0.040050	0.725340	0.031410
Co91	Co9	0.033560	0.814490	0.796000
Co101	Co10	0.450340	0.133740	0.026090
Co111	Co11	0.459950	0.274660	0.531410
Co121	Co12	0.466440	0.185510	0.296000
Co131	Co13	0.973910	0.950340	0.366260
Co141	Co14	0.468590	0.959950	0.225340
Co151	Co15	0.704000	0.966440	0.314490
Co161	Co16	0.473910	0.549660	0.633740
Co171	Co17	0.968590	0.540050	0.774660
Co181	Co18	0.204000	0.533560	0.685510
Co191	Co19	0.526090	0.049660	0.866260
Co201	Co20	0.031410	0.040050	0.725340
Co211	Co21	0.796000	0.033560	0.814490
Co221	Co22	0.026090	0.450340	0.133740
Co231	Co23	0.531410	0.459950	0.274660
Co241	Co24	0.296000	0.466440	0.185510
Co251	Co25	0.366260	0.973910	0.950340
Co261	Co26	0.225340	0.468590	0.959950
Co271	Co27	0.314490	0.704000	0.966440
Co281	Co28	0.633740	0.473910	0.549660
Co291	Co29	0.774660	0.968590	0.540050
Co301	Co30	0.685510	0.204000	0.533560
Co311	Co31	0.866260	0.526090	0.049660
Co321	Co32	0.725340	0.031410	0.040050
Co331	Co33	0.814490	0.796000	0.033560
Co341	Co34	0.133740	0.026090	0.450340
Co351	Co35	0.274660	0.531410	0.459950
Co361	Co36	0.185510	0.296000	0.466440
Co371	Co37	0.049660	0.633740	0.026090
Co381	Co38	0.040050	0.774660	0.531410
Co391	Co39	0.033560	0.685510	0.296000
Co401	Co40	0.450340	0.366260	0.526090
Co411	Co41	0.459950	0.225340	0.031410
Co421	Co42	0.466440	0.314490	0.796000
Co431	Co43	0.950340	0.133740	0.473910
Co441	Co44	0.959950	0.274660	0.968590
Co451	Co45	0.966440	0.185510	0.204000
Co461	Co46	0.549660	0.866260	0.973910
Co471	Co47	0.540050	0.725340	0.468590
Co481	Co48	0.533560	0.814490	0.704000
Co491	Co49	0.026090	0.049660	0.633740
Co501	Co50	0.531410	0.040050	0.774660
Co511	Co51	0.296000	0.033560	0.685510
Co521	Co52	0.526090	0.450340	0.366260
Co531	Co53	0.031410	0.459950	0.225340
Co541	Co54	0.796000	0.466440	0.314490
Co551	Co55	0.473910	0.950340	0.133740
Co561	Co56	0.968590	0.959950	0.274660
Co571	Co57	0.204000	0.966440	0.185510
Co581	Co58	0.973910	0.549660	0.866260
Co591	Co59	0.468590	0.540050	0.725340
Co601	Co60	0.704000	0.533560	0.814490
Co611	Co61	0.633740	0.026090	0.049660
Co621	Co62	0.774660	0.531410	0.040050
Co631	Co63	0.685510	0.296000	0.033560
Co641	Co64	0.366260	0.526090	0.450340
Co651	Co65	0.225340	0.031410	0.459950
Co661	Co66	0.314490	0.796000	0.466440
Co671	Co67	0.133740	0.473910	0.950340
Co681	Co68	0.274660	0.968590	0.959950
Co691	Co69	0.185510	0.204000	0.966440
Co701	Co70	0.866260	0.973910	0.549660
Co711	Co71	0.725340	0.468590	0.540050
Co721	Co72	0.814490	0.704000	0.533560
H11	H1	0.984000	0.135600	0.575100
H21	H2	0.961800	0.233500	0.580800
H31	H3	0.996600	0.188400	0.664600
H41	H4	0.937200	0.350900	0.834000
H51	H5	0.948000	0.440600	0.884400
H61	H6	0.959800	0.436500	0.781800
H71	H7	0.893300	0.407000	0.764400
H81	H8	0.854900	0.381700	0.719900
H91	H9	0.867200	0.284900	0.629300
H101	H10	0.909500	0.243700	0.606100
H111	H11	0.807100	0.385000	0.613800
H121	H12	0.760000	0.360800	0.642600
H131	H13	0.769000	0.319900	0.686000
H141	H14	0.043700	0.230000	0.639400
H151	H15	0.086200	0.262200	0.675100
H161	H16	0.069400	0.348300	0.779900
H171	H17	0.018500	0.374900	0.807600
H181	H18	0.154600	0.277200	0.768000
H191	H19	0.186100	0.320400	0.739900
H201	H20	0.158100	0.359000	0.703100
H211	H21	0.516000	0.864400	0.075100
H221	H22	0.538200	0.766500	0.080800
H231	H23	0.503400	0.811600	0.164600
H241	H24	0.562800	0.649100	0.334000
H251	H25	0.552000	0.559400	0.384400
H261	H26	0.540200	0.563500	0.281800
H271	H27	0.606700	0.593000	0.264400
H281	H28	0.645100	0.618300	0.219900
H291	H29	0.632800	0.715100	0.129300
H301	H30	0.590500	0.756300	0.106100
H311	H31	0.692900	0.615000	0.113800
H321	H32	0.740000	0.639200	0.142600
H331	H33	0.731000	0.680100	0.186000
H341	H34	0.456300	0.770000	0.139400
H351	H35	0.413800	0.737800	0.175100
H361	H36	0.430600	0.651700	0.279900
H371	H37	0.481500	0.625100	0.307600
H381	H38	0.345400	0.722800	0.268000
H391	H39	0.313900	0.679600	0.239900
H401	H40	0.341900	0.641000	0.203100
H411	H41	0.016000	0.635600	0.924900
H421	H42	0.038200	0.733500	0.919200
H431	H43	0.003400	0.688400	0.835400
H441	H44	0.062800	0.850900	0.666000
H451	H45	0.052000	0.940600	0.615600
H461	H46	0.040200	0.936500	0.718200
H471	H47	0.106700	0.907000	0.735600
H481	H48	0.145100	0.881700	0.780100
H491	H49	0.132800	0.784900	0.870700
H501	H50	0.090500	0.743700	0.893900
H511	H51	0.192900	0.885000	0.886200
H521	H52	0.240000	0.860800	0.857400
H531	H53	0.231000	0.819900	0.814000
H541	H54	0.956300	0.730000	0.860600
H551	H55	0.913800	0.762200	0.824900
H561	H56	0.930600	0.848300	0.720100
H571	H57	0.981500	0.874900	0.692400
H581	H58	0.845400	0.777200	0.732000
H591	H59	0.813900	0.820400	0.760100
H601	H60	0.841900	0.859000	0.796900
H611	H61	0.484000	0.364400	0.424900
H621	H62	0.461800	0.266500	0.419200
H631	H63	0.496600	0.311600	0.335400
H641	H64	0.437200	0.149100	0.166000
H651	H65	0.448000	0.059400	0.115600
H661	H66	0.459800	0.063500	0.218200
H671	H67	0.393300	0.093000	0.235600
H681	H68	0.354900	0.118300	0.280100
H691	H69	0.367200	0.215100	0.370700
H701	H70	0.409500	0.256300	0.393900
H711	H71	0.307100	0.115000	0.386200
H721	H72	0.260000	0.139200	0.357400
H731	H73	0.269000	0.180100	0.314000
H741	H74	0.543700	0.270000	0.360600
H751	H75	0.586200	0.237800	0.324900
H761	H76	0.569400	0.151700	0.220100
H771	H77	0.518500	0.125100	0.192400
H781	H78	0.654600	0.222800	0.232000
H791	H79	0.686100	0.179600	0.260100
H801	H80	0.658100	0.141000	0.296900
H811	H81	0.575100	0.984000	0.135600
H821	H82	0.580800	0.961800	0.233500
H831	H83	0.664600	0.996600	0.188400
H841	H84	0.834000	0.937200	0.350900
H851	H85	0.884400	0.948000	0.440600
H861	H86	0.781800	0.959800	0.436500
H871	H87	0.764400	0.893300	0.407000
H881	H88	0.719900	0.854900	0.381700
H891	H89	0.629300	0.867200	0.284900
H901	H90	0.606100	0.909500	0.243700
H911	H91	0.613800	0.807100	0.385000
H921	H92	0.642600	0.760000	0.360800
H931	H93	0.686000	0.769000	0.319900
H941	H94	0.639400	0.043700	0.230000
H951	H95	0.675100	0.086200	0.262200
H961	H96	0.779900	0.069400	0.348300
H971	H97	0.807600	0.018500	0.374900
H981	H98	0.768000	0.154600	0.277200
H991	H99	0.739900	0.186100	0.320400
H1001	H100	0.703100	0.158100	0.359000
H1011	H101	0.075100	0.516000	0.864400
H1021	H102	0.080800	0.538200	0.766500
H1031	H103	0.164600	0.503400	0.811600
H1041	H104	0.334000	0.562800	0.649100
H1051	H105	0.384400	0.552000	0.559400
H1061	H106	0.281800	0.540200	0.563500
H1071	H107	0.264400	0.606700	0.593000
H1081	H108	0.219900	0.645100	0.618300
H1091	H109	0.129300	0.632800	0.715100
H1101	H110	0.106100	0.590500	0.756300
H1111	H111	0.113800	0.692900	0.615000
H1121	H112	0.142600	0.740000	0.639200
H1131	H113	0.186000	0.731000	0.680100
H1141	H114	0.139400	0.456300	0.770000
H1151	H115	0.175100	0.413800	0.737800
H1161	H116	0.279900	0.430600	0.651700
H1171	H117	0.307600	0.481500	0.625100
H1181	H118	0.268000	0.345400	0.722800
H1191	H119	0.239900	0.313900	0.679600
H1201	H120	0.203100	0.341900	0.641000
H1211	H121	0.924900	0.016000	0.635600
H1221	H122	0.919200	0.038200	0.733500
H1231	H123	0.835400	0.003400	0.688400
H1241	H124	0.666000	0.062800	0.850900
H1251	H125	0.615600	0.052000	0.940600
H1261	H126	0.718200	0.040200	0.936500
H1271	H127	0.735600	0.106700	0.907000
H1281	H128	0.780100	0.145100	0.881700
H1291	H129	0.870700	0.132800	0.784900
H1301	H130	0.893900	0.090500	0.743700
H1311	H131	0.886200	0.192900	0.885000
H1321	H132	0.857400	0.240000	0.860800
H1331	H133	0.814000	0.231000	0.819900
H1341	H134	0.860600	0.956300	0.730000
H1351	H135	0.824900	0.913800	0.762200
H1361	H136	0.720100	0.930600	0.848300
H1371	H137	0.692400	0.981500	0.874900
H1381	H138	0.732000	0.845400	0.777200
H1391	H139	0.760100	0.813900	0.820400
H1401	H140	0.796900	0.841900	0.859000
H1411	H141	0.424900	0.484000	0.364400
H1421	H142	0.419200	0.461800	0.266500
H1431	H143	0.335400	0.496600	0.311600
H1441	H144	0.166000	0.437200	0.149100
H1451	H145	0.115600	0.448000	0.059400
H1461	H146	0.218200	0.459800	0.063500
H1471	H147	0.235600	0.393300	0.093000
H1481	H148	0.280100	0.354900	0.118300
H1491	H149	0.370700	0.367200	0.215100
H1501	H150	0.393900	0.409500	0.256300
H1511	H151	0.386200	0.307100	0.115000
H1521	H152	0.357400	0.260000	0.139200
H1531	H153	0.314000	0.269000	0.180100
H1541	H154	0.360600	0.543700	0.270000
H1551	H155	0.324900	0.586200	0.237800
H1561	H156	0.220100	0.569400	0.151700
H1571	H157	0.192400	0.518500	0.125100
H1581	H158	0.232000	0.654600	0.222800
H1591	H159	0.260100	0.686100	0.179600
H1601	H160	0.296900	0.658100	0.141000
H1611	H161	0.135600	0.575100	0.984000
H1621	H162	0.233500	0.580800	0.961800
H1631	H163	0.188400	0.664600	0.996600
H1641	H164	0.350900	0.834000	0.937200
H1651	H165	0.440600	0.884400	0.948000
H1661	H166	0.436500	0.781800	0.959800
H1671	H167	0.407000	0.764400	0.893300
H1681	H168	0.381700	0.719900	0.854900
H1691	H169	0.284900	0.629300	0.867200
H1701	H170	0.243700	0.606100	0.909500
H1711	H171	0.385000	0.613800	0.807100
H1721	H172	0.360800	0.642600	0.760000
H1731	H173	0.319900	0.686000	0.769000
H1741	H174	0.230000	0.639400	0.043700
H1751	H175	0.262200	0.675100	0.086200
H1761	H176	0.348300	0.779900	0.069400
H1771	H177	0.374900	0.807600	0.018500
H1781	H178	0.277200	0.768000	0.154600
H1791	H179	0.320400	0.739900	0.186100
H1801	H180	0.359000	0.703100	0.158100
H1811	H181	0.864400	0.075100	0.516000
H1821	H182	0.766500	0.080800	0.538200
H1831	H183	0.811600	0.164600	0.503400
H1841	H184	0.649100	0.334000	0.562800
H1851	H185	0.559400	0.384400	0.552000
H1861	H186	0.563500	0.281800	0.540200
H1871	H187	0.593000	0.264400	0.606700
H1881	H188	0.618300	0.219900	0.645100
H1891	H189	0.715100	0.129300	0.632800
H1901	H190	0.756300	0.106100	0.590500
H1911	H191	0.615000	0.113800	0.692900
H1921	H192	0.639200	0.142600	0.740000
H1931	H193	0.680100	0.186000	0.731000
H1941	H194	0.770000	0.139400	0.456300
H1951	H195	0.737800	0.175100	0.413800
H1961	H196	0.651700	0.279900	0.430600
H1971	H197	0.625100	0.307600	0.481500
H1981	H198	0.722800	0.268000	0.345400
H1991	H199	0.679600	0.239900	0.313900
H2001	H200	0.641000	0.203100	0.341900
H2011	H201	0.635600	0.924900	0.016000
H2021	H202	0.733500	0.919200	0.038200
H2031	H203	0.688400	0.835400	0.003400
H2041	H204	0.850900	0.666000	0.062800
H2051	H205	0.940600	0.615600	0.052000
H2061	H206	0.936500	0.718200	0.040200
H2071	H207	0.907000	0.735600	0.106700
H2081	H208	0.881700	0.780100	0.145100
H2091	H209	0.784900	0.870700	0.132800
H2101	H210	0.743700	0.893900	0.090500
H2111	H211	0.885000	0.886200	0.192900
H2121	H212	0.860800	0.857400	0.240000
H2131	H213	0.819900	0.814000	0.231000
H2141	H214	0.730000	0.860600	0.956300
H2151	H215	0.762200	0.824900	0.913800
H2161	H216	0.848300	0.720100	0.930600
H2171	H217	0.874900	0.692400	0.981500
H2181	H218	0.777200	0.732000	0.845400
H2191	H219	0.820400	0.760100	0.813900
H2201	H220	0.859000	0.796900	0.841900
H2211	H221	0.364400	0.424900	0.484000
H2221	H222	0.266500	0.419200	0.461800
H2231	H223	0.311600	0.335400	0.496600
H2241	H224	0.149100	0.166000	0.437200
H2251	H225	0.059400	0.115600	0.448000
H2261	H226	0.063500	0.218200	0.459800
H2271	H227	0.093000	0.235600	0.393300
H2281	H228	0.118300	0.280100	0.354900
H2291	H229	0.215100	0.370700	0.367200
H2301	H230	0.256300	0.393900	0.409500
H2311	H231	0.115000	0.386200	0.307100
H2321	H232	0.139200	0.357400	0.260000
H2331	H233	0.180100	0.314000	0.269000
H2341	H234	0.270000	0.360600	0.543700
H2351	H235	0.237800	0.324900	0.586200
H2361	H236	0.151700	0.220100	0.569400
H2371	H237	0.125100	0.192400	0.518500
H2381	H238	0.222800	0.232000	0.654600
H2391	H239	0.179600	0.260100	0.686100
H2401	H240	0.141000	0.296900	0.658100
H2411	H241	0.016000	0.864400	0.424900
H2421	H242	0.038200	0.766500	0.419200
H2431	H243	0.003400	0.811600	0.335400
H2441	H244	0.062800	0.649100	0.166000
H2451	H245	0.052000	0.559400	0.115600
H2461	H246	0.040200	0.563500	0.218200
H2471	H247	0.106700	0.593000	0.235600
H2481	H248	0.145100	0.618300	0.280100
H2491	H249	0.132800	0.715100	0.370700
H2501	H250	0.090500	0.756300	0.393900
H2511	H251	0.192900	0.615000	0.386200
H2521	H252	0.240000	0.639200	0.357400
H2531	H253	0.231000	0.680100	0.314000
H2541	H254	0.956300	0.770000	0.360600
H2551	H255	0.913800	0.737800	0.324900
H2561	H256	0.930600	0.651700	0.220100
H2571	H257	0.981500	0.625100	0.192400
H2581	H258	0.845400	0.722800	0.232000
H2591	H259	0.813900	0.679600	0.260100
H2601	H260	0.841900	0.641000	0.296900
H2611	H261	0.484000	0.135600	0.924900
H2621	H262	0.461800	0.233500	0.919200
H2631	H263	0.496600	0.188400	0.835400
H2641	H264	0.437200	0.350900	0.666000
H2651	H265	0.448000	0.440600	0.615600
H2661	H266	0.459800	0.436500	0.718200
H2671	H267	0.393300	0.407000	0.735600
H2681	H268	0.354900	0.381700	0.780100
H2691	H269	0.367200	0.284900	0.870700
H2701	H270	0.409500	0.243700	0.893900
H2711	H271	0.307100	0.385000	0.886200
H2721	H272	0.260000	0.360800	0.857400
H2731	H273	0.269000	0.319900	0.814000
H2741	H274	0.543700	0.230000	0.860600
H2751	H275	0.586200	0.262200	0.824900
H2761	H276	0.569400	0.348300	0.720100
H2771	H277	0.518500	0.374900	0.692400
H2781	H278	0.654600	0.277200	0.732000
H2791	H279	0.686100	0.320400	0.760100
H2801	H280	0.658100	0.359000	0.796900
H2811	H281	0.984000	0.364400	0.075100
H2821	H282	0.961800	0.266500	0.080800
H2831	H283	0.996600	0.311600	0.164600
H2841	H284	0.937200	0.149100	0.334000
H2851	H285	0.948000	0.059400	0.384400
H2861	H286	0.959800	0.063500	0.281800
H2871	H287	0.893300	0.093000	0.264400
H2881	H288	0.854900	0.118300	0.219900
H2891	H289	0.867200	0.215100	0.129300
H2901	H290	0.909500	0.256300	0.106100
H2911	H291	0.807100	0.115000	0.113800
H2921	H292	0.760000	0.139200	0.142600
H2931	H293	0.769000	0.180100	0.186000
H2941	H294	0.043700	0.270000	0.139400
H2951	H295	0.086200	0.237800	0.175100
H2961	H296	0.069400	0.151700	0.279900
H2971	H297	0.018500	0.125100	0.307600
H2981	H298	0.154600	0.222800	0.268000
H2991	H299	0.186100	0.179600	0.239900
H3001	H300	0.158100	0.141000	0.203100
H3011	H301	0.516000	0.635600	0.575100
H3021	H302	0.538200	0.733500	0.580800
H3031	H303	0.503400	0.688400	0.664600
H3041	H304	0.562800	0.850900	0.834000
H3051	H305	0.552000	0.940600	0.884400
H3061	H306	0.540200	0.936500	0.781800
H3071	H307	0.606700	0.907000	0.764400
H3081	H308	0.645100	0.881700	0.719900
H3091	H309	0.632800	0.784900	0.629300
H3101	H310	0.590500	0.743700	0.606100
H3111	H311	0.692900	0.885000	0.613800
H3121	H312	0.740000	0.860800	0.642600
H3131	H313	0.731000	0.819900	0.686000
H3141	H314	0.456300	0.730000	0.639400
H3151	H315	0.413800	0.762200	0.675100
H3161	H316	0.430600	0.848300	0.779900
H3171	H317	0.481500	0.874900	0.807600
H3181	H318	0.345400	0.777200	0.768000
H3191	H319	0.313900	0.820400	0.739900
H3201	H320	0.341900	0.859000	0.703100
H3211	H321	0.424900	0.016000	0.864400
H3221	H322	0.419200	0.038200	0.766500
H3231	H323	0.335400	0.003400	0.811600
H3241	H324	0.166000	0.062800	0.649100
H3251	H325	0.115600	0.052000	0.559400
H3261	H326	0.218200	0.040200	0.563500
H3271	H327	0.235600	0.106700	0.593000
H3281	H328	0.280100	0.145100	0.618300
H3291	H329	0.370700	0.132800	0.715100
H3301	H330	0.393900	0.090500	0.756300
H3311	H331	0.386200	0.192900	0.615000
H3321	H332	0.357400	0.240000	0.639200
H3331	H333	0.314000	0.231000	0.680100
H3341	H334	0.360600	0.956300	0.770000
H3351	H335	0.324900	0.913800	0.737800
H3361	H336	0.220100	0.930600	0.651700
H3371	H337	0.192400	0.981500	0.625100
H3381	H338	0.232000	0.845400	0.722800
H3391	H339	0.260100	0.813900	0.679600
H3401	H340	0.296900	0.841900	0.641000
H3411	H341	0.924900	0.484000	0.135600
H3421	H342	0.919200	0.461800	0.233500
H3431	H343	0.835400	0.496600	0.188400
H3441	H344	0.666000	0.437200	0.350900
H3451	H345	0.615600	0.448000	0.440600
H3461	H346	0.718200	0.459800	0.436500
H3471	H347	0.735600	0.393300	0.407000
H3481	H348	0.780100	0.354900	0.381700
H3491	H349	0.870700	0.367200	0.284900
H3501	H350	0.893900	0.409500	0.243700
H3511	H351	0.886200	0.307100	0.385000
H3521	H352	0.857400	0.260000	0.360800
H3531	H353	0.814000	0.269000	0.319900
H3541	H354	0.860600	0.543700	0.230000
H3551	H355	0.824900	0.586200	0.262200
H3561	H356	0.720100	0.569400	0.348300
H3571	H357	0.692400	0.518500	0.374900
H3581	H358	0.732000	0.654600	0.277200
H3591	H359	0.760100	0.686100	0.320400
H3601	H360	0.796900	0.658100	0.359000
H3611	H361	0.075100	0.984000	0.364400
H3621	H362	0.080800	0.961800	0.266500
H3631	H363	0.164600	0.996600	0.311600
H3641	H364	0.334000	0.937200	0.149100
H3651	H365	0.384400	0.948000	0.059400
H3661	H366	0.281800	0.959800	0.063500
H3671	H367	0.264400	0.893300	0.093000
H3681	H368	0.219900	0.854900	0.118300
H3691	H369	0.129300	0.867200	0.215100
H3701	H370	0.106100	0.909500	0.256300
H3711	H371	0.113800	0.807100	0.115000
H3721	H372	0.142600	0.760000	0.139200
H3731	H373	0.186000	0.769000	0.180100
H3741	H374	0.139400	0.043700	0.270000
H3751	H375	0.175100	0.086200	0.237800
H3761	H376	0.279900	0.069400	0.151700
H3771	H377	0.307600	0.018500	0.125100
H3781	H378	0.268000	0.154600	0.222800
H3791	H379	0.239900	0.186100	0.179600
H3801	H380	0.203100	0.158100	0.141000
H3811	H381	0.575100	0.516000	0.635600
H3821	H382	0.580800	0.538200	0.733500
H3831	H383	0.664600	0.503400	0.688400
H3841	H384	0.834000	0.562800	0.850900
H3851	H385	0.884400	0.552000	0.940600
H3861	H386	0.781800	0.540200	0.936500
H3871	H387	0.764400	0.606700	0.907000
H3881	H388	0.719900	0.645100	0.881700
H3891	H389	0.629300	0.632800	0.784900
H3901	H390	0.606100	0.590500	0.743700
H3911	H391	0.613800	0.692900	0.885000
H3921	H392	0.642600	0.740000	0.860800
H3931	H393	0.686000	0.731000	0.819900
H3941	H394	0.639400	0.456300	0.730000
H3951	H395	0.675100	0.413800	0.762200
H3961	H396	0.779900	0.430600	0.848300
H3971	H397	0.807600	0.481500	0.874900
H3981	H398	0.768000	0.345400	0.777200
H3991	H399	0.739900	0.313900	0.820400
H4001	H400	0.703100	0.341900	0.859000
H4011	H401	0.864400	0.424900	0.016000
H4021	H402	0.766500	0.419200	0.038200
H4031	H403	0.811600	0.335400	0.003400
H4041	H404	0.649100	0.166000	0.062800
H4051	H405	0.559400	0.115600	0.052000
H4061	H406	0.563500	0.218200	0.040200
H4071	H407	0.593000	0.235600	0.106700
H4081	H408	0.618300	0.280100	0.145100
H4091	H409	0.715100	0.370700	0.132800
H4101	H410	0.756300	0.393900	0.090500
H4111	H411	0.615000	0.386200	0.192900
H4121	H412	0.639200	0.357400	0.240000
H4131	H413	0.680100	0.314000	0.231000
H4141	H414	0.770000	0.360600	0.956300
H4151	H415	0.737800	0.324900	0.913800
H4161	H416	0.651700	0.220100	0.930600
H4171	H417	0.625100	0.192400	0.981500
H4181	H418	0.722800	0.232000	0.845400
H4191	H419	0.679600	0.260100	0.813900
H4201	H420	0.641000	0.296900	0.841900
H4211	H421	0.135600	0.924900	0.484000
H4221	H422	0.233500	0.919200	0.461800
H4231	H423	0.188400	0.835400	0.496600
H4241	H424	0.350900	0.666000	0.437200
H4251	H425	0.440600	0.615600	0.448000
H4261	H426	0.436500	0.718200	0.459800
H4271	H427	0.407000	0.735600	0.393300
H4281	H428	0.381700	0.780100	0.354900
H4291	H429	0.284900	0.870700	0.367200
H4301	H430	0.243700	0.893900	0.409500
H4311	H431	0.385000	0.886200	0.307100
H4321	H432	0.360800	0.857400	0.260000
H4331	H433	0.319900	0.814000	0.269000
H4341	H434	0.230000	0.860600	0.543700
H4351	H435	0.262200	0.824900	0.586200
H4361	H436	0.348300	0.720100	0.569400
H4371	H437	0.374900	0.692400	0.518500
H4381	H438	0.277200	0.732000	0.654600
H4391	H439	0.320400	0.760100	0.686100
H4401	H440	0.359000	0.796900	0.658100
H4411	H441	0.364400	0.075100	0.984000
H4421	H442	0.266500	0.080800	0.961800
H4431	H443	0.311600	0.164600	0.996600
H4441	H444	0.149100	0.334000	0.937200
H4451	H445	0.059400	0.384400	0.948000
H4461	H446	0.063500	0.281800	0.959800
H4471	H447	0.093000	0.264400	0.893300
H4481	H448	0.118300	0.219900	0.854900
H4491	H449	0.215100	0.129300	0.867200
H4501	H450	0.256300	0.106100	0.909500
H4511	H451	0.115000	0.113800	0.807100
H4521	H452	0.139200	0.142600	0.760000
H4531	H453	0.180100	0.186000	0.769000
H4541	H454	0.270000	0.139400	0.043700
H4551	H455	0.237800	0.175100	0.086200
H4561	H456	0.151700	0.279900	0.069400
H4571	H457	0.125100	0.307600	0.018500
H4581	H458	0.222800	0.268000	0.154600
H4591	H459	0.179600	0.239900	0.186100
H4601	H460	0.141000	0.203100	0.158100
H4611	H461	0.635600	0.575100	0.516000
H4621	H462	0.733500	0.580800	0.538200
H4631	H463	0.688400	0.664600	0.503400
H4641	H464	0.850900	0.834000	0.562800
H4651	H465	0.940600	0.884400	0.552000
H4661	H466	0.936500	0.781800	0.540200
H4671	H467	0.907000	0.764400	0.606700
H4681	H468	0.881700	0.719900	0.645100
H4691	H469	0.784900	0.629300	0.632800
H4701	H470	0.743700	0.606100	0.590500
H4711	H471	0.885000	0.613800	0.692900
H4721	H472	0.860800	0.642600	0.740000
H4731	H473	0.819900	0.686000	0.731000
H4741	H474	0.730000	0.639400	0.456300
H4751	H475	0.762200	0.675100	0.413800
H4761	H476	0.848300	0.779900	0.430600
H4771	H477	0.874900	0.807600	0.481500
H4781	H478	0.777200	0.768000	0.345400
H4791	H479	0.820400	0.739900	0.313900
H4801	H480	0.859000	0.703100	0.341900
C11	C1	0.961500	0.182900	0.534800
C21	C2	0.006300	0.124800	0.640700
C31	C3	0.991000	0.154900	0.624800
C41	C4	0.981400	0.155900	0.588400
C51	C5	0.969600	0.183400	0.573500
C61	C6	0.968200	0.213000	0.592600
C71	C7	0.975100	0.215900	0.626700
C81	C8	0.988500	0.186800	0.641600
C91	C9	0.957200	0.481800	0.831300
C101	C10	0.937500	0.374100	0.898800
C111	C11	0.942200	0.374900	0.834000
C121	C12	0.941500	0.393000	0.864900
C131	C13	0.947200	0.427800	0.863600
C141	C14	0.951800	0.444500	0.832700
C151	C15	0.954600	0.425200	0.802800
C161	C16	0.950100	0.391400	0.802900
C171	C17	0.955800	0.369200	0.770200
C181	C18	0.931700	0.373000	0.744600
C191	C19	0.899200	0.389600	0.748200
C201	C20	0.878300	0.375700	0.724000
C211	C21	0.897700	0.350100	0.705600
C221	C22	0.884600	0.329400	0.679800
C231	C23	0.904900	0.306400	0.661900
C241	C24	0.890600	0.283800	0.636300
C251	C25	0.913200	0.260900	0.623200
C261	C26	0.944200	0.269000	0.641600
C271	C27	0.849400	0.334200	0.665700
C281	C28	0.844100	0.358500	0.640000
C291	C29	0.810700	0.368400	0.631400
C301	C30	0.782800	0.354000	0.648500
C311	C31	0.788100	0.329700	0.674300
C321	C32	0.821500	0.319800	0.682900
C331	C33	0.972800	0.248600	0.647700
C341	C34	0.003700	0.260800	0.661800
C351	C35	0.038300	0.248000	0.655200
C361	C36	0.061900	0.265100	0.674500
C371	C37	0.040600	0.289000	0.694100
C381	C38	0.053900	0.310900	0.719900
C391	C39	0.034000	0.332000	0.740500
C401	C40	0.046400	0.348000	0.771600
C411	C41	0.018600	0.362500	0.786500
C421	C42	0.989100	0.356000	0.765000
C431	C43	0.143300	0.292900	0.753000
C441	C44	0.161900	0.318500	0.736400
C451	C45	0.145300	0.341500	0.714500
C461	C46	0.110000	0.338800	0.709200
C471	C47	0.091300	0.313200	0.725900
C481	C48	0.107900	0.290200	0.747800
C491	C49	0.538500	0.817100	0.034800
C501	C50	0.493700	0.875200	0.140700
C511	C51	0.509000	0.845100	0.124800
C521	C52	0.518600	0.844100	0.088400
C531	C53	0.530400	0.816600	0.073500
C541	C54	0.531800	0.787000	0.092600
C551	C55	0.524900	0.784100	0.126700
C561	C56	0.511500	0.813200	0.141600
C571	C57	0.542800	0.518200	0.331300
C581	C58	0.562500	0.625900	0.398800
C591	C59	0.557800	0.625100	0.334000
C601	C60	0.558500	0.607000	0.364900
C611	C61	0.552800	0.572200	0.363600
C621	C62	0.548200	0.555500	0.332700
C631	C63	0.545400	0.574800	0.302800
C641	C64	0.549900	0.608600	0.302900
C651	C65	0.544200	0.630800	0.270200
C661	C66	0.568300	0.627000	0.244600
C671	C67	0.600800	0.610400	0.248200
C681	C68	0.621700	0.624300	0.224000
C691	C69	0.602300	0.649900	0.205600
C701	C70	0.615400	0.670600	0.179800
C711	C71	0.595100	0.693600	0.161900
C721	C72	0.609400	0.716200	0.136300
C731	C73	0.586800	0.739100	0.123200
C741	C74	0.555800	0.731000	0.141600
C751	C75	0.650600	0.665800	0.165700
C761	C76	0.655900	0.641500	0.140000
C771	C77	0.689300	0.631600	0.131400
C781	C78	0.717200	0.646000	0.148500
C791	C79	0.711900	0.670300	0.174300
C801	C80	0.678500	0.680200	0.182900
C811	C81	0.527200	0.751400	0.147700
C821	C82	0.496300	0.739200	0.161800
C831	C83	0.461700	0.752000	0.155200
C841	C84	0.438100	0.734900	0.174500
C851	C85	0.459400	0.711000	0.194100
C861	C86	0.446100	0.689100	0.219900
C871	C87	0.466000	0.668000	0.240500
C881	C88	0.453600	0.652000	0.271600
C891	C89	0.481400	0.637500	0.286500
C901	C90	0.510900	0.644000	0.265000
C911	C91	0.356700	0.707100	0.253000
C921	C92	0.338100	0.681500	0.236400
C931	C93	0.354700	0.658500	0.214500
C941	C94	0.390000	0.661200	0.209200
C951	C95	0.408700	0.686800	0.225900
C961	C96	0.392100	0.709800	0.247800
C971	C97	0.038500	0.682900	0.965200
C981	C98	0.993700	0.624800	0.859300
C991	C99	0.009000	0.654900	0.875200
C1001	C100	0.018600	0.655900	0.911600
C1011	C101	0.030400	0.683400	0.926500
C1021	C102	0.031800	0.713000	0.907400
C1031	C103	0.024900	0.715900	0.873300
C1041	C104	0.011500	0.686800	0.858400
C1051	C105	0.042800	0.981800	0.668700
C1061	C106	0.062500	0.874100	0.601200
C1071	C107	0.057800	0.874900	0.666000
C1081	C108	0.058500	0.893000	0.635100
C1091	C109	0.052800	0.927800	0.636400
C1101	C110	0.048200	0.944500	0.667300
C1111	C111	0.045400	0.925200	0.697200
C1121	C112	0.049900	0.891400	0.697100
C1131	C113	0.044200	0.869200	0.729800
C1141	C114	0.068300	0.873000	0.755400
C1151	C115	0.100800	0.889600	0.751800
C1161	C116	0.121700	0.875700	0.776000
C1171	C117	0.102300	0.850100	0.794400
C1181	C118	0.115400	0.829400	0.820200
C1191	C119	0.095100	0.806400	0.838100
C1201	C120	0.109400	0.783800	0.863700
C1211	C121	0.086800	0.760900	0.876800
C1221	C122	0.055800	0.769000	0.858400
C1231	C123	0.150600	0.834200	0.834300
C1241	C124	0.155900	0.858500	0.860000
C1251	C125	0.189300	0.868400	0.868600
C1261	C126	0.217200	0.854000	0.851500
C1271	C127	0.211900	0.829700	0.825700
C1281	C128	0.178500	0.819800	0.817100
C1291	C129	0.027200	0.748600	0.852300
C1301	C130	0.996300	0.760800	0.838200
C1311	C131	0.961700	0.748000	0.844800
C1321	C132	0.938100	0.765100	0.825500
C1331	C133	0.959400	0.789000	0.805900
C1341	C134	0.946100	0.810900	0.780100
C1351	C135	0.966000	0.832000	0.759500
C1361	C136	0.953600	0.848000	0.728400
C1371	C137	0.981400	0.862500	0.713500
C1381	C138	0.010900	0.856000	0.735000
C1391	C139	0.856700	0.792900	0.747000
C1401	C140	0.838100	0.818500	0.763600
C1411	C141	0.854700	0.841500	0.785500
C1421	C142	0.890000	0.838800	0.790800
C1431	C143	0.908700	0.813200	0.774100
C1441	C144	0.892100	0.790200	0.752200
C1451	C145	0.461500	0.317100	0.465200
C1461	C146	0.506300	0.375200	0.359300
C1471	C147	0.491000	0.345100	0.375200
C1481	C148	0.481400	0.344100	0.411600
C1491	C149	0.469600	0.316600	0.426500
C1501	C150	0.468200	0.287000	0.407400
C1511	C151	0.475100	0.284100	0.373300
C1521	C152	0.488500	0.313200	0.358400
C1531	C153	0.457200	0.018200	0.168700
C1541	C154	0.437500	0.125900	0.101200
C1551	C155	0.442200	0.125100	0.166000
C1561	C156	0.441500	0.107000	0.135100
C1571	C157	0.447200	0.072200	0.136400
C1581	C158	0.451800	0.055500	0.167300
C1591	C159	0.454600	0.074800	0.197200
C1601	C160	0.450100	0.108600	0.197100
C1611	C161	0.455800	0.130800	0.229800
C1621	C162	0.431700	0.127000	0.255400
C1631	C163	0.399200	0.110400	0.251800
C1641	C164	0.378300	0.124300	0.276000
C1651	C165	0.397700	0.149900	0.294400
C1661	C166	0.384600	0.170600	0.320200
C1671	C167	0.404900	0.193600	0.338100
C1681	C168	0.390600	0.216200	0.363700
C1691	C169	0.413200	0.239100	0.376800
C1701	C170	0.444200	0.231000	0.358400
C1711	C171	0.349400	0.165800	0.334300
C1721	C172	0.344100	0.141500	0.360000
C1731	C173	0.310700	0.131600	0.368600
C1741	C174	0.282800	0.146000	0.351500
C1751	C175	0.288100	0.170300	0.325700
C1761	C176	0.321500	0.180200	0.317100
C1771	C177	0.472800	0.251400	0.352300
C1781	C178	0.503700	0.239200	0.338200
C1791	C179	0.538300	0.252000	0.344800
C1801	C180	0.561900	0.234900	0.325500
C1811	C181	0.540600	0.211000	0.305900
C1821	C182	0.553900	0.189100	0.280100
C1831	C183	0.534000	0.168000	0.259500
C1841	C184	0.546400	0.152000	0.228400
C1851	C185	0.518600	0.137500	0.213500
C1861	C186	0.489100	0.144000	0.235000
C1871	C187	0.643300	0.207100	0.247000
C1881	C188	0.661900	0.181500	0.263600
C1891	C189	0.645300	0.158500	0.285500
C1901	C190	0.610000	0.161200	0.290800
C1911	C191	0.591300	0.186800	0.274100
C1921	C192	0.607900	0.209800	0.252200
C1931	C193	0.534800	0.961500	0.182900
C1941	C194	0.640700	0.006300	0.124800
C1951	C195	0.624800	0.991000	0.154900
C1961	C196	0.588400	0.981400	0.155900
C1971	C197	0.573500	0.969600	0.183400
C1981	C198	0.592600	0.968200	0.213000
C1991	C199	0.626700	0.975100	0.215900
C2001	C200	0.641600	0.988500	0.186800
C2011	C201	0.831300	0.957200	0.481800
C2021	C202	0.898800	0.937500	0.374100
C2031	C203	0.834000	0.942200	0.374900
C2041	C204	0.864900	0.941500	0.393000
C2051	C205	0.863600	0.947200	0.427800
C2061	C206	0.832700	0.951800	0.444500
C2071	C207	0.802800	0.954600	0.425200
C2081	C208	0.802900	0.950100	0.391400
C2091	C209	0.770200	0.955800	0.369200
C2101	C210	0.744600	0.931700	0.373000
C2111	C211	0.748200	0.899200	0.389600
C2121	C212	0.724000	0.878300	0.375700
C2131	C213	0.705600	0.897700	0.350100
C2141	C214	0.679800	0.884600	0.329400
C2151	C215	0.661900	0.904900	0.306400
C2161	C216	0.636300	0.890600	0.283800
C2171	C217	0.623200	0.913200	0.260900
C2181	C218	0.641600	0.944200	0.269000
C2191	C219	0.665700	0.849400	0.334200
C2201	C220	0.640000	0.844100	0.358500
C2211	C221	0.631400	0.810700	0.368400
C2221	C222	0.648500	0.782800	0.354000
C2231	C223	0.674300	0.788100	0.329700
C2241	C224	0.682900	0.821500	0.319800
C2251	C225	0.647700	0.972800	0.248600
C2261	C226	0.661800	0.003700	0.260800
C2271	C227	0.655200	0.038300	0.248000
C2281	C228	0.674500	0.061900	0.265100
C2291	C229	0.694100	0.040600	0.289000
C2301	C230	0.719900	0.053900	0.310900
C2311	C231	0.740500	0.034000	0.332000
C2321	C232	0.771600	0.046400	0.348000
C2331	C233	0.786500	0.018600	0.362500
C2341	C234	0.765000	0.989100	0.356000
C2351	C235	0.753000	0.143300	0.292900
C2361	C236	0.736400	0.161900	0.318500
C2371	C237	0.714500	0.145300	0.341500
C2381	C238	0.709200	0.110000	0.338800
C2391	C239	0.725900	0.091300	0.313200
C2401	C240	0.747800	0.107900	0.290200
C2411	C241	0.034800	0.538500	0.817100
C2421	C242	0.140700	0.493700	0.875200
C2431	C243	0.124800	0.509000	0.845100
C2441	C244	0.088400	0.518600	0.844100
C2451	C245	0.073500	0.530400	0.816600
C2461	C246	0.092600	0.531800	0.787000
C2471	C247	0.126700	0.524900	0.784100
C2481	C248	0.141600	0.511500	0.813200
C2491	C249	0.331300	0.542800	0.518200
C2501	C250	0.398800	0.562500	0.625900
C2511	C251	0.334000	0.557800	0.625100
C2521	C252	0.364900	0.558500	0.607000
C2531	C253	0.363600	0.552800	0.572200
C2541	C254	0.332700	0.548200	0.555500
C2551	C255	0.302800	0.545400	0.574800
C2561	C256	0.302900	0.549900	0.608600
C2571	C257	0.270200	0.544200	0.630800
C2581	C258	0.244600	0.568300	0.627000
C2591	C259	0.248200	0.600800	0.610400
C2601	C260	0.224000	0.621700	0.624300
C2611	C261	0.205600	0.602300	0.649900
C2621	C262	0.179800	0.615400	0.670600
C2631	C263	0.161900	0.595100	0.693600
C2641	C264	0.136300	0.609400	0.716200
C2651	C265	0.123200	0.586800	0.739100
C2661	C266	0.141600	0.555800	0.731000
C2671	C267	0.165700	0.650600	0.665800
C2681	C268	0.140000	0.655900	0.641500
C2691	C269	0.131400	0.689300	0.631600
C2701	C270	0.148500	0.717200	0.646000
C2711	C271	0.174300	0.711900	0.670300
C2721	C272	0.182900	0.678500	0.680200
C2731	C273	0.147700	0.527200	0.751400
C2741	C274	0.161800	0.496300	0.739200
C2751	C275	0.155200	0.461700	0.752000
C2761	C276	0.174500	0.438100	0.734900
C2771	C277	0.194100	0.459400	0.711000
C2781	C278	0.219900	0.446100	0.689100
C2791	C279	0.240500	0.466000	0.668000
C2801	C280	0.271600	0.453600	0.652000
C2811	C281	0.286500	0.481400	0.637500
C2821	C282	0.265000	0.510900	0.644000
C2831	C283	0.253000	0.356700	0.707100
C2841	C284	0.236400	0.338100	0.681500
C2851	C285	0.214500	0.354700	0.658500
C2861	C286	0.209200	0.390000	0.661200
C2871	C287	0.225900	0.408700	0.686800
C2881	C288	0.247800	0.392100	0.709800
C2891	C289	0.965200	0.038500	0.682900
C2901	C290	0.859300	0.993700	0.624800
C2911	C291	0.875200	0.009000	0.654900
C2921	C292	0.911600	0.018600	0.655900
C2931	C293	0.926500	0.030400	0.683400
C2941	C294	0.907400	0.031800	0.713000
C2951	C295	0.873300	0.024900	0.715900
C2961	C296	0.858400	0.011500	0.686800
C2971	C297	0.668700	0.042800	0.981800
C2981	C298	0.601200	0.062500	0.874100
C2991	C299	0.666000	0.057800	0.874900
C3001	C300	0.635100	0.058500	0.893000
C3011	C301	0.636400	0.052800	0.927800
C3021	C302	0.667300	0.048200	0.944500
C3031	C303	0.697200	0.045400	0.925200
C3041	C304	0.697100	0.049900	0.891400
C3051	C305	0.729800	0.044200	0.869200
C3061	C306	0.755400	0.068300	0.873000
C3071	C307	0.751800	0.100800	0.889600
C3081	C308	0.776000	0.121700	0.875700
C3091	C309	0.794400	0.102300	0.850100
C3101	C310	0.820200	0.115400	0.829400
C3111	C311	0.838100	0.095100	0.806400
C3121	C312	0.863700	0.109400	0.783800
C3131	C313	0.876800	0.086800	0.760900
C3141	C314	0.858400	0.055800	0.769000
C3151	C315	0.834300	0.150600	0.834200
C3161	C316	0.860000	0.155900	0.858500
C3171	C317	0.868600	0.189300	0.868400
C3181	C318	0.851500	0.217200	0.854000
C3191	C319	0.825700	0.211900	0.829700
C3201	C320	0.817100	0.178500	0.819800
C3211	C321	0.852300	0.027200	0.748600
C3221	C322	0.838200	0.996300	0.760800
C3231	C323	0.844800	0.961700	0.748000
C3241	C324	0.825500	0.938100	0.765100
C3251	C325	0.805900	0.959400	0.789000
C3261	C326	0.780100	0.946100	0.810900
C3271	C327	0.759500	0.966000	0.832000
C3281	C328	0.728400	0.953600	0.848000
C3291	C329	0.713500	0.981400	0.862500
C3301	C330	0.735000	0.010900	0.856000
C3311	C331	0.747000	0.856700	0.792900
C3321	C332	0.763600	0.838100	0.818500
C3331	C333	0.785500	0.854700	0.841500
C3341	C334	0.790800	0.890000	0.838800
C3351	C335	0.774100	0.908700	0.813200
C3361	C336	0.752200	0.892100	0.790200
C3371	C337	0.465200	0.461500	0.317100
C3381	C338	0.359300	0.506300	0.375200
C3391	C339	0.375200	0.491000	0.345100
C3401	C340	0.411600	0.481400	0.344100
C3411	C341	0.426500	0.469600	0.316600
C3421	C342	0.407400	0.468200	0.287000
C3431	C343	0.373300	0.475100	0.284100
C3441	C344	0.358400	0.488500	0.313200
C3451	C345	0.168700	0.457200	0.018200
C3461	C346	0.101200	0.437500	0.125900
C3471	C347	0.166000	0.442200	0.125100
C3481	C348	0.135100	0.441500	0.107000
C3491	C349	0.136400	0.447200	0.072200
C3501	C350	0.167300	0.451800	0.055500
C3511	C351	0.197200	0.454600	0.074800
C3521	C352	0.197100	0.450100	0.108600
C3531	C353	0.229800	0.455800	0.130800
C3541	C354	0.255400	0.431700	0.127000
C3551	C355	0.251800	0.399200	0.110400
C3561	C356	0.276000	0.378300	0.124300
C3571	C357	0.294400	0.397700	0.149900
C3581	C358	0.320200	0.384600	0.170600
C3591	C359	0.338100	0.404900	0.193600
C3601	C360	0.363700	0.390600	0.216200
C3611	C361	0.376800	0.413200	0.239100
C3621	C362	0.358400	0.444200	0.231000
C3631	C363	0.334300	0.349400	0.165800
C3641	C364	0.360000	0.344100	0.141500
C3651	C365	0.368600	0.310700	0.131600
C3661	C366	0.351500	0.282800	0.146000
C3671	C367	0.325700	0.288100	0.170300
C3681	C368	0.317100	0.321500	0.180200
C3691	C369	0.352300	0.472800	0.251400
C3701	C370	0.338200	0.503700	0.239200
C3711	C371	0.344800	0.538300	0.252000
C3721	C372	0.325500	0.561900	0.234900
C3731	C373	0.305900	0.540600	0.211000
C3741	C374	0.280100	0.553900	0.189100
C3751	C375	0.259500	0.534000	0.168000
C3761	C376	0.228400	0.546400	0.152000
C3771	C377	0.213500	0.518600	0.137500
C3781	C378	0.235000	0.489100	0.144000
C3791	C379	0.247000	0.643300	0.207100
C3801	C380	0.263600	0.661900	0.181500
C3811	C381	0.285500	0.645300	0.158500
C3821	C382	0.290800	0.610000	0.161200
C3831	C383	0.274100	0.591300	0.186800
C3841	C384	0.252200	0.607900	0.209800
C3851	C385	0.182900	0.534800	0.961500
C3861	C386	0.124800	0.640700	0.006300
C3871	C387	0.154900	0.624800	0.991000
C3881	C388	0.155900	0.588400	0.981400
C3891	C389	0.183400	0.573500	0.969600
C3901	C390	0.213000	0.592600	0.968200
C3911	C391	0.215900	0.626700	0.975100
C3921	C392	0.186800	0.641600	0.988500
C3931	C393	0.481800	0.831300	0.957200
C3941	C394	0.374100	0.898800	0.937500
C3951	C395	0.374900	0.834000	0.942200
C3961	C396	0.393000	0.864900	0.941500
C3971	C397	0.427800	0.863600	0.947200
C3981	C398	0.444500	0.832700	0.951800
C3991	C399	0.425200	0.802800	0.954600
C4001	C400	0.391400	0.802900	0.950100
C4011	C401	0.369200	0.770200	0.955800
C4021	C402	0.373000	0.744600	0.931700
C4031	C403	0.389600	0.748200	0.899200
C4041	C404	0.375700	0.724000	0.878300
C4051	C405	0.350100	0.705600	0.897700
C4061	C406	0.329400	0.679800	0.884600
C4071	C407	0.306400	0.661900	0.904900
C4081	C408	0.283800	0.636300	0.890600
C4091	C409	0.260900	0.623200	0.913200
C4101	C410	0.269000	0.641600	0.944200
C4111	C411	0.334200	0.665700	0.849400
C4121	C412	0.358500	0.640000	0.844100
C4131	C413	0.368400	0.631400	0.810700
C4141	C414	0.354000	0.648500	0.782800
C4151	C415	0.329700	0.674300	0.788100
C4161	C416	0.319800	0.682900	0.821500
C4171	C417	0.248600	0.647700	0.972800
C4181	C418	0.260800	0.661800	0.003700
C4191	C419	0.248000	0.655200	0.038300
C4201	C420	0.265100	0.674500	0.061900
C4211	C421	0.289000	0.694100	0.040600
C4221	C422	0.310900	0.719900	0.053900
C4231	C423	0.332000	0.740500	0.034000
C4241	C424	0.348000	0.771600	0.046400
C4251	C425	0.362500	0.786500	0.018600
C4261	C426	0.356000	0.765000	0.989100
C4271	C427	0.292900	0.753000	0.143300
C4281	C428	0.318500	0.736400	0.161900
C4291	C429	0.341500	0.714500	0.145300
C4301	C430	0.338800	0.709200	0.110000
C4311	C431	0.313200	0.725900	0.091300
C4321	C432	0.290200	0.747800	0.107900
C4331	C433	0.817100	0.034800	0.538500
C4341	C434	0.875200	0.140700	0.493700
C4351	C435	0.845100	0.124800	0.509000
C4361	C436	0.844100	0.088400	0.518600
C4371	C437	0.816600	0.073500	0.530400
C4381	C438	0.787000	0.092600	0.531800
C4391	C439	0.784100	0.126700	0.524900
C4401	C440	0.813200	0.141600	0.511500
C4411	C441	0.518200	0.331300	0.542800
C4421	C442	0.625900	0.398800	0.562500
C4431	C443	0.625100	0.334000	0.557800
C4441	C444	0.607000	0.364900	0.558500
C4451	C445	0.572200	0.363600	0.552800
C4461	C446	0.555500	0.332700	0.548200
C4471	C447	0.574800	0.302800	0.545400
C4481	C448	0.608600	0.302900	0.549900
C4491	C449	0.630800	0.270200	0.544200
C4501	C450	0.627000	0.244600	0.568300
C4511	C451	0.610400	0.248200	0.600800
C4521	C452	0.624300	0.224000	0.621700
C4531	C453	0.649900	0.205600	0.602300
C4541	C454	0.670600	0.179800	0.615400
C4551	C455	0.693600	0.161900	0.595100
C4561	C456	0.716200	0.136300	0.609400
C4571	C457	0.739100	0.123200	0.586800
C4581	C458	0.731000	0.141600	0.555800
C4591	C459	0.665800	0.165700	0.650600
C4601	C460	0.641500	0.140000	0.655900
C4611	C461	0.631600	0.131400	0.689300
C4621	C462	0.646000	0.148500	0.717200
C4631	C463	0.670300	0.174300	0.711900
C4641	C464	0.680200	0.182900	0.678500
C4651	C465	0.751400	0.147700	0.527200
C4661	C466	0.739200	0.161800	0.496300
C4671	C467	0.752000	0.155200	0.461700
C4681	C468	0.734900	0.174500	0.438100
C4691	C469	0.711000	0.194100	0.459400
C4701	C470	0.689100	0.219900	0.446100
C4711	C471	0.668000	0.240500	0.466000
C4721	C472	0.652000	0.271600	0.453600
C4731	C473	0.637500	0.286500	0.481400
C4741	C474	0.644000	0.265000	0.510900
C4751	C475	0.707100	0.253000	0.356700
C4761	C476	0.681500	0.236400	0.338100
C4771	C477	0.658500	0.214500	0.354700
C4781	C478	0.661200	0.209200	0.390000
C4791	C479	0.686800	0.225900	0.408700
C4801	C480	0.709800	0.247800	0.392100
C4811	C481	0.682900	0.965200	0.038500
C4821	C482	0.624800	0.859300	0.993700
C4831	C483	0.654900	0.875200	0.009000
C4841	C484	0.655900	0.911600	0.018600
C4851	C485	0.683400	0.926500	0.030400
C4861	C486	0.713000	0.907400	0.031800
C4871	C487	0.715900	0.873300	0.024900
C4881	C488	0.686800	0.858400	0.011500
C4891	C489	0.981800	0.668700	0.042800
C4901	C490	0.874100	0.601200	0.062500
C4911	C491	0.874900	0.666000	0.057800
C4921	C492	0.893000	0.635100	0.058500
C4931	C493	0.927800	0.636400	0.052800
C4941	C494	0.944500	0.667300	0.048200
C4951	C495	0.925200	0.697200	0.045400
C4961	C496	0.891400	0.697100	0.049900
C4971	C497	0.869200	0.729800	0.044200
C4981	C498	0.873000	0.755400	0.068300
C4991	C499	0.889600	0.751800	0.100800
C5001	C500	0.875700	0.776000	0.121700
C5011	C501	0.850100	0.794400	0.102300
C5021	C502	0.829400	0.820200	0.115400
C5031	C503	0.806400	0.838100	0.095100
C5041	C504	0.783800	0.863700	0.109400
C5051	C505	0.760900	0.876800	0.086800
C5061	C506	0.769000	0.858400	0.055800
C5071	C507	0.834200	0.834300	0.150600
C5081	C508	0.858500	0.860000	0.155900
C5091	C509	0.868400	0.868600	0.189300
C5101	C510	0.854000	0.851500	0.217200
C5111	C511	0.829700	0.825700	0.211900
C5121	C512	0.819800	0.817100	0.178500
C5131	C513	0.748600	0.852300	0.027200
C5141	C514	0.760800	0.838200	0.996300
C5151	C515	0.748000	0.844800	0.961700
C5161	C516	0.765100	0.825500	0.938100
C5171	C517	0.789000	0.805900	0.959400
C5181	C518	0.810900	0.780100	0.946100
C5191	C519	0.832000	0.759500	0.966000
C5201	C520	0.848000	0.728400	0.953600
C5211	C521	0.862500	0.713500	0.981400
C5221	C522	0.856000	0.735000	0.010900
C5231	C523	0.792900	0.747000	0.856700
C5241	C524	0.818500	0.763600	0.838100
C5251	C525	0.841500	0.785500	0.854700
C5261	C526	0.838800	0.790800	0.890000
C5271	C527	0.813200	0.774100	0.908700
C5281	C528	0.790200	0.752200	0.892100
C5291	C529	0.317100	0.465200	0.461500
C5301	C530	0.375200	0.359300	0.506300
C5311	C531	0.345100	0.375200	0.491000
C5321	C532	0.344100	0.411600	0.481400
C5331	C533	0.316600	0.426500	0.469600
C5341	C534	0.287000	0.407400	0.468200
C5351	C535	0.284100	0.373300	0.475100
C5361	C536	0.313200	0.358400	0.488500
C5371	C537	0.018200	0.168700	0.457200
C5381	C538	0.125900	0.101200	0.437500
C5391	C539	0.125100	0.166000	0.442200
C5401	C540	0.107000	0.135100	0.441500
C5411	C541	0.072200	0.136400	0.447200
C5421	C542	0.055500	0.167300	0.451800
C5431	C543	0.074800	0.197200	0.454600
C5441	C544	0.108600	0.197100	0.450100
C5451	C545	0.130800	0.229800	0.455800
C5461	C546	0.127000	0.255400	0.431700
C5471	C547	0.110400	0.251800	0.399200
C5481	C548	0.124300	0.276000	0.378300
C5491	C549	0.149900	0.294400	0.397700
C5501	C550	0.170600	0.320200	0.384600
C5511	C551	0.193600	0.338100	0.404900
C5521	C552	0.216200	0.363700	0.390600
C5531	C553	0.239100	0.376800	0.413200
C5541	C554	0.231000	0.358400	0.444200
C5551	C555	0.165800	0.334300	0.349400
C5561	C556	0.141500	0.360000	0.344100
C5571	C557	0.131600	0.368600	0.310700
C5581	C558	0.146000	0.351500	0.282800
C5591	C559	0.170300	0.325700	0.288100
C5601	C560	0.180200	0.317100	0.321500
C5611	C561	0.251400	0.352300	0.472800
C5621	C562	0.239200	0.338200	0.503700
C5631	C563	0.252000	0.344800	0.538300
C5641	C564	0.234900	0.325500	0.561900
C5651	C565	0.211000	0.305900	0.540600
C5661	C566	0.189100	0.280100	0.553900
C5671	C567	0.168000	0.259500	0.534000
C5681	C568	0.152000	0.228400	0.546400
C5691	C569	0.137500	0.213500	0.518600
C5701	C570	0.144000	0.235000	0.489100
C5711	C571	0.207100	0.247000	0.643300
C5721	C572	0.181500	0.263600	0.661900
C5731	C573	0.158500	0.285500	0.645300
C5741	C574	0.161200	0.290800	0.610000
C5751	C575	0.186800	0.274100	0.591300
C5761	C576	0.209800	0.252200	0.607900
C5771	C577	0.038500	0.817100	0.465200
C5781	C578	0.993700	0.875200	0.359300
C5791	C579	0.009000	0.845100	0.375200
C5801	C580	0.018600	0.844100	0.411600
C5811	C581	0.030400	0.816600	0.426500
C5821	C582	0.031800	0.787000	0.407400
C5831	C583	0.024900	0.784100	0.373300
C5841	C584	0.011500	0.813200	0.358400
C5851	C585	0.042800	0.518200	0.168700
C5861	C586	0.062500	0.625900	0.101200
C5871	C587	0.057800	0.625100	0.166000
C5881	C588	0.058500	0.607000	0.135100
C5891	C589	0.052800	0.572200	0.136400
C5901	C590	0.048200	0.555500	0.167300
C5911	C591	0.045400	0.574800	0.197200
C5921	C592	0.049900	0.608600	0.197100
C5931	C593	0.044200	0.630800	0.229800
C5941	C594	0.068300	0.627000	0.255400
C5951	C595	0.100800	0.610400	0.251800
C5961	C596	0.121700	0.624300	0.276000
C5971	C597	0.102300	0.649900	0.294400
C5981	C598	0.115400	0.670600	0.320200
C5991	C599	0.095100	0.693600	0.338100
C6001	C600	0.109400	0.716200	0.363700
C6011	C601	0.086800	0.739100	0.376800
C6021	C602	0.055800	0.731000	0.358400
C6031	C603	0.150600	0.665800	0.334300
C6041	C604	0.155900	0.641500	0.360000
C6051	C605	0.189300	0.631600	0.368600
C6061	C606	0.217200	0.646000	0.351500
C6071	C607	0.211900	0.670300	0.325700
C6081	C608	0.178500	0.680200	0.317100
C6091	C609	0.027200	0.751400	0.352300
C6101	C610	0.996300	0.739200	0.338200
C6111	C611	0.961700	0.752000	0.344800
C6121	C612	0.938100	0.734900	0.325500
C6131	C613	0.959400	0.711000	0.305900
C6141	C614	0.946100	0.689100	0.280100
C6151	C615	0.966000	0.668000	0.259500
C6161	C616	0.953600	0.652000	0.228400
C6171	C617	0.981400	0.637500	0.213500
C6181	C618	0.010900	0.644000	0.235000
C6191	C619	0.856700	0.707100	0.247000
C6201	C620	0.838100	0.681500	0.263600
C6211	C621	0.854700	0.658500	0.285500
C6221	C622	0.890000	0.661200	0.290800
C6231	C623	0.908700	0.686800	0.274100
C6241	C624	0.892100	0.709800	0.252200
C6251	C625	0.461500	0.182900	0.965200
C6261	C626	0.506300	0.124800	0.859300
C6271	C627	0.491000	0.154900	0.875200
C6281	C628	0.481400	0.155900	0.911600
C6291	C629	0.469600	0.183400	0.926500
C6301	C630	0.468200	0.213000	0.907400
C6311	C631	0.475100	0.215900	0.873300
C6321	C632	0.488500	0.186800	0.858400
C6331	C633	0.457200	0.481800	0.668700
C6341	C634	0.437500	0.374100	0.601200
C6351	C635	0.442200	0.374900	0.666000
C6361	C636	0.441500	0.393000	0.635100
C6371	C637	0.447200	0.427800	0.636400
C6381	C638	0.451800	0.444500	0.667300
C6391	C639	0.454600	0.425200	0.697200
C6401	C640	0.450100	0.391400	0.697100
C6411	C641	0.455800	0.369200	0.729800
C6421	C642	0.431700	0.373000	0.755400
C6431	C643	0.399200	0.389600	0.751800
C6441	C644	0.378300	0.375700	0.776000
C6451	C645	0.397700	0.350100	0.794400
C6461	C646	0.384600	0.329400	0.820200
C6471	C647	0.404900	0.306400	0.838100
C6481	C648	0.390600	0.283800	0.863700
C6491	C649	0.413200	0.260900	0.876800
C6501	C650	0.444200	0.269000	0.858400
C6511	C651	0.349400	0.334200	0.834300
C6521	C652	0.344100	0.358500	0.860000
C6531	C653	0.310700	0.368400	0.868600
C6541	C654	0.282800	0.354000	0.851500
C6551	C655	0.288100	0.329700	0.825700
C6561	C656	0.321500	0.319800	0.817100
C6571	C657	0.472800	0.248600	0.852300
C6581	C658	0.503700	0.260800	0.838200
C6591	C659	0.538300	0.248000	0.844800
C6601	C660	0.561900	0.265100	0.825500
C6611	C661	0.540600	0.289000	0.805900
C6621	C662	0.553900	0.310900	0.780100
C6631	C663	0.534000	0.332000	0.759500
C6641	C664	0.546400	0.348000	0.728400
C6651	C665	0.518600	0.362500	0.713500
C6661	C666	0.489100	0.356000	0.735000
C6671	C667	0.643300	0.292900	0.747000
C6681	C668	0.661900	0.318500	0.763600
C6691	C669	0.645300	0.341500	0.785500
C6701	C670	0.610000	0.338800	0.790800
C6711	C671	0.591300	0.313200	0.774100
C6721	C672	0.607900	0.290200	0.752200
C6731	C673	0.961500	0.317100	0.034800
C6741	C674	0.006300	0.375200	0.140700
C6751	C675	0.991000	0.345100	0.124800
C6761	C676	0.981400	0.344100	0.088400
C6771	C677	0.969600	0.316600	0.073500
C6781	C678	0.968200	0.287000	0.092600
C6791	C679	0.975100	0.284100	0.126700
C6801	C680	0.988500	0.313200	0.141600
C6811	C681	0.957200	0.018200	0.331300
C6821	C682	0.937500	0.125900	0.398800
C6831	C683	0.942200	0.125100	0.334000
C6841	C684	0.941500	0.107000	0.364900
C6851	C685	0.947200	0.072200	0.363600
C6861	C686	0.951800	0.055500	0.332700
C6871	C687	0.954600	0.074800	0.302800
C6881	C688	0.950100	0.108600	0.302900
C6891	C689	0.955800	0.130800	0.270200
C6901	C690	0.931700	0.127000	0.244600
C6911	C691	0.899200	0.110400	0.248200
C6921	C692	0.878300	0.124300	0.224000
C6931	C693	0.897700	0.149900	0.205600
C6941	C694	0.884600	0.170600	0.179800
C6951	C695	0.904900	0.193600	0.161900
C6961	C696	0.890600	0.216200	0.136300
C6971	C697	0.913200	0.239100	0.123200
C6981	C698	0.944200	0.231000	0.141600
C6991	C699	0.849400	0.165800	0.165700
C7001	C700	0.844100	0.141500	0.140000
C7011	C701	0.810700	0.131600	0.131400
C7021	C702	0.782800	0.146000	0.148500
C7031	C703	0.788100	0.170300	0.174300
C7041	C704	0.821500	0.180200	0.182900
C7051	C705	0.972800	0.251400	0.147700
C7061	C706	0.003700	0.239200	0.161800
C7071	C707	0.038300	0.252000	0.155200
C7081	C708	0.061900	0.234900	0.174500
C7091	C709	0.040600	0.211000	0.194100
C7101	C710	0.053900	0.189100	0.219900
C7111	C711	0.034000	0.168000	0.240500
C7121	C712	0.046400	0.152000	0.271600
C7131	C713	0.018600	0.137500	0.286500
C7141	C714	0.989100	0.144000	0.265000
C7151	C715	0.143300	0.207100	0.253000
C7161	C716	0.161900	0.181500	0.236400
C7171	C717	0.145300	0.158500	0.214500
C7181	C718	0.110000	0.161200	0.209200
C7191	C719	0.091300	0.186800	0.225900
C7201	C720	0.107900	0.209800	0.247800
C7211	C721	0.538500	0.682900	0.534800
C7221	C722	0.493700	0.624800	0.640700
C7231	C723	0.509000	0.654900	0.624800
C7241	C724	0.518600	0.655900	0.588400
C7251	C725	0.530400	0.683400	0.573500
C7261	C726	0.531800	0.713000	0.592600
C7271	C727	0.524900	0.715900	0.626700
C7281	C728	0.511500	0.686800	0.641600
C7291	C729	0.542800	0.981800	0.831300
C7301	C730	0.562500	0.874100	0.898800
C7311	C731	0.557800	0.874900	0.834000
C7321	C732	0.558500	0.893000	0.864900
C7331	C733	0.552800	0.927800	0.863600
C7341	C734	0.548200	0.944500	0.832700
C7351	C735	0.545400	0.925200	0.802800
C7361	C736	0.549900	0.891400	0.802900
C7371	C737	0.544200	0.869200	0.770200
C7381	C738	0.568300	0.873000	0.744600
C7391	C739	0.600800	0.889600	0.748200
C7401	C740	0.621700	0.875700	0.724000
C7411	C741	0.602300	0.850100	0.705600
C7421	C742	0.615400	0.829400	0.679800
C7431	C743	0.595100	0.806400	0.661900
C7441	C744	0.609400	0.783800	0.636300
C7451	C745	0.586800	0.760900	0.623200
C7461	C746	0.555800	0.769000	0.641600
C7471	C747	0.650600	0.834200	0.665700
C7481	C748	0.655900	0.858500	0.640000
C7491	C749	0.689300	0.868400	0.631400
C7501	C750	0.717200	0.854000	0.648500
C7511	C751	0.711900	0.829700	0.674300
C7521	C752	0.678500	0.819800	0.682900
C7531	C753	0.527200	0.748600	0.647700
C7541	C754	0.496300	0.760800	0.661800
C7551	C755	0.461700	0.748000	0.655200
C7561	C756	0.438100	0.765100	0.674500
C7571	C757	0.459400	0.789000	0.694100
C7581	C758	0.446100	0.810900	0.719900
C7591	C759	0.466000	0.832000	0.740500
C7601	C760	0.453600	0.848000	0.771600
C7611	C761	0.481400	0.862500	0.786500
C7621	C762	0.510900	0.856000	0.765000
C7631	C763	0.356700	0.792900	0.753000
C7641	C764	0.338100	0.818500	0.736400
C7651	C765	0.354700	0.841500	0.714500
C7661	C766	0.390000	0.838800	0.709200
C7671	C767	0.408700	0.813200	0.725900
C7681	C768	0.392100	0.790200	0.747800
C7691	C769	0.465200	0.038500	0.817100
C7701	C770	0.359300	0.993700	0.875200
C7711	C771	0.375200	0.009000	0.845100
C7721	C772	0.411600	0.018600	0.844100
C7731	C773	0.426500	0.030400	0.816600
C7741	C774	0.407400	0.031800	0.787000
C7751	C775	0.373300	0.024900	0.784100
C7761	C776	0.358400	0.011500	0.813200
C7771	C777	0.168700	0.042800	0.518200
C7781	C778	0.101200	0.062500	0.625900
C7791	C779	0.166000	0.057800	0.625100
C7801	C780	0.135100	0.058500	0.607000
C7811	C781	0.136400	0.052800	0.572200
C7821	C782	0.167300	0.048200	0.555500
C7831	C783	0.197200	0.045400	0.574800
C7841	C784	0.197100	0.049900	0.608600
C7851	C785	0.229800	0.044200	0.630800
C7861	C786	0.255400	0.068300	0.627000
C7871	C787	0.251800	0.100800	0.610400
C7881	C788	0.276000	0.121700	0.624300
C7891	C789	0.294400	0.102300	0.649900
C7901	C790	0.320200	0.115400	0.670600
C7911	C791	0.338100	0.095100	0.693600
C7921	C792	0.363700	0.109400	0.716200
C7931	C793	0.376800	0.086800	0.739100
C7941	C794	0.358400	0.055800	0.731000
C7951	C795	0.334300	0.150600	0.665800
C7961	C796	0.360000	0.155900	0.641500
C7971	C797	0.368600	0.189300	0.631600
C7981	C798	0.351500	0.217200	0.646000
C7991	C799	0.325700	0.211900	0.670300
C8001	C800	0.317100	0.178500	0.680200
C8011	C801	0.352300	0.027200	0.751400
C8021	C802	0.338200	0.996300	0.739200
C8031	C803	0.344800	0.961700	0.752000
C8041	C804	0.325500	0.938100	0.734900
C8051	C805	0.305900	0.959400	0.711000
C8061	C806	0.280100	0.946100	0.689100
C8071	C807	0.259500	0.966000	0.668000
C8081	C808	0.228400	0.953600	0.652000
C8091	C809	0.213500	0.981400	0.637500
C8101	C810	0.235000	0.010900	0.644000
C8111	C811	0.247000	0.856700	0.707100
C8121	C812	0.263600	0.838100	0.681500
C8131	C813	0.285500	0.854700	0.658500
C8141	C814	0.290800	0.890000	0.661200
C8151	C815	0.274100	0.908700	0.686800
C8161	C816	0.252200	0.892100	0.709800
C8171	C817	0.965200	0.461500	0.182900
C8181	C818	0.859300	0.506300	0.124800
C8191	C819	0.875200	0.491000	0.154900
C8201	C820	0.911600	0.481400	0.155900
C8211	C821	0.926500	0.469600	0.183400
C8221	C822	0.907400	0.468200	0.213000
C8231	C823	0.873300	0.475100	0.215900
C8241	C824	0.858400	0.488500	0.186800
C8251	C825	0.668700	0.457200	0.481800
C8261	C826	0.601200	0.437500	0.374100
C8271	C827	0.666000	0.442200	0.374900
C8281	C828	0.635100	0.441500	0.393000
C8291	C829	0.636400	0.447200	0.427800
C8301	C830	0.667300	0.451800	0.444500
C8311	C831	0.697200	0.454600	0.425200
C8321	C832	0.697100	0.450100	0.391400
C8331	C833	0.729800	0.455800	0.369200
C8341	C834	0.755400	0.431700	0.373000
C8351	C835	0.751800	0.399200	0.389600
C8361	C836	0.776000	0.378300	0.375700
C8371	C837	0.794400	0.397700	0.350100
C8381	C838	0.820200	0.384600	0.329400
C8391	C839	0.838100	0.404900	0.306400
C8401	C840	0.863700	0.390600	0.283800
C8411	C841	0.876800	0.413200	0.260900
C8421	C842	0.858400	0.444200	0.269000
C8431	C843	0.834300	0.349400	0.334200
C8441	C844	0.860000	0.344100	0.358500
C8451	C845	0.868600	0.310700	0.368400
C8461	C846	0.851500	0.282800	0.354000
C8471	C847	0.825700	0.288100	0.329700
C8481	C848	0.817100	0.321500	0.319800
C8491	C849	0.852300	0.472800	0.248600
C8501	C850	0.838200	0.503700	0.260800
C8511	C851	0.844800	0.538300	0.248000
C8521	C852	0.825500	0.561900	0.265100
C8531	C853	0.805900	0.540600	0.289000
C8541	C854	0.780100	0.553900	0.310900
C8551	C855	0.759500	0.534000	0.332000
C8561	C856	0.728400	0.546400	0.348000
C8571	C857	0.713500	0.518600	0.362500
C8581	C858	0.735000	0.489100	0.356000
C8591	C859	0.747000	0.643300	0.292900
C8601	C860	0.763600	0.661900	0.318500
C8611	C861	0.785500	0.645300	0.341500
C8621	C862	0.790800	0.610000	0.338800
C8631	C863	0.774100	0.591300	0.313200
C8641	C864	0.752200	0.607900	0.290200
C8651	C865	0.034800	0.961500	0.317100
C8661	C866	0.140700	0.006300	0.375200
C8671	C867	0.124800	0.991000	0.345100
C8681	C868	0.088400	0.981400	0.344100
C8691	C869	0.073500	0.969600	0.316600
C8701	C870	0.092600	0.968200	0.287000
C8711	C871	0.126700	0.975100	0.284100
C8721	C872	0.141600	0.988500	0.313200
C8731	C873	0.331300	0.957200	0.018200
C8741	C874	0.398800	0.937500	0.125900
C8751	C875	0.334000	0.942200	0.125100
C8761	C876	0.364900	0.941500	0.107000
C8771	C877	0.363600	0.947200	0.072200
C8781	C878	0.332700	0.951800	0.055500
C8791	C879	0.302800	0.954600	0.074800
C8801	C880	0.302900	0.950100	0.108600
C8811	C881	0.270200	0.955800	0.130800
C8821	C882	0.244600	0.931700	0.127000
C8831	C883	0.248200	0.899200	0.110400
C8841	C884	0.224000	0.878300	0.124300
C8851	C885	0.205600	0.897700	0.149900
C8861	C886	0.179800	0.884600	0.170600
C8871	C887	0.161900	0.904900	0.193600
C8881	C888	0.136300	0.890600	0.216200
C8891	C889	0.123200	0.913200	0.239100
C8901	C890	0.141600	0.944200	0.231000
C8911	C891	0.165700	0.849400	0.165800
C8921	C892	0.140000	0.844100	0.141500
C8931	C893	0.131400	0.810700	0.131600
C8941	C894	0.148500	0.782800	0.146000
C8951	C895	0.174300	0.788100	0.170300
C8961	C896	0.182900	0.821500	0.180200
C8971	C897	0.147700	0.972800	0.251400
C8981	C898	0.161800	0.003700	0.239200
C8991	C899	0.155200	0.038300	0.252000
C9001	C900	0.174500	0.061900	0.234900
C9011	C901	0.194100	0.040600	0.211000
C9021	C902	0.219900	0.053900	0.189100
C9031	C903	0.240500	0.034000	0.168000
C9041	C904	0.271600	0.046400	0.152000
C9051	C905	0.286500	0.018600	0.137500
C9061	C906	0.265000	0.989100	0.144000
C9071	C907	0.253000	0.143300	0.207100
C9081	C908	0.236400	0.161900	0.181500
C9091	C909	0.214500	0.145300	0.158500
C9101	C910	0.209200	0.110000	0.161200
C9111	C911	0.225900	0.091300	0.186800
C9121	C912	0.247800	0.107900	0.209800
C9131	C913	0.534800	0.538500	0.682900
C9141	C914	0.640700	0.493700	0.624800
C9151	C915	0.624800	0.509000	0.654900
C9161	C916	0.588400	0.518600	0.655900
C9171	C917	0.573500	0.530400	0.683400
C9181	C918	0.592600	0.531800	0.713000
C9191	C919	0.626700	0.524900	0.715900
C9201	C920	0.641600	0.511500	0.686800
C9211	C921	0.831300	0.542800	0.981800
C9221	C922	0.898800	0.562500	0.874100
C9231	C923	0.834000	0.557800	0.874900
C9241	C924	0.864900	0.558500	0.893000
C9251	C925	0.863600	0.552800	0.927800
C9261	C926	0.832700	0.548200	0.944500
C9271	C927	0.802800	0.545400	0.925200
C9281	C928	0.802900	0.549900	0.891400
C9291	C929	0.770200	0.544200	0.869200
C9301	C930	0.744600	0.568300	0.873000
C9311	C931	0.748200	0.600800	0.889600
C9321	C932	0.724000	0.621700	0.875700
C9331	C933	0.705600	0.602300	0.850100
C9341	C934	0.679800	0.615400	0.829400
C9351	C935	0.661900	0.595100	0.806400
C9361	C936	0.636300	0.609400	0.783800
C9371	C937	0.623200	0.586800	0.760900
C9381	C938	0.641600	0.555800	0.769000
C9391	C939	0.665700	0.650600	0.834200
C9401	C940	0.640000	0.655900	0.858500
C9411	C941	0.631400	0.689300	0.868400
C9421	C942	0.648500	0.717200	0.854000
C9431	C943	0.674300	0.711900	0.829700
C9441	C944	0.682900	0.678500	0.819800
C9451	C945	0.647700	0.527200	0.748600
C9461	C946	0.661800	0.496300	0.760800
C9471	C947	0.655200	0.461700	0.748000
C9481	C948	0.674500	0.438100	0.765100
C9491	C949	0.694100	0.459400	0.789000
C9501	C950	0.719900	0.446100	0.810900
C9511	C951	0.740500	0.466000	0.832000
C9521	C952	0.771600	0.453600	0.848000
C9531	C953	0.786500	0.481400	0.862500
C9541	C954	0.765000	0.510900	0.856000
C9551	C955	0.753000	0.356700	0.792900
C9561	C956	0.736400	0.338100	0.818500
C9571	C957	0.714500	0.354700	0.841500
C9581	C958	0.709200	0.390000	0.838800
C9591	C959	0.725900	0.408700	0.813200
C9601	C960	0.747800	0.392100	0.790200
C9611	C961	0.817100	0.465200	0.038500
C9621	C962	0.875200	0.359300	0.993700
C9631	C963	0.845100	0.375200	0.009000
C9641	C964	0.844100	0.411600	0.018600
C9651	C965	0.816600	0.426500	0.030400
C9661	C966	0.787000	0.407400	0.031800
C9671	C967	0.784100	0.373300	0.024900
C9681	C968	0.813200	0.358400	0.011500
C9691	C969	0.518200	0.168700	0.042800
C9701	C970	0.625900	0.101200	0.062500
C9711	C971	0.625100	0.166000	0.057800
C9721	C972	0.607000	0.135100	0.058500
C9731	C973	0.572200	0.136400	0.052800
C9741	C974	0.555500	0.167300	0.048200
C9751	C975	0.574800	0.197200	0.045400
C9761	C976	0.608600	0.197100	0.049900
C9771	C977	0.630800	0.229800	0.044200
C9781	C978	0.627000	0.255400	0.068300
C9791	C979	0.610400	0.251800	0.100800
C9801	C980	0.624300	0.276000	0.121700
C9811	C981	0.649900	0.294400	0.102300
C9821	C982	0.670600	0.320200	0.115400
C9831	C983	0.693600	0.338100	0.095100
C9841	C984	0.716200	0.363700	0.109400
C9851	C985	0.739100	0.376800	0.086800
C9861	C986	0.731000	0.358400	0.055800
C9871	C987	0.665800	0.334300	0.150600
C9881	C988	0.641500	0.360000	0.155900
C9891	C989	0.631600	0.368600	0.189300
C9901	C990	0.646000	0.351500	0.217200
C9911	C991	0.670300	0.325700	0.211900
C9921	C992	0.680200	0.317100	0.178500
C9931	C993	0.751400	0.352300	0.027200
C9941	C994	0.739200	0.338200	0.996300
C9951	C995	0.752000	0.344800	0.961700
C9961	C996	0.734900	0.325500	0.938100
C9971	C997	0.711000	0.305900	0.959400
C9981	C998	0.689100	0.280100	0.946100
C9991	C999	0.668000	0.259500	0.966000
C10001	C1000	0.652000	0.228400	0.953600
C10011	C1001	0.637500	0.213500	0.981400
C10021	C1002	0.644000	0.235000	0.010900
C10031	C1003	0.707100	0.247000	0.856700
C10041	C1004	0.681500	0.263600	0.838100
C10051	C1005	0.658500	0.285500	0.854700
C10061	C1006	0.661200	0.290800	0.890000
C10071	C1007	0.686800	0.274100	0.908700
C10081	C1008	0.709800	0.252200	0.892100
C10091	C1009	0.182900	0.965200	0.461500
C10101	C1010	0.124800	0.859300	0.506300
C10111	C1011	0.154900	0.875200	0.491000
C10121	C1012	0.155900	0.911600	0.481400
C10131	C1013	0.183400	0.926500	0.469600
C10141	C1014	0.213000	0.907400	0.468200
C10151	C1015	0.215900	0.873300	0.475100
C10161	C1016	0.186800	0.858400	0.488500
C10171	C1017	0.481800	0.668700	0.457200
C10181	C1018	0.374100	0.601200	0.437500
C10191	C1019	0.374900	0.666000	0.442200
C10201	C1020	0.393000	0.635100	0.441500
C10211	C1021	0.427800	0.636400	0.447200
C10221	C1022	0.444500	0.667300	0.451800
C10231	C1023	0.425200	0.697200	0.454600
C10241	C1024	0.391400	0.697100	0.450100
C10251	C1025	0.369200	0.729800	0.455800
C10261	C1026	0.373000	0.755400	0.431700
C10271	C1027	0.389600	0.751800	0.399200
C10281	C1028	0.375700	0.776000	0.378300
C10291	C1029	0.350100	0.794400	0.397700
C10301	C1030	0.329400	0.820200	0.384600
C10311	C1031	0.306400	0.838100	0.404900
C10321	C1032	0.283800	0.863700	0.390600
C10331	C1033	0.260900	0.876800	0.413200
C10341	C1034	0.269000	0.858400	0.444200
C10351	C1035	0.334200	0.834300	0.349400
C10361	C1036	0.358500	0.860000	0.344100
C10371	C1037	0.368400	0.868600	0.310700
C10381	C1038	0.354000	0.851500	0.282800
C10391	C1039	0.329700	0.825700	0.288100
C10401	C1040	0.319800	0.817100	0.321500
C10411	C1041	0.248600	0.852300	0.472800
C10421	C1042	0.260800	0.838200	0.503700
C10431	C1043	0.248000	0.844800	0.538300
C10441	C1044	0.265100	0.825500	0.561900
C10451	C1045	0.289000	0.805900	0.540600
C10461	C1046	0.310900	0.780100	0.553900
C10471	C1047	0.332000	0.759500	0.534000
C10481	C1048	0.348000	0.728400	0.546400
C10491	C1049	0.362500	0.713500	0.518600
C10501	C1050	0.356000	0.735000	0.489100
C10511	C1051	0.292900	0.747000	0.643300
C10521	C1052	0.318500	0.763600	0.661900
C10531	C1053	0.341500	0.785500	0.645300
C10541	C1054	0.338800	0.790800	0.610000
C10551	C1055	0.313200	0.774100	0.591300
C10561	C1056	0.290200	0.752200	0.607900
C10571	C1057	0.317100	0.034800	0.961500
C10581	C1058	0.375200	0.140700	0.006300
C10591	C1059	0.345100	0.124800	0.991000
C10601	C1060	0.344100	0.088400	0.981400
C10611	C1061	0.316600	0.073500	0.969600
C10621	C1062	0.287000	0.092600	0.968200
C10631	C1063	0.284100	0.126700	0.975100
C10641	C1064	0.313200	0.141600	0.988500
C10651	C1065	0.018200	0.331300	0.957200
C10661	C1066	0.125900	0.398800	0.937500
C10671	C1067	0.125100	0.334000	0.942200
C10681	C1068	0.107000	0.364900	0.941500
C10691	C1069	0.072200	0.363600	0.947200
C10701	C1070	0.055500	0.332700	0.951800
C10711	C1071	0.074800	0.302800	0.954600
C10721	C1072	0.108600	0.302900	0.950100
C10731	C1073	0.130800	0.270200	0.955800
C10741	C1074	0.127000	0.244600	0.931700
C10751	C1075	0.110400	0.248200	0.899200
C10761	C1076	0.124300	0.224000	0.878300
C10771	C1077	0.149900	0.205600	0.897700
C10781	C1078	0.170600	0.179800	0.884600
C10791	C1079	0.193600	0.161900	0.904900
C10801	C1080	0.216200	0.136300	0.890600
C10811	C1081	0.239100	0.123200	0.913200
C10821	C1082	0.231000	0.141600	0.944200
C10831	C1083	0.165800	0.165700	0.849400
C10841	C1084	0.141500	0.140000	0.844100
C10851	C1085	0.131600	0.131400	0.810700
C10861	C1086	0.146000	0.148500	0.782800
C10871	C1087	0.170300	0.174300	0.788100
C10881	C1088	0.180200	0.182900	0.821500
C10891	C1089	0.251400	0.147700	0.972800
C10901	C1090	0.239200	0.161800	0.003700
C10911	C1091	0.252000	0.155200	0.038300
C10921	C1092	0.234900	0.174500	0.061900
C10931	C1093	0.211000	0.194100	0.040600
C10941	C1094	0.189100	0.219900	0.053900
C10951	C1095	0.168000	0.240500	0.034000
C10961	C1096	0.152000	0.271600	0.046400
C10971	C1097	0.137500	0.286500	0.018600
C10981	C1098	0.144000	0.265000	0.989100
C10991	C1099	0.207100	0.253000	0.143300
C11001	C1100	0.181500	0.236400	0.161900
C11011	C1101	0.158500	0.214500	0.145300
C11021	C1102	0.161200	0.209200	0.110000
C11031	C1103	0.186800	0.225900	0.091300
C11041	C1104	0.209800	0.247800	0.107900
C11051	C1105	0.682900	0.534800	0.538500
C11061	C1106	0.624800	0.640700	0.493700
C11071	C1107	0.654900	0.624800	0.509000
C11081	C1108	0.655900	0.588400	0.518600
C11091	C1109	0.683400	0.573500	0.530400
C11101	C1110	0.713000	0.592600	0.531800
C11111	C1111	0.715900	0.626700	0.524900
C11121	C1112	0.686800	0.641600	0.511500
C11131	C1113	0.981800	0.831300	0.542800
C11141	C1114	0.874100	0.898800	0.562500
C11151	C1115	0.874900	0.834000	0.557800
C11161	C1116	0.893000	0.864900	0.558500
C11171	C1117	0.927800	0.863600	0.552800
C11181	C1118	0.944500	0.832700	0.548200
C11191	C1119	0.925200	0.802800	0.545400
C11201	C1120	0.891400	0.802900	0.549900
C11211	C1121	0.869200	0.770200	0.544200
C11221	C1122	0.873000	0.744600	0.568300
C11231	C1123	0.889600	0.748200	0.600800
C11241	C1124	0.875700	0.724000	0.621700
C11251	C1125	0.850100	0.705600	0.602300
C11261	C1126	0.829400	0.679800	0.615400
C11271	C1127	0.806400	0.661900	0.595100
C11281	C1128	0.783800	0.636300	0.609400
C11291	C1129	0.760900	0.623200	0.586800
C11301	C1130	0.769000	0.641600	0.555800
C11311	C1131	0.834200	0.665700	0.650600
C11321	C1132	0.858500	0.640000	0.655900
C11331	C1133	0.868400	0.631400	0.689300
C11341	C1134	0.854000	0.648500	0.717200
C11351	C1135	0.829700	0.674300	0.711900
C11361	C1136	0.819800	0.682900	0.678500
C11371	C1137	0.748600	0.647700	0.527200
C11381	C1138	0.760800	0.661800	0.496300
C11391	C1139	0.748000	0.655200	0.461700
C11401	C1140	0.765100	0.674500	0.438100
C11411	C1141	0.789000	0.694100	0.459400
C11421	C1142	0.810900	0.719900	0.446100
C11431	C1143	0.832000	0.740500	0.466000
C11441	C1144	0.848000	0.771600	0.453600
C11451	C1145	0.862500	0.786500	0.481400
C11461	C1146	0.856000	0.765000	0.510900
C11471	C1147	0.792900	0.753000	0.356700
C11481	C1148	0.818500	0.736400	0.338100
C11491	C1149	0.841500	0.714500	0.354700
C11501	C1150	0.838800	0.709200	0.390000
C11511	C1151	0.813200	0.725900	0.408700
C11521	C1152	0.790200	0.747800	0.392100
Br11	Br1	0.084500	0.255700	0.771700
Br21	Br2	0.827100	0.289300	0.719300
Br31	Br3	0.880910	0.382790	0.619930
Br41	Br4	0.088200	0.370300	0.678200
Br51	Br5	0.415500	0.744300	0.271700
Br61	Br6	0.672900	0.710700	0.219300
Br71	Br7	0.619090	0.617210	0.119930
Br81	Br8	0.411800	0.629700	0.178200
Br91	Br9	0.915500	0.755700	0.728300
Br101	Br10	0.172900	0.789300	0.780700
Br111	Br11	0.119090	0.882790	0.880070
Br121	Br12	0.911800	0.870300	0.821800
Br131	Br13	0.584500	0.244300	0.228300
Br141	Br14	0.327100	0.210700	0.280700
Br151	Br15	0.380910	0.117210	0.380070
Br161	Br16	0.588200	0.129700	0.321800
Br171	Br17	0.771700	0.084500	0.255700
Br181	Br18	0.719300	0.827100	0.289300
Br191	Br19	0.619930	0.880910	0.382790
Br201	Br20	0.678200	0.088200	0.370300
Br211	Br21	0.271700	0.415500	0.744300
Br221	Br22	0.219300	0.672900	0.710700
Br231	Br23	0.119930	0.619090	0.617210
Br241	Br24	0.178200	0.411800	0.629700
Br251	Br25	0.728300	0.915500	0.755700
Br261	Br26	0.780700	0.172900	0.789300
Br271	Br27	0.880070	0.119090	0.882790
Br281	Br28	0.821800	0.911800	0.870300
Br291	Br29	0.228300	0.584500	0.244300
Br301	Br30	0.280700	0.327100	0.210700
Br311	Br31	0.380070	0.380910	0.117210
Br321	Br32	0.321800	0.588200	0.129700
Br331	Br33	0.255700	0.771700	0.084500
Br341	Br34	0.289300	0.719300	0.827100
Br351	Br35	0.382790	0.619930	0.880910
Br361	Br36	0.370300	0.678200	0.088200
Br371	Br37	0.744300	0.271700	0.415500
Br381	Br38	0.710700	0.219300	0.672900
Br391	Br39	0.617210	0.119930	0.619090
Br401	Br40	0.629700	0.178200	0.411800
Br411	Br41	0.755700	0.728300	0.915500
Br421	Br42	0.789300	0.780700	0.172900
Br431	Br43	0.882790	0.880070	0.119090
Br441	Br44	0.870300	0.821800	0.911800
Br451	Br45	0.244300	0.228300	0.584500
Br461	Br46	0.210700	0.280700	0.327100
Br471	Br47	0.117210	0.380070	0.380910
Br481	Br48	0.129700	0.321800	0.588200
Br491	Br49	0.915500	0.744300	0.228300
Br501	Br50	0.172900	0.710700	0.280700
Br511	Br51	0.119090	0.617210	0.380070
Br521	Br52	0.911800	0.629700	0.321800
Br531	Br53	0.584500	0.255700	0.728300
Br541	Br54	0.327100	0.289300	0.780700
Br551	Br55	0.380910	0.382790	0.880070
Br561	Br56	0.588200	0.370300	0.821800
Br571	Br57	0.084500	0.244300	0.271700
Br581	Br58	0.827100	0.210700	0.219300
Br591	Br59	0.880910	0.117210	0.119930
Br601	Br60	0.088200	0.129700	0.178200
Br611	Br61	0.415500	0.755700	0.771700
Br621	Br62	0.672900	0.789300	0.719300
Br631	Br63	0.619090	0.882790	0.619930
Br641	Br64	0.411800	0.870300	0.678200
Br651	Br65	0.228300	0.915500	0.744300
Br661	Br66	0.280700	0.172900	0.710700
Br671	Br67	0.380070	0.119090	0.617210
Br681	Br68	0.321800	0.911800	0.629700
Br691	Br69	0.728300	0.584500	0.255700
Br701	Br70	0.780700	0.327100	0.289300
Br711	Br71	0.880070	0.380910	0.382790
Br721	Br72	0.821800	0.588200	0.370300
Br731	Br73	0.271700	0.084500	0.244300
Br741	Br74	0.219300	0.827100	0.210700
Br751	Br75	0.119930	0.880910	0.117210
Br761	Br76	0.178200	0.088200	0.129700
Br771	Br77	0.771700	0.415500	0.755700
Br781	Br78	0.719300	0.672900	0.789300
Br791	Br79	0.619930	0.619090	0.882790
Br801	Br80	0.678200	0.411800	0.870300
Br811	Br81	0.744300	0.228300	0.915500
Br821	Br82	0.710700	0.280700	0.172900
Br831	Br83	0.617210	0.380070	0.119090
Br841	Br84	0.629700	0.321800	0.911800
Br851	Br85	0.255700	0.728300	0.584500
Br861	Br86	0.289300	0.780700	0.327100
Br871	Br87	0.382790	0.880070	0.380910
Br881	Br88	0.370300	0.821800	0.588200
Br891	Br89	0.244300	0.271700	0.084500
Br901	Br90	0.210700	0.219300	0.827100
Br911	Br91	0.117210	0.119930	0.880910
Br921	Br92	0.129700	0.178200	0.088200
Br931	Br93	0.755700	0.771700	0.415500
Br941	Br94	0.789300	0.719300	0.672900
Br951	Br95	0.882790	0.619930	0.619090
Br961	Br96	0.870300	0.678200	0.411800
N11	N1	0.930400	0.349100	0.718700
N21	N2	0.938500	0.296000	0.664000
N31	N3	0.005900	0.287400	0.686100
N41	N4	0.998700	0.335600	0.737400
N51	N5	0.569600	0.650900	0.218700
N61	N6	0.561500	0.704000	0.164000
N71	N7	0.494100	0.712600	0.186100
N81	N8	0.501300	0.664400	0.237400
N91	N9	0.069600	0.849100	0.781300
N101	N10	0.061500	0.796000	0.836000
N111	N11	0.994100	0.787400	0.813900
N121	N12	0.001300	0.835600	0.762600
N131	N13	0.430400	0.150900	0.281300
N141	N14	0.438500	0.204000	0.336000
N151	N15	0.505900	0.212600	0.313900
N161	N16	0.498700	0.164400	0.262600
N171	N17	0.718700	0.930400	0.349100
N181	N18	0.664000	0.938500	0.296000
N191	N19	0.686100	0.005900	0.287400
N201	N20	0.737400	0.998700	0.335600
N211	N21	0.218700	0.569600	0.650900
N221	N22	0.164000	0.561500	0.704000
N231	N23	0.186100	0.494100	0.712600
N241	N24	0.237400	0.501300	0.664400
N251	N25	0.781300	0.069600	0.849100
N261	N26	0.836000	0.061500	0.796000
N271	N27	0.813900	0.994100	0.787400
N281	N28	0.762600	0.001300	0.835600
N291	N29	0.281300	0.430400	0.150900
N301	N30	0.336000	0.438500	0.204000
N311	N31	0.313900	0.505900	0.212600
N321	N32	0.262600	0.498700	0.164400
N331	N33	0.349100	0.718700	0.930400
N341	N34	0.296000	0.664000	0.938500
N351	N35	0.287400	0.686100	0.005900
N361	N36	0.335600	0.737400	0.998700
N371	N37	0.650900	0.218700	0.569600
N381	N38	0.704000	0.164000	0.561500
N391	N39	0.712600	0.186100	0.494100
N401	N40	0.664400	0.237400	0.501300
N411	N41	0.849100	0.781300	0.069600
N421	N42	0.796000	0.836000	0.061500
N431	N43	0.787400	0.813900	0.994100
N441	N44	0.835600	0.762600	0.001300
N451	N45	0.150900	0.281300	0.430400
N461	N46	0.204000	0.336000	0.438500
N471	N47	0.212600	0.313900	0.505900
N481	N48	0.164400	0.262600	0.498700
N491	N49	0.069600	0.650900	0.281300
N501	N50	0.061500	0.704000	0.336000
N511	N51	0.994100	0.712600	0.313900
N521	N52	0.001300	0.664400	0.262600
N531	N53	0.430400	0.349100	0.781300
N541	N54	0.438500	0.296000	0.836000
N551	N55	0.505900	0.287400	0.813900
N561	N56	0.498700	0.335600	0.762600
N571	N57	0.930400	0.150900	0.218700
N581	N58	0.938500	0.204000	0.164000
N591	N59	0.005900	0.212600	0.186100
N601	N60	0.998700	0.164400	0.237400
N611	N61	0.569600	0.849100	0.718700
N621	N62	0.561500	0.796000	0.664000
N631	N63	0.494100	0.787400	0.686100
N641	N64	0.501300	0.835600	0.737400
N651	N65	0.281300	0.069600	0.650900
N661	N66	0.336000	0.061500	0.704000
N671	N67	0.313900	0.994100	0.712600
N681	N68	0.262600	0.001300	0.664400
N691	N69	0.781300	0.430400	0.349100
N701	N70	0.836000	0.438500	0.296000
N711	N71	0.813900	0.505900	0.287400
N721	N72	0.762600	0.498700	0.335600
N731	N73	0.218700	0.930400	0.150900
N741	N74	0.164000	0.938500	0.204000
N751	N75	0.186100	0.005900	0.212600
N761	N76	0.237400	0.998700	0.164400
N771	N77	0.718700	0.569600	0.849100
N781	N78	0.664000	0.561500	0.796000
N791	N79	0.686100	0.494100	0.787400
N801	N80	0.737400	0.501300	0.835600
N811	N81	0.650900	0.281300	0.069600
N821	N82	0.704000	0.336000	0.061500
N831	N83	0.712600	0.313900	0.994100
N841	N84	0.664400	0.262600	0.001300
N851	N85	0.349100	0.781300	0.430400
N861	N86	0.296000	0.836000	0.438500
N871	N87	0.287400	0.813900	0.505900
N881	N88	0.335600	0.762600	0.498700
N891	N89	0.150900	0.218700	0.930400
N901	N90	0.204000	0.164000	0.938500
N911	N91	0.212600	0.186100	0.005900
N921	N92	0.164400	0.237400	0.998700
N931	N93	0.849100	0.718700	0.569600
N941	N94	0.796000	0.664000	0.561500
N951	N95	0.787400	0.686100	0.494100
N961	N96	0.835600	0.737400	0.501300
O11	O1	0.952300	0.211400	0.521180
O21	O2	0.961720	0.154540	0.521330
O31	O3	0.010720	0.098600	0.621950
O41	O4	0.012200	0.126400	0.671700
O51	O5	0.926400	0.342400	0.896110
O61	O6	0.941890	0.388780	0.925810
O71	O7	0.958790	0.498770	0.858670
O81	O8	0.960500	0.494230	0.802140
O91	O9	0.933480	0.316800	0.956160
O101	O10	0.547700	0.788600	0.021180
O111	O11	0.538280	0.845460	0.021330
O121	O12	0.489280	0.901400	0.121950
O131	O13	0.487800	0.873600	0.171700
O141	O14	0.573600	0.657600	0.396110
O151	O15	0.558110	0.611220	0.425810
O161	O16	0.541210	0.501230	0.358670
O171	O17	0.539500	0.505770	0.302140
O181	O18	0.566520	0.683200	0.456160
O191	O19	0.047700	0.711400	0.978820
O201	O20	0.038280	0.654540	0.978670
O211	O21	0.989280	0.598600	0.878050
O221	O22	0.987800	0.626400	0.828300
O231	O23	0.073600	0.842400	0.603890
O241	O24	0.058110	0.888780	0.574190
O251	O25	0.041210	0.998770	0.641330
O261	O26	0.039500	0.994230	0.697860
O271	O27	0.066520	0.816800	0.543840
O281	O28	0.452300	0.288600	0.478820
O291	O29	0.461720	0.345460	0.478670
O301	O30	0.510720	0.401400	0.378050
O311	O31	0.512200	0.373600	0.328300
O321	O32	0.426400	0.157600	0.103890
O331	O33	0.441890	0.111220	0.074190
O341	O34	0.458790	0.001230	0.141330
O351	O35	0.460500	0.005770	0.197860
O361	O36	0.433480	0.183200	0.043840
O371	O37	0.521180	0.952300	0.211400
O381	O38	0.521330	0.961720	0.154540
O391	O39	0.621950	0.010720	0.098600
O401	O40	0.671700	0.012200	0.126400
O411	O41	0.896110	0.926400	0.342400
O421	O42	0.925810	0.941890	0.388780
O431	O43	0.858670	0.958790	0.498770
O441	O44	0.802140	0.960500	0.494230
O451	O45	0.956160	0.933480	0.316800
O461	O46	0.021180	0.547700	0.788600
O471	O47	0.021330	0.538280	0.845460
O481	O48	0.121950	0.489280	0.901400
O491	O49	0.171700	0.487800	0.873600
O501	O50	0.396110	0.573600	0.657600
O511	O51	0.425810	0.558110	0.611220
O521	O52	0.358670	0.541210	0.501230
O531	O53	0.302140	0.539500	0.505770
O541	O54	0.456160	0.566520	0.683200
O551	O55	0.978820	0.047700	0.711400
O561	O56	0.978670	0.038280	0.654540
O571	O57	0.878050	0.989280	0.598600
O581	O58	0.828300	0.987800	0.626400
O591	O59	0.603890	0.073600	0.842400
O601	O60	0.574190	0.058110	0.888780
O611	O61	0.641330	0.041210	0.998770
O621	O62	0.697860	0.039500	0.994230
O631	O63	0.543840	0.066520	0.816800
O641	O64	0.478820	0.452300	0.288600
O651	O65	0.478670	0.461720	0.345460
O661	O66	0.378050	0.510720	0.401400
O671	O67	0.328300	0.512200	0.373600
O681	O68	0.103890	0.426400	0.157600
O691	O69	0.074190	0.441890	0.111220
O701	O70	0.141330	0.458790	0.001230
O711	O71	0.197860	0.460500	0.005770
O721	O72	0.043840	0.433480	0.183200
O731	O73	0.211400	0.521180	0.952300
O741	O74	0.154540	0.521330	0.961720
O751	O75	0.098600	0.621950	0.010720
O761	O76	0.126400	0.671700	0.012200
O771	O77	0.342400	0.896110	0.926400
O781	O78	0.388780	0.925810	0.941890
O791	O79	0.498770	0.858670	0.958790
O801	O80	0.494230	0.802140	0.960500
O811	O81	0.316800	0.956160	0.933480
O821	O82	0.788600	0.021180	0.547700
O831	O83	0.845460	0.021330	0.538280
O841	O84	0.901400	0.121950	0.489280
O851	O85	0.873600	0.171700	0.487800
O861	O86	0.657600	0.396110	0.573600
O871	O87	0.611220	0.425810	0.558110
O881	O88	0.501230	0.358670	0.541210
O891	O89	0.505770	0.302140	0.539500
O901	O90	0.683200	0.456160	0.566520
O911	O91	0.711400	0.978820	0.047700
O921	O92	0.654540	0.978670	0.038280
O931	O93	0.598600	0.878050	0.989280
O941	O94	0.626400	0.828300	0.987800
O951	O95	0.842400	0.603890	0.073600
O961	O96	0.888780	0.574190	0.058110
O971	O97	0.998770	0.641330	0.041210
O981	O98	0.994230	0.697860	0.039500
O991	O99	0.816800	0.543840	0.066520
O1001	O100	0.288600	0.478820	0.452300
O1011	O101	0.345460	0.478670	0.461720
O1021	O102	0.401400	0.378050	0.510720
O1031	O103	0.373600	0.328300	0.512200
O1041	O104	0.157600	0.103890	0.426400
O1051	O105	0.111220	0.074190	0.441890
O1061	O106	0.001230	0.141330	0.458790
O1071	O107	0.005770	0.197860	0.460500
O1081	O108	0.183200	0.043840	0.433480
O1091	O109	0.047700	0.788600	0.478820
O1101	O110	0.038280	0.845460	0.478670
O1111	O111	0.989280	0.901400	0.378050
O1121	O112	0.987800	0.873600	0.328300
O1131	O113	0.073600	0.657600	0.103890
O1141	O114	0.058110	0.611220	0.074190
O1151	O115	0.041210	0.501230	0.141330
O1161	O116	0.039500	0.505770	0.197860
O1171	O117	0.066520	0.683200	0.043840
O1181	O118	0.452300	0.211400	0.978820
O1191	O119	0.461720	0.154540	0.978670
O1201	O120	0.510720	0.098600	0.878050
O1211	O121	0.512200	0.126400	0.828300
O1221	O122	0.426400	0.342400	0.603890
O1231	O123	0.441890	0.388780	0.574190
O1241	O124	0.458790	0.498770	0.641330
O1251	O125	0.460500	0.494230	0.697860
O1261	O126	0.433480	0.316800	0.543840
O1271	O127	0.952300	0.288600	0.021180
O1281	O128	0.961720	0.345460	0.021330
O1291	O129	0.010720	0.401400	0.121950
O1301	O130	0.012200	0.373600	0.171700
O1311	O131	0.926400	0.157600	0.396110
O1321	O132	0.941890	0.111220	0.425810
O1331	O133	0.958790	0.001230	0.358670
O1341	O134	0.960500	0.005770	0.302140
O1351	O135	0.933480	0.183200	0.456160
O1361	O136	0.547700	0.711400	0.521180
O1371	O137	0.538280	0.654540	0.521330
O1381	O138	0.489280	0.598600	0.621950
O1391	O139	0.487800	0.626400	0.671700
O1401	O140	0.573600	0.842400	0.896110
O1411	O141	0.558110	0.888780	0.925810
O1421	O142	0.541210	0.998770	0.858670
O1431	O143	0.539500	0.994230	0.802140
O1441	O144	0.566520	0.816800	0.956160
O1451	O145	0.478820	0.047700	0.788600
O1461	O146	0.478670	0.038280	0.845460
O1471	O147	0.378050	0.989280	0.901400
O1481	O148	0.328300	0.987800	0.873600
O1491	O149	0.103890	0.073600	0.657600
O1501	O150	0.074190	0.058110	0.611220
O1511	O151	0.141330	0.041210	0.501230
O1521	O152	0.197860	0.039500	0.505770
O1531	O153	0.043840	0.066520	0.683200
O1541	O154	0.978820	0.452300	0.211400
O1551	O155	0.978670	0.461720	0.154540
O1561	O156	0.878050	0.510720	0.098600
O1571	O157	0.828300	0.512200	0.126400
O1581	O158	0.603890	0.426400	0.342400
O1591	O159	0.574190	0.441890	0.388780
O1601	O160	0.641330	0.458790	0.498770
O1611	O161	0.697860	0.460500	0.494230
O1621	O162	0.543840	0.433480	0.316800
O1631	O163	0.021180	0.952300	0.288600
O1641	O164	0.021330	0.961720	0.345460
O1651	O165	0.121950	0.010720	0.401400
O1661	O166	0.171700	0.012200	0.373600
O1671	O167	0.396110	0.926400	0.157600
O1681	O168	0.425810	0.941890	0.111220
O1691	O169	0.358670	0.958790	0.001230
O1701	O170	0.302140	0.960500	0.005770
O1711	O171	0.456160	0.933480	0.183200
O1721	O172	0.521180	0.547700	0.711400
O1731	O173	0.521330	0.538280	0.654540
O1741	O174	0.621950	0.489280	0.598600
O1751	O175	0.671700	0.487800	0.626400
O1761	O176	0.896110	0.573600	0.842400
O1771	O177	0.925810	0.558110	0.888780
O1781	O178	0.858670	0.541210	0.998770
O1791	O179	0.802140	0.539500	0.994230
O1801	O180	0.956160	0.566520	0.816800
O1811	O181	0.788600	0.478820	0.047700
O1821	O182	0.845460	0.478670	0.038280
O1831	O183	0.901400	0.378050	0.989280
O1841	O184	0.873600	0.328300	0.987800
O1851	O185	0.657600	0.103890	0.073600
O1861	O186	0.611220	0.074190	0.058110
O1871	O187	0.501230	0.141330	0.041210
O1881	O188	0.505770	0.197860	0.039500
O1891	O189	0.683200	0.043840	0.066520
O1901	O190	0.211400	0.978820	0.452300
O1911	O191	0.154540	0.978670	0.461720
O1921	O192	0.098600	0.878050	0.510720
O1931	O193	0.126400	0.828300	0.512200
O1941	O194	0.342400	0.603890	0.426400
O1951	O195	0.388780	0.574190	0.441890
O1961	O196	0.498770	0.641330	0.458790
O1971	O197	0.494230	0.697860	0.460500
O1981	O198	0.316800	0.543840	0.433480
O1991	O199	0.288600	0.021180	0.952300
O2001	O200	0.345460	0.021330	0.961720
O2011	O201	0.401400	0.121950	0.010720
O2021	O202	0.373600	0.171700	0.012200
O2031	O203	0.157600	0.396110	0.926400
O2041	O204	0.111220	0.425810	0.941890
O2051	O205	0.001230	0.358670	0.958790
O2061	O206	0.005770	0.302140	0.960500
O2071	O207	0.183200	0.456160	0.933480
O2081	O208	0.711400	0.521180	0.547700
O2091	O209	0.654540	0.521330	0.538280
O2101	O210	0.598600	0.621950	0.489280
O2111	O211	0.626400	0.671700	0.487800
O2121	O212	0.842400	0.896110	0.573600
O2131	O213	0.888780	0.925810	0.558110
O2141	O214	0.998770	0.858670	0.541210
O2151	O215	0.994230	0.802140	0.539500
O2161	O216	0.816800	0.956160	0.566520
