data_ADASAB_charged_PM
_symmetry_space_group_name_H-M	'P1'
_cell_length_a	45.206000
_cell_length_b	45.206000
_cell_length_c	45.206000
_cell_angle_alpha	60.000000
_cell_angle_beta	60.000000
_cell_angle_gamma	60.000000
_symmetry_Int_Tables_number 1

loop_
_symmetry_equiv_pos_as_xyz
'x,y,z'

loop_
_atom_site_label
_atom_site_type_symbol
_atom_site_fract_x
_atom_site_fract_y
_atom_site_fract_z
Cu11	Cu1	0.835340	0.500000	0.164660
Cu21	Cu2	0.894320	0.500000	0.105680
Cu31	Cu3	0.500000	0.835340	0.500000
Cu41	Cu4	0.500000	0.894320	0.500000
Cu51	Cu5	0.164660	0.500000	0.835340
Cu61	Cu6	0.105680	0.500000	0.894320
Cu71	Cu7	0.500000	0.164660	0.500000
Cu81	Cu8	0.500000	0.105680	0.500000
Cu91	Cu9	0.835340	0.164660	0.500000
Cu101	Cu10	0.894320	0.105680	0.500000
Cu111	Cu11	0.500000	0.500000	0.164660
Cu121	Cu12	0.500000	0.500000	0.105680
Cu131	Cu13	0.164660	0.835340	0.500000
Cu141	Cu14	0.105680	0.894320	0.500000
Cu151	Cu15	0.500000	0.500000	0.835340
Cu161	Cu16	0.500000	0.500000	0.894320
Cu171	Cu17	0.835340	0.500000	0.500000
Cu181	Cu18	0.894320	0.500000	0.500000
Cu191	Cu19	0.500000	0.164660	0.835340
Cu201	Cu20	0.500000	0.105680	0.894320
Cu211	Cu21	0.164660	0.500000	0.500000
Cu221	Cu22	0.105680	0.500000	0.500000
Cu231	Cu23	0.500000	0.835340	0.164660
Cu241	Cu24	0.500000	0.894320	0.105680
Cu251	Cu25	0.892070	0.399050	0.892070
Cu261	Cu26	0.399050	0.892070	0.816810
Cu271	Cu27	0.892070	0.816810	0.892070
Cu281	Cu28	0.816810	0.892070	0.399050
Cu291	Cu29	0.892070	0.892070	0.816810
Cu301	Cu30	0.399050	0.816810	0.892070
Cu311	Cu31	0.892070	0.892070	0.399050
Cu321	Cu32	0.816810	0.399050	0.892070
Cu331	Cu33	0.892070	0.816810	0.399050
Cu341	Cu34	0.399050	0.892070	0.892070
Cu351	Cu35	0.892070	0.399050	0.816810
Cu361	Cu36	0.816810	0.892070	0.892070
Cu371	Cu37	0.600950	0.107930	0.107930
Cu381	Cu38	0.107930	0.600950	0.183190
Cu391	Cu39	0.183190	0.107930	0.107930
Cu401	Cu40	0.107930	0.183190	0.600950
Cu411	Cu41	0.107930	0.107930	0.183190
Cu421	Cu42	0.183190	0.600950	0.107930
Cu431	Cu43	0.107930	0.107930	0.600950
Cu441	Cu44	0.600950	0.183190	0.107930
Cu451	Cu45	0.183190	0.107930	0.600950
Cu461	Cu46	0.107930	0.600950	0.107930
Cu471	Cu47	0.600950	0.107930	0.183190
Cu481	Cu48	0.107930	0.183190	0.107930
H11	H1	0.779600	0.472000	0.138400
H21	H2	0.752800	0.456600	0.119800
H31	H3	0.832200	0.470000	0.022600
H41	H4	0.860000	0.485200	0.044200
H51	H5	0.823200	0.430800	0.013200
H61	H6	0.472000	0.779600	0.610000
H71	H7	0.456600	0.752800	0.670800
H81	H8	0.470000	0.832200	0.675200
H91	H9	0.485200	0.860000	0.610600
H101	H10	0.430800	0.823200	0.732800
H111	H11	0.138400	0.610000	0.779600
H121	H12	0.119800	0.670800	0.752800
H131	H13	0.022600	0.675200	0.832200
H141	H14	0.044200	0.610600	0.860000
H151	H15	0.013200	0.732800	0.823200
H161	H16	0.610000	0.138400	0.472000
H171	H17	0.670800	0.119800	0.456600
H181	H18	0.675200	0.022600	0.470000
H191	H19	0.610600	0.044200	0.485200
H201	H20	0.732800	0.013200	0.430800
H211	H21	0.779600	0.138400	0.610000
H221	H22	0.752800	0.119800	0.670800
H231	H23	0.832200	0.022600	0.675200
H241	H24	0.860000	0.044200	0.610600
H251	H25	0.823200	0.013200	0.732800
H261	H26	0.472000	0.610000	0.138400
H271	H27	0.456600	0.670800	0.119800
H281	H28	0.470000	0.675200	0.022600
H291	H29	0.485200	0.610600	0.044200
H301	H30	0.430800	0.732800	0.013200
H311	H31	0.138400	0.779600	0.472000
H321	H32	0.119800	0.752800	0.456600
H331	H33	0.022600	0.832200	0.470000
H341	H34	0.044200	0.860000	0.485200
H351	H35	0.013200	0.823200	0.430800
H361	H36	0.610000	0.472000	0.779600
H371	H37	0.670800	0.456600	0.752800
H381	H38	0.675200	0.470000	0.832200
H391	H39	0.610600	0.485200	0.860000
H401	H40	0.732800	0.430800	0.823200
H411	H41	0.779600	0.610000	0.472000
H421	H42	0.752800	0.670800	0.456600
H431	H43	0.832200	0.675200	0.470000
H441	H44	0.860000	0.610600	0.485200
H451	H45	0.823200	0.732800	0.430800
H461	H46	0.472000	0.138400	0.779600
H471	H47	0.456600	0.119800	0.752800
H481	H48	0.470000	0.022600	0.832200
H491	H49	0.485200	0.044200	0.860000
H501	H50	0.430800	0.013200	0.823200
H511	H51	0.138400	0.472000	0.610000
H521	H52	0.119800	0.456600	0.670800
H531	H53	0.022600	0.470000	0.675200
H541	H54	0.044200	0.485200	0.610600
H551	H55	0.013200	0.430800	0.732800
H561	H56	0.610000	0.779600	0.138400
H571	H57	0.670800	0.752800	0.119800
H581	H58	0.675200	0.832200	0.022600
H591	H59	0.610600	0.860000	0.044200
H601	H60	0.732800	0.823200	0.013200
H611	H61	0.528000	0.220400	0.861600
H621	H62	0.543400	0.247200	0.880200
H631	H63	0.530000	0.167800	0.977400
H641	H64	0.514800	0.140000	0.955800
H651	H65	0.569200	0.176800	0.986800
H661	H66	0.220400	0.528000	0.390000
H671	H67	0.247200	0.543400	0.329200
H681	H68	0.167800	0.530000	0.324800
H691	H69	0.140000	0.514800	0.389400
H701	H70	0.176800	0.569200	0.267200
H711	H71	0.390000	0.861600	0.220400
H721	H72	0.329200	0.880200	0.247200
H731	H73	0.324800	0.977400	0.167800
H741	H74	0.389400	0.955800	0.140000
H751	H75	0.267200	0.986800	0.176800
H761	H76	0.861600	0.390000	0.528000
H771	H77	0.880200	0.329200	0.543400
H781	H78	0.977400	0.324800	0.530000
H791	H79	0.955800	0.389400	0.514800
H801	H80	0.986800	0.267200	0.569200
H811	H81	0.861600	0.220400	0.390000
H821	H82	0.880200	0.247200	0.329200
H831	H83	0.977400	0.167800	0.324800
H841	H84	0.955800	0.140000	0.389400
H851	H85	0.986800	0.176800	0.267200
H861	H86	0.390000	0.528000	0.861600
H871	H87	0.329200	0.543400	0.880200
H881	H88	0.324800	0.530000	0.977400
H891	H89	0.389400	0.514800	0.955800
H901	H90	0.267200	0.569200	0.986800
H911	H91	0.220400	0.861600	0.528000
H921	H92	0.247200	0.880200	0.543400
H931	H93	0.167800	0.977400	0.530000
H941	H94	0.140000	0.955800	0.514800
H951	H95	0.176800	0.986800	0.569200
H961	H96	0.528000	0.390000	0.220400
H971	H97	0.543400	0.329200	0.247200
H981	H98	0.530000	0.324800	0.167800
H991	H99	0.514800	0.389400	0.140000
H1001	H100	0.569200	0.267200	0.176800
H1011	H101	0.390000	0.220400	0.528000
H1021	H102	0.329200	0.247200	0.543400
H1031	H103	0.324800	0.167800	0.530000
H1041	H104	0.389400	0.140000	0.514800
H1051	H105	0.267200	0.176800	0.569200
H1061	H106	0.861600	0.528000	0.220400
H1071	H107	0.880200	0.543400	0.247200
H1081	H108	0.977400	0.530000	0.167800
H1091	H109	0.955800	0.514800	0.140000
H1101	H110	0.986800	0.569200	0.176800
H1111	H111	0.528000	0.861600	0.390000
H1121	H112	0.543400	0.880200	0.329200
H1131	H113	0.530000	0.977400	0.324800
H1141	H114	0.514800	0.955800	0.389400
H1151	H115	0.569200	0.986800	0.267200
H1161	H116	0.220400	0.390000	0.861600
H1171	H117	0.247200	0.329200	0.880200
H1181	H118	0.167800	0.324800	0.977400
H1191	H119	0.140000	0.389400	0.955800
H1201	H120	0.176800	0.267200	0.986800
H1211	H121	0.220400	0.528000	0.861600
H1221	H122	0.247200	0.543400	0.880200
H1231	H123	0.167800	0.530000	0.977400
H1241	H124	0.140000	0.514800	0.955800
H1251	H125	0.176800	0.569200	0.986800
H1261	H126	0.528000	0.220400	0.390000
H1271	H127	0.543400	0.247200	0.329200
H1281	H128	0.530000	0.167800	0.324800
H1291	H129	0.514800	0.140000	0.389400
H1301	H130	0.569200	0.176800	0.267200
H1311	H131	0.861600	0.390000	0.220400
H1321	H132	0.880200	0.329200	0.247200
H1331	H133	0.977400	0.324800	0.167800
H1341	H134	0.955800	0.389400	0.140000
H1351	H135	0.986800	0.267200	0.176800
H1361	H136	0.390000	0.861600	0.528000
H1371	H137	0.329200	0.880200	0.543400
H1381	H138	0.324800	0.977400	0.530000
H1391	H139	0.389400	0.955800	0.514800
H1401	H140	0.267200	0.986800	0.569200
H1411	H141	0.220400	0.861600	0.390000
H1421	H142	0.247200	0.880200	0.329200
H1431	H143	0.167800	0.977400	0.324800
H1441	H144	0.140000	0.955800	0.389400
H1451	H145	0.176800	0.986800	0.267200
H1461	H146	0.528000	0.390000	0.861600
H1471	H147	0.543400	0.329200	0.880200
H1481	H148	0.530000	0.324800	0.977400
H1491	H149	0.514800	0.389400	0.955800
H1501	H150	0.569200	0.267200	0.986800
H1511	H151	0.861600	0.220400	0.528000
H1521	H152	0.880200	0.247200	0.543400
H1531	H153	0.977400	0.167800	0.530000
H1541	H154	0.955800	0.140000	0.514800
H1551	H155	0.986800	0.176800	0.569200
H1561	H156	0.390000	0.528000	0.220400
H1571	H157	0.329200	0.543400	0.247200
H1581	H158	0.324800	0.530000	0.167800
H1591	H159	0.389400	0.514800	0.140000
H1601	H160	0.267200	0.569200	0.176800
H1611	H161	0.220400	0.390000	0.528000
H1621	H162	0.247200	0.329200	0.543400
H1631	H163	0.167800	0.324800	0.530000
H1641	H164	0.140000	0.389400	0.514800
H1651	H165	0.176800	0.267200	0.569200
H1661	H166	0.528000	0.861600	0.220400
H1671	H167	0.543400	0.880200	0.247200
H1681	H168	0.530000	0.977400	0.167800
H1691	H169	0.514800	0.955800	0.140000
H1701	H170	0.569200	0.986800	0.176800
H1711	H171	0.861600	0.528000	0.390000
H1721	H172	0.880200	0.543400	0.329200
H1731	H173	0.977400	0.530000	0.324800
H1741	H174	0.955800	0.514800	0.389400
H1751	H175	0.986800	0.569200	0.267200
H1761	H176	0.390000	0.220400	0.861600
H1771	H177	0.329200	0.247200	0.880200
H1781	H178	0.324800	0.167800	0.977400
H1791	H179	0.389400	0.140000	0.955800
H1801	H180	0.267200	0.176800	0.986800
H1811	H181	0.472000	0.779600	0.138400
H1821	H182	0.456600	0.752800	0.119800
H1831	H183	0.470000	0.832200	0.022600
H1841	H184	0.485200	0.860000	0.044200
H1851	H185	0.430800	0.823200	0.013200
H1861	H186	0.779600	0.472000	0.610000
H1871	H187	0.752800	0.456600	0.670800
H1881	H188	0.832200	0.470000	0.675200
H1891	H189	0.860000	0.485200	0.610600
H1901	H190	0.823200	0.430800	0.732800
H1911	H191	0.610000	0.138400	0.779600
H1921	H192	0.670800	0.119800	0.752800
H1931	H193	0.675200	0.022600	0.832200
H1941	H194	0.610600	0.044200	0.860000
H1951	H195	0.732800	0.013200	0.823200
H1961	H196	0.138400	0.610000	0.472000
H1971	H197	0.119800	0.670800	0.456600
H1981	H198	0.022600	0.675200	0.470000
H1991	H199	0.044200	0.610600	0.485200
H2001	H200	0.013200	0.732800	0.430800
H2011	H201	0.138400	0.779600	0.610000
H2021	H202	0.119800	0.752800	0.670800
H2031	H203	0.022600	0.832200	0.675200
H2041	H204	0.044200	0.860000	0.610600
H2051	H205	0.013200	0.823200	0.732800
H2061	H206	0.610000	0.472000	0.138400
H2071	H207	0.670800	0.456600	0.119800
H2081	H208	0.675200	0.470000	0.022600
H2091	H209	0.610600	0.485200	0.044200
H2101	H210	0.732800	0.430800	0.013200
H2111	H211	0.779600	0.138400	0.472000
H2121	H212	0.752800	0.119800	0.456600
H2131	H213	0.832200	0.022600	0.470000
H2141	H214	0.860000	0.044200	0.485200
H2151	H215	0.823200	0.013200	0.430800
H2161	H216	0.472000	0.610000	0.779600
H2171	H217	0.456600	0.670800	0.752800
H2181	H218	0.470000	0.675200	0.832200
H2191	H219	0.485200	0.610600	0.860000
H2201	H220	0.430800	0.732800	0.823200
H2211	H221	0.610000	0.779600	0.472000
H2221	H222	0.670800	0.752800	0.456600
H2231	H223	0.675200	0.832200	0.470000
H2241	H224	0.610600	0.860000	0.485200
H2251	H225	0.732800	0.823200	0.430800
H2261	H226	0.138400	0.472000	0.779600
H2271	H227	0.119800	0.456600	0.752800
H2281	H228	0.022600	0.470000	0.832200
H2291	H229	0.044200	0.485200	0.860000
H2301	H230	0.013200	0.430800	0.823200
H2311	H231	0.472000	0.138400	0.610000
H2321	H232	0.456600	0.119800	0.670800
H2331	H233	0.470000	0.022600	0.675200
H2341	H234	0.485200	0.044200	0.610600
H2351	H235	0.430800	0.013200	0.732800
H2361	H236	0.779600	0.610000	0.138400
H2371	H237	0.752800	0.670800	0.119800
H2381	H238	0.832200	0.675200	0.022600
H2391	H239	0.860000	0.610600	0.044200
H2401	H240	0.823200	0.732800	0.013200
H2411	H241	0.724100	0.466100	0.085700
H2421	H242	0.466100	0.724100	0.724100
H2431	H243	0.085700	0.724100	0.724100
H2441	H244	0.724100	0.085700	0.466100
H2451	H245	0.724100	0.085700	0.724100
H2461	H246	0.466100	0.724100	0.085700
H2471	H247	0.085700	0.724100	0.466100
H2481	H248	0.724100	0.466100	0.724100
H2491	H249	0.724100	0.724100	0.466100
H2501	H250	0.466100	0.085700	0.724100
H2511	H251	0.085700	0.466100	0.724100
H2521	H252	0.724100	0.724100	0.085700
H2531	H253	0.533900	0.275900	0.914300
H2541	H254	0.275900	0.533900	0.275900
H2551	H255	0.275900	0.914300	0.275900
H2561	H256	0.914300	0.275900	0.533900
H2571	H257	0.914300	0.275900	0.275900
H2581	H258	0.275900	0.533900	0.914300
H2591	H259	0.275900	0.914300	0.533900
H2601	H260	0.533900	0.275900	0.275900
H2611	H261	0.275900	0.275900	0.533900
H2621	H262	0.914300	0.533900	0.275900
H2631	H263	0.533900	0.914300	0.275900
H2641	H264	0.275900	0.275900	0.914300
C11	C1	0.838400	0.488800	0.106600
C21	C2	0.821000	0.479400	0.091600
C31	C3	0.789900	0.471300	0.114500
C41	C4	0.774500	0.462100	0.103500
C51	C5	0.788400	0.460600	0.069400
C61	C6	0.821300	0.470100	0.046700
C71	C7	0.838300	0.479500	0.058900
C81	C8	0.775800	0.449400	0.051200
C91	C9	0.797700	0.435700	0.022900
C101	C10	0.488800	0.838400	0.566200
C111	C11	0.479400	0.821000	0.608000
C121	C12	0.471300	0.789900	0.624300
C131	C13	0.462100	0.774500	0.659900
C141	C14	0.460600	0.788400	0.681600
C151	C15	0.470100	0.821300	0.661900
C161	C16	0.479500	0.838300	0.623300
C171	C17	0.449400	0.775800	0.723600
C181	C18	0.435700	0.797700	0.743700
C191	C19	0.106600	0.566200	0.838400
C201	C20	0.091600	0.608000	0.821000
C211	C21	0.114500	0.624300	0.789900
C221	C22	0.103500	0.659900	0.774500
C231	C23	0.069400	0.681600	0.788400
C241	C24	0.046700	0.661900	0.821300
C251	C25	0.058900	0.623300	0.838300
C261	C26	0.051200	0.723600	0.775800
C271	C27	0.022900	0.743700	0.797700
C281	C28	0.566200	0.106600	0.488800
C291	C29	0.608000	0.091600	0.479400
C301	C30	0.624300	0.114500	0.471300
C311	C31	0.659900	0.103500	0.462100
C321	C32	0.681600	0.069400	0.460600
C331	C33	0.661900	0.046700	0.470100
C341	C34	0.623300	0.058900	0.479500
C351	C35	0.723600	0.051200	0.449400
C361	C36	0.743700	0.022900	0.435700
C371	C37	0.838400	0.106600	0.566200
C381	C38	0.821000	0.091600	0.608000
C391	C39	0.789900	0.114500	0.624300
C401	C40	0.774500	0.103500	0.659900
C411	C41	0.788400	0.069400	0.681600
C421	C42	0.821300	0.046700	0.661900
C431	C43	0.838300	0.058900	0.623300
C441	C44	0.775800	0.051200	0.723600
C451	C45	0.797700	0.022900	0.743700
C461	C46	0.488800	0.566200	0.106600
C471	C47	0.479400	0.608000	0.091600
C481	C48	0.471300	0.624300	0.114500
C491	C49	0.462100	0.659900	0.103500
C501	C50	0.460600	0.681600	0.069400
C511	C51	0.470100	0.661900	0.046700
C521	C52	0.479500	0.623300	0.058900
C531	C53	0.449400	0.723600	0.051200
C541	C54	0.435700	0.743700	0.022900
C551	C55	0.106600	0.838400	0.488800
C561	C56	0.091600	0.821000	0.479400
C571	C57	0.114500	0.789900	0.471300
C581	C58	0.103500	0.774500	0.462100
C591	C59	0.069400	0.788400	0.460600
C601	C60	0.046700	0.821300	0.470100
C611	C61	0.058900	0.838300	0.479500
C621	C62	0.051200	0.775800	0.449400
C631	C63	0.022900	0.797700	0.435700
C641	C64	0.566200	0.488800	0.838400
C651	C65	0.608000	0.479400	0.821000
C661	C66	0.624300	0.471300	0.789900
C671	C67	0.659900	0.462100	0.774500
C681	C68	0.681600	0.460600	0.788400
C691	C69	0.661900	0.470100	0.821300
C701	C70	0.623300	0.479500	0.838300
C711	C71	0.723600	0.449400	0.775800
C721	C72	0.743700	0.435700	0.797700
C731	C73	0.838400	0.566200	0.488800
C741	C74	0.821000	0.608000	0.479400
C751	C75	0.789900	0.624300	0.471300
C761	C76	0.774500	0.659900	0.462100
C771	C77	0.788400	0.681600	0.460600
C781	C78	0.821300	0.661900	0.470100
C791	C79	0.838300	0.623300	0.479500
C801	C80	0.775800	0.723600	0.449400
C811	C81	0.797700	0.743700	0.435700
C821	C82	0.488800	0.106600	0.838400
C831	C83	0.479400	0.091600	0.821000
C841	C84	0.471300	0.114500	0.789900
C851	C85	0.462100	0.103500	0.774500
C861	C86	0.460600	0.069400	0.788400
C871	C87	0.470100	0.046700	0.821300
C881	C88	0.479500	0.058900	0.838300
C891	C89	0.449400	0.051200	0.775800
C901	C90	0.435700	0.022900	0.797700
C911	C91	0.106600	0.488800	0.566200
C921	C92	0.091600	0.479400	0.608000
C931	C93	0.114500	0.471300	0.624300
C941	C94	0.103500	0.462100	0.659900
C951	C95	0.069400	0.460600	0.681600
C961	C96	0.046700	0.470100	0.661900
C971	C97	0.058900	0.479500	0.623300
C981	C98	0.051200	0.449400	0.723600
C991	C99	0.022900	0.435700	0.743700
C1001	C100	0.566200	0.838400	0.106600
C1011	C101	0.608000	0.821000	0.091600
C1021	C102	0.624300	0.789900	0.114500
C1031	C103	0.659900	0.774500	0.103500
C1041	C104	0.681600	0.788400	0.069400
C1051	C105	0.661900	0.821300	0.046700
C1061	C106	0.623300	0.838300	0.058900
C1071	C107	0.723600	0.775800	0.051200
C1081	C108	0.743700	0.797700	0.022900
C1091	C109	0.511200	0.161600	0.893400
C1101	C110	0.520600	0.179000	0.908400
C1111	C111	0.528700	0.210100	0.885500
C1121	C112	0.537900	0.225500	0.896500
C1131	C113	0.539400	0.211600	0.930600
C1141	C114	0.529900	0.178700	0.953300
C1151	C115	0.520500	0.161700	0.941100
C1161	C116	0.550600	0.224200	0.948800
C1171	C117	0.564300	0.202300	0.977100
C1181	C118	0.161600	0.511200	0.433800
C1191	C119	0.179000	0.520600	0.392000
C1201	C120	0.210100	0.528700	0.375700
C1211	C121	0.225500	0.537900	0.340100
C1221	C122	0.211600	0.539400	0.318400
C1231	C123	0.178700	0.529900	0.338100
C1241	C124	0.161700	0.520500	0.376700
C1251	C125	0.224200	0.550600	0.276400
C1261	C126	0.202300	0.564300	0.256300
C1271	C127	0.433800	0.893400	0.161600
C1281	C128	0.392000	0.908400	0.179000
C1291	C129	0.375700	0.885500	0.210100
C1301	C130	0.340100	0.896500	0.225500
C1311	C131	0.318400	0.930600	0.211600
C1321	C132	0.338100	0.953300	0.178700
C1331	C133	0.376700	0.941100	0.161700
C1341	C134	0.276400	0.948800	0.224200
C1351	C135	0.256300	0.977100	0.202300
C1361	C136	0.893400	0.433800	0.511200
C1371	C137	0.908400	0.392000	0.520600
C1381	C138	0.885500	0.375700	0.528700
C1391	C139	0.896500	0.340100	0.537900
C1401	C140	0.930600	0.318400	0.539400
C1411	C141	0.953300	0.338100	0.529900
C1421	C142	0.941100	0.376700	0.520500
C1431	C143	0.948800	0.276400	0.550600
C1441	C144	0.977100	0.256300	0.564300
C1451	C145	0.893400	0.161600	0.433800
C1461	C146	0.908400	0.179000	0.392000
C1471	C147	0.885500	0.210100	0.375700
C1481	C148	0.896500	0.225500	0.340100
C1491	C149	0.930600	0.211600	0.318400
C1501	C150	0.953300	0.178700	0.338100
C1511	C151	0.941100	0.161700	0.376700
C1521	C152	0.948800	0.224200	0.276400
C1531	C153	0.977100	0.202300	0.256300
C1541	C154	0.433800	0.511200	0.893400
C1551	C155	0.392000	0.520600	0.908400
C1561	C156	0.375700	0.528700	0.885500
C1571	C157	0.340100	0.537900	0.896500
C1581	C158	0.318400	0.539400	0.930600
C1591	C159	0.338100	0.529900	0.953300
C1601	C160	0.376700	0.520500	0.941100
C1611	C161	0.276400	0.550600	0.948800
C1621	C162	0.256300	0.564300	0.977100
C1631	C163	0.161600	0.893400	0.511200
C1641	C164	0.179000	0.908400	0.520600
C1651	C165	0.210100	0.885500	0.528700
C1661	C166	0.225500	0.896500	0.537900
C1671	C167	0.211600	0.930600	0.539400
C1681	C168	0.178700	0.953300	0.529900
C1691	C169	0.161700	0.941100	0.520500
C1701	C170	0.224200	0.948800	0.550600
C1711	C171	0.202300	0.977100	0.564300
C1721	C172	0.511200	0.433800	0.161600
C1731	C173	0.520600	0.392000	0.179000
C1741	C174	0.528700	0.375700	0.210100
C1751	C175	0.537900	0.340100	0.225500
C1761	C176	0.539400	0.318400	0.211600
C1771	C177	0.529900	0.338100	0.178700
C1781	C178	0.520500	0.376700	0.161700
C1791	C179	0.550600	0.276400	0.224200
C1801	C180	0.564300	0.256300	0.202300
C1811	C181	0.433800	0.161600	0.511200
C1821	C182	0.392000	0.179000	0.520600
C1831	C183	0.375700	0.210100	0.528700
C1841	C184	0.340100	0.225500	0.537900
C1851	C185	0.318400	0.211600	0.539400
C1861	C186	0.338100	0.178700	0.529900
C1871	C187	0.376700	0.161700	0.520500
C1881	C188	0.276400	0.224200	0.550600
C1891	C189	0.256300	0.202300	0.564300
C1901	C190	0.893400	0.511200	0.161600
C1911	C191	0.908400	0.520600	0.179000
C1921	C192	0.885500	0.528700	0.210100
C1931	C193	0.896500	0.537900	0.225500
C1941	C194	0.930600	0.539400	0.211600
C1951	C195	0.953300	0.529900	0.178700
C1961	C196	0.941100	0.520500	0.161700
C1971	C197	0.948800	0.550600	0.224200
C1981	C198	0.977100	0.564300	0.202300
C1991	C199	0.511200	0.893400	0.433800
C2001	C200	0.520600	0.908400	0.392000
C2011	C201	0.528700	0.885500	0.375700
C2021	C202	0.537900	0.896500	0.340100
C2031	C203	0.539400	0.930600	0.318400
C2041	C204	0.529900	0.953300	0.338100
C2051	C205	0.520500	0.941100	0.376700
C2061	C206	0.550600	0.948800	0.276400
C2071	C207	0.564300	0.977100	0.256300
C2081	C208	0.161600	0.433800	0.893400
C2091	C209	0.179000	0.392000	0.908400
C2101	C210	0.210100	0.375700	0.885500
C2111	C211	0.225500	0.340100	0.896500
C2121	C212	0.211600	0.318400	0.930600
C2131	C213	0.178700	0.338100	0.953300
C2141	C214	0.161700	0.376700	0.941100
C2151	C215	0.224200	0.276400	0.948800
C2161	C216	0.202300	0.256300	0.977100
C2171	C217	0.161600	0.511200	0.893400
C2181	C218	0.179000	0.520600	0.908400
C2191	C219	0.210100	0.528700	0.885500
C2201	C220	0.225500	0.537900	0.896500
C2211	C221	0.211600	0.539400	0.930600
C2221	C222	0.178700	0.529900	0.953300
C2231	C223	0.161700	0.520500	0.941100
C2241	C224	0.224200	0.550600	0.948800
C2251	C225	0.202300	0.564300	0.977100
C2261	C226	0.511200	0.161600	0.433800
C2271	C227	0.520600	0.179000	0.392000
C2281	C228	0.528700	0.210100	0.375700
C2291	C229	0.537900	0.225500	0.340100
C2301	C230	0.539400	0.211600	0.318400
C2311	C231	0.529900	0.178700	0.338100
C2321	C232	0.520500	0.161700	0.376700
C2331	C233	0.550600	0.224200	0.276400
C2341	C234	0.564300	0.202300	0.256300
C2351	C235	0.893400	0.433800	0.161600
C2361	C236	0.908400	0.392000	0.179000
C2371	C237	0.885500	0.375700	0.210100
C2381	C238	0.896500	0.340100	0.225500
C2391	C239	0.930600	0.318400	0.211600
C2401	C240	0.953300	0.338100	0.178700
C2411	C241	0.941100	0.376700	0.161700
C2421	C242	0.948800	0.276400	0.224200
C2431	C243	0.977100	0.256300	0.202300
C2441	C244	0.433800	0.893400	0.511200
C2451	C245	0.392000	0.908400	0.520600
C2461	C246	0.375700	0.885500	0.528700
C2471	C247	0.340100	0.896500	0.537900
C2481	C248	0.318400	0.930600	0.539400
C2491	C249	0.338100	0.953300	0.529900
C2501	C250	0.376700	0.941100	0.520500
C2511	C251	0.276400	0.948800	0.550600
C2521	C252	0.256300	0.977100	0.564300
C2531	C253	0.161600	0.893400	0.433800
C2541	C254	0.179000	0.908400	0.392000
C2551	C255	0.210100	0.885500	0.375700
C2561	C256	0.225500	0.896500	0.340100
C2571	C257	0.211600	0.930600	0.318400
C2581	C258	0.178700	0.953300	0.338100
C2591	C259	0.161700	0.941100	0.376700
C2601	C260	0.224200	0.948800	0.276400
C2611	C261	0.202300	0.977100	0.256300
C2621	C262	0.511200	0.433800	0.893400
C2631	C263	0.520600	0.392000	0.908400
C2641	C264	0.528700	0.375700	0.885500
C2651	C265	0.537900	0.340100	0.896500
C2661	C266	0.539400	0.318400	0.930600
C2671	C267	0.529900	0.338100	0.953300
C2681	C268	0.520500	0.376700	0.941100
C2691	C269	0.550600	0.276400	0.948800
C2701	C270	0.564300	0.256300	0.977100
C2711	C271	0.893400	0.161600	0.511200
C2721	C272	0.908400	0.179000	0.520600
C2731	C273	0.885500	0.210100	0.528700
C2741	C274	0.896500	0.225500	0.537900
C2751	C275	0.930600	0.211600	0.539400
C2761	C276	0.953300	0.178700	0.529900
C2771	C277	0.941100	0.161700	0.520500
C2781	C278	0.948800	0.224200	0.550600
C2791	C279	0.977100	0.202300	0.564300
C2801	C280	0.433800	0.511200	0.161600
C2811	C281	0.392000	0.520600	0.179000
C2821	C282	0.375700	0.528700	0.210100
C2831	C283	0.340100	0.537900	0.225500
C2841	C284	0.318400	0.539400	0.211600
C2851	C285	0.338100	0.529900	0.178700
C2861	C286	0.376700	0.520500	0.161700
C2871	C287	0.276400	0.550600	0.224200
C2881	C288	0.256300	0.564300	0.202300
C2891	C289	0.161600	0.433800	0.511200
C2901	C290	0.179000	0.392000	0.520600
C2911	C291	0.210100	0.375700	0.528700
C2921	C292	0.225500	0.340100	0.537900
C2931	C293	0.211600	0.318400	0.539400
C2941	C294	0.178700	0.338100	0.529900
C2951	C295	0.161700	0.376700	0.520500
C2961	C296	0.224200	0.276400	0.550600
C2971	C297	0.202300	0.256300	0.564300
C2981	C298	0.511200	0.893400	0.161600
C2991	C299	0.520600	0.908400	0.179000
C3001	C300	0.528700	0.885500	0.210100
C3011	C301	0.537900	0.896500	0.225500
C3021	C302	0.539400	0.930600	0.211600
C3031	C303	0.529900	0.953300	0.178700
C3041	C304	0.520500	0.941100	0.161700
C3051	C305	0.550600	0.948800	0.224200
C3061	C306	0.564300	0.977100	0.202300
C3071	C307	0.893400	0.511200	0.433800
C3081	C308	0.908400	0.520600	0.392000
C3091	C309	0.885500	0.528700	0.375700
C3101	C310	0.896500	0.537900	0.340100
C3111	C311	0.930600	0.539400	0.318400
C3121	C312	0.953300	0.529900	0.338100
C3131	C313	0.941100	0.520500	0.376700
C3141	C314	0.948800	0.550600	0.276400
C3151	C315	0.977100	0.564300	0.256300
C3161	C316	0.433800	0.161600	0.893400
C3171	C317	0.392000	0.179000	0.908400
C3181	C318	0.375700	0.210100	0.885500
C3191	C319	0.340100	0.225500	0.896500
C3201	C320	0.318400	0.211600	0.930600
C3211	C321	0.338100	0.178700	0.953300
C3221	C322	0.376700	0.161700	0.941100
C3231	C323	0.276400	0.224200	0.948800
C3241	C324	0.256300	0.202300	0.977100
C3251	C325	0.488800	0.838400	0.106600
C3261	C326	0.479400	0.821000	0.091600
C3271	C327	0.471300	0.789900	0.114500
C3281	C328	0.462100	0.774500	0.103500
C3291	C329	0.460600	0.788400	0.069400
C3301	C330	0.470100	0.821300	0.046700
C3311	C331	0.479500	0.838300	0.058900
C3321	C332	0.449400	0.775800	0.051200
C3331	C333	0.435700	0.797700	0.022900
C3341	C334	0.838400	0.488800	0.566200
C3351	C335	0.821000	0.479400	0.608000
C3361	C336	0.789900	0.471300	0.624300
C3371	C337	0.774500	0.462100	0.659900
C3381	C338	0.788400	0.460600	0.681600
C3391	C339	0.821300	0.470100	0.661900
C3401	C340	0.838300	0.479500	0.623300
C3411	C341	0.775800	0.449400	0.723600
C3421	C342	0.797700	0.435700	0.743700
C3431	C343	0.566200	0.106600	0.838400
C3441	C344	0.608000	0.091600	0.821000
C3451	C345	0.624300	0.114500	0.789900
C3461	C346	0.659900	0.103500	0.774500
C3471	C347	0.681600	0.069400	0.788400
C3481	C348	0.661900	0.046700	0.821300
C3491	C349	0.623300	0.058900	0.838300
C3501	C350	0.723600	0.051200	0.775800
C3511	C351	0.743700	0.022900	0.797700
C3521	C352	0.106600	0.566200	0.488800
C3531	C353	0.091600	0.608000	0.479400
C3541	C354	0.114500	0.624300	0.471300
C3551	C355	0.103500	0.659900	0.462100
C3561	C356	0.069400	0.681600	0.460600
C3571	C357	0.046700	0.661900	0.470100
C3581	C358	0.058900	0.623300	0.479500
C3591	C359	0.051200	0.723600	0.449400
C3601	C360	0.022900	0.743700	0.435700
C3611	C361	0.106600	0.838400	0.566200
C3621	C362	0.091600	0.821000	0.608000
C3631	C363	0.114500	0.789900	0.624300
C3641	C364	0.103500	0.774500	0.659900
C3651	C365	0.069400	0.788400	0.681600
C3661	C366	0.046700	0.821300	0.661900
C3671	C367	0.058900	0.838300	0.623300
C3681	C368	0.051200	0.775800	0.723600
C3691	C369	0.022900	0.797700	0.743700
C3701	C370	0.566200	0.488800	0.106600
C3711	C371	0.608000	0.479400	0.091600
C3721	C372	0.624300	0.471300	0.114500
C3731	C373	0.659900	0.462100	0.103500
C3741	C374	0.681600	0.460600	0.069400
C3751	C375	0.661900	0.470100	0.046700
C3761	C376	0.623300	0.479500	0.058900
C3771	C377	0.723600	0.449400	0.051200
C3781	C378	0.743700	0.435700	0.022900
C3791	C379	0.838400	0.106600	0.488800
C3801	C380	0.821000	0.091600	0.479400
C3811	C381	0.789900	0.114500	0.471300
C3821	C382	0.774500	0.103500	0.462100
C3831	C383	0.788400	0.069400	0.460600
C3841	C384	0.821300	0.046700	0.470100
C3851	C385	0.838300	0.058900	0.479500
C3861	C386	0.775800	0.051200	0.449400
C3871	C387	0.797700	0.022900	0.435700
C3881	C388	0.488800	0.566200	0.838400
C3891	C389	0.479400	0.608000	0.821000
C3901	C390	0.471300	0.624300	0.789900
C3911	C391	0.462100	0.659900	0.774500
C3921	C392	0.460600	0.681600	0.788400
C3931	C393	0.470100	0.661900	0.821300
C3941	C394	0.479500	0.623300	0.838300
C3951	C395	0.449400	0.723600	0.775800
C3961	C396	0.435700	0.743700	0.797700
C3971	C397	0.566200	0.838400	0.488800
C3981	C398	0.608000	0.821000	0.479400
C3991	C399	0.624300	0.789900	0.471300
C4001	C400	0.659900	0.774500	0.462100
C4011	C401	0.681600	0.788400	0.460600
C4021	C402	0.661900	0.821300	0.470100
C4031	C403	0.623300	0.838300	0.479500
C4041	C404	0.723600	0.775800	0.449400
C4051	C405	0.743700	0.797700	0.435700
C4061	C406	0.106600	0.488800	0.838400
C4071	C407	0.091600	0.479400	0.821000
C4081	C408	0.114500	0.471300	0.789900
C4091	C409	0.103500	0.462100	0.774500
C4101	C410	0.069400	0.460600	0.788400
C4111	C411	0.046700	0.470100	0.821300
C4121	C412	0.058900	0.479500	0.838300
C4131	C413	0.051200	0.449400	0.775800
C4141	C414	0.022900	0.435700	0.797700
C4151	C415	0.488800	0.106600	0.566200
C4161	C416	0.479400	0.091600	0.608000
C4171	C417	0.471300	0.114500	0.624300
C4181	C418	0.462100	0.103500	0.659900
C4191	C419	0.460600	0.069400	0.681600
C4201	C420	0.470100	0.046700	0.661900
C4211	C421	0.479500	0.058900	0.623300
C4221	C422	0.449400	0.051200	0.723600
C4231	C423	0.435700	0.022900	0.743700
C4241	C424	0.838400	0.566200	0.106600
C4251	C425	0.821000	0.608000	0.091600
C4261	C426	0.789900	0.624300	0.114500
C4271	C427	0.774500	0.659900	0.103500
C4281	C428	0.788400	0.681600	0.069400
C4291	C429	0.821300	0.661900	0.046700
C4301	C430	0.838300	0.623300	0.058900
C4311	C431	0.775800	0.723600	0.051200
C4321	C432	0.797700	0.743700	0.022900
C4331	C433	0.738500	0.456620	0.066380
C4341	C434	0.780600	0.429340	0.009460
C4351	C435	0.800800	0.418800	0.979600
C4361	C436	0.456620	0.738500	0.738500
C4371	C437	0.429340	0.780600	0.780600
C4381	C438	0.418800	0.800800	0.800800
C4391	C439	0.066380	0.738500	0.738500
C4401	C440	0.009460	0.780600	0.780600
C4411	C441	0.979600	0.800800	0.800800
C4421	C442	0.738500	0.066380	0.456620
C4431	C443	0.780600	0.009460	0.429340
C4441	C444	0.800800	0.979600	0.418800
C4451	C445	0.738500	0.066380	0.738500
C4461	C446	0.780600	0.009460	0.780600
C4471	C447	0.800800	0.979600	0.800800
C4481	C448	0.456620	0.738500	0.066380
C4491	C449	0.429340	0.780600	0.009460
C4501	C450	0.418800	0.800800	0.979600
C4511	C451	0.066380	0.738500	0.456620
C4521	C452	0.009460	0.780600	0.429340
C4531	C453	0.979600	0.800800	0.418800
C4541	C454	0.738500	0.456620	0.738500
C4551	C455	0.780600	0.429340	0.780600
C4561	C456	0.800800	0.418800	0.800800
C4571	C457	0.738500	0.738500	0.456620
C4581	C458	0.780600	0.780600	0.429340
C4591	C459	0.800800	0.800800	0.418800
C4601	C460	0.456620	0.066380	0.738500
C4611	C461	0.429340	0.009460	0.780600
C4621	C462	0.418800	0.979600	0.800800
C4631	C463	0.066380	0.456620	0.738500
C4641	C464	0.009460	0.429340	0.780600
C4651	C465	0.979600	0.418800	0.800800
C4661	C466	0.738500	0.738500	0.066380
C4671	C467	0.780600	0.780600	0.009460
C4681	C468	0.800800	0.800800	0.979600
C4691	C469	0.543380	0.261500	0.933620
C4701	C470	0.570660	0.219400	0.990540
C4711	C471	0.581200	0.199200	0.020400
C4721	C472	0.261500	0.543380	0.261500
C4731	C473	0.219400	0.570660	0.219400
C4741	C474	0.199200	0.581200	0.199200
C4751	C475	0.261500	0.933620	0.261500
C4761	C476	0.219400	0.990540	0.219400
C4771	C477	0.199200	0.020400	0.199200
C4781	C478	0.933620	0.261500	0.543380
C4791	C479	0.990540	0.219400	0.570660
C4801	C480	0.020400	0.199200	0.581200
C4811	C481	0.933620	0.261500	0.261500
C4821	C482	0.990540	0.219400	0.219400
C4831	C483	0.020400	0.199200	0.199200
C4841	C484	0.261500	0.543380	0.933620
C4851	C485	0.219400	0.570660	0.990540
C4861	C486	0.199200	0.581200	0.020400
C4871	C487	0.261500	0.933620	0.543380
C4881	C488	0.219400	0.990540	0.570660
C4891	C489	0.199200	0.020400	0.581200
C4901	C490	0.543380	0.261500	0.261500
C4911	C491	0.570660	0.219400	0.219400
C4921	C492	0.581200	0.199200	0.199200
C4931	C493	0.261500	0.261500	0.543380
C4941	C494	0.219400	0.219400	0.570660
C4951	C495	0.199200	0.199200	0.581200
C4961	C496	0.933620	0.543380	0.261500
C4971	C497	0.990540	0.570660	0.219400
C4981	C498	0.020400	0.581200	0.199200
C4991	C499	0.543380	0.933620	0.261500
C5001	C500	0.570660	0.990540	0.219400
C5011	C501	0.581200	0.020400	0.199200
C5021	C502	0.261500	0.261500	0.933620
C5031	C503	0.219400	0.219400	0.990540
C5041	C504	0.199200	0.199200	0.020400
N11	N1	0.838300	0.411100	0.960900
N21	N2	0.849200	0.399600	0.932600
N31	N3	0.411100	0.838300	0.789700
N41	N4	0.399600	0.849200	0.818600
N51	N5	0.960900	0.789700	0.838300
N61	N6	0.932600	0.818600	0.849200
N71	N7	0.789700	0.960900	0.411100
N81	N8	0.818600	0.932600	0.399600
N91	N9	0.838300	0.960900	0.789700
N101	N10	0.849200	0.932600	0.818600
N111	N11	0.411100	0.789700	0.960900
N121	N12	0.399600	0.818600	0.932600
N131	N13	0.960900	0.838300	0.411100
N141	N14	0.932600	0.849200	0.399600
N151	N15	0.789700	0.411100	0.838300
N161	N16	0.818600	0.399600	0.849200
N171	N17	0.838300	0.789700	0.411100
N181	N18	0.849200	0.818600	0.399600
N191	N19	0.411100	0.960900	0.838300
N201	N20	0.399600	0.932600	0.849200
N211	N21	0.960900	0.411100	0.789700
N221	N22	0.932600	0.399600	0.818600
N231	N23	0.789700	0.838300	0.960900
N241	N24	0.818600	0.849200	0.932600
N251	N25	0.588900	0.161700	0.039100
N261	N26	0.600400	0.150800	0.067400
N271	N27	0.161700	0.588900	0.210300
N281	N28	0.150800	0.600400	0.181400
N291	N29	0.210300	0.039100	0.161700
N301	N30	0.181400	0.067400	0.150800
N311	N31	0.039100	0.210300	0.588900
N321	N32	0.067400	0.181400	0.600400
N331	N33	0.039100	0.161700	0.210300
N341	N34	0.067400	0.150800	0.181400
N351	N35	0.210300	0.588900	0.039100
N361	N36	0.181400	0.600400	0.067400
N371	N37	0.161700	0.039100	0.588900
N381	N38	0.150800	0.067400	0.600400
N391	N39	0.588900	0.210300	0.161700
N401	N40	0.600400	0.181400	0.150800
N411	N41	0.210300	0.161700	0.588900
N421	N42	0.181400	0.150800	0.600400
N431	N43	0.039100	0.588900	0.161700
N441	N44	0.067400	0.600400	0.150800
N451	N45	0.588900	0.039100	0.210300
N461	N46	0.600400	0.067400	0.181400
N471	N47	0.161700	0.210300	0.039100
N481	N48	0.150800	0.181400	0.067400
N491	N49	0.161700	0.588900	0.039100
N501	N50	0.150800	0.600400	0.067400
N511	N51	0.588900	0.161700	0.210300
N521	N52	0.600400	0.150800	0.181400
N531	N53	0.039100	0.210300	0.161700
N541	N54	0.067400	0.181400	0.150800
N551	N55	0.210300	0.039100	0.588900
N561	N56	0.181400	0.067400	0.600400
N571	N57	0.161700	0.039100	0.210300
N581	N58	0.150800	0.067400	0.181400
N591	N59	0.588900	0.210300	0.039100
N601	N60	0.600400	0.181400	0.067400
N611	N61	0.039100	0.161700	0.588900
N621	N62	0.067400	0.150800	0.600400
N631	N63	0.210300	0.588900	0.161700
N641	N64	0.181400	0.600400	0.150800
N651	N65	0.161700	0.210300	0.588900
N661	N66	0.150800	0.181400	0.600400
N671	N67	0.588900	0.039100	0.161700
N681	N68	0.600400	0.067400	0.150800
N691	N69	0.039100	0.588900	0.210300
N701	N70	0.067400	0.600400	0.181400
N711	N71	0.210300	0.161700	0.039100
N721	N72	0.181400	0.150800	0.067400
N731	N73	0.411100	0.838300	0.960900
N741	N74	0.399600	0.849200	0.932600
N751	N75	0.838300	0.411100	0.789700
N761	N76	0.849200	0.399600	0.818600
N771	N77	0.789700	0.960900	0.838300
N781	N78	0.818600	0.932600	0.849200
N791	N79	0.960900	0.789700	0.411100
N801	N80	0.932600	0.818600	0.399600
N811	N81	0.960900	0.838300	0.789700
N821	N82	0.932600	0.849200	0.818600
N831	N83	0.789700	0.411100	0.960900
N841	N84	0.818600	0.399600	0.932600
N851	N85	0.838300	0.960900	0.411100
N861	N86	0.849200	0.932600	0.399600
N871	N87	0.411100	0.789700	0.838300
N881	N88	0.399600	0.818600	0.849200
N891	N89	0.789700	0.838300	0.411100
N901	N90	0.818600	0.849200	0.399600
N911	N91	0.960900	0.411100	0.838300
N921	N92	0.932600	0.399600	0.849200
N931	N93	0.411100	0.960900	0.789700
N941	N94	0.399600	0.932600	0.818600
N951	N95	0.838300	0.789700	0.960900
N961	N96	0.849200	0.818600	0.932600
O11	O1	0.816220	0.491120	0.138040
O21	O2	0.869700	0.491080	0.087800
O31	O3	0.491120	0.816220	0.554620
O41	O4	0.491080	0.869700	0.551420
O51	O5	0.138040	0.554620	0.816220
O61	O6	0.087800	0.551420	0.869700
O71	O7	0.554620	0.138040	0.491120
O81	O8	0.551420	0.087800	0.491080
O91	O9	0.816220	0.138040	0.554620
O101	O10	0.869700	0.087800	0.551420
O111	O11	0.491120	0.554620	0.138040
O121	O12	0.491080	0.551420	0.087800
O131	O13	0.138040	0.816220	0.491120
O141	O14	0.087800	0.869700	0.491080
O151	O15	0.554620	0.491120	0.816220
O161	O16	0.551420	0.491080	0.869700
O171	O17	0.816220	0.554620	0.491120
O181	O18	0.869700	0.551420	0.491080
O191	O19	0.491120	0.138040	0.816220
O201	O20	0.491080	0.087800	0.869700
O211	O21	0.138040	0.491120	0.554620
O221	O22	0.087800	0.491080	0.551420
O231	O23	0.554620	0.816220	0.138040
O241	O24	0.551420	0.869700	0.087800
O251	O25	0.508880	0.183780	0.861960
O261	O26	0.508920	0.130300	0.912200
O271	O27	0.183780	0.508880	0.445380
O281	O28	0.130300	0.508920	0.448580
O291	O29	0.445380	0.861960	0.183780
O301	O30	0.448580	0.912200	0.130300
O311	O31	0.861960	0.445380	0.508880
O321	O32	0.912200	0.448580	0.508920
O331	O33	0.861960	0.183780	0.445380
O341	O34	0.912200	0.130300	0.448580
O351	O35	0.445380	0.508880	0.861960
O361	O36	0.448580	0.508920	0.912200
O371	O37	0.183780	0.861960	0.508880
O381	O38	0.130300	0.912200	0.508920
O391	O39	0.508880	0.445380	0.183780
O401	O40	0.508920	0.448580	0.130300
O411	O41	0.445380	0.183780	0.508880
O421	O42	0.448580	0.130300	0.508920
O431	O43	0.861960	0.508880	0.183780
O441	O44	0.912200	0.508920	0.130300
O451	O45	0.508880	0.861960	0.445380
O461	O46	0.508920	0.912200	0.448580
O471	O47	0.183780	0.445380	0.861960
O481	O48	0.130300	0.448580	0.912200
O491	O49	0.183780	0.508880	0.861960
O501	O50	0.130300	0.508920	0.912200
O511	O51	0.508880	0.183780	0.445380
O521	O52	0.508920	0.130300	0.448580
O531	O53	0.861960	0.445380	0.183780
O541	O54	0.912200	0.448580	0.130300
O551	O55	0.445380	0.861960	0.508880
O561	O56	0.448580	0.912200	0.508920
O571	O57	0.183780	0.861960	0.445380
O581	O58	0.130300	0.912200	0.448580
O591	O59	0.508880	0.445380	0.861960
O601	O60	0.508920	0.448580	0.912200
O611	O61	0.861960	0.183780	0.508880
O621	O62	0.912200	0.130300	0.508920
O631	O63	0.445380	0.508880	0.183780
O641	O64	0.448580	0.508920	0.130300
O651	O65	0.183780	0.445380	0.508880
O661	O66	0.130300	0.448580	0.508920
O671	O67	0.508880	0.861960	0.183780
O681	O68	0.508920	0.912200	0.130300
O691	O69	0.861960	0.508880	0.445380
O701	O70	0.912200	0.508920	0.448580
O711	O71	0.445380	0.183780	0.861960
O721	O72	0.448580	0.130300	0.912200
O731	O73	0.491120	0.816220	0.138040
O741	O74	0.491080	0.869700	0.087800
O751	O75	0.816220	0.491120	0.554620
O761	O76	0.869700	0.491080	0.551420
O771	O77	0.554620	0.138040	0.816220
O781	O78	0.551420	0.087800	0.869700
O791	O79	0.138040	0.554620	0.491120
O801	O80	0.087800	0.551420	0.491080
O811	O81	0.138040	0.816220	0.554620
O821	O82	0.087800	0.869700	0.551420
O831	O83	0.554620	0.491120	0.138040
O841	O84	0.551420	0.491080	0.087800
O851	O85	0.816220	0.138040	0.491120
O861	O86	0.869700	0.087800	0.491080
O871	O87	0.491120	0.554620	0.816220
O881	O88	0.491080	0.551420	0.869700
O891	O89	0.554620	0.816220	0.491120
O901	O90	0.551420	0.869700	0.491080
O911	O91	0.138040	0.491120	0.816220
O921	O92	0.087800	0.491080	0.869700
O931	O93	0.491120	0.138040	0.554620
O941	O94	0.491080	0.087800	0.551420
O951	O95	0.816220	0.554620	0.138040
O961	O96	0.869700	0.551420	0.087800
O971	O97	0.940800	0.500000	0.059200
O981	O98	0.786200	0.500000	0.213800
O991	O99	0.500000	0.940800	0.500000
O1001	O100	0.500000	0.786200	0.500000
O1011	O101	0.059200	0.500000	0.940800
O1021	O102	0.213800	0.500000	0.786200
O1031	O103	0.500000	0.059200	0.500000
O1041	O104	0.500000	0.213800	0.500000
O1051	O105	0.940800	0.059200	0.500000
O1061	O106	0.786200	0.213800	0.500000
O1071	O107	0.500000	0.500000	0.059200
O1081	O108	0.500000	0.500000	0.213800
O1091	O109	0.059200	0.940800	0.500000
O1101	O110	0.213800	0.786200	0.500000
O1111	O111	0.500000	0.500000	0.940800
O1121	O112	0.500000	0.500000	0.786200
O1131	O113	0.940800	0.500000	0.500000
O1141	O114	0.786200	0.500000	0.500000
O1151	O115	0.500000	0.059200	0.940800
O1161	O116	0.500000	0.213800	0.786200
O1171	O117	0.059200	0.500000	0.500000
O1181	O118	0.213800	0.500000	0.500000
O1191	O119	0.500000	0.940800	0.059200
O1201	O120	0.500000	0.786200	0.213800
O1211	O121	0.913800	0.406200	0.913800
O1221	O122	0.913300	0.344700	0.913300
O1231	O123	0.406200	0.913800	0.766200
O1241	O124	0.344700	0.913300	0.828700
O1251	O125	0.913800	0.766200	0.913800
O1261	O126	0.913300	0.828700	0.913300
O1271	O127	0.766200	0.913800	0.406200
O1281	O128	0.828700	0.913300	0.344700
O1291	O129	0.913800	0.913800	0.766200
O1301	O130	0.913300	0.913300	0.828700
O1311	O131	0.406200	0.766200	0.913800
O1321	O132	0.344700	0.828700	0.913300
O1331	O133	0.913800	0.913800	0.406200
O1341	O134	0.913300	0.913300	0.344700
O1351	O135	0.766200	0.406200	0.913800
O1361	O136	0.828700	0.344700	0.913300
O1371	O137	0.913800	0.766200	0.406200
O1381	O138	0.913300	0.828700	0.344700
O1391	O139	0.406200	0.913800	0.913800
O1401	O140	0.344700	0.913300	0.913300
O1411	O141	0.913800	0.406200	0.766200
O1421	O142	0.913300	0.344700	0.828700
O1431	O143	0.766200	0.913800	0.913800
O1441	O144	0.828700	0.913300	0.913300
O1451	O145	0.593800	0.086200	0.086200
O1461	O146	0.655300	0.086700	0.086700
O1471	O147	0.086200	0.593800	0.233800
O1481	O148	0.086700	0.655300	0.171300
O1491	O149	0.233800	0.086200	0.086200
O1501	O150	0.171300	0.086700	0.086700
O1511	O151	0.086200	0.233800	0.593800
O1521	O152	0.086700	0.171300	0.655300
O1531	O153	0.086200	0.086200	0.233800
O1541	O154	0.086700	0.086700	0.171300
O1551	O155	0.233800	0.593800	0.086200
O1561	O156	0.171300	0.655300	0.086700
O1571	O157	0.086200	0.086200	0.593800
O1581	O158	0.086700	0.086700	0.655300
O1591	O159	0.593800	0.233800	0.086200
O1601	O160	0.655300	0.171300	0.086700
O1611	O161	0.233800	0.086200	0.593800
O1621	O162	0.171300	0.086700	0.655300
O1631	O163	0.086200	0.593800	0.086200
O1641	O164	0.086700	0.655300	0.086700
O1651	O165	0.593800	0.086200	0.233800
O1661	O166	0.655300	0.086700	0.171300
O1671	O167	0.086200	0.233800	0.086200
O1681	O168	0.086700	0.171300	0.086700
O1691	O169	0.871100	0.386700	0.871100
O1701	O170	0.386700	0.871100	0.871100
O1711	O171	0.871100	0.871100	0.871100
O1721	O172	0.871100	0.871100	0.386700
O1731	O173	0.613300	0.128900	0.128900
O1741	O174	0.128900	0.613300	0.128900
O1751	O175	0.128900	0.128900	0.128900
O1761	O176	0.128900	0.128900	0.613300
