data_ADASIJ_clean_PM
_symmetry_space_group_name_H-M	'P1'
_cell_length_a	29.330400
_cell_length_b	29.330400
_cell_length_c	29.330400
_cell_angle_alpha	60.000000
_cell_angle_beta	60.000000
_cell_angle_gamma	60.000000
_symmetry_Int_Tables_number 1

loop_
_symmetry_equiv_pos_as_xyz
'x,y,z'

loop_
_atom_site_label
_atom_site_type_symbol
_atom_site_fract_x
_atom_site_fract_y
_atom_site_fract_z
Cu11	Cu1	0.360490	0.001270	0.639510
Cu21	Cu2	0.270520	0.000520	0.729480
Cu31	Cu3	0.001270	0.360490	0.998730
Cu41	Cu4	0.000520	0.270520	0.999480
Cu51	Cu5	0.639510	0.998730	0.360490
Cu61	Cu6	0.729480	0.999480	0.270520
Cu71	Cu7	0.998730	0.639510	0.001270
Cu81	Cu8	0.999480	0.729480	0.000520
Cu91	Cu9	0.360490	0.639510	0.998730
Cu101	Cu10	0.270520	0.729480	0.999480
Cu111	Cu11	0.001270	0.998730	0.639510
Cu121	Cu12	0.000520	0.999480	0.729480
Cu131	Cu13	0.639510	0.360490	0.001270
Cu141	Cu14	0.729480	0.270520	0.000520
Cu151	Cu15	0.998730	0.001270	0.360490
Cu161	Cu16	0.999480	0.000520	0.270520
Cu171	Cu17	0.360490	0.998730	0.001270
Cu181	Cu18	0.270520	0.999480	0.000520
Cu191	Cu19	0.001270	0.639510	0.360490
Cu201	Cu20	0.000520	0.729480	0.270520
Cu211	Cu21	0.639510	0.001270	0.998730
Cu221	Cu22	0.729480	0.000520	0.999480
Cu231	Cu23	0.998730	0.360490	0.639510
Cu241	Cu24	0.999480	0.270520	0.729480
H11	H1	0.324800	0.833200	0.828800
H21	H2	0.457700	0.691300	0.821700
H31	H3	0.447300	0.826500	0.679300
H41	H4	0.519500	0.653500	0.740700
H51	H5	0.544800	0.668800	0.767000
H61	H6	0.622200	0.585200	0.740000
H71	H7	0.833200	0.324800	0.013200
H81	H8	0.691300	0.457700	0.029300
H91	H9	0.826500	0.447300	0.046900
H101	H10	0.653500	0.519500	0.086300
H111	H11	0.668800	0.544800	0.019400
H121	H12	0.585200	0.622200	0.052600
H131	H13	0.828800	0.013200	0.324800
H141	H14	0.821700	0.029300	0.457700
H151	H15	0.679300	0.046900	0.447300
H161	H16	0.740700	0.086300	0.519500
H171	H17	0.767000	0.019400	0.544800
H181	H18	0.740000	0.052600	0.622200
H191	H19	0.013200	0.828800	0.833200
H201	H20	0.029300	0.821700	0.691300
H211	H21	0.046900	0.679300	0.826500
H221	H22	0.086300	0.740700	0.653500
H231	H23	0.019400	0.767000	0.668800
H241	H24	0.052600	0.740000	0.585200
H251	H25	0.324800	0.828800	0.013200
H261	H26	0.457700	0.821700	0.029300
H271	H27	0.447300	0.679300	0.046900
H281	H28	0.519500	0.740700	0.086300
H291	H29	0.544800	0.767000	0.019400
H301	H30	0.622200	0.740000	0.052600
H311	H31	0.833200	0.013200	0.828800
H321	H32	0.691300	0.029300	0.821700
H331	H33	0.826500	0.046900	0.679300
H341	H34	0.653500	0.086300	0.740700
H351	H35	0.668800	0.019400	0.767000
H361	H36	0.585200	0.052600	0.740000
H371	H37	0.828800	0.324800	0.833200
H381	H38	0.821700	0.457700	0.691300
H391	H39	0.679300	0.447300	0.826500
H401	H40	0.740700	0.519500	0.653500
H411	H41	0.767000	0.544800	0.668800
H421	H42	0.740000	0.622200	0.585200
H431	H43	0.013200	0.833200	0.324800
H441	H44	0.029300	0.691300	0.457700
H451	H45	0.046900	0.826500	0.447300
H461	H46	0.086300	0.653500	0.519500
H471	H47	0.019400	0.668800	0.544800
H481	H48	0.052600	0.585200	0.622200
H491	H49	0.324800	0.013200	0.833200
H501	H50	0.457700	0.029300	0.691300
H511	H51	0.447300	0.046900	0.826500
H521	H52	0.519500	0.086300	0.653500
H531	H53	0.544800	0.019400	0.668800
H541	H54	0.622200	0.052600	0.585200
H551	H55	0.833200	0.828800	0.324800
H561	H56	0.691300	0.821700	0.457700
H571	H57	0.826500	0.679300	0.447300
H581	H58	0.653500	0.740700	0.519500
H591	H59	0.668800	0.767000	0.544800
H601	H60	0.585200	0.740000	0.622200
H611	H61	0.828800	0.833200	0.013200
H621	H62	0.821700	0.691300	0.029300
H631	H63	0.679300	0.826500	0.046900
H641	H64	0.740700	0.653500	0.086300
H651	H65	0.767000	0.668800	0.019400
H661	H66	0.740000	0.585200	0.052600
H671	H67	0.013200	0.324800	0.828800
H681	H68	0.029300	0.457700	0.821700
H691	H69	0.046900	0.447300	0.679300
H701	H70	0.086300	0.519500	0.740700
H711	H71	0.019400	0.544800	0.767000
H721	H72	0.052600	0.622200	0.740000
H731	H73	0.675200	0.166800	0.171200
H741	H74	0.542300	0.308700	0.178300
H751	H75	0.552700	0.173500	0.320700
H761	H76	0.480500	0.346500	0.259300
H771	H77	0.455200	0.331200	0.233000
H781	H78	0.377800	0.414800	0.260000
H791	H79	0.166800	0.675200	0.986800
H801	H80	0.308700	0.542300	0.970700
H811	H81	0.173500	0.552700	0.953100
H821	H82	0.346500	0.480500	0.913700
H831	H83	0.331200	0.455200	0.980600
H841	H84	0.414800	0.377800	0.947400
H851	H85	0.171200	0.986800	0.675200
H861	H86	0.178300	0.970700	0.542300
H871	H87	0.320700	0.953100	0.552700
H881	H88	0.259300	0.913700	0.480500
H891	H89	0.233000	0.980600	0.455200
H901	H90	0.260000	0.947400	0.377800
H911	H91	0.986800	0.171200	0.166800
H921	H92	0.970700	0.178300	0.308700
H931	H93	0.953100	0.320700	0.173500
H941	H94	0.913700	0.259300	0.346500
H951	H95	0.980600	0.233000	0.331200
H961	H96	0.947400	0.260000	0.414800
H971	H97	0.675200	0.171200	0.986800
H981	H98	0.542300	0.178300	0.970700
H991	H99	0.552700	0.320700	0.953100
H1001	H100	0.480500	0.259300	0.913700
H1011	H101	0.455200	0.233000	0.980600
H1021	H102	0.377800	0.260000	0.947400
H1031	H103	0.166800	0.986800	0.171200
H1041	H104	0.308700	0.970700	0.178300
H1051	H105	0.173500	0.953100	0.320700
H1061	H106	0.346500	0.913700	0.259300
H1071	H107	0.331200	0.980600	0.233000
H1081	H108	0.414800	0.947400	0.260000
H1091	H109	0.171200	0.675200	0.166800
H1101	H110	0.178300	0.542300	0.308700
H1111	H111	0.320700	0.552700	0.173500
H1121	H112	0.259300	0.480500	0.346500
H1131	H113	0.233000	0.455200	0.331200
H1141	H114	0.260000	0.377800	0.414800
H1151	H115	0.986800	0.166800	0.675200
H1161	H116	0.970700	0.308700	0.542300
H1171	H117	0.953100	0.173500	0.552700
H1181	H118	0.913700	0.346500	0.480500
H1191	H119	0.980600	0.331200	0.455200
H1201	H120	0.947400	0.414800	0.377800
H1211	H121	0.675200	0.986800	0.166800
H1221	H122	0.542300	0.970700	0.308700
H1231	H123	0.552700	0.953100	0.173500
H1241	H124	0.480500	0.913700	0.346500
H1251	H125	0.455200	0.980600	0.331200
H1261	H126	0.377800	0.947400	0.414800
H1271	H127	0.166800	0.171200	0.675200
H1281	H128	0.308700	0.178300	0.542300
H1291	H129	0.173500	0.320700	0.552700
H1301	H130	0.346500	0.259300	0.480500
H1311	H131	0.331200	0.233000	0.455200
H1321	H132	0.414800	0.260000	0.377800
H1331	H133	0.171200	0.166800	0.986800
H1341	H134	0.178300	0.308700	0.970700
H1351	H135	0.320700	0.173500	0.953100
H1361	H136	0.259300	0.346500	0.913700
H1371	H137	0.233000	0.331200	0.980600
H1381	H138	0.260000	0.414800	0.947400
H1391	H139	0.986800	0.675200	0.171200
H1401	H140	0.970700	0.542300	0.178300
H1411	H141	0.953100	0.552700	0.320700
H1421	H142	0.913700	0.480500	0.259300
H1431	H143	0.980600	0.455200	0.233000
H1441	H144	0.947400	0.377800	0.260000
C11	C1	0.384500	0.836700	0.752700
C21	C2	0.359500	0.812240	0.808540
C31	C3	0.385200	0.756800	0.835200
C41	C4	0.437800	0.728400	0.804000
C51	C5	0.460700	0.754700	0.747100
C61	C6	0.433500	0.809500	0.718500
C71	C7	0.357900	0.731900	0.897300
C81	C8	0.359000	0.896600	0.721200
C91	C9	0.540100	0.676700	0.732300
C101	C10	0.597400	0.664800	0.686200
C111	C11	0.633100	0.611100	0.703700
C121	C12	0.836700	0.384500	0.026100
C131	C13	0.812240	0.359500	0.019720
C141	C14	0.756800	0.385200	0.022800
C151	C15	0.728400	0.437800	0.029800
C161	C16	0.754700	0.460700	0.037500
C171	C17	0.809500	0.433500	0.038500
C181	C18	0.731900	0.357900	0.012900
C191	C19	0.896600	0.359000	0.023200
C201	C20	0.676700	0.540100	0.050900
C211	C21	0.664800	0.597400	0.051600
C221	C22	0.611100	0.633100	0.052100
C231	C23	0.752700	0.026100	0.384500
C241	C24	0.808540	0.019720	0.359500
C251	C25	0.835200	0.022800	0.385200
C261	C26	0.804000	0.029800	0.437800
C271	C27	0.747100	0.037500	0.460700
C281	C28	0.718500	0.038500	0.433500
C291	C29	0.897300	0.012900	0.357900
C301	C30	0.721200	0.023200	0.359000
C311	C31	0.732300	0.050900	0.540100
C321	C32	0.686200	0.051600	0.597400
C331	C33	0.703700	0.052100	0.633100
C341	C34	0.026100	0.752700	0.836700
C351	C35	0.019720	0.808540	0.812240
C361	C36	0.022800	0.835200	0.756800
C371	C37	0.029800	0.804000	0.728400
C381	C38	0.037500	0.747100	0.754700
C391	C39	0.038500	0.718500	0.809500
C401	C40	0.012900	0.897300	0.731900
C411	C41	0.023200	0.721200	0.896600
C421	C42	0.050900	0.732300	0.676700
C431	C43	0.051600	0.686200	0.664800
C441	C44	0.052100	0.703700	0.611100
C451	C45	0.384500	0.752700	0.026100
C461	C46	0.359500	0.808540	0.019720
C471	C47	0.385200	0.835200	0.022800
C481	C48	0.437800	0.804000	0.029800
C491	C49	0.460700	0.747100	0.037500
C501	C50	0.433500	0.718500	0.038500
C511	C51	0.357900	0.897300	0.012900
C521	C52	0.359000	0.721200	0.023200
C531	C53	0.540100	0.732300	0.050900
C541	C54	0.597400	0.686200	0.051600
C551	C55	0.633100	0.703700	0.052100
C561	C56	0.836700	0.026100	0.752700
C571	C57	0.812240	0.019720	0.808540
C581	C58	0.756800	0.022800	0.835200
C591	C59	0.728400	0.029800	0.804000
C601	C60	0.754700	0.037500	0.747100
C611	C61	0.809500	0.038500	0.718500
C621	C62	0.731900	0.012900	0.897300
C631	C63	0.896600	0.023200	0.721200
C641	C64	0.676700	0.050900	0.732300
C651	C65	0.664800	0.051600	0.686200
C661	C66	0.611100	0.052100	0.703700
C671	C67	0.752700	0.384500	0.836700
C681	C68	0.808540	0.359500	0.812240
C691	C69	0.835200	0.385200	0.756800
C701	C70	0.804000	0.437800	0.728400
C711	C71	0.747100	0.460700	0.754700
C721	C72	0.718500	0.433500	0.809500
C731	C73	0.897300	0.357900	0.731900
C741	C74	0.721200	0.359000	0.896600
C751	C75	0.732300	0.540100	0.676700
C761	C76	0.686200	0.597400	0.664800
C771	C77	0.703700	0.633100	0.611100
C781	C78	0.026100	0.836700	0.384500
C791	C79	0.019720	0.812240	0.359500
C801	C80	0.022800	0.756800	0.385200
C811	C81	0.029800	0.728400	0.437800
C821	C82	0.037500	0.754700	0.460700
C831	C83	0.038500	0.809500	0.433500
C841	C84	0.012900	0.731900	0.357900
C851	C85	0.023200	0.896600	0.359000
C861	C86	0.050900	0.676700	0.540100
C871	C87	0.051600	0.664800	0.597400
C881	C88	0.052100	0.611100	0.633100
C891	C89	0.384500	0.026100	0.836700
C901	C90	0.359500	0.019720	0.812240
C911	C91	0.385200	0.022800	0.756800
C921	C92	0.437800	0.029800	0.728400
C931	C93	0.460700	0.037500	0.754700
C941	C94	0.433500	0.038500	0.809500
C951	C95	0.357900	0.012900	0.731900
C961	C96	0.359000	0.023200	0.896600
C971	C97	0.540100	0.050900	0.676700
C981	C98	0.597400	0.051600	0.664800
C991	C99	0.633100	0.052100	0.611100
C1001	C100	0.836700	0.752700	0.384500
C1011	C101	0.812240	0.808540	0.359500
C1021	C102	0.756800	0.835200	0.385200
C1031	C103	0.728400	0.804000	0.437800
C1041	C104	0.754700	0.747100	0.460700
C1051	C105	0.809500	0.718500	0.433500
C1061	C106	0.731900	0.897300	0.357900
C1071	C107	0.896600	0.721200	0.359000
C1081	C108	0.676700	0.732300	0.540100
C1091	C109	0.664800	0.686200	0.597400
C1101	C110	0.611100	0.703700	0.633100
C1111	C111	0.752700	0.836700	0.026100
C1121	C112	0.808540	0.812240	0.019720
C1131	C113	0.835200	0.756800	0.022800
C1141	C114	0.804000	0.728400	0.029800
C1151	C115	0.747100	0.754700	0.037500
C1161	C116	0.718500	0.809500	0.038500
C1171	C117	0.897300	0.731900	0.012900
C1181	C118	0.721200	0.896600	0.023200
C1191	C119	0.732300	0.676700	0.050900
C1201	C120	0.686200	0.664800	0.051600
C1211	C121	0.703700	0.611100	0.052100
C1221	C122	0.026100	0.384500	0.752700
C1231	C123	0.019720	0.359500	0.808540
C1241	C124	0.022800	0.385200	0.835200
C1251	C125	0.029800	0.437800	0.804000
C1261	C126	0.037500	0.460700	0.747100
C1271	C127	0.038500	0.433500	0.718500
C1281	C128	0.012900	0.357900	0.897300
C1291	C129	0.023200	0.359000	0.721200
C1301	C130	0.050900	0.540100	0.732300
C1311	C131	0.051600	0.597400	0.686200
C1321	C132	0.052100	0.633100	0.703700
C1331	C133	0.615500	0.163300	0.247300
C1341	C134	0.640500	0.187760	0.191460
C1351	C135	0.614800	0.243200	0.164800
C1361	C136	0.562200	0.271600	0.196000
C1371	C137	0.539300	0.245300	0.252900
C1381	C138	0.566500	0.190500	0.281500
C1391	C139	0.642100	0.268100	0.102700
C1401	C140	0.641000	0.103400	0.278800
C1411	C141	0.459900	0.323300	0.267700
C1421	C142	0.402600	0.335200	0.313800
C1431	C143	0.366900	0.388900	0.296300
C1441	C144	0.163300	0.615500	0.973900
C1451	C145	0.187760	0.640500	0.980280
C1461	C146	0.243200	0.614800	0.977200
C1471	C147	0.271600	0.562200	0.970200
C1481	C148	0.245300	0.539300	0.962500
C1491	C149	0.190500	0.566500	0.961500
C1501	C150	0.268100	0.642100	0.987100
C1511	C151	0.103400	0.641000	0.976800
C1521	C152	0.323300	0.459900	0.949100
C1531	C153	0.335200	0.402600	0.948400
C1541	C154	0.388900	0.366900	0.947900
C1551	C155	0.247300	0.973900	0.615500
C1561	C156	0.191460	0.980280	0.640500
C1571	C157	0.164800	0.977200	0.614800
C1581	C158	0.196000	0.970200	0.562200
C1591	C159	0.252900	0.962500	0.539300
C1601	C160	0.281500	0.961500	0.566500
C1611	C161	0.102700	0.987100	0.642100
C1621	C162	0.278800	0.976800	0.641000
C1631	C163	0.267700	0.949100	0.459900
C1641	C164	0.313800	0.948400	0.402600
C1651	C165	0.296300	0.947900	0.366900
C1661	C166	0.973900	0.247300	0.163300
C1671	C167	0.980280	0.191460	0.187760
C1681	C168	0.977200	0.164800	0.243200
C1691	C169	0.970200	0.196000	0.271600
C1701	C170	0.962500	0.252900	0.245300
C1711	C171	0.961500	0.281500	0.190500
C1721	C172	0.987100	0.102700	0.268100
C1731	C173	0.976800	0.278800	0.103400
C1741	C174	0.949100	0.267700	0.323300
C1751	C175	0.948400	0.313800	0.335200
C1761	C176	0.947900	0.296300	0.388900
C1771	C177	0.615500	0.247300	0.973900
C1781	C178	0.640500	0.191460	0.980280
C1791	C179	0.614800	0.164800	0.977200
C1801	C180	0.562200	0.196000	0.970200
C1811	C181	0.539300	0.252900	0.962500
C1821	C182	0.566500	0.281500	0.961500
C1831	C183	0.642100	0.102700	0.987100
C1841	C184	0.641000	0.278800	0.976800
C1851	C185	0.459900	0.267700	0.949100
C1861	C186	0.402600	0.313800	0.948400
C1871	C187	0.366900	0.296300	0.947900
C1881	C188	0.163300	0.973900	0.247300
C1891	C189	0.187760	0.980280	0.191460
C1901	C190	0.243200	0.977200	0.164800
C1911	C191	0.271600	0.970200	0.196000
C1921	C192	0.245300	0.962500	0.252900
C1931	C193	0.190500	0.961500	0.281500
C1941	C194	0.268100	0.987100	0.102700
C1951	C195	0.103400	0.976800	0.278800
C1961	C196	0.323300	0.949100	0.267700
C1971	C197	0.335200	0.948400	0.313800
C1981	C198	0.388900	0.947900	0.296300
C1991	C199	0.247300	0.615500	0.163300
C2001	C200	0.191460	0.640500	0.187760
C2011	C201	0.164800	0.614800	0.243200
C2021	C202	0.196000	0.562200	0.271600
C2031	C203	0.252900	0.539300	0.245300
C2041	C204	0.281500	0.566500	0.190500
C2051	C205	0.102700	0.642100	0.268100
C2061	C206	0.278800	0.641000	0.103400
C2071	C207	0.267700	0.459900	0.323300
C2081	C208	0.313800	0.402600	0.335200
C2091	C209	0.296300	0.366900	0.388900
C2101	C210	0.973900	0.163300	0.615500
C2111	C211	0.980280	0.187760	0.640500
C2121	C212	0.977200	0.243200	0.614800
C2131	C213	0.970200	0.271600	0.562200
C2141	C214	0.962500	0.245300	0.539300
C2151	C215	0.961500	0.190500	0.566500
C2161	C216	0.987100	0.268100	0.642100
C2171	C217	0.976800	0.103400	0.641000
C2181	C218	0.949100	0.323300	0.459900
C2191	C219	0.948400	0.335200	0.402600
C2201	C220	0.947900	0.388900	0.366900
C2211	C221	0.615500	0.973900	0.163300
C2221	C222	0.640500	0.980280	0.187760
C2231	C223	0.614800	0.977200	0.243200
C2241	C224	0.562200	0.970200	0.271600
C2251	C225	0.539300	0.962500	0.245300
C2261	C226	0.566500	0.961500	0.190500
C2271	C227	0.642100	0.987100	0.268100
C2281	C228	0.641000	0.976800	0.103400
C2291	C229	0.459900	0.949100	0.323300
C2301	C230	0.402600	0.948400	0.335200
C2311	C231	0.366900	0.947900	0.388900
C2321	C232	0.163300	0.247300	0.615500
C2331	C233	0.187760	0.191460	0.640500
C2341	C234	0.243200	0.164800	0.614800
C2351	C235	0.271600	0.196000	0.562200
C2361	C236	0.245300	0.252900	0.539300
C2371	C237	0.190500	0.281500	0.566500
C2381	C238	0.268100	0.102700	0.642100
C2391	C239	0.103400	0.278800	0.641000
C2401	C240	0.323300	0.267700	0.459900
C2411	C241	0.335200	0.313800	0.402600
C2421	C242	0.388900	0.296300	0.366900
C2431	C243	0.247300	0.163300	0.973900
C2441	C244	0.191460	0.187760	0.980280
C2451	C245	0.164800	0.243200	0.977200
C2461	C246	0.196000	0.271600	0.970200
C2471	C247	0.252900	0.245300	0.962500
C2481	C248	0.281500	0.190500	0.961500
C2491	C249	0.102700	0.268100	0.987100
C2501	C250	0.278800	0.103400	0.976800
C2511	C251	0.267700	0.323300	0.949100
C2521	C252	0.313800	0.335200	0.948400
C2531	C253	0.296300	0.388900	0.947900
C2541	C254	0.973900	0.615500	0.247300
C2551	C255	0.980280	0.640500	0.191460
C2561	C256	0.977200	0.614800	0.164800
C2571	C257	0.970200	0.562200	0.196000
C2581	C258	0.962500	0.539300	0.252900
C2591	C259	0.961500	0.566500	0.281500
C2601	C260	0.987100	0.642100	0.102700
C2611	C261	0.976800	0.641000	0.278800
C2621	C262	0.949100	0.459900	0.267700
C2631	C263	0.948400	0.402600	0.313800
C2641	C264	0.947900	0.366900	0.296300
O11	O1	0.310700	0.921500	0.755700
O21	O2	0.384710	0.922910	0.675690
O31	O3	0.311720	0.754480	0.920480
O41	O4	0.387800	0.678400	0.920400
O51	O5	0.513300	0.731100	0.710900
O61	O6	0.921500	0.310700	0.012100
O71	O7	0.922910	0.384710	0.016690
O81	O8	0.754480	0.311720	0.013320
O91	O9	0.678400	0.387800	0.013400
O101	O10	0.731100	0.513300	0.044700
O111	O11	0.755700	0.012100	0.310700
O121	O12	0.675690	0.016690	0.384710
O131	O13	0.920480	0.013320	0.311720
O141	O14	0.920400	0.013400	0.387800
O151	O15	0.710900	0.044700	0.513300
O161	O16	0.012100	0.755700	0.921500
O171	O17	0.016690	0.675690	0.922910
O181	O18	0.013320	0.920480	0.754480
O191	O19	0.013400	0.920400	0.678400
O201	O20	0.044700	0.710900	0.731100
O211	O21	0.310700	0.755700	0.012100
O221	O22	0.384710	0.675690	0.016690
O231	O23	0.311720	0.920480	0.013320
O241	O24	0.387800	0.920400	0.013400
O251	O25	0.513300	0.710900	0.044700
O261	O26	0.921500	0.012100	0.755700
O271	O27	0.922910	0.016690	0.675690
O281	O28	0.754480	0.013320	0.920480
O291	O29	0.678400	0.013400	0.920400
O301	O30	0.731100	0.044700	0.710900
O311	O31	0.755700	0.310700	0.921500
O321	O32	0.675690	0.384710	0.922910
O331	O33	0.920480	0.311720	0.754480
O341	O34	0.920400	0.387800	0.678400
O351	O35	0.710900	0.513300	0.731100
O361	O36	0.012100	0.921500	0.310700
O371	O37	0.016690	0.922910	0.384710
O381	O38	0.013320	0.754480	0.311720
O391	O39	0.013400	0.678400	0.387800
O401	O40	0.044700	0.731100	0.513300
O411	O41	0.310700	0.012100	0.921500
O421	O42	0.384710	0.016690	0.922910
O431	O43	0.311720	0.013320	0.754480
O441	O44	0.387800	0.013400	0.678400
O451	O45	0.513300	0.044700	0.731100
O461	O46	0.921500	0.755700	0.310700
O471	O47	0.922910	0.675690	0.384710
O481	O48	0.754480	0.920480	0.311720
O491	O49	0.678400	0.920400	0.387800
O501	O50	0.731100	0.710900	0.513300
O511	O51	0.755700	0.921500	0.012100
O521	O52	0.675690	0.922910	0.016690
O531	O53	0.920480	0.754480	0.013320
O541	O54	0.920400	0.678400	0.013400
O551	O55	0.710900	0.731100	0.044700
O561	O56	0.012100	0.310700	0.755700
O571	O57	0.016690	0.384710	0.675690
O581	O58	0.013320	0.311720	0.920480
O591	O59	0.013400	0.387800	0.920400
O601	O60	0.044700	0.513300	0.710900
O611	O61	0.689300	0.078500	0.244300
O621	O62	0.615290	0.077090	0.324310
O631	O63	0.688280	0.245520	0.079520
O641	O64	0.612200	0.321600	0.079600
O651	O65	0.486700	0.268900	0.289100
O661	O66	0.078500	0.689300	0.987900
O671	O67	0.077090	0.615290	0.983310
O681	O68	0.245520	0.688280	0.986680
O691	O69	0.321600	0.612200	0.986600
O701	O70	0.268900	0.486700	0.955300
O711	O71	0.244300	0.987900	0.689300
O721	O72	0.324310	0.983310	0.615290
O731	O73	0.079520	0.986680	0.688280
O741	O74	0.079600	0.986600	0.612200
O751	O75	0.289100	0.955300	0.486700
O761	O76	0.987900	0.244300	0.078500
O771	O77	0.983310	0.324310	0.077090
O781	O78	0.986680	0.079520	0.245520
O791	O79	0.986600	0.079600	0.321600
O801	O80	0.955300	0.289100	0.268900
O811	O81	0.689300	0.244300	0.987900
O821	O82	0.615290	0.324310	0.983310
O831	O83	0.688280	0.079520	0.986680
O841	O84	0.612200	0.079600	0.986600
O851	O85	0.486700	0.289100	0.955300
O861	O86	0.078500	0.987900	0.244300
O871	O87	0.077090	0.983310	0.324310
O881	O88	0.245520	0.986680	0.079520
O891	O89	0.321600	0.986600	0.079600
O901	O90	0.268900	0.955300	0.289100
O911	O91	0.244300	0.689300	0.078500
O921	O92	0.324310	0.615290	0.077090
O931	O93	0.079520	0.688280	0.245520
O941	O94	0.079600	0.612200	0.321600
O951	O95	0.289100	0.486700	0.268900
O961	O96	0.987900	0.078500	0.689300
O971	O97	0.983310	0.077090	0.615290
O981	O98	0.986680	0.245520	0.688280
O991	O99	0.986600	0.321600	0.612200
O1001	O100	0.955300	0.268900	0.486700
O1011	O101	0.689300	0.987900	0.078500
O1021	O102	0.615290	0.983310	0.077090
O1031	O103	0.688280	0.986680	0.245520
O1041	O104	0.612200	0.986600	0.321600
O1051	O105	0.486700	0.955300	0.268900
O1061	O106	0.078500	0.244300	0.689300
O1071	O107	0.077090	0.324310	0.615290
O1081	O108	0.245520	0.079520	0.688280
O1091	O109	0.321600	0.079600	0.612200
O1101	O110	0.268900	0.289100	0.486700
O1111	O111	0.244300	0.078500	0.987900
O1121	O112	0.324310	0.077090	0.983310
O1131	O113	0.079520	0.245520	0.986680
O1141	O114	0.079600	0.321600	0.986600
O1151	O115	0.289100	0.268900	0.955300
O1161	O116	0.987900	0.689300	0.244300
O1171	O117	0.983310	0.615290	0.324310
O1181	O118	0.986680	0.688280	0.079520
O1191	O119	0.986600	0.612200	0.079600
O1201	O120	0.955300	0.486700	0.289100
