data_ADASEF_clean_PM
_symmetry_space_group_name_H-M	'P1'
_cell_length_a	38.459400
_cell_length_b	38.459400
_cell_length_c	38.459400
_cell_angle_alpha	60.000000
_cell_angle_beta	60.000000
_cell_angle_gamma	60.000000
_symmetry_Int_Tables_number 1

loop_
_symmetry_equiv_pos_as_xyz
'x,y,z'

loop_
_atom_site_label
_atom_site_type_symbol
_atom_site_fract_x
_atom_site_fract_y
_atom_site_fract_z
Cu11	Cu1	0.724940	0.000000	0.275060
Cu21	Cu2	0.794520	0.000000	0.205480
Cu31	Cu3	0.000000	0.724940	0.000000
Cu41	Cu4	0.000000	0.794520	0.000000
Cu51	Cu5	0.275060	0.000000	0.724940
Cu61	Cu6	0.205480	0.000000	0.794520
Cu71	Cu7	0.000000	0.275060	0.000000
Cu81	Cu8	0.000000	0.205480	0.000000
Cu91	Cu9	0.724940	0.275060	0.000000
Cu101	Cu10	0.794520	0.205480	0.000000
Cu111	Cu11	0.000000	0.000000	0.275060
Cu121	Cu12	0.000000	0.000000	0.205480
Cu131	Cu13	0.275060	0.724940	0.000000
Cu141	Cu14	0.205480	0.794520	0.000000
Cu151	Cu15	0.000000	0.000000	0.724940
Cu161	Cu16	0.000000	0.000000	0.794520
Cu171	Cu17	0.724940	0.000000	0.000000
Cu181	Cu18	0.794520	0.000000	0.000000
Cu191	Cu19	0.000000	0.275060	0.724940
Cu201	Cu20	0.000000	0.205480	0.794520
Cu211	Cu21	0.275060	0.000000	0.000000
Cu221	Cu22	0.205480	0.000000	0.000000
Cu231	Cu23	0.000000	0.724940	0.275060
Cu241	Cu24	0.000000	0.794520	0.205480
Cu251	Cu25	0.609900	0.088400	0.609900
Cu261	Cu26	0.088400	0.609900	0.691800
Cu271	Cu27	0.609900	0.691800	0.609900
Cu281	Cu28	0.691800	0.609900	0.088400
Cu291	Cu29	0.609900	0.609900	0.691800
Cu301	Cu30	0.088400	0.691800	0.609900
Cu311	Cu31	0.609900	0.609900	0.088400
Cu321	Cu32	0.691800	0.088400	0.609900
Cu331	Cu33	0.609900	0.691800	0.088400
Cu341	Cu34	0.088400	0.609900	0.609900
Cu351	Cu35	0.609900	0.088400	0.691800
Cu361	Cu36	0.691800	0.609900	0.609900
Cu371	Cu37	0.911600	0.390100	0.390100
Cu381	Cu38	0.390100	0.911600	0.308200
Cu391	Cu39	0.308200	0.390100	0.390100
Cu401	Cu40	0.390100	0.308200	0.911600
Cu411	Cu41	0.390100	0.390100	0.308200
Cu421	Cu42	0.308200	0.911600	0.390100
Cu431	Cu43	0.390100	0.390100	0.911600
Cu441	Cu44	0.911600	0.308200	0.390100
Cu451	Cu45	0.308200	0.390100	0.911600
Cu461	Cu46	0.390100	0.911600	0.390100
Cu471	Cu47	0.911600	0.390100	0.308200
Cu481	Cu48	0.390100	0.308200	0.390100
H11	H1	0.760400	0.027800	0.345800
H21	H2	0.687700	0.062900	0.457700
H31	H3	0.727000	0.041400	0.398800
H41	H4	0.027800	0.760400	0.866000
H51	H5	0.062900	0.687700	0.791700
H61	H6	0.041400	0.727000	0.832800
H71	H7	0.345800	0.866000	0.760400
H81	H8	0.457700	0.791700	0.687700
H91	H9	0.398800	0.832800	0.727000
H101	H10	0.866000	0.345800	0.027800
H111	H11	0.791700	0.457700	0.062900
H121	H12	0.832800	0.398800	0.041400
H131	H13	0.760400	0.345800	0.866000
H141	H14	0.687700	0.457700	0.791700
H151	H15	0.727000	0.398800	0.832800
H161	H16	0.027800	0.866000	0.345800
H171	H17	0.062900	0.791700	0.457700
H181	H18	0.041400	0.832800	0.398800
H191	H19	0.345800	0.760400	0.027800
H201	H20	0.457700	0.687700	0.062900
H211	H21	0.398800	0.727000	0.041400
H221	H22	0.866000	0.027800	0.760400
H231	H23	0.791700	0.062900	0.687700
H241	H24	0.832800	0.041400	0.727000
H251	H25	0.760400	0.866000	0.027800
H261	H26	0.687700	0.791700	0.062900
H271	H27	0.727000	0.832800	0.041400
H281	H28	0.027800	0.345800	0.760400
H291	H29	0.062900	0.457700	0.687700
H301	H30	0.041400	0.398800	0.727000
H311	H31	0.345800	0.027800	0.866000
H321	H32	0.457700	0.062900	0.791700
H331	H33	0.398800	0.041400	0.832800
H341	H34	0.866000	0.760400	0.345800
H351	H35	0.791700	0.687700	0.457700
H361	H36	0.832800	0.727000	0.398800
H371	H37	0.972200	0.239600	0.654200
H381	H38	0.937100	0.312300	0.542300
H391	H39	0.958600	0.273000	0.601200
H401	H40	0.239600	0.972200	0.134000
H411	H41	0.312300	0.937100	0.208300
H421	H42	0.273000	0.958600	0.167200
H431	H43	0.134000	0.654200	0.239600
H441	H44	0.208300	0.542300	0.312300
H451	H45	0.167200	0.601200	0.273000
H461	H46	0.654200	0.134000	0.972200
H471	H47	0.542300	0.208300	0.937100
H481	H48	0.601200	0.167200	0.958600
H491	H49	0.654200	0.239600	0.134000
H501	H50	0.542300	0.312300	0.208300
H511	H51	0.601200	0.273000	0.167200
H521	H52	0.134000	0.972200	0.654200
H531	H53	0.208300	0.937100	0.542300
H541	H54	0.167200	0.958600	0.601200
H551	H55	0.239600	0.654200	0.972200
H561	H56	0.312300	0.542300	0.937100
H571	H57	0.273000	0.601200	0.958600
H581	H58	0.972200	0.134000	0.239600
H591	H59	0.937100	0.208300	0.312300
H601	H60	0.958600	0.167200	0.273000
H611	H61	0.134000	0.239600	0.972200
H621	H62	0.208300	0.312300	0.937100
H631	H63	0.167200	0.273000	0.958600
H641	H64	0.654200	0.972200	0.239600
H651	H65	0.542300	0.937100	0.312300
H661	H66	0.601200	0.958600	0.273000
H671	H67	0.972200	0.654200	0.134000
H681	H68	0.937100	0.542300	0.208300
H691	H69	0.958600	0.601200	0.167200
H701	H70	0.239600	0.134000	0.654200
H711	H71	0.312300	0.208300	0.542300
H721	H72	0.273000	0.167200	0.601200
H731	H73	0.239600	0.972200	0.654200
H741	H74	0.312300	0.937100	0.542300
H751	H75	0.273000	0.958600	0.601200
H761	H76	0.972200	0.239600	0.134000
H771	H77	0.937100	0.312300	0.208300
H781	H78	0.958600	0.273000	0.167200
H791	H79	0.654200	0.134000	0.239600
H801	H80	0.542300	0.208300	0.312300
H811	H81	0.601200	0.167200	0.273000
H821	H82	0.134000	0.654200	0.972200
H831	H83	0.208300	0.542300	0.937100
H841	H84	0.167200	0.601200	0.958600
H851	H85	0.239600	0.654200	0.134000
H861	H86	0.312300	0.542300	0.208300
H871	H87	0.273000	0.601200	0.167200
H881	H88	0.972200	0.134000	0.654200
H891	H89	0.937100	0.208300	0.542300
H901	H90	0.958600	0.167200	0.601200
H911	H91	0.654200	0.239600	0.972200
H921	H92	0.542300	0.312300	0.937100
H931	H93	0.601200	0.273000	0.958600
H941	H94	0.134000	0.972200	0.239600
H951	H95	0.208300	0.937100	0.312300
H961	H96	0.167200	0.958600	0.273000
H971	H97	0.239600	0.134000	0.972200
H981	H98	0.312300	0.208300	0.937100
H991	H99	0.273000	0.167200	0.958600
H1001	H100	0.972200	0.654200	0.239600
H1011	H101	0.937100	0.542300	0.312300
H1021	H102	0.958600	0.601200	0.273000
H1031	H103	0.654200	0.972200	0.134000
H1041	H104	0.542300	0.937100	0.208300
H1051	H105	0.601200	0.958600	0.167200
H1061	H106	0.134000	0.239600	0.654200
H1071	H107	0.208300	0.312300	0.542300
H1081	H108	0.167200	0.273000	0.601200
H1091	H109	0.027800	0.760400	0.345800
H1101	H110	0.062900	0.687700	0.457700
H1111	H111	0.041400	0.727000	0.398800
H1121	H112	0.760400	0.027800	0.866000
H1131	H113	0.687700	0.062900	0.791700
H1141	H114	0.727000	0.041400	0.832800
H1151	H115	0.866000	0.345800	0.760400
H1161	H116	0.791700	0.457700	0.687700
H1171	H117	0.832800	0.398800	0.727000
H1181	H118	0.345800	0.866000	0.027800
H1191	H119	0.457700	0.791700	0.062900
H1201	H120	0.398800	0.832800	0.041400
H1211	H121	0.345800	0.760400	0.866000
H1221	H122	0.457700	0.687700	0.791700
H1231	H123	0.398800	0.727000	0.832800
H1241	H124	0.866000	0.027800	0.345800
H1251	H125	0.791700	0.062900	0.457700
H1261	H126	0.832800	0.041400	0.398800
H1271	H127	0.760400	0.345800	0.027800
H1281	H128	0.687700	0.457700	0.062900
H1291	H129	0.727000	0.398800	0.041400
H1301	H130	0.027800	0.866000	0.760400
H1311	H131	0.062900	0.791700	0.687700
H1321	H132	0.041400	0.832800	0.727000
H1331	H133	0.866000	0.760400	0.027800
H1341	H134	0.791700	0.687700	0.062900
H1351	H135	0.832800	0.727000	0.041400
H1361	H136	0.345800	0.027800	0.760400
H1371	H137	0.457700	0.062900	0.687700
H1381	H138	0.398800	0.041400	0.727000
H1391	H139	0.027800	0.345800	0.866000
H1401	H140	0.062900	0.457700	0.791700
H1411	H141	0.041400	0.398800	0.832800
H1421	H142	0.760400	0.866000	0.345800
H1431	H143	0.687700	0.791700	0.457700
H1441	H144	0.727000	0.832800	0.398800
H1451	H145	0.868700	0.015700	0.246900
H1461	H146	0.015700	0.868700	0.868700
H1471	H147	0.246900	0.868700	0.868700
H1481	H148	0.868700	0.246900	0.015700
H1491	H149	0.868700	0.246900	0.868700
H1501	H150	0.015700	0.868700	0.246900
H1511	H151	0.246900	0.868700	0.015700
H1521	H152	0.868700	0.015700	0.868700
H1531	H153	0.868700	0.868700	0.015700
H1541	H154	0.015700	0.246900	0.868700
H1551	H155	0.246900	0.015700	0.868700
H1561	H156	0.868700	0.868700	0.246900
H1571	H157	0.984300	0.131300	0.753100
H1581	H158	0.131300	0.984300	0.131300
H1591	H159	0.131300	0.753100	0.131300
H1601	H160	0.753100	0.131300	0.984300
H1611	H161	0.753100	0.131300	0.131300
H1621	H162	0.131300	0.984300	0.753100
H1631	H163	0.131300	0.753100	0.984300
H1641	H164	0.984300	0.131300	0.131300
H1651	H165	0.131300	0.131300	0.984300
H1661	H166	0.753100	0.984300	0.131300
H1671	H167	0.984300	0.753100	0.131300
H1681	H168	0.131300	0.131300	0.753100
C11	C1	0.811580	0.021380	0.293020
C21	C2	0.789370	0.026110	0.332290
C31	C3	0.792700	0.017500	0.273700
C41	C4	0.717400	0.058400	0.445800
C51	C5	0.740580	0.045720	0.410680
C61	C6	0.021380	0.811580	0.874020
C71	C7	0.026110	0.789370	0.852230
C81	C8	0.017500	0.792700	0.916100
C91	C9	0.058400	0.717400	0.778400
C101	C10	0.045720	0.740580	0.803020
C111	C11	0.293020	0.874020	0.811580
C121	C12	0.332290	0.852230	0.789370
C131	C13	0.273700	0.916100	0.792700
C141	C14	0.445800	0.778400	0.717400
C151	C15	0.410680	0.803020	0.740580
C161	C16	0.874020	0.293020	0.021380
C171	C17	0.852230	0.332290	0.026110
C181	C18	0.916100	0.273700	0.017500
C191	C19	0.778400	0.445800	0.058400
C201	C20	0.803020	0.410680	0.045720
C211	C21	0.811580	0.293020	0.874020
C221	C22	0.789370	0.332290	0.852230
C231	C23	0.792700	0.273700	0.916100
C241	C24	0.717400	0.445800	0.778400
C251	C25	0.740580	0.410680	0.803020
C261	C26	0.021380	0.874020	0.293020
C271	C27	0.026110	0.852230	0.332290
C281	C28	0.017500	0.916100	0.273700
C291	C29	0.058400	0.778400	0.445800
C301	C30	0.045720	0.803020	0.410680
C311	C31	0.293020	0.811580	0.021380
C321	C32	0.332290	0.789370	0.026110
C331	C33	0.273700	0.792700	0.017500
C341	C34	0.445800	0.717400	0.058400
C351	C35	0.410680	0.740580	0.045720
C361	C36	0.874020	0.021380	0.811580
C371	C37	0.852230	0.026110	0.789370
C381	C38	0.916100	0.017500	0.792700
C391	C39	0.778400	0.058400	0.717400
C401	C40	0.803020	0.045720	0.740580
C411	C41	0.811580	0.874020	0.021380
C421	C42	0.789370	0.852230	0.026110
C431	C43	0.792700	0.916100	0.017500
C441	C44	0.717400	0.778400	0.058400
C451	C45	0.740580	0.803020	0.045720
C461	C46	0.021380	0.293020	0.811580
C471	C47	0.026110	0.332290	0.789370
C481	C48	0.017500	0.273700	0.792700
C491	C49	0.058400	0.445800	0.717400
C501	C50	0.045720	0.410680	0.740580
C511	C51	0.293020	0.021380	0.874020
C521	C52	0.332290	0.026110	0.852230
C531	C53	0.273700	0.017500	0.916100
C541	C54	0.445800	0.058400	0.778400
C551	C55	0.410680	0.045720	0.803020
C561	C56	0.874020	0.811580	0.293020
C571	C57	0.852230	0.789370	0.332290
C581	C58	0.916100	0.792700	0.273700
C591	C59	0.778400	0.717400	0.445800
C601	C60	0.803020	0.740580	0.410680
C611	C61	0.978620	0.188420	0.706980
C621	C62	0.973890	0.210630	0.667710
C631	C63	0.982500	0.207300	0.726300
C641	C64	0.941600	0.282600	0.554200
C651	C65	0.954280	0.259420	0.589320
C661	C66	0.188420	0.978620	0.125980
C671	C67	0.210630	0.973890	0.147770
C681	C68	0.207300	0.982500	0.083900
C691	C69	0.282600	0.941600	0.221600
C701	C70	0.259420	0.954280	0.196980
C711	C71	0.125980	0.706980	0.188420
C721	C72	0.147770	0.667710	0.210630
C731	C73	0.083900	0.726300	0.207300
C741	C74	0.221600	0.554200	0.282600
C751	C75	0.196980	0.589320	0.259420
C761	C76	0.706980	0.125980	0.978620
C771	C77	0.667710	0.147770	0.973890
C781	C78	0.726300	0.083900	0.982500
C791	C79	0.554200	0.221600	0.941600
C801	C80	0.589320	0.196980	0.954280
C811	C81	0.706980	0.188420	0.125980
C821	C82	0.667710	0.210630	0.147770
C831	C83	0.726300	0.207300	0.083900
C841	C84	0.554200	0.282600	0.221600
C851	C85	0.589320	0.259420	0.196980
C861	C86	0.125980	0.978620	0.706980
C871	C87	0.147770	0.973890	0.667710
C881	C88	0.083900	0.982500	0.726300
C891	C89	0.221600	0.941600	0.554200
C901	C90	0.196980	0.954280	0.589320
C911	C91	0.188420	0.706980	0.978620
C921	C92	0.210630	0.667710	0.973890
C931	C93	0.207300	0.726300	0.982500
C941	C94	0.282600	0.554200	0.941600
C951	C95	0.259420	0.589320	0.954280
C961	C96	0.978620	0.125980	0.188420
C971	C97	0.973890	0.147770	0.210630
C981	C98	0.982500	0.083900	0.207300
C991	C99	0.941600	0.221600	0.282600
C1001	C100	0.954280	0.196980	0.259420
C1011	C101	0.125980	0.188420	0.978620
C1021	C102	0.147770	0.210630	0.973890
C1031	C103	0.083900	0.207300	0.982500
C1041	C104	0.221600	0.282600	0.941600
C1051	C105	0.196980	0.259420	0.954280
C1061	C106	0.706980	0.978620	0.188420
C1071	C107	0.667710	0.973890	0.210630
C1081	C108	0.726300	0.982500	0.207300
C1091	C109	0.554200	0.941600	0.282600
C1101	C110	0.589320	0.954280	0.259420
C1111	C111	0.978620	0.706980	0.125980
C1121	C112	0.973890	0.667710	0.147770
C1131	C113	0.982500	0.726300	0.083900
C1141	C114	0.941600	0.554200	0.221600
C1151	C115	0.954280	0.589320	0.196980
C1161	C116	0.188420	0.125980	0.706980
C1171	C117	0.210630	0.147770	0.667710
C1181	C118	0.207300	0.083900	0.726300
C1191	C119	0.282600	0.221600	0.554200
C1201	C120	0.259420	0.196980	0.589320
C1211	C121	0.188420	0.978620	0.706980
C1221	C122	0.210630	0.973890	0.667710
C1231	C123	0.207300	0.982500	0.726300
C1241	C124	0.282600	0.941600	0.554200
C1251	C125	0.259420	0.954280	0.589320
C1261	C126	0.978620	0.188420	0.125980
C1271	C127	0.973890	0.210630	0.147770
C1281	C128	0.982500	0.207300	0.083900
C1291	C129	0.941600	0.282600	0.221600
C1301	C130	0.954280	0.259420	0.196980
C1311	C131	0.706980	0.125980	0.188420
C1321	C132	0.667710	0.147770	0.210630
C1331	C133	0.726300	0.083900	0.207300
C1341	C134	0.554200	0.221600	0.282600
C1351	C135	0.589320	0.196980	0.259420
C1361	C136	0.125980	0.706980	0.978620
C1371	C137	0.147770	0.667710	0.973890
C1381	C138	0.083900	0.726300	0.982500
C1391	C139	0.221600	0.554200	0.941600
C1401	C140	0.196980	0.589320	0.954280
C1411	C141	0.188420	0.706980	0.125980
C1421	C142	0.210630	0.667710	0.147770
C1431	C143	0.207300	0.726300	0.083900
C1441	C144	0.282600	0.554200	0.221600
C1451	C145	0.259420	0.589320	0.196980
C1461	C146	0.978620	0.125980	0.706980
C1471	C147	0.973890	0.147770	0.667710
C1481	C148	0.982500	0.083900	0.726300
C1491	C149	0.941600	0.221600	0.554200
C1501	C150	0.954280	0.196980	0.589320
C1511	C151	0.706980	0.188420	0.978620
C1521	C152	0.667710	0.210630	0.973890
C1531	C153	0.726300	0.207300	0.982500
C1541	C154	0.554200	0.282600	0.941600
C1551	C155	0.589320	0.259420	0.954280
C1561	C156	0.125980	0.978620	0.188420
C1571	C157	0.147770	0.973890	0.210630
C1581	C158	0.083900	0.982500	0.207300
C1591	C159	0.221600	0.941600	0.282600
C1601	C160	0.196980	0.954280	0.259420
C1611	C161	0.188420	0.125980	0.978620
C1621	C162	0.210630	0.147770	0.973890
C1631	C163	0.207300	0.083900	0.982500
C1641	C164	0.282600	0.221600	0.941600
C1651	C165	0.259420	0.196980	0.954280
C1661	C166	0.978620	0.706980	0.188420
C1671	C167	0.973890	0.667710	0.210630
C1681	C168	0.982500	0.726300	0.207300
C1691	C169	0.941600	0.554200	0.282600
C1701	C170	0.954280	0.589320	0.259420
C1711	C171	0.706980	0.978620	0.125980
C1721	C172	0.667710	0.973890	0.147770
C1731	C173	0.726300	0.982500	0.083900
C1741	C174	0.554200	0.941600	0.221600
C1751	C175	0.589320	0.954280	0.196980
C1761	C176	0.125980	0.188420	0.706980
C1771	C177	0.147770	0.210630	0.667710
C1781	C178	0.083900	0.207300	0.726300
C1791	C179	0.221600	0.282600	0.554200
C1801	C180	0.196980	0.259420	0.589320
C1811	C181	0.021380	0.811580	0.293020
C1821	C182	0.026110	0.789370	0.332290
C1831	C183	0.017500	0.792700	0.273700
C1841	C184	0.058400	0.717400	0.445800
C1851	C185	0.045720	0.740580	0.410680
C1861	C186	0.811580	0.021380	0.874020
C1871	C187	0.789370	0.026110	0.852230
C1881	C188	0.792700	0.017500	0.916100
C1891	C189	0.717400	0.058400	0.778400
C1901	C190	0.740580	0.045720	0.803020
C1911	C191	0.874020	0.293020	0.811580
C1921	C192	0.852230	0.332290	0.789370
C1931	C193	0.916100	0.273700	0.792700
C1941	C194	0.778400	0.445800	0.717400
C1951	C195	0.803020	0.410680	0.740580
C1961	C196	0.293020	0.874020	0.021380
C1971	C197	0.332290	0.852230	0.026110
C1981	C198	0.273700	0.916100	0.017500
C1991	C199	0.445800	0.778400	0.058400
C2001	C200	0.410680	0.803020	0.045720
C2011	C201	0.293020	0.811580	0.874020
C2021	C202	0.332290	0.789370	0.852230
C2031	C203	0.273700	0.792700	0.916100
C2041	C204	0.445800	0.717400	0.778400
C2051	C205	0.410680	0.740580	0.803020
C2061	C206	0.874020	0.021380	0.293020
C2071	C207	0.852230	0.026110	0.332290
C2081	C208	0.916100	0.017500	0.273700
C2091	C209	0.778400	0.058400	0.445800
C2101	C210	0.803020	0.045720	0.410680
C2111	C211	0.811580	0.293020	0.021380
C2121	C212	0.789370	0.332290	0.026110
C2131	C213	0.792700	0.273700	0.017500
C2141	C214	0.717400	0.445800	0.058400
C2151	C215	0.740580	0.410680	0.045720
C2161	C216	0.021380	0.874020	0.811580
C2171	C217	0.026110	0.852230	0.789370
C2181	C218	0.017500	0.916100	0.792700
C2191	C219	0.058400	0.778400	0.717400
C2201	C220	0.045720	0.803020	0.740580
C2211	C221	0.874020	0.811580	0.021380
C2221	C222	0.852230	0.789370	0.026110
C2231	C223	0.916100	0.792700	0.017500
C2241	C224	0.778400	0.717400	0.058400
C2251	C225	0.803020	0.740580	0.045720
C2261	C226	0.293020	0.021380	0.811580
C2271	C227	0.332290	0.026110	0.789370
C2281	C228	0.273700	0.017500	0.792700
C2291	C229	0.445800	0.058400	0.717400
C2301	C230	0.410680	0.045720	0.740580
C2311	C231	0.021380	0.293020	0.874020
C2321	C232	0.026110	0.332290	0.852230
C2331	C233	0.017500	0.273700	0.916100
C2341	C234	0.058400	0.445800	0.778400
C2351	C235	0.045720	0.410680	0.803020
C2361	C236	0.811580	0.874020	0.293020
C2371	C237	0.789370	0.852230	0.332290
C2381	C238	0.792700	0.916100	0.273700
C2391	C239	0.717400	0.778400	0.445800
C2401	C240	0.740580	0.803020	0.410680
C2411	C241	0.853400	0.019200	0.274000
C2421	C242	0.735400	0.065000	0.464200
C2431	C243	0.784400	0.039000	0.392200
C2441	C244	0.809700	0.028300	0.352300
C2451	C245	0.716800	0.060800	0.505600
C2461	C246	0.019200	0.853400	0.853400
C2471	C247	0.065000	0.735400	0.735400
C2481	C248	0.039000	0.784400	0.784400
C2491	C249	0.028300	0.809700	0.809700
C2501	C250	0.060800	0.716800	0.716800
C2511	C251	0.274000	0.853400	0.853400
C2521	C252	0.464200	0.735400	0.735400
C2531	C253	0.392200	0.784400	0.784400
C2541	C254	0.352300	0.809700	0.809700
C2551	C255	0.505600	0.716800	0.716800
C2561	C256	0.853400	0.274000	0.019200
C2571	C257	0.735400	0.464200	0.065000
C2581	C258	0.784400	0.392200	0.039000
C2591	C259	0.809700	0.352300	0.028300
C2601	C260	0.716800	0.505600	0.060800
C2611	C261	0.853400	0.274000	0.853400
C2621	C262	0.735400	0.464200	0.735400
C2631	C263	0.784400	0.392200	0.784400
C2641	C264	0.809700	0.352300	0.809700
C2651	C265	0.716800	0.505600	0.716800
C2661	C266	0.019200	0.853400	0.274000
C2671	C267	0.065000	0.735400	0.464200
C2681	C268	0.039000	0.784400	0.392200
C2691	C269	0.028300	0.809700	0.352300
C2701	C270	0.060800	0.716800	0.505600
C2711	C271	0.274000	0.853400	0.019200
C2721	C272	0.464200	0.735400	0.065000
C2731	C273	0.392200	0.784400	0.039000
C2741	C274	0.352300	0.809700	0.028300
C2751	C275	0.505600	0.716800	0.060800
C2761	C276	0.853400	0.019200	0.853400
C2771	C277	0.735400	0.065000	0.735400
C2781	C278	0.784400	0.039000	0.784400
C2791	C279	0.809700	0.028300	0.809700
C2801	C280	0.716800	0.060800	0.716800
C2811	C281	0.853400	0.853400	0.019200
C2821	C282	0.735400	0.735400	0.065000
C2831	C283	0.784400	0.784400	0.039000
C2841	C284	0.809700	0.809700	0.028300
C2851	C285	0.716800	0.716800	0.060800
C2861	C286	0.019200	0.274000	0.853400
C2871	C287	0.065000	0.464200	0.735400
C2881	C288	0.039000	0.392200	0.784400
C2891	C289	0.028300	0.352300	0.809700
C2901	C290	0.060800	0.505600	0.716800
C2911	C291	0.274000	0.019200	0.853400
C2921	C292	0.464200	0.065000	0.735400
C2931	C293	0.392200	0.039000	0.784400
C2941	C294	0.352300	0.028300	0.809700
C2951	C295	0.505600	0.060800	0.716800
C2961	C296	0.853400	0.853400	0.274000
C2971	C297	0.735400	0.735400	0.464200
C2981	C298	0.784400	0.784400	0.392200
C2991	C299	0.809700	0.809700	0.352300
C3001	C300	0.716800	0.716800	0.505600
C3011	C301	0.980800	0.146600	0.726000
C3021	C302	0.935000	0.264600	0.535800
C3031	C303	0.961000	0.215600	0.607800
C3041	C304	0.971700	0.190300	0.647700
C3051	C305	0.939200	0.283200	0.494400
C3061	C306	0.146600	0.980800	0.146600
C3071	C307	0.264600	0.935000	0.264600
C3081	C308	0.215600	0.961000	0.215600
C3091	C309	0.190300	0.971700	0.190300
C3101	C310	0.283200	0.939200	0.283200
C3111	C311	0.146600	0.726000	0.146600
C3121	C312	0.264600	0.535800	0.264600
C3131	C313	0.215600	0.607800	0.215600
C3141	C314	0.190300	0.647700	0.190300
C3151	C315	0.283200	0.494400	0.283200
C3161	C316	0.726000	0.146600	0.980800
C3171	C317	0.535800	0.264600	0.935000
C3181	C318	0.607800	0.215600	0.961000
C3191	C319	0.647700	0.190300	0.971700
C3201	C320	0.494400	0.283200	0.939200
C3211	C321	0.726000	0.146600	0.146600
C3221	C322	0.535800	0.264600	0.264600
C3231	C323	0.607800	0.215600	0.215600
C3241	C324	0.647700	0.190300	0.190300
C3251	C325	0.494400	0.283200	0.283200
C3261	C326	0.146600	0.980800	0.726000
C3271	C327	0.264600	0.935000	0.535800
C3281	C328	0.215600	0.961000	0.607800
C3291	C329	0.190300	0.971700	0.647700
C3301	C330	0.283200	0.939200	0.494400
C3311	C331	0.146600	0.726000	0.980800
C3321	C332	0.264600	0.535800	0.935000
C3331	C333	0.215600	0.607800	0.961000
C3341	C334	0.190300	0.647700	0.971700
C3351	C335	0.283200	0.494400	0.939200
C3361	C336	0.980800	0.146600	0.146600
C3371	C337	0.935000	0.264600	0.264600
C3381	C338	0.961000	0.215600	0.215600
C3391	C339	0.971700	0.190300	0.190300
C3401	C340	0.939200	0.283200	0.283200
C3411	C341	0.146600	0.146600	0.980800
C3421	C342	0.264600	0.264600	0.935000
C3431	C343	0.215600	0.215600	0.961000
C3441	C344	0.190300	0.190300	0.971700
C3451	C345	0.283200	0.283200	0.939200
C3461	C346	0.726000	0.980800	0.146600
C3471	C347	0.535800	0.935000	0.264600
C3481	C348	0.607800	0.961000	0.215600
C3491	C349	0.647700	0.971700	0.190300
C3501	C350	0.494400	0.939200	0.283200
C3511	C351	0.980800	0.726000	0.146600
C3521	C352	0.935000	0.535800	0.264600
C3531	C353	0.961000	0.607800	0.215600
C3541	C354	0.971700	0.647700	0.190300
C3551	C355	0.939200	0.494400	0.283200
C3561	C356	0.146600	0.146600	0.726000
C3571	C357	0.264600	0.264600	0.535800
C3581	C358	0.215600	0.215600	0.607800
C3591	C359	0.190300	0.190300	0.647700
C3601	C360	0.283200	0.283200	0.494400
N11	N1	0.674700	0.064500	0.530100
N21	N2	0.666700	0.068100	0.563700
N31	N3	0.064500	0.674700	0.730700
N41	N4	0.068100	0.666700	0.701500
N51	N5	0.530100	0.730700	0.674700
N61	N6	0.563700	0.701500	0.666700
N71	N7	0.730700	0.530100	0.064500
N81	N8	0.701500	0.563700	0.068100
N91	N9	0.674700	0.530100	0.730700
N101	N10	0.666700	0.563700	0.701500
N111	N11	0.064500	0.730700	0.530100
N121	N12	0.068100	0.701500	0.563700
N131	N13	0.530100	0.674700	0.064500
N141	N14	0.563700	0.666700	0.068100
N151	N15	0.730700	0.064500	0.674700
N161	N16	0.701500	0.068100	0.666700
N171	N17	0.674700	0.730700	0.064500
N181	N18	0.666700	0.701500	0.068100
N191	N19	0.064500	0.530100	0.674700
N201	N20	0.068100	0.563700	0.666700
N211	N21	0.530100	0.064500	0.730700
N221	N22	0.563700	0.068100	0.701500
N231	N23	0.730700	0.674700	0.530100
N241	N24	0.701500	0.666700	0.563700
N251	N25	0.935500	0.325300	0.469900
N261	N26	0.931900	0.333300	0.436300
N271	N27	0.325300	0.935500	0.269300
N281	N28	0.333300	0.931900	0.298500
N291	N29	0.269300	0.469900	0.325300
N301	N30	0.298500	0.436300	0.333300
N311	N31	0.469900	0.269300	0.935500
N321	N32	0.436300	0.298500	0.931900
N331	N33	0.469900	0.325300	0.269300
N341	N34	0.436300	0.333300	0.298500
N351	N35	0.269300	0.935500	0.469900
N361	N36	0.298500	0.931900	0.436300
N371	N37	0.325300	0.469900	0.935500
N381	N38	0.333300	0.436300	0.931900
N391	N39	0.935500	0.269300	0.325300
N401	N40	0.931900	0.298500	0.333300
N411	N41	0.269300	0.325300	0.935500
N421	N42	0.298500	0.333300	0.931900
N431	N43	0.469900	0.935500	0.325300
N441	N44	0.436300	0.931900	0.333300
N451	N45	0.935500	0.469900	0.269300
N461	N46	0.931900	0.436300	0.298500
N471	N47	0.325300	0.269300	0.469900
N481	N48	0.333300	0.298500	0.436300
N491	N49	0.325300	0.935500	0.469900
N501	N50	0.333300	0.931900	0.436300
N511	N51	0.935500	0.325300	0.269300
N521	N52	0.931900	0.333300	0.298500
N531	N53	0.469900	0.269300	0.325300
N541	N54	0.436300	0.298500	0.333300
N551	N55	0.269300	0.469900	0.935500
N561	N56	0.298500	0.436300	0.931900
N571	N57	0.325300	0.469900	0.269300
N581	N58	0.333300	0.436300	0.298500
N591	N59	0.935500	0.269300	0.469900
N601	N60	0.931900	0.298500	0.436300
N611	N61	0.469900	0.325300	0.935500
N621	N62	0.436300	0.333300	0.931900
N631	N63	0.269300	0.935500	0.325300
N641	N64	0.298500	0.931900	0.333300
N651	N65	0.325300	0.269300	0.935500
N661	N66	0.333300	0.298500	0.931900
N671	N67	0.935500	0.469900	0.325300
N681	N68	0.931900	0.436300	0.333300
N691	N69	0.469900	0.935500	0.269300
N701	N70	0.436300	0.931900	0.298500
N711	N71	0.269300	0.325300	0.469900
N721	N72	0.298500	0.333300	0.436300
N731	N73	0.064500	0.674700	0.530100
N741	N74	0.068100	0.666700	0.563700
N751	N75	0.674700	0.064500	0.730700
N761	N76	0.666700	0.068100	0.701500
N771	N77	0.730700	0.530100	0.674700
N781	N78	0.701500	0.563700	0.666700
N791	N79	0.530100	0.730700	0.064500
N801	N80	0.563700	0.701500	0.068100
N811	N81	0.530100	0.674700	0.730700
N821	N82	0.563700	0.666700	0.701500
N831	N83	0.730700	0.064500	0.530100
N841	N84	0.701500	0.068100	0.563700
N851	N85	0.674700	0.530100	0.064500
N861	N86	0.666700	0.563700	0.068100
N871	N87	0.064500	0.730700	0.674700
N881	N88	0.068100	0.701500	0.666700
N891	N89	0.730700	0.674700	0.064500
N901	N90	0.701500	0.666700	0.068100
N911	N91	0.530100	0.064500	0.674700
N921	N92	0.563700	0.068100	0.666700
N931	N93	0.064500	0.530100	0.730700
N941	N94	0.068100	0.563700	0.701500
N951	N95	0.674700	0.730700	0.530100
N961	N96	0.666700	0.701500	0.563700
O11	O1	0.756690	0.009510	0.294810
O21	O2	0.814560	0.010860	0.233540
O31	O3	0.009510	0.756690	0.938990
O41	O4	0.010860	0.814560	0.941040
O51	O5	0.294810	0.938990	0.756690
O61	O6	0.233540	0.941040	0.814560
O71	O7	0.938990	0.294810	0.009510
O81	O8	0.941040	0.233540	0.010860
O91	O9	0.756690	0.294810	0.938990
O101	O10	0.814560	0.233540	0.941040
O111	O11	0.009510	0.938990	0.294810
O121	O12	0.010860	0.941040	0.233540
O131	O13	0.294810	0.756690	0.009510
O141	O14	0.233540	0.814560	0.010860
O151	O15	0.938990	0.009510	0.756690
O161	O16	0.941040	0.010860	0.814560
O171	O17	0.756690	0.938990	0.009510
O181	O18	0.814560	0.941040	0.010860
O191	O19	0.009510	0.294810	0.756690
O201	O20	0.010860	0.233540	0.814560
O211	O21	0.294810	0.009510	0.938990
O221	O22	0.233540	0.010860	0.941040
O231	O23	0.938990	0.756690	0.294810
O241	O24	0.941040	0.814560	0.233540
O251	O25	0.990490	0.243310	0.705190
O261	O26	0.989140	0.185440	0.766460
O271	O27	0.243310	0.990490	0.061010
O281	O28	0.185440	0.989140	0.058960
O291	O29	0.061010	0.705190	0.243310
O301	O30	0.058960	0.766460	0.185440
O311	O31	0.705190	0.061010	0.990490
O321	O32	0.766460	0.058960	0.989140
O331	O33	0.705190	0.243310	0.061010
O341	O34	0.766460	0.185440	0.058960
O351	O35	0.061010	0.990490	0.705190
O361	O36	0.058960	0.989140	0.766460
O371	O37	0.243310	0.705190	0.990490
O381	O38	0.185440	0.766460	0.989140
O391	O39	0.990490	0.061010	0.243310
O401	O40	0.989140	0.058960	0.185440
O411	O41	0.061010	0.243310	0.990490
O421	O42	0.058960	0.185440	0.989140
O431	O43	0.705190	0.990490	0.243310
O441	O44	0.766460	0.989140	0.185440
O451	O45	0.990490	0.705190	0.061010
O461	O46	0.989140	0.766460	0.058960
O471	O47	0.243310	0.061010	0.705190
O481	O48	0.185440	0.058960	0.766460
O491	O49	0.243310	0.990490	0.705190
O501	O50	0.185440	0.989140	0.766460
O511	O51	0.990490	0.243310	0.061010
O521	O52	0.989140	0.185440	0.058960
O531	O53	0.705190	0.061010	0.243310
O541	O54	0.766460	0.058960	0.185440
O551	O55	0.061010	0.705190	0.990490
O561	O56	0.058960	0.766460	0.989140
O571	O57	0.243310	0.705190	0.061010
O581	O58	0.185440	0.766460	0.058960
O591	O59	0.990490	0.061010	0.705190
O601	O60	0.989140	0.058960	0.766460
O611	O61	0.705190	0.243310	0.990490
O621	O62	0.766460	0.185440	0.989140
O631	O63	0.061010	0.990490	0.243310
O641	O64	0.058960	0.989140	0.185440
O651	O65	0.243310	0.061010	0.990490
O661	O66	0.185440	0.058960	0.989140
O671	O67	0.990490	0.705190	0.243310
O681	O68	0.989140	0.766460	0.185440
O691	O69	0.705190	0.990490	0.061010
O701	O70	0.766460	0.989140	0.058960
O711	O71	0.061010	0.243310	0.705190
O721	O72	0.058960	0.185440	0.766460
O731	O73	0.009510	0.756690	0.294810
O741	O74	0.010860	0.814560	0.233540
O751	O75	0.756690	0.009510	0.938990
O761	O76	0.814560	0.010860	0.941040
O771	O77	0.938990	0.294810	0.756690
O781	O78	0.941040	0.233540	0.814560
O791	O79	0.294810	0.938990	0.009510
O801	O80	0.233540	0.941040	0.010860
O811	O81	0.294810	0.756690	0.938990
O821	O82	0.233540	0.814560	0.941040
O831	O83	0.938990	0.009510	0.294810
O841	O84	0.941040	0.010860	0.233540
O851	O85	0.756690	0.294810	0.009510
O861	O86	0.814560	0.233540	0.010860
O871	O87	0.009510	0.938990	0.756690
O881	O88	0.010860	0.941040	0.814560
O891	O89	0.938990	0.756690	0.009510
O901	O90	0.941040	0.814560	0.010860
O911	O91	0.294810	0.009510	0.756690
O921	O92	0.233540	0.010860	0.814560
O931	O93	0.009510	0.294810	0.938990
O941	O94	0.010860	0.233540	0.941040
O951	O95	0.756690	0.938990	0.294810
O961	O96	0.814560	0.941040	0.233540
O971	O97	0.630800	0.107600	0.630800
O981	O98	0.107600	0.630800	0.630800
O991	O99	0.630800	0.630800	0.630800
O1001	O100	0.630800	0.630800	0.107600
O1011	O101	0.892400	0.369200	0.369200
O1021	O102	0.369200	0.892400	0.369200
O1031	O103	0.369200	0.369200	0.369200
O1041	O104	0.369200	0.369200	0.892400
