data_ADATIK_clean_PM
_symmetry_space_group_name_H-M	'P1'
_cell_length_a	41.557000
_cell_length_b	41.557000
_cell_length_c	41.639300
_cell_angle_alpha	119.935000
_cell_angle_beta	119.935000
_cell_angle_gamma	90.000000
_symmetry_Int_Tables_number 1

loop_
_symmetry_equiv_pos_as_xyz
'x,y,z'

loop_
_atom_site_label
_atom_site_type_symbol
_atom_site_fract_x
_atom_site_fract_y
_atom_site_fract_z
Cu11	Cu1	0.173970	0.205260	0.189040
Cu21	Cu2	0.231790	0.272870	0.252180
Cu31	Cu3	0.898290	0.619740	0.302480
Cu41	Cu4	0.313870	0.615340	0.215600
Cu51	Cu5	0.374990	0.603560	0.297660
Cu61	Cu6	0.015070	0.983780	0.189040
Cu71	Cu7	0.020390	0.979310	0.252180
Cu81	Cu8	0.404190	0.682740	0.302480
Cu91	Cu9	0.901730	0.600260	0.215600
Cu101	Cu10	0.922670	0.694100	0.297660
Cu111	Cu11	0.205260	0.015070	0.189040
Cu121	Cu12	0.272870	0.020390	0.252180
Cu131	Cu13	0.619740	0.404190	0.302480
Cu141	Cu14	0.615340	0.901730	0.215600
Cu151	Cu15	0.603560	0.922670	0.297660
Cu161	Cu16	0.983780	0.173970	0.189040
Cu171	Cu17	0.979310	0.231790	0.252180
Cu181	Cu18	0.682740	0.898290	0.302480
Cu191	Cu19	0.600260	0.313870	0.215600
Cu201	Cu20	0.694100	0.374990	0.297660
Cu211	Cu21	0.826030	0.794740	0.810960
Cu221	Cu22	0.768210	0.727130	0.747820
Cu231	Cu23	0.101710	0.380260	0.697520
Cu241	Cu24	0.686130	0.384660	0.784400
Cu251	Cu25	0.625010	0.396440	0.702340
Cu261	Cu26	0.984930	0.016220	0.810960
Cu271	Cu27	0.979610	0.020690	0.747820
Cu281	Cu28	0.595810	0.317260	0.697520
Cu291	Cu29	0.098270	0.399740	0.784400
Cu301	Cu30	0.077330	0.305900	0.702340
Cu311	Cu31	0.794740	0.984930	0.810960
Cu321	Cu32	0.727130	0.979610	0.747820
Cu331	Cu33	0.380260	0.595810	0.697520
Cu341	Cu34	0.384660	0.098270	0.784400
Cu351	Cu35	0.396440	0.077330	0.702340
Cu361	Cu36	0.016220	0.826030	0.810960
Cu371	Cu37	0.020690	0.768210	0.747820
Cu381	Cu38	0.317260	0.101710	0.697520
Cu391	Cu39	0.399740	0.686130	0.784400
Cu401	Cu40	0.305900	0.625010	0.702340
Cu411	Cu41	0.970060	0.190650	0.000000
Cu421	Cu42	0.959970	0.253260	0.000000
Cu431	Cu43	0.029940	0.809350	0.000000
Cu441	Cu44	0.040030	0.746740	0.000000
Cu451	Cu45	0.190650	0.029940	0.000000
Cu461	Cu46	0.253260	0.040030	0.000000
Cu471	Cu47	0.809350	0.970060	0.000000
Cu481	Cu48	0.746740	0.959970	0.000000
H11	H1	0.309500	0.241700	0.341000
H21	H2	0.226000	0.134900	0.234200
H31	H3	0.323900	0.144800	0.340000
H41	H4	0.434900	0.321000	0.469200
H51	H5	0.493300	0.349400	0.541200
H61	H6	0.457500	0.262000	0.545800
H71	H7	0.399100	0.233600	0.473800
H81	H8	0.089400	0.238400	0.109600
H91	H9	0.186900	0.333100	0.190000
H101	H10	0.083000	0.328300	0.095400
H111	H11	0.225700	0.430900	0.212200
H121	H12	0.270200	0.485400	0.235800
H131	H13	0.182200	0.494300	0.139400
H141	H14	0.137900	0.439900	0.116000
H151	H15	0.964600	0.216300	0.109400
H161	H16	0.943400	0.299800	0.195600
H171	H17	0.933200	0.303200	0.095400
H181	H18	0.909300	0.413100	0.250800
H191	H19	0.902700	0.474900	0.270400
H201	H20	0.923300	0.467900	0.182000
H211	H21	0.930000	0.406100	0.162600
H221	H22	0.366600	0.206300	0.403000
H231	H23	0.179200	0.386500	0.187000
H241	H24	0.919900	0.347800	0.142200
H251	H25	0.031500	0.099300	0.341000
H261	H26	0.008200	0.099300	0.234200
H271	H27	0.016100	0.195200	0.340000
H281	H28	0.034300	0.148200	0.469200
H291	H29	0.047900	0.191800	0.541200
H301	H30	0.088300	0.283800	0.545800
H311	H31	0.074700	0.240200	0.473800
H321	H32	0.020200	0.871200	0.109600
H331	H33	0.003100	0.856900	0.190000
H341	H34	0.012400	0.767100	0.095400
H351	H35	0.986500	0.781300	0.212200
H361	H36	0.965600	0.750400	0.235800
H371	H37	0.957200	0.645100	0.139400
H381	H38	0.978100	0.676100	0.116000
H391	H39	0.144800	0.893100	0.109400
H401	H40	0.252200	0.895800	0.195600
H411	H41	0.162200	0.792200	0.095400
H421	H42	0.341500	0.837700	0.250800
H431	H43	0.367700	0.795500	0.270400
H441	H44	0.258700	0.714100	0.182000
H451	H45	0.232600	0.756500	0.162600
H461	H46	0.036400	0.196700	0.403000
H471	H47	0.007800	0.800500	0.187000
H481	H48	0.222300	0.794400	0.142200
H491	H49	0.241700	0.031500	0.341000
H501	H50	0.134900	0.008200	0.234200
H511	H51	0.144800	0.016100	0.340000
H521	H52	0.321000	0.034300	0.469200
H531	H53	0.349400	0.047900	0.541200
H541	H54	0.262000	0.088300	0.545800
H551	H55	0.233600	0.074700	0.473800
H561	H56	0.238400	0.020200	0.109600
H571	H57	0.333100	0.003100	0.190000
H581	H58	0.328300	0.012400	0.095400
H591	H59	0.430900	0.986500	0.212200
H601	H60	0.485400	0.965600	0.235800
H611	H61	0.494300	0.957200	0.139400
H621	H62	0.439900	0.978100	0.116000
H631	H63	0.216300	0.144800	0.109400
H641	H64	0.299800	0.252200	0.195600
H651	H65	0.303200	0.162200	0.095400
H661	H66	0.413100	0.341500	0.250800
H671	H67	0.474900	0.367700	0.270400
H681	H68	0.467900	0.258700	0.182000
H691	H69	0.406100	0.232600	0.162600
H701	H70	0.206300	0.036400	0.403000
H711	H71	0.386500	0.007800	0.187000
H721	H72	0.347800	0.222300	0.142200
H731	H73	0.099300	0.309500	0.341000
H741	H74	0.099300	0.226000	0.234200
H751	H75	0.195200	0.323900	0.340000
H761	H76	0.148200	0.434900	0.469200
H771	H77	0.191800	0.493300	0.541200
H781	H78	0.283800	0.457500	0.545800
H791	H79	0.240200	0.399100	0.473800
H801	H80	0.871200	0.089400	0.109600
H811	H81	0.856900	0.186900	0.190000
H821	H82	0.767100	0.083000	0.095400
H831	H83	0.781300	0.225700	0.212200
H841	H84	0.750400	0.270200	0.235800
H851	H85	0.645100	0.182200	0.139400
H861	H86	0.676100	0.137900	0.116000
H871	H87	0.893100	0.964600	0.109400
H881	H88	0.895800	0.943400	0.195600
H891	H89	0.792200	0.933200	0.095400
H901	H90	0.837700	0.909300	0.250800
H911	H91	0.795500	0.902700	0.270400
H921	H92	0.714100	0.923300	0.182000
H931	H93	0.756500	0.930000	0.162600
H941	H94	0.196700	0.366600	0.403000
H951	H95	0.800500	0.179200	0.187000
H961	H96	0.794400	0.919900	0.142200
H971	H97	0.690500	0.758300	0.659000
H981	H98	0.774000	0.865100	0.765800
H991	H99	0.676100	0.855200	0.660000
H1001	H100	0.565100	0.679000	0.530800
H1011	H101	0.506700	0.650600	0.458800
H1021	H102	0.542500	0.738000	0.454200
H1031	H103	0.600900	0.766400	0.526200
H1041	H104	0.910600	0.761600	0.890400
H1051	H105	0.813100	0.666900	0.810000
H1061	H106	0.917000	0.671700	0.904600
H1071	H107	0.774300	0.569100	0.787800
H1081	H108	0.729800	0.514600	0.764200
H1091	H109	0.817800	0.505700	0.860600
H1101	H110	0.862100	0.560100	0.884000
H1111	H111	0.035400	0.783700	0.890600
H1121	H112	0.056600	0.700200	0.804400
H1131	H113	0.066800	0.696800	0.904600
H1141	H114	0.090700	0.586900	0.749200
H1151	H115	0.097300	0.525100	0.729600
H1161	H116	0.076700	0.532100	0.818000
H1171	H117	0.070000	0.593900	0.837400
H1181	H118	0.633400	0.793700	0.597000
H1191	H119	0.820800	0.613500	0.813000
H1201	H120	0.080100	0.652200	0.857800
H1211	H121	0.968500	0.900700	0.659000
H1221	H122	0.991800	0.900700	0.765800
H1231	H123	0.983900	0.804800	0.660000
H1241	H124	0.965700	0.851800	0.530800
H1251	H125	0.952100	0.808200	0.458800
H1261	H126	0.911700	0.716200	0.454200
H1271	H127	0.925300	0.759800	0.526200
H1281	H128	0.979800	0.128800	0.890400
H1291	H129	0.996900	0.143100	0.810000
H1301	H130	0.987600	0.232900	0.904600
H1311	H131	0.013500	0.218700	0.787800
H1321	H132	0.034400	0.249600	0.764200
H1331	H133	0.042800	0.354900	0.860600
H1341	H134	0.021900	0.323900	0.884000
H1351	H135	0.855200	0.106900	0.890600
H1361	H136	0.747800	0.104200	0.804400
H1371	H137	0.837800	0.207800	0.904600
H1381	H138	0.658500	0.162300	0.749200
H1391	H139	0.632300	0.204500	0.729600
H1401	H140	0.741300	0.285900	0.818000
H1411	H141	0.767400	0.243500	0.837400
H1421	H142	0.963600	0.803300	0.597000
H1431	H143	0.992200	0.199500	0.813000
H1441	H144	0.777700	0.205600	0.857800
H1451	H145	0.758300	0.968500	0.659000
H1461	H146	0.865100	0.991800	0.765800
H1471	H147	0.855200	0.983900	0.660000
H1481	H148	0.679000	0.965700	0.530800
H1491	H149	0.650600	0.952100	0.458800
H1501	H150	0.738000	0.911700	0.454200
H1511	H151	0.766400	0.925300	0.526200
H1521	H152	0.761600	0.979800	0.890400
H1531	H153	0.666900	0.996900	0.810000
H1541	H154	0.671700	0.987600	0.904600
H1551	H155	0.569100	0.013500	0.787800
H1561	H156	0.514600	0.034400	0.764200
H1571	H157	0.505700	0.042800	0.860600
H1581	H158	0.560100	0.021900	0.884000
H1591	H159	0.783700	0.855200	0.890600
H1601	H160	0.700200	0.747800	0.804400
H1611	H161	0.696800	0.837800	0.904600
H1621	H162	0.586900	0.658500	0.749200
H1631	H163	0.525100	0.632300	0.729600
H1641	H164	0.532100	0.741300	0.818000
H1651	H165	0.593900	0.767400	0.837400
H1661	H166	0.793700	0.963600	0.597000
H1671	H167	0.613500	0.992200	0.813000
H1681	H168	0.652200	0.777700	0.857800
H1691	H169	0.900700	0.690500	0.659000
H1701	H170	0.900700	0.774000	0.765800
H1711	H171	0.804800	0.676100	0.660000
H1721	H172	0.851800	0.565100	0.530800
H1731	H173	0.808200	0.506700	0.458800
H1741	H174	0.716200	0.542500	0.454200
H1751	H175	0.759800	0.600900	0.526200
H1761	H176	0.128800	0.910600	0.890400
H1771	H177	0.143100	0.813100	0.810000
H1781	H178	0.232900	0.917000	0.904600
H1791	H179	0.218700	0.774300	0.787800
H1801	H180	0.249600	0.729800	0.764200
H1811	H181	0.354900	0.817800	0.860600
H1821	H182	0.323900	0.862100	0.884000
H1831	H183	0.106900	0.035400	0.890600
H1841	H184	0.104200	0.056600	0.804400
H1851	H185	0.207800	0.066800	0.904600
H1861	H186	0.162300	0.090700	0.749200
H1871	H187	0.204500	0.097300	0.729600
H1881	H188	0.285900	0.076700	0.818000
H1891	H189	0.243500	0.070000	0.837400
H1901	H190	0.803300	0.633400	0.597000
H1911	H191	0.199500	0.820800	0.813000
H1921	H192	0.205600	0.080100	0.857800
C11	C1	0.260490	0.089260	0.259780
C21	C2	0.240280	0.209900	0.261840
C31	C3	0.300110	0.214110	0.326360
C41	C4	0.264180	0.190990	0.284260
C51	C5	0.250480	0.150650	0.262900
C61	C6	0.272710	0.133430	0.283640
C71	C7	0.308640	0.156550	0.325740
C81	C8	0.322330	0.196890	0.347100
C91	C9	0.375520	0.258590	0.418380
C101	C10	0.411570	0.274680	0.464760
C111	C11	0.439530	0.309070	0.484780
C121	C12	0.474190	0.325920	0.527540
C131	C13	0.480890	0.308390	0.550300
C141	C14	0.452940	0.274000	0.530280
C151	C15	0.418270	0.257140	0.487520
C161	C16	0.516600	0.323910	0.595020
C171	C17	0.165840	0.266930	0.179140
C181	C18	0.036710	0.258770	0.059660
C191	C19	0.101680	0.263340	0.118520
C201	C20	0.141560	0.283050	0.153160
C211	C21	0.159590	0.319600	0.166260
C221	C22	0.137750	0.336460	0.144740
C231	C23	0.097890	0.316760	0.110120
C241	C24	0.079850	0.280200	0.097000
C251	C25	0.146470	0.395220	0.143720
C261	C26	0.177600	0.430270	0.161840
C271	C27	0.216900	0.443780	0.197420
C281	C28	0.243290	0.476150	0.211400
C291	C29	0.230380	0.495000	0.189800
C301	C30	0.191110	0.481490	0.154220
C311	C31	0.164700	0.449120	0.140240
C321	C32	0.261800	0.528220	0.207640
C331	C33	0.965340	0.236690	0.181800
C341	C34	0.956520	0.244620	0.061040
C351	C35	0.957430	0.239310	0.119100
C361	C36	0.955270	0.255190	0.156020
C371	C37	0.944870	0.288940	0.170320
C381	C38	0.936630	0.306810	0.147700
C391	C39	0.938780	0.290930	0.110780
C401	C40	0.949180	0.257180	0.096480
C411	C41	0.923570	0.363990	0.194480
C421	C42	0.920290	0.403780	0.204860
C431	C43	0.912190	0.424220	0.236900
C441	C44	0.908240	0.460940	0.248480
C451	C45	0.912310	0.477210	0.228020
C461	C46	0.920390	0.456690	0.195980
C471	C47	0.924420	0.420040	0.184400
C481	C48	0.908160	0.514260	0.237320
C491	C49	0.999290	0.170520	0.259780
C501	C50	0.021560	0.051940	0.261840
C511	C51	0.026250	0.112250	0.326360
C521	C52	0.020080	0.093270	0.284260
C531	C53	0.012420	0.112250	0.262900
C541	C54	0.010930	0.150210	0.283640
C551	C55	0.017100	0.169190	0.325740
C561	C56	0.024770	0.150210	0.347100
C571	C57	0.042860	0.159790	0.418380
C581	C58	0.053190	0.190080	0.464760
C591	C59	0.045250	0.175710	0.484780
C601	C60	0.053350	0.201620	0.527540
C611	C61	0.069410	0.241910	0.550300
C621	C62	0.077340	0.256280	0.530280
C631	C63	0.069250	0.230380	0.487520
C641	C64	0.078420	0.271110	0.595020
C651	C65	0.013300	0.912210	0.179140
C661	C66	0.022950	0.800890	0.059660
C671	C67	0.016840	0.855180	0.118520
C681	C68	0.011600	0.870110	0.153160
C691	C69	0.006670	0.846660	0.166260
C701	C70	0.006990	0.808280	0.144740
C711	C71	0.012230	0.793360	0.110120
C721	C72	0.017150	0.816800	0.097000
C731	C73	0.997250	0.748500	0.143720
C741	C74	0.984240	0.731570	0.161840
C751	C75	0.980520	0.753640	0.197420
C761	C76	0.968110	0.735250	0.211400
C771	C77	0.959420	0.694800	0.189800
C781	C78	0.963110	0.672730	0.154220
C791	C79	0.975540	0.691120	0.140240
C801	C80	0.945840	0.679420	0.207640
C811	C81	0.216460	0.945110	0.181800
C821	C82	0.104520	0.816420	0.061040
C831	C83	0.161670	0.879790	0.119100
C841	C84	0.200750	0.900830	0.156020
C851	C85	0.225450	0.881380	0.170320
C861	C86	0.211070	0.840890	0.147700
C871	C87	0.172000	0.819850	0.110780
C881	C88	0.147300	0.839300	0.096480
C891	C89	0.270910	0.830490	0.194480
C901	C90	0.284570	0.801080	0.204860
C911	C91	0.324710	0.812680	0.236900
C921	C92	0.340240	0.787540	0.248480
C931	C93	0.315710	0.750810	0.228020
C941	C94	0.275590	0.739290	0.195980
C951	C95	0.259980	0.764360	0.184400
C961	C96	0.329160	0.723060	0.237320
C971	C97	0.089260	0.999290	0.259780
C981	C98	0.209900	0.021560	0.261840
C991	C99	0.214110	0.026250	0.326360
C1001	C100	0.190990	0.020080	0.284260
C1011	C101	0.150650	0.012420	0.262900
C1021	C102	0.133430	0.010930	0.283640
C1031	C103	0.156550	0.017100	0.325740
C1041	C104	0.196890	0.024770	0.347100
C1051	C105	0.258590	0.042860	0.418380
C1061	C106	0.274680	0.053190	0.464760
C1071	C107	0.309070	0.045250	0.484780
C1081	C108	0.325920	0.053350	0.527540
C1091	C109	0.308390	0.069410	0.550300
C1101	C110	0.274000	0.077340	0.530280
C1111	C111	0.257140	0.069250	0.487520
C1121	C112	0.323910	0.078420	0.595020
C1131	C113	0.266930	0.013300	0.179140
C1141	C114	0.258770	0.022950	0.059660
C1151	C115	0.263340	0.016840	0.118520
C1161	C116	0.283050	0.011600	0.153160
C1171	C117	0.319600	0.006670	0.166260
C1181	C118	0.336460	0.006990	0.144740
C1191	C119	0.316760	0.012230	0.110120
C1201	C120	0.280200	0.017150	0.097000
C1211	C121	0.395220	0.997250	0.143720
C1221	C122	0.430270	0.984240	0.161840
C1231	C123	0.443780	0.980520	0.197420
C1241	C124	0.476150	0.968110	0.211400
C1251	C125	0.495000	0.959420	0.189800
C1261	C126	0.481490	0.963110	0.154220
C1271	C127	0.449120	0.975540	0.140240
C1281	C128	0.528220	0.945840	0.207640
C1291	C129	0.236690	0.216460	0.181800
C1301	C130	0.244620	0.104520	0.061040
C1311	C131	0.239310	0.161670	0.119100
C1321	C132	0.255190	0.200750	0.156020
C1331	C133	0.288940	0.225450	0.170320
C1341	C134	0.306810	0.211070	0.147700
C1351	C135	0.290930	0.172000	0.110780
C1361	C136	0.257180	0.147300	0.096480
C1371	C137	0.363990	0.270910	0.194480
C1381	C138	0.403780	0.284570	0.204860
C1391	C139	0.424220	0.324710	0.236900
C1401	C140	0.460940	0.340240	0.248480
C1411	C141	0.477210	0.315710	0.228020
C1421	C142	0.456690	0.275590	0.195980
C1431	C143	0.420040	0.259980	0.184400
C1441	C144	0.514260	0.329160	0.237320
C1451	C145	0.170520	0.260490	0.259780
C1461	C146	0.051940	0.240280	0.261840
C1471	C147	0.112250	0.300110	0.326360
C1481	C148	0.093270	0.264180	0.284260
C1491	C149	0.112250	0.250480	0.262900
C1501	C150	0.150210	0.272710	0.283640
C1511	C151	0.169190	0.308640	0.325740
C1521	C152	0.150210	0.322330	0.347100
C1531	C153	0.159790	0.375520	0.418380
C1541	C154	0.190080	0.411570	0.464760
C1551	C155	0.175710	0.439530	0.484780
C1561	C156	0.201620	0.474190	0.527540
C1571	C157	0.241910	0.480890	0.550300
C1581	C158	0.256280	0.452940	0.530280
C1591	C159	0.230380	0.418270	0.487520
C1601	C160	0.271110	0.516600	0.595020
C1611	C161	0.912210	0.165840	0.179140
C1621	C162	0.800890	0.036710	0.059660
C1631	C163	0.855180	0.101680	0.118520
C1641	C164	0.870110	0.141560	0.153160
C1651	C165	0.846660	0.159590	0.166260
C1661	C166	0.808280	0.137750	0.144740
C1671	C167	0.793360	0.097890	0.110120
C1681	C168	0.816800	0.079850	0.097000
C1691	C169	0.748500	0.146470	0.143720
C1701	C170	0.731570	0.177600	0.161840
C1711	C171	0.753640	0.216900	0.197420
C1721	C172	0.735250	0.243290	0.211400
C1731	C173	0.694800	0.230380	0.189800
C1741	C174	0.672730	0.191110	0.154220
C1751	C175	0.691120	0.164700	0.140240
C1761	C176	0.679420	0.261800	0.207640
C1771	C177	0.945110	0.965340	0.181800
C1781	C178	0.816420	0.956520	0.061040
C1791	C179	0.879790	0.957430	0.119100
C1801	C180	0.900830	0.955270	0.156020
C1811	C181	0.881380	0.944870	0.170320
C1821	C182	0.840890	0.936630	0.147700
C1831	C183	0.819850	0.938780	0.110780
C1841	C184	0.839300	0.949180	0.096480
C1851	C185	0.830490	0.923570	0.194480
C1861	C186	0.801080	0.920290	0.204860
C1871	C187	0.812680	0.912190	0.236900
C1881	C188	0.787540	0.908240	0.248480
C1891	C189	0.750810	0.912310	0.228020
C1901	C190	0.739290	0.920390	0.195980
C1911	C191	0.764360	0.924420	0.184400
C1921	C192	0.723060	0.908160	0.237320
C1931	C193	0.739510	0.910740	0.740220
C1941	C194	0.759720	0.790100	0.738160
C1951	C195	0.699890	0.785890	0.673640
C1961	C196	0.735820	0.809010	0.715740
C1971	C197	0.749520	0.849350	0.737100
C1981	C198	0.727290	0.866570	0.716360
C1991	C199	0.691360	0.843450	0.674260
C2001	C200	0.677670	0.803110	0.652900
C2011	C201	0.624480	0.741410	0.581620
C2021	C202	0.588430	0.725320	0.535240
C2031	C203	0.560470	0.690930	0.515220
C2041	C204	0.525810	0.674080	0.472460
C2051	C205	0.519110	0.691610	0.449700
C2061	C206	0.547060	0.726000	0.469720
C2071	C207	0.581730	0.742860	0.512480
C2081	C208	0.483400	0.676090	0.404980
C2091	C209	0.834160	0.733070	0.820860
C2101	C210	0.963290	0.741230	0.940340
C2111	C211	0.898320	0.736660	0.881480
C2121	C212	0.858440	0.716950	0.846840
C2131	C213	0.840410	0.680400	0.833740
C2141	C214	0.862250	0.663540	0.855260
C2151	C215	0.902110	0.683240	0.889880
C2161	C216	0.920150	0.719800	0.903000
C2171	C217	0.853530	0.604780	0.856280
C2181	C218	0.822400	0.569730	0.838160
C2191	C219	0.783100	0.556220	0.802580
C2201	C220	0.756710	0.523850	0.788600
C2211	C221	0.769620	0.505000	0.810200
C2221	C222	0.808890	0.518510	0.845780
C2231	C223	0.835300	0.550880	0.859760
C2241	C224	0.738200	0.471780	0.792360
C2251	C225	0.034660	0.763310	0.818200
C2261	C226	0.043480	0.755380	0.938960
C2271	C227	0.042570	0.760690	0.880900
C2281	C228	0.044730	0.744810	0.843980
C2291	C229	0.055130	0.711060	0.829680
C2301	C230	0.063370	0.693190	0.852300
C2311	C231	0.061220	0.709070	0.889220
C2321	C232	0.050820	0.742820	0.903520
C2331	C233	0.076430	0.636010	0.805520
C2341	C234	0.079710	0.596220	0.795140
C2351	C235	0.087810	0.575780	0.763100
C2361	C236	0.091760	0.539060	0.751520
C2371	C237	0.087690	0.522790	0.771980
C2381	C238	0.079610	0.543310	0.804020
C2391	C239	0.075580	0.579960	0.815600
C2401	C240	0.091840	0.485740	0.762680
C2411	C241	0.000710	0.829480	0.740220
C2421	C242	0.978440	0.948060	0.738160
C2431	C243	0.973750	0.887750	0.673640
C2441	C244	0.979920	0.906730	0.715740
C2451	C245	0.987580	0.887750	0.737100
C2461	C246	0.989070	0.849790	0.716360
C2471	C247	0.982900	0.830810	0.674260
C2481	C248	0.975230	0.849790	0.652900
C2491	C249	0.957140	0.840210	0.581620
C2501	C250	0.946810	0.809920	0.535240
C2511	C251	0.954750	0.824290	0.515220
C2521	C252	0.946650	0.798380	0.472460
C2531	C253	0.930590	0.758090	0.449700
C2541	C254	0.922660	0.743720	0.469720
C2551	C255	0.930750	0.769620	0.512480
C2561	C256	0.921580	0.728890	0.404980
C2571	C257	0.986700	0.087790	0.820860
C2581	C258	0.977050	0.199110	0.940340
C2591	C259	0.983160	0.144820	0.881480
C2601	C260	0.988400	0.129890	0.846840
C2611	C261	0.993330	0.153340	0.833740
C2621	C262	0.993010	0.191720	0.855260
C2631	C263	0.987770	0.206640	0.889880
C2641	C264	0.982850	0.183200	0.903000
C2651	C265	0.002750	0.251500	0.856280
C2661	C266	0.015760	0.268430	0.838160
C2671	C267	0.019480	0.246360	0.802580
C2681	C268	0.031890	0.264750	0.788600
C2691	C269	0.040580	0.305200	0.810200
C2701	C270	0.036890	0.327270	0.845780
C2711	C271	0.024460	0.308880	0.859760
C2721	C272	0.054160	0.320580	0.792360
C2731	C273	0.783540	0.054890	0.818200
C2741	C274	0.895480	0.183580	0.938960
C2751	C275	0.838330	0.120210	0.880900
C2761	C276	0.799250	0.099170	0.843980
C2771	C277	0.774550	0.118620	0.829680
C2781	C278	0.788930	0.159110	0.852300
C2791	C279	0.828000	0.180150	0.889220
C2801	C280	0.852700	0.160700	0.903520
C2811	C281	0.729090	0.169510	0.805520
C2821	C282	0.715430	0.198920	0.795140
C2831	C283	0.675290	0.187320	0.763100
C2841	C284	0.659760	0.212460	0.751520
C2851	C285	0.684290	0.249190	0.771980
C2861	C286	0.724410	0.260710	0.804020
C2871	C287	0.740020	0.235640	0.815600
C2881	C288	0.670840	0.276940	0.762680
C2891	C289	0.910740	0.000710	0.740220
C2901	C290	0.790100	0.978440	0.738160
C2911	C291	0.785890	0.973750	0.673640
C2921	C292	0.809010	0.979920	0.715740
C2931	C293	0.849350	0.987580	0.737100
C2941	C294	0.866570	0.989070	0.716360
C2951	C295	0.843450	0.982900	0.674260
C2961	C296	0.803110	0.975230	0.652900
C2971	C297	0.741410	0.957140	0.581620
C2981	C298	0.725320	0.946810	0.535240
C2991	C299	0.690930	0.954750	0.515220
C3001	C300	0.674080	0.946650	0.472460
C3011	C301	0.691610	0.930590	0.449700
C3021	C302	0.726000	0.922660	0.469720
C3031	C303	0.742860	0.930750	0.512480
C3041	C304	0.676090	0.921580	0.404980
C3051	C305	0.733070	0.986700	0.820860
C3061	C306	0.741230	0.977050	0.940340
C3071	C307	0.736660	0.983160	0.881480
C3081	C308	0.716950	0.988400	0.846840
C3091	C309	0.680400	0.993330	0.833740
C3101	C310	0.663540	0.993010	0.855260
C3111	C311	0.683240	0.987770	0.889880
C3121	C312	0.719800	0.982850	0.903000
C3131	C313	0.604780	0.002750	0.856280
C3141	C314	0.569730	0.015760	0.838160
C3151	C315	0.556220	0.019480	0.802580
C3161	C316	0.523850	0.031890	0.788600
C3171	C317	0.505000	0.040580	0.810200
C3181	C318	0.518510	0.036890	0.845780
C3191	C319	0.550880	0.024460	0.859760
C3201	C320	0.471780	0.054160	0.792360
C3211	C321	0.763310	0.783540	0.818200
C3221	C322	0.755380	0.895480	0.938960
C3231	C323	0.760690	0.838330	0.880900
C3241	C324	0.744810	0.799250	0.843980
C3251	C325	0.711060	0.774550	0.829680
C3261	C326	0.693190	0.788930	0.852300
C3271	C327	0.709070	0.828000	0.889220
C3281	C328	0.742820	0.852700	0.903520
C3291	C329	0.636010	0.729090	0.805520
C3301	C330	0.596220	0.715430	0.795140
C3311	C331	0.575780	0.675290	0.763100
C3321	C332	0.539060	0.659760	0.751520
C3331	C333	0.522790	0.684290	0.771980
C3341	C334	0.543310	0.724410	0.804020
C3351	C335	0.579960	0.740020	0.815600
C3361	C336	0.485740	0.670840	0.762680
C3371	C337	0.829480	0.739510	0.740220
C3381	C338	0.948060	0.759720	0.738160
C3391	C339	0.887750	0.699890	0.673640
C3401	C340	0.906730	0.735820	0.715740
C3411	C341	0.887750	0.749520	0.737100
C3421	C342	0.849790	0.727290	0.716360
C3431	C343	0.830810	0.691360	0.674260
C3441	C344	0.849790	0.677670	0.652900
C3451	C345	0.840210	0.624480	0.581620
C3461	C346	0.809920	0.588430	0.535240
C3471	C347	0.824290	0.560470	0.515220
C3481	C348	0.798380	0.525810	0.472460
C3491	C349	0.758090	0.519110	0.449700
C3501	C350	0.743720	0.547060	0.469720
C3511	C351	0.769620	0.581730	0.512480
C3521	C352	0.728890	0.483400	0.404980
C3531	C353	0.087790	0.834160	0.820860
C3541	C354	0.199110	0.963290	0.940340
C3551	C355	0.144820	0.898320	0.881480
C3561	C356	0.129890	0.858440	0.846840
C3571	C357	0.153340	0.840410	0.833740
C3581	C358	0.191720	0.862250	0.855260
C3591	C359	0.206640	0.902110	0.889880
C3601	C360	0.183200	0.920150	0.903000
C3611	C361	0.251500	0.853530	0.856280
C3621	C362	0.268430	0.822400	0.838160
C3631	C363	0.246360	0.783100	0.802580
C3641	C364	0.264750	0.756710	0.788600
C3651	C365	0.305200	0.769620	0.810200
C3661	C366	0.327270	0.808890	0.845780
C3671	C367	0.308880	0.835300	0.859760
C3681	C368	0.320580	0.738200	0.792360
C3691	C369	0.054890	0.034660	0.818200
C3701	C370	0.183580	0.043480	0.938960
C3711	C371	0.120210	0.042570	0.880900
C3721	C372	0.099170	0.044730	0.843980
C3731	C373	0.118620	0.055130	0.829680
C3741	C374	0.159110	0.063370	0.852300
C3751	C375	0.180150	0.061220	0.889220
C3761	C376	0.160700	0.050820	0.903520
C3771	C377	0.169510	0.076430	0.805520
C3781	C378	0.198920	0.079710	0.795140
C3791	C379	0.187320	0.087810	0.763100
C3801	C380	0.212460	0.091760	0.751520
C3811	C381	0.249190	0.087690	0.771980
C3821	C382	0.260710	0.079610	0.804020
C3831	C383	0.235640	0.075580	0.815600
C3841	C384	0.276940	0.091840	0.762680
N11	N1	0.543970	0.358970	0.623940
N21	N2	0.570420	0.359820	0.659440
N31	N3	0.559300	0.325200	0.652200
N41	N4	0.525170	0.301270	0.611740
N51	N5	0.297610	0.544410	0.249020
N61	N6	0.318830	0.573530	0.254860
N71	N7	0.297000	0.574650	0.218600
N81	N8	0.262320	0.547520	0.189640
N91	N9	0.356300	0.219360	0.391240
N101	N10	0.156340	0.374230	0.160560
N111	N11	0.926150	0.340580	0.160620
N121	N12	0.901950	0.569350	0.263900
N131	N13	0.903870	0.540470	0.269340
N141	N14	0.908260	0.527760	0.213320
N151	N15	0.904300	0.562600	0.230400
N161	N16	0.079970	0.264970	0.623940
N171	N17	0.089020	0.299620	0.659440
N181	N18	0.092900	0.327000	0.652200
N191	N19	0.086570	0.310470	0.611740
N201	N20	0.951410	0.704610	0.249020
N211	N21	0.936030	0.681330	0.254860
N221	N22	0.921600	0.643950	0.218600
N231	N23	0.927320	0.642120	0.189640
N241	N24	0.034940	0.171880	0.391240
N251	N25	0.004220	0.786330	0.160560
N261	N26	0.234470	0.820040	0.160620
N271	N27	0.361950	0.694550	0.263900
N281	N28	0.365470	0.728870	0.269340
N291	N29	0.305060	0.685560	0.213320
N301	N30	0.326100	0.667800	0.230400
N311	N31	0.358970	0.079970	0.623940
N321	N32	0.359820	0.089020	0.659440
N331	N33	0.325200	0.092900	0.652200
N341	N34	0.301270	0.086570	0.611740
N351	N35	0.544410	0.951410	0.249020
N361	N36	0.573530	0.936030	0.254860
N371	N37	0.574650	0.921600	0.218600
N381	N38	0.547520	0.927320	0.189640
N391	N39	0.219360	0.034940	0.391240
N401	N40	0.374230	0.004220	0.160560
N411	N41	0.340580	0.234470	0.160620
N421	N42	0.569350	0.361950	0.263900
N431	N43	0.540470	0.365470	0.269340
N441	N44	0.527760	0.305060	0.213320
N451	N45	0.562600	0.326100	0.230400
N461	N46	0.264970	0.543970	0.623940
N471	N47	0.299620	0.570420	0.659440
N481	N48	0.327000	0.559300	0.652200
N491	N49	0.310470	0.525170	0.611740
N501	N50	0.704610	0.297610	0.249020
N511	N51	0.681330	0.318830	0.254860
N521	N52	0.643950	0.297000	0.218600
N531	N53	0.642120	0.262320	0.189640
N541	N54	0.171880	0.356300	0.391240
N551	N55	0.786330	0.156340	0.160560
N561	N56	0.820040	0.926150	0.160620
N571	N57	0.694550	0.901950	0.263900
N581	N58	0.728870	0.903870	0.269340
N591	N59	0.685560	0.908260	0.213320
N601	N60	0.667800	0.904300	0.230400
N611	N61	0.456030	0.641030	0.376060
N621	N62	0.429580	0.640180	0.340560
N631	N63	0.440700	0.674800	0.347800
N641	N64	0.474830	0.698730	0.388260
N651	N65	0.702390	0.455590	0.750980
N661	N66	0.681170	0.426470	0.745140
N671	N67	0.703000	0.425350	0.781400
N681	N68	0.737680	0.452480	0.810360
N691	N69	0.643700	0.780640	0.608760
N701	N70	0.843660	0.625770	0.839440
N711	N71	0.073850	0.659420	0.839380
N721	N72	0.098050	0.430650	0.736100
N731	N73	0.096130	0.459530	0.730660
N741	N74	0.091740	0.472240	0.786680
N751	N75	0.095700	0.437400	0.769600
N761	N76	0.920030	0.735030	0.376060
N771	N77	0.910980	0.700380	0.340560
N781	N78	0.907100	0.673000	0.347800
N791	N79	0.913430	0.689530	0.388260
N801	N80	0.048590	0.295390	0.750980
N811	N81	0.063970	0.318670	0.745140
N821	N82	0.078400	0.356050	0.781400
N831	N83	0.072680	0.357880	0.810360
N841	N84	0.965060	0.828120	0.608760
N851	N85	0.995780	0.213670	0.839440
N861	N86	0.765530	0.179960	0.839380
N871	N87	0.638050	0.305450	0.736100
N881	N88	0.634530	0.271130	0.730660
N891	N89	0.694940	0.314440	0.786680
N901	N90	0.673900	0.332200	0.769600
N911	N91	0.641030	0.920030	0.376060
N921	N92	0.640180	0.910980	0.340560
N931	N93	0.674800	0.907100	0.347800
N941	N94	0.698730	0.913430	0.388260
N951	N95	0.455590	0.048590	0.750980
N961	N96	0.426470	0.063970	0.745140
N971	N97	0.425350	0.078400	0.781400
N981	N98	0.452480	0.072680	0.810360
N991	N99	0.780640	0.965060	0.608760
N1001	N100	0.625770	0.995780	0.839440
N1011	N101	0.659420	0.765530	0.839380
N1021	N102	0.430650	0.638050	0.736100
N1031	N103	0.459530	0.634530	0.730660
N1041	N104	0.472240	0.694940	0.786680
N1051	N105	0.437400	0.673900	0.769600
N1061	N106	0.735030	0.456030	0.376060
N1071	N107	0.700380	0.429580	0.340560
N1081	N108	0.673000	0.440700	0.347800
N1091	N109	0.689530	0.474830	0.388260
N1101	N110	0.295390	0.702390	0.750980
N1111	N111	0.318670	0.681170	0.745140
N1121	N112	0.356050	0.703000	0.781400
N1131	N113	0.357880	0.737680	0.810360
N1141	N114	0.828120	0.643700	0.608760
N1151	N115	0.213670	0.843660	0.839440
N1161	N116	0.179960	0.073850	0.839380
N1171	N117	0.305450	0.098050	0.736100
N1181	N118	0.271130	0.096130	0.730660
N1191	N119	0.314440	0.091740	0.786680
N1201	N120	0.332200	0.095700	0.769600
O11	O1	0.206780	0.187470	0.225280
O21	O2	0.255400	0.246740	0.283240
O31	O3	0.226330	0.072580	0.225680
O41	O4	0.285080	0.076550	0.279780
O51	O5	0.364450	0.280510	0.406100
O61	O6	0.199720	0.290290	0.215340
O71	O7	0.148480	0.232100	0.160480
O81	O8	0.023610	0.222400	0.042860
O91	O9	0.017930	0.277480	0.045220
O101	O10	0.111750	0.386550	0.112900
O111	O11	0.965790	0.253560	0.216680
O121	O12	0.966100	0.202110	0.159500
O131	O13	0.961050	0.211940	0.046520
O141	O14	0.951320	0.265170	0.045740
O151	O15	0.923660	0.353220	0.218400
O161	O16	0.918520	0.640020	0.279840
O171	O17	0.018500	0.037810	0.225280
O181	O18	0.027840	0.036500	0.283240
O191	O19	0.999350	0.153100	0.225680
O201	O20	0.994700	0.203230	0.279780
O211	O21	0.041650	0.125590	0.406100
O221	O22	0.015620	0.925050	0.215340
O231	O23	0.012000	0.928380	0.160480
O241	O24	0.019250	0.820460	0.042860
O251	O25	0.027290	0.767740	0.045220
O261	O26	0.001150	0.726350	0.112900
O271	O27	0.250890	0.963120	0.216680
O281	O28	0.193400	0.957390	0.159500
O291	O29	0.085470	0.834580	0.046520
O301	O30	0.094420	0.780570	0.045740
O311	O31	0.294740	0.865180	0.218400
O321	O32	0.361320	0.639820	0.279840
O331	O33	0.187470	0.018500	0.225280
O341	O34	0.246740	0.027840	0.283240
O351	O35	0.072580	0.999350	0.225680
O361	O36	0.076550	0.994700	0.279780
O371	O37	0.280510	0.041650	0.406100
O381	O38	0.290290	0.015620	0.215340
O391	O39	0.232100	0.012000	0.160480
O401	O40	0.222400	0.019250	0.042860
O411	O41	0.277480	0.027290	0.045220
O421	O42	0.386550	0.001150	0.112900
O431	O43	0.253560	0.250890	0.216680
O441	O44	0.202110	0.193400	0.159500
O451	O45	0.211940	0.085470	0.046520
O461	O46	0.265170	0.094420	0.045740
O471	O47	0.353220	0.294740	0.218400
O481	O48	0.640020	0.361320	0.279840
O491	O49	0.037810	0.206780	0.225280
O501	O50	0.036500	0.255400	0.283240
O511	O51	0.153100	0.226330	0.225680
O521	O52	0.203230	0.285080	0.279780
O531	O53	0.125590	0.364450	0.406100
O541	O54	0.925050	0.199720	0.215340
O551	O55	0.928380	0.148480	0.160480
O561	O56	0.820460	0.023610	0.042860
O571	O57	0.767740	0.017930	0.045220
O581	O58	0.726350	0.111750	0.112900
O591	O59	0.963120	0.965790	0.216680
O601	O60	0.957390	0.966100	0.159500
O611	O61	0.834580	0.961050	0.046520
O621	O62	0.780570	0.951320	0.045740
O631	O63	0.865180	0.923660	0.218400
O641	O64	0.639820	0.918520	0.279840
O651	O65	0.793220	0.812530	0.774720
O661	O66	0.744600	0.753260	0.716760
O671	O67	0.773670	0.927420	0.774320
O681	O68	0.714920	0.923450	0.720220
O691	O69	0.635550	0.719490	0.593900
O701	O70	0.800280	0.709710	0.784660
O711	O71	0.851520	0.767900	0.839520
O721	O72	0.976390	0.777600	0.957140
O731	O73	0.982070	0.722520	0.954780
O741	O74	0.888250	0.613450	0.887100
O751	O75	0.034210	0.746440	0.783320
O761	O76	0.033900	0.797890	0.840500
O771	O77	0.038950	0.788060	0.953480
O781	O78	0.048680	0.734830	0.954260
O791	O79	0.076340	0.646780	0.781600
O801	O80	0.081480	0.359980	0.720160
O811	O81	0.981500	0.962190	0.774720
O821	O82	0.972160	0.963500	0.716760
O831	O83	0.000650	0.846900	0.774320
O841	O84	0.005300	0.796770	0.720220
O851	O85	0.958350	0.874410	0.593900
O861	O86	0.984380	0.074950	0.784660
O871	O87	0.988000	0.071620	0.839520
O881	O88	0.980750	0.179540	0.957140
O891	O89	0.972710	0.232260	0.954780
O901	O90	0.998850	0.273650	0.887100
O911	O91	0.749110	0.036880	0.783320
O921	O92	0.806600	0.042610	0.840500
O931	O93	0.914530	0.165420	0.953480
O941	O94	0.905580	0.219430	0.954260
O951	O95	0.705260	0.134820	0.781600
O961	O96	0.638680	0.360180	0.720160
O971	O97	0.812530	0.981500	0.774720
O981	O98	0.753260	0.972160	0.716760
O991	O99	0.927420	0.000650	0.774320
O1001	O100	0.923450	0.005300	0.720220
O1011	O101	0.719490	0.958350	0.593900
O1021	O102	0.709710	0.984380	0.784660
O1031	O103	0.767900	0.988000	0.839520
O1041	O104	0.777600	0.980750	0.957140
O1051	O105	0.722520	0.972710	0.954780
O1061	O106	0.613450	0.998850	0.887100
O1071	O107	0.746440	0.749110	0.783320
O1081	O108	0.797890	0.806600	0.840500
O1091	O109	0.788060	0.914530	0.953480
O1101	O110	0.734830	0.905580	0.954260
O1111	O111	0.646780	0.705260	0.781600
O1121	O112	0.359980	0.638680	0.720160
O1131	O113	0.962190	0.793220	0.774720
O1141	O114	0.963500	0.744600	0.716760
O1151	O115	0.846900	0.773670	0.774320
O1161	O116	0.796770	0.714920	0.720220
O1171	O117	0.874410	0.635550	0.593900
O1181	O118	0.074950	0.800280	0.784660
O1191	O119	0.071620	0.851520	0.839520
O1201	O120	0.179540	0.976390	0.957140
O1211	O121	0.232260	0.982070	0.954780
O1221	O122	0.273650	0.888250	0.887100
O1231	O123	0.036880	0.034210	0.783320
O1241	O124	0.042610	0.033900	0.840500
O1251	O125	0.165420	0.038950	0.953480
O1261	O126	0.219430	0.048680	0.954260
O1271	O127	0.134820	0.076340	0.781600
O1281	O128	0.360180	0.081480	0.720160
