data_ADATAC_clean_PM
_symmetry_space_group_name_H-M	'P1'
_cell_length_a	40.162300
_cell_length_b	40.162300
_cell_length_c	40.162300
_cell_angle_alpha	60.000000
_cell_angle_beta	60.000000
_cell_angle_gamma	60.000000
_symmetry_Int_Tables_number 1

loop_
_symmetry_equiv_pos_as_xyz
'x,y,z'

loop_
_atom_site_label
_atom_site_type_symbol
_atom_site_fract_x
_atom_site_fract_y
_atom_site_fract_z
Zn11	Zn1	0.304100	0.695900	0.497780
Zn21	Zn2	0.229890	0.770110	0.501390
Zn31	Zn3	0.695900	0.304100	0.502220
Zn41	Zn4	0.770110	0.229890	0.498610
Zn51	Zn5	0.497780	0.502220	0.304100
Zn61	Zn6	0.501390	0.498610	0.229890
Zn71	Zn7	0.502220	0.497780	0.695900
Zn81	Zn8	0.498610	0.501390	0.770110
Zn91	Zn9	0.304100	0.497780	0.502220
Zn101	Zn10	0.229890	0.501390	0.498610
Zn111	Zn11	0.695900	0.502220	0.497780
Zn121	Zn12	0.770110	0.498610	0.501390
Zn131	Zn13	0.497780	0.304100	0.695900
Zn141	Zn14	0.501390	0.229890	0.770110
Zn151	Zn15	0.502220	0.695900	0.304100
Zn161	Zn16	0.498610	0.770110	0.229890
Zn171	Zn17	0.304100	0.502220	0.695900
Zn181	Zn18	0.229890	0.498610	0.770110
Zn191	Zn19	0.695900	0.497780	0.304100
Zn201	Zn20	0.770110	0.501390	0.229890
Zn211	Zn21	0.497780	0.695900	0.502220
Zn221	Zn22	0.501390	0.770110	0.498610
Zn231	Zn23	0.502220	0.304100	0.497780
Zn241	Zn24	0.498610	0.229890	0.501390
H11	H1	0.376300	0.739500	0.374900
H21	H2	0.377200	0.832400	0.269800
H31	H3	0.275800	0.839800	0.367400
H41	H4	0.192600	0.932400	0.311000
H51	H5	0.160900	0.996700	0.272100
H61	H6	0.269700	0.007100	0.192100
H71	H7	0.303200	0.941200	0.231400
H81	H8	0.222100	0.059100	0.149100
H91	H9	0.231900	0.072700	0.173700
H101	H10	0.215200	0.134200	0.102200
H111	H11	0.739500	0.376300	0.509300
H121	H12	0.832400	0.377200	0.520600
H131	H13	0.839800	0.275800	0.517000
H141	H14	0.932400	0.192600	0.564000
H151	H15	0.996700	0.160900	0.570300
H161	H16	0.007100	0.269700	0.531100
H171	H17	0.941200	0.303200	0.524200
H181	H18	0.059100	0.222100	0.569700
H191	H19	0.072700	0.231900	0.521700
H201	H20	0.134200	0.215200	0.548400
H211	H21	0.374900	0.509300	0.376300
H221	H22	0.269800	0.520600	0.377200
H231	H23	0.367400	0.517000	0.275800
H241	H24	0.311000	0.564000	0.192600
H251	H25	0.272100	0.570300	0.160900
H261	H26	0.192100	0.531100	0.269700
H271	H27	0.231400	0.524200	0.303200
H281	H28	0.149100	0.569700	0.222100
H291	H29	0.173700	0.521700	0.231900
H301	H30	0.102200	0.548400	0.215200
H311	H31	0.509300	0.374900	0.739500
H321	H32	0.520600	0.269800	0.832400
H331	H33	0.517000	0.367400	0.839800
H341	H34	0.564000	0.311000	0.932400
H351	H35	0.570300	0.272100	0.996700
H361	H36	0.531100	0.192100	0.007100
H371	H37	0.524200	0.231400	0.941200
H381	H38	0.569700	0.149100	0.059100
H391	H39	0.521700	0.173700	0.072700
H401	H40	0.548400	0.102200	0.134200
H411	H41	0.376300	0.374900	0.509300
H421	H42	0.377200	0.269800	0.520600
H431	H43	0.275800	0.367400	0.517000
H441	H44	0.192600	0.311000	0.564000
H451	H45	0.160900	0.272100	0.570300
H461	H46	0.269700	0.192100	0.531100
H471	H47	0.303200	0.231400	0.524200
H481	H48	0.222100	0.149100	0.569700
H491	H49	0.231900	0.173700	0.521700
H501	H50	0.215200	0.102200	0.548400
H511	H51	0.739500	0.509300	0.374900
H521	H52	0.832400	0.520600	0.269800
H531	H53	0.839800	0.517000	0.367400
H541	H54	0.932400	0.564000	0.311000
H551	H55	0.996700	0.570300	0.272100
H561	H56	0.007100	0.531100	0.192100
H571	H57	0.941200	0.524200	0.231400
H581	H58	0.059100	0.569700	0.149100
H591	H59	0.072700	0.521700	0.173700
H601	H60	0.134200	0.548400	0.102200
H611	H61	0.374900	0.376300	0.739500
H621	H62	0.269800	0.377200	0.832400
H631	H63	0.367400	0.275800	0.839800
H641	H64	0.311000	0.192600	0.932400
H651	H65	0.272100	0.160900	0.996700
H661	H66	0.192100	0.269700	0.007100
H671	H67	0.231400	0.303200	0.941200
H681	H68	0.149100	0.222100	0.059100
H691	H69	0.173700	0.231900	0.072700
H701	H70	0.102200	0.215200	0.134200
H711	H71	0.509300	0.739500	0.376300
H721	H72	0.520600	0.832400	0.377200
H731	H73	0.517000	0.839800	0.275800
H741	H74	0.564000	0.932400	0.192600
H751	H75	0.570300	0.996700	0.160900
H761	H76	0.531100	0.007100	0.269700
H771	H77	0.524200	0.941200	0.303200
H781	H78	0.569700	0.059100	0.222100
H791	H79	0.521700	0.072700	0.231900
H801	H80	0.548400	0.134200	0.215200
H811	H81	0.376300	0.509300	0.739500
H821	H82	0.377200	0.520600	0.832400
H831	H83	0.275800	0.517000	0.839800
H841	H84	0.192600	0.564000	0.932400
H851	H85	0.160900	0.570300	0.996700
H861	H86	0.269700	0.531100	0.007100
H871	H87	0.303200	0.524200	0.941200
H881	H88	0.222100	0.569700	0.059100
H891	H89	0.231900	0.521700	0.072700
H901	H90	0.215200	0.548400	0.134200
H911	H91	0.739500	0.374900	0.376300
H921	H92	0.832400	0.269800	0.377200
H931	H93	0.839800	0.367400	0.275800
H941	H94	0.932400	0.311000	0.192600
H951	H95	0.996700	0.272100	0.160900
H961	H96	0.007100	0.192100	0.269700
H971	H97	0.941200	0.231400	0.303200
H981	H98	0.059100	0.149100	0.222100
H991	H99	0.072700	0.173700	0.231900
H1001	H100	0.134200	0.102200	0.215200
H1011	H101	0.374900	0.739500	0.509300
H1021	H102	0.269800	0.832400	0.520600
H1031	H103	0.367400	0.839800	0.517000
H1041	H104	0.311000	0.932400	0.564000
H1051	H105	0.272100	0.996700	0.570300
H1061	H106	0.192100	0.007100	0.531100
H1071	H107	0.231400	0.941200	0.524200
H1081	H108	0.149100	0.059100	0.569700
H1091	H109	0.173700	0.072700	0.521700
H1101	H110	0.102200	0.134200	0.548400
H1111	H111	0.509300	0.376300	0.374900
H1121	H112	0.520600	0.377200	0.269800
H1131	H113	0.517000	0.275800	0.367400
H1141	H114	0.564000	0.192600	0.311000
H1151	H115	0.570300	0.160900	0.272100
H1161	H116	0.531100	0.269700	0.192100
H1171	H117	0.524200	0.303200	0.231400
H1181	H118	0.569700	0.222100	0.149100
H1191	H119	0.521700	0.231900	0.173700
H1201	H120	0.548400	0.215200	0.102200
H1211	H121	0.623700	0.260500	0.625100
H1221	H122	0.622800	0.167600	0.730200
H1231	H123	0.724200	0.160200	0.632600
H1241	H124	0.807400	0.067600	0.689000
H1251	H125	0.839100	0.003300	0.727900
H1261	H126	0.730300	0.992900	0.807900
H1271	H127	0.696800	0.058800	0.768600
H1281	H128	0.777900	0.940900	0.850900
H1291	H129	0.768100	0.927300	0.826300
H1301	H130	0.784800	0.865800	0.897800
H1311	H131	0.260500	0.623700	0.490700
H1321	H132	0.167600	0.622800	0.479400
H1331	H133	0.160200	0.724200	0.483000
H1341	H134	0.067600	0.807400	0.436000
H1351	H135	0.003300	0.839100	0.429700
H1361	H136	0.992900	0.730300	0.468900
H1371	H137	0.058800	0.696800	0.475800
H1381	H138	0.940900	0.777900	0.430300
H1391	H139	0.927300	0.768100	0.478300
H1401	H140	0.865800	0.784800	0.451600
H1411	H141	0.625100	0.490700	0.623700
H1421	H142	0.730200	0.479400	0.622800
H1431	H143	0.632600	0.483000	0.724200
H1441	H144	0.689000	0.436000	0.807400
H1451	H145	0.727900	0.429700	0.839100
H1461	H146	0.807900	0.468900	0.730300
H1471	H147	0.768600	0.475800	0.696800
H1481	H148	0.850900	0.430300	0.777900
H1491	H149	0.826300	0.478300	0.768100
H1501	H150	0.897800	0.451600	0.784800
H1511	H151	0.490700	0.625100	0.260500
H1521	H152	0.479400	0.730200	0.167600
H1531	H153	0.483000	0.632600	0.160200
H1541	H154	0.436000	0.689000	0.067600
H1551	H155	0.429700	0.727900	0.003300
H1561	H156	0.468900	0.807900	0.992900
H1571	H157	0.475800	0.768600	0.058800
H1581	H158	0.430300	0.850900	0.940900
H1591	H159	0.478300	0.826300	0.927300
H1601	H160	0.451600	0.897800	0.865800
H1611	H161	0.623700	0.625100	0.490700
H1621	H162	0.622800	0.730200	0.479400
H1631	H163	0.724200	0.632600	0.483000
H1641	H164	0.807400	0.689000	0.436000
H1651	H165	0.839100	0.727900	0.429700
H1661	H166	0.730300	0.807900	0.468900
H1671	H167	0.696800	0.768600	0.475800
H1681	H168	0.777900	0.850900	0.430300
H1691	H169	0.768100	0.826300	0.478300
H1701	H170	0.784800	0.897800	0.451600
H1711	H171	0.260500	0.490700	0.625100
H1721	H172	0.167600	0.479400	0.730200
H1731	H173	0.160200	0.483000	0.632600
H1741	H174	0.067600	0.436000	0.689000
H1751	H175	0.003300	0.429700	0.727900
H1761	H176	0.992900	0.468900	0.807900
H1771	H177	0.058800	0.475800	0.768600
H1781	H178	0.940900	0.430300	0.850900
H1791	H179	0.927300	0.478300	0.826300
H1801	H180	0.865800	0.451600	0.897800
H1811	H181	0.625100	0.623700	0.260500
H1821	H182	0.730200	0.622800	0.167600
H1831	H183	0.632600	0.724200	0.160200
H1841	H184	0.689000	0.807400	0.067600
H1851	H185	0.727900	0.839100	0.003300
H1861	H186	0.807900	0.730300	0.992900
H1871	H187	0.768600	0.696800	0.058800
H1881	H188	0.850900	0.777900	0.940900
H1891	H189	0.826300	0.768100	0.927300
H1901	H190	0.897800	0.784800	0.865800
H1911	H191	0.490700	0.260500	0.623700
H1921	H192	0.479400	0.167600	0.622800
H1931	H193	0.483000	0.160200	0.724200
H1941	H194	0.436000	0.067600	0.807400
H1951	H195	0.429700	0.003300	0.839100
H1961	H196	0.468900	0.992900	0.730300
H1971	H197	0.475800	0.058800	0.696800
H1981	H198	0.430300	0.940900	0.777900
H1991	H199	0.478300	0.927300	0.768100
H2001	H200	0.451600	0.865800	0.784800
H2011	H201	0.623700	0.490700	0.260500
H2021	H202	0.622800	0.479400	0.167600
H2031	H203	0.724200	0.483000	0.160200
H2041	H204	0.807400	0.436000	0.067600
H2051	H205	0.839100	0.429700	0.003300
H2061	H206	0.730300	0.468900	0.992900
H2071	H207	0.696800	0.475800	0.058800
H2081	H208	0.777900	0.430300	0.940900
H2091	H209	0.768100	0.478300	0.927300
H2101	H210	0.784800	0.451600	0.865800
H2111	H211	0.260500	0.625100	0.623700
H2121	H212	0.167600	0.730200	0.622800
H2131	H213	0.160200	0.632600	0.724200
H2141	H214	0.067600	0.689000	0.807400
H2151	H215	0.003300	0.727900	0.839100
H2161	H216	0.992900	0.807900	0.730300
H2171	H217	0.058800	0.768600	0.696800
H2181	H218	0.940900	0.850900	0.777900
H2191	H219	0.927300	0.826300	0.768100
H2201	H220	0.865800	0.897800	0.784800
H2211	H221	0.625100	0.260500	0.490700
H2221	H222	0.730200	0.167600	0.479400
H2231	H223	0.632600	0.160200	0.483000
H2241	H224	0.689000	0.067600	0.436000
H2251	H225	0.727900	0.003300	0.429700
H2261	H226	0.807900	0.992900	0.468900
H2271	H227	0.768600	0.058800	0.475800
H2281	H228	0.850900	0.940900	0.430300
H2291	H229	0.826300	0.927300	0.478300
H2301	H230	0.897800	0.865800	0.451600
H2311	H231	0.490700	0.623700	0.625100
H2321	H232	0.479400	0.622800	0.730200
H2331	H233	0.483000	0.724200	0.632600
H2341	H234	0.436000	0.807400	0.689000
H2351	H235	0.429700	0.839100	0.727900
H2361	H236	0.468900	0.730300	0.807900
H2371	H237	0.475800	0.696800	0.768600
H2381	H238	0.430300	0.777900	0.850900
H2391	H239	0.478300	0.768100	0.826300
H2401	H240	0.451600	0.784800	0.897800
C11	C1	0.302600	0.766600	0.421400
C21	C2	0.323210	0.786610	0.377590
C31	C3	0.362790	0.765770	0.359550
C41	C4	0.382720	0.782680	0.319680
C51	C5	0.426000	0.761200	0.298800
C61	C6	0.363240	0.820580	0.297640
C71	C7	0.323700	0.841500	0.315500
C81	C8	0.303160	0.825280	0.355120
C91	C9	0.250930	0.932070	0.273670
C101	C10	0.208400	0.947600	0.286800
C111	C11	0.189900	0.985700	0.263500
C121	C12	0.212600	0.008400	0.227800
C131	C13	0.253900	0.991900	0.216300
C141	C14	0.274300	0.952500	0.239700
C151	C15	0.209900	0.070700	0.170900
C161	C16	0.179100	0.112300	0.160100
C171	C17	0.189000	0.140800	0.121800
C181	C18	0.766600	0.302600	0.509400
C191	C19	0.786610	0.323210	0.512590
C201	C20	0.765770	0.362790	0.511890
C211	C21	0.782680	0.382720	0.514920
C221	C22	0.761200	0.426000	0.514000
C231	C23	0.820580	0.363240	0.518540
C241	C24	0.841500	0.323700	0.519300
C251	C25	0.825280	0.303160	0.516440
C261	C26	0.932070	0.250930	0.543330
C271	C27	0.947600	0.208400	0.557200
C281	C28	0.985700	0.189900	0.560900
C291	C29	0.008400	0.212600	0.551200
C301	C30	0.991900	0.253900	0.537900
C311	C31	0.952500	0.274300	0.533500
C321	C32	0.070700	0.209900	0.548500
C331	C33	0.112300	0.179100	0.548500
C341	C34	0.140800	0.189000	0.548400
C351	C35	0.421400	0.509400	0.302600
C361	C36	0.377590	0.512590	0.323210
C371	C37	0.359550	0.511890	0.362790
C381	C38	0.319680	0.514920	0.382720
C391	C39	0.298800	0.514000	0.426000
C401	C40	0.297640	0.518540	0.363240
C411	C41	0.315500	0.519300	0.323700
C421	C42	0.355120	0.516440	0.303160
C431	C43	0.273670	0.543330	0.250930
C441	C44	0.286800	0.557200	0.208400
C451	C45	0.263500	0.560900	0.189900
C461	C46	0.227800	0.551200	0.212600
C471	C47	0.216300	0.537900	0.253900
C481	C48	0.239700	0.533500	0.274300
C491	C49	0.170900	0.548500	0.209900
C501	C50	0.160100	0.548500	0.179100
C511	C51	0.121800	0.548400	0.189000
C521	C52	0.509400	0.421400	0.766600
C531	C53	0.512590	0.377590	0.786610
C541	C54	0.511890	0.359550	0.765770
C551	C55	0.514920	0.319680	0.782680
C561	C56	0.514000	0.298800	0.761200
C571	C57	0.518540	0.297640	0.820580
C581	C58	0.519300	0.315500	0.841500
C591	C59	0.516440	0.355120	0.825280
C601	C60	0.543330	0.273670	0.932070
C611	C61	0.557200	0.286800	0.947600
C621	C62	0.560900	0.263500	0.985700
C631	C63	0.551200	0.227800	0.008400
C641	C64	0.537900	0.216300	0.991900
C651	C65	0.533500	0.239700	0.952500
C661	C66	0.548500	0.170900	0.070700
C671	C67	0.548500	0.160100	0.112300
C681	C68	0.548400	0.121800	0.140800
C691	C69	0.302600	0.421400	0.509400
C701	C70	0.323210	0.377590	0.512590
C711	C71	0.362790	0.359550	0.511890
C721	C72	0.382720	0.319680	0.514920
C731	C73	0.426000	0.298800	0.514000
C741	C74	0.363240	0.297640	0.518540
C751	C75	0.323700	0.315500	0.519300
C761	C76	0.303160	0.355120	0.516440
C771	C77	0.250930	0.273670	0.543330
C781	C78	0.208400	0.286800	0.557200
C791	C79	0.189900	0.263500	0.560900
C801	C80	0.212600	0.227800	0.551200
C811	C81	0.253900	0.216300	0.537900
C821	C82	0.274300	0.239700	0.533500
C831	C83	0.209900	0.170900	0.548500
C841	C84	0.179100	0.160100	0.548500
C851	C85	0.189000	0.121800	0.548400
C861	C86	0.766600	0.509400	0.421400
C871	C87	0.786610	0.512590	0.377590
C881	C88	0.765770	0.511890	0.359550
C891	C89	0.782680	0.514920	0.319680
C901	C90	0.761200	0.514000	0.298800
C911	C91	0.820580	0.518540	0.297640
C921	C92	0.841500	0.519300	0.315500
C931	C93	0.825280	0.516440	0.355120
C941	C94	0.932070	0.543330	0.273670
C951	C95	0.947600	0.557200	0.286800
C961	C96	0.985700	0.560900	0.263500
C971	C97	0.008400	0.551200	0.227800
C981	C98	0.991900	0.537900	0.216300
C991	C99	0.952500	0.533500	0.239700
C1001	C100	0.070700	0.548500	0.170900
C1011	C101	0.112300	0.548500	0.160100
C1021	C102	0.140800	0.548400	0.121800
C1031	C103	0.421400	0.302600	0.766600
C1041	C104	0.377590	0.323210	0.786610
C1051	C105	0.359550	0.362790	0.765770
C1061	C106	0.319680	0.382720	0.782680
C1071	C107	0.298800	0.426000	0.761200
C1081	C108	0.297640	0.363240	0.820580
C1091	C109	0.315500	0.323700	0.841500
C1101	C110	0.355120	0.303160	0.825280
C1111	C111	0.273670	0.250930	0.932070
C1121	C112	0.286800	0.208400	0.947600
C1131	C113	0.263500	0.189900	0.985700
C1141	C114	0.227800	0.212600	0.008400
C1151	C115	0.216300	0.253900	0.991900
C1161	C116	0.239700	0.274300	0.952500
C1171	C117	0.170900	0.209900	0.070700
C1181	C118	0.160100	0.179100	0.112300
C1191	C119	0.121800	0.189000	0.140800
C1201	C120	0.509400	0.766600	0.302600
C1211	C121	0.512590	0.786610	0.323210
C1221	C122	0.511890	0.765770	0.362790
C1231	C123	0.514920	0.782680	0.382720
C1241	C124	0.514000	0.761200	0.426000
C1251	C125	0.518540	0.820580	0.363240
C1261	C126	0.519300	0.841500	0.323700
C1271	C127	0.516440	0.825280	0.303160
C1281	C128	0.543330	0.932070	0.250930
C1291	C129	0.557200	0.947600	0.208400
C1301	C130	0.560900	0.985700	0.189900
C1311	C131	0.551200	0.008400	0.212600
C1321	C132	0.537900	0.991900	0.253900
C1331	C133	0.533500	0.952500	0.274300
C1341	C134	0.548500	0.070700	0.209900
C1351	C135	0.548500	0.112300	0.179100
C1361	C136	0.548400	0.140800	0.189000
C1371	C137	0.302600	0.509400	0.766600
C1381	C138	0.323210	0.512590	0.786610
C1391	C139	0.362790	0.511890	0.765770
C1401	C140	0.382720	0.514920	0.782680
C1411	C141	0.426000	0.514000	0.761200
C1421	C142	0.363240	0.518540	0.820580
C1431	C143	0.323700	0.519300	0.841500
C1441	C144	0.303160	0.516440	0.825280
C1451	C145	0.250930	0.543330	0.932070
C1461	C146	0.208400	0.557200	0.947600
C1471	C147	0.189900	0.560900	0.985700
C1481	C148	0.212600	0.551200	0.008400
C1491	C149	0.253900	0.537900	0.991900
C1501	C150	0.274300	0.533500	0.952500
C1511	C151	0.209900	0.548500	0.070700
C1521	C152	0.179100	0.548500	0.112300
C1531	C153	0.189000	0.548400	0.140800
C1541	C154	0.766600	0.421400	0.302600
C1551	C155	0.786610	0.377590	0.323210
C1561	C156	0.765770	0.359550	0.362790
C1571	C157	0.782680	0.319680	0.382720
C1581	C158	0.761200	0.298800	0.426000
C1591	C159	0.820580	0.297640	0.363240
C1601	C160	0.841500	0.315500	0.323700
C1611	C161	0.825280	0.355120	0.303160
C1621	C162	0.932070	0.273670	0.250930
C1631	C163	0.947600	0.286800	0.208400
C1641	C164	0.985700	0.263500	0.189900
C1651	C165	0.008400	0.227800	0.212600
C1661	C166	0.991900	0.216300	0.253900
C1671	C167	0.952500	0.239700	0.274300
C1681	C168	0.070700	0.170900	0.209900
C1691	C169	0.112300	0.160100	0.179100
C1701	C170	0.140800	0.121800	0.189000
C1711	C171	0.421400	0.766600	0.509400
C1721	C172	0.377590	0.786610	0.512590
C1731	C173	0.359550	0.765770	0.511890
C1741	C174	0.319680	0.782680	0.514920
C1751	C175	0.298800	0.761200	0.514000
C1761	C176	0.297640	0.820580	0.518540
C1771	C177	0.315500	0.841500	0.519300
C1781	C178	0.355120	0.825280	0.516440
C1791	C179	0.273670	0.932070	0.543330
C1801	C180	0.286800	0.947600	0.557200
C1811	C181	0.263500	0.985700	0.560900
C1821	C182	0.227800	0.008400	0.551200
C1831	C183	0.216300	0.991900	0.537900
C1841	C184	0.239700	0.952500	0.533500
C1851	C185	0.170900	0.070700	0.548500
C1861	C186	0.160100	0.112300	0.548500
C1871	C187	0.121800	0.140800	0.548400
C1881	C188	0.509400	0.302600	0.421400
C1891	C189	0.512590	0.323210	0.377590
C1901	C190	0.511890	0.362790	0.359550
C1911	C191	0.514920	0.382720	0.319680
C1921	C192	0.514000	0.426000	0.298800
C1931	C193	0.518540	0.363240	0.297640
C1941	C194	0.519300	0.323700	0.315500
C1951	C195	0.516440	0.303160	0.355120
C1961	C196	0.543330	0.250930	0.273670
C1971	C197	0.557200	0.208400	0.286800
C1981	C198	0.560900	0.189900	0.263500
C1991	C199	0.551200	0.212600	0.227800
C2001	C200	0.537900	0.253900	0.216300
C2011	C201	0.533500	0.274300	0.239700
C2021	C202	0.548500	0.209900	0.170900
C2031	C203	0.548500	0.179100	0.160100
C2041	C204	0.548400	0.189000	0.121800
C2051	C205	0.697400	0.233400	0.578600
C2061	C206	0.676790	0.213390	0.622410
C2071	C207	0.637210	0.234230	0.640450
C2081	C208	0.617280	0.217320	0.680320
C2091	C209	0.574000	0.238800	0.701200
C2101	C210	0.636760	0.179420	0.702360
C2111	C211	0.676300	0.158500	0.684500
C2121	C212	0.696840	0.174720	0.644880
C2131	C213	0.749070	0.067930	0.726330
C2141	C214	0.791600	0.052400	0.713200
C2151	C215	0.810100	0.014300	0.736500
C2161	C216	0.787400	0.991600	0.772200
C2171	C217	0.746100	0.008100	0.783700
C2181	C218	0.725700	0.047500	0.760300
C2191	C219	0.790100	0.929300	0.829100
C2201	C220	0.820900	0.887700	0.839900
C2211	C221	0.811000	0.859200	0.878200
C2221	C222	0.233400	0.697400	0.490600
C2231	C223	0.213390	0.676790	0.487410
C2241	C224	0.234230	0.637210	0.488110
C2251	C225	0.217320	0.617280	0.485080
C2261	C226	0.238800	0.574000	0.486000
C2271	C227	0.179420	0.636760	0.481460
C2281	C228	0.158500	0.676300	0.480700
C2291	C229	0.174720	0.696840	0.483560
C2301	C230	0.067930	0.749070	0.456670
C2311	C231	0.052400	0.791600	0.442800
C2321	C232	0.014300	0.810100	0.439100
C2331	C233	0.991600	0.787400	0.448800
C2341	C234	0.008100	0.746100	0.462100
C2351	C235	0.047500	0.725700	0.466500
C2361	C236	0.929300	0.790100	0.451500
C2371	C237	0.887700	0.820900	0.451500
C2381	C238	0.859200	0.811000	0.451600
C2391	C239	0.578600	0.490600	0.697400
C2401	C240	0.622410	0.487410	0.676790
C2411	C241	0.640450	0.488110	0.637210
C2421	C242	0.680320	0.485080	0.617280
C2431	C243	0.701200	0.486000	0.574000
C2441	C244	0.702360	0.481460	0.636760
C2451	C245	0.684500	0.480700	0.676300
C2461	C246	0.644880	0.483560	0.696840
C2471	C247	0.726330	0.456670	0.749070
C2481	C248	0.713200	0.442800	0.791600
C2491	C249	0.736500	0.439100	0.810100
C2501	C250	0.772200	0.448800	0.787400
C2511	C251	0.783700	0.462100	0.746100
C2521	C252	0.760300	0.466500	0.725700
C2531	C253	0.829100	0.451500	0.790100
C2541	C254	0.839900	0.451500	0.820900
C2551	C255	0.878200	0.451600	0.811000
C2561	C256	0.490600	0.578600	0.233400
C2571	C257	0.487410	0.622410	0.213390
C2581	C258	0.488110	0.640450	0.234230
C2591	C259	0.485080	0.680320	0.217320
C2601	C260	0.486000	0.701200	0.238800
C2611	C261	0.481460	0.702360	0.179420
C2621	C262	0.480700	0.684500	0.158500
C2631	C263	0.483560	0.644880	0.174720
C2641	C264	0.456670	0.726330	0.067930
C2651	C265	0.442800	0.713200	0.052400
C2661	C266	0.439100	0.736500	0.014300
C2671	C267	0.448800	0.772200	0.991600
C2681	C268	0.462100	0.783700	0.008100
C2691	C269	0.466500	0.760300	0.047500
C2701	C270	0.451500	0.829100	0.929300
C2711	C271	0.451500	0.839900	0.887700
C2721	C272	0.451600	0.878200	0.859200
C2731	C273	0.697400	0.578600	0.490600
C2741	C274	0.676790	0.622410	0.487410
C2751	C275	0.637210	0.640450	0.488110
C2761	C276	0.617280	0.680320	0.485080
C2771	C277	0.574000	0.701200	0.486000
C2781	C278	0.636760	0.702360	0.481460
C2791	C279	0.676300	0.684500	0.480700
C2801	C280	0.696840	0.644880	0.483560
C2811	C281	0.749070	0.726330	0.456670
C2821	C282	0.791600	0.713200	0.442800
C2831	C283	0.810100	0.736500	0.439100
C2841	C284	0.787400	0.772200	0.448800
C2851	C285	0.746100	0.783700	0.462100
C2861	C286	0.725700	0.760300	0.466500
C2871	C287	0.790100	0.829100	0.451500
C2881	C288	0.820900	0.839900	0.451500
C2891	C289	0.811000	0.878200	0.451600
C2901	C290	0.233400	0.490600	0.578600
C2911	C291	0.213390	0.487410	0.622410
C2921	C292	0.234230	0.488110	0.640450
C2931	C293	0.217320	0.485080	0.680320
C2941	C294	0.238800	0.486000	0.701200
C2951	C295	0.179420	0.481460	0.702360
C2961	C296	0.158500	0.480700	0.684500
C2971	C297	0.174720	0.483560	0.644880
C2981	C298	0.067930	0.456670	0.726330
C2991	C299	0.052400	0.442800	0.713200
C3001	C300	0.014300	0.439100	0.736500
C3011	C301	0.991600	0.448800	0.772200
C3021	C302	0.008100	0.462100	0.783700
C3031	C303	0.047500	0.466500	0.760300
C3041	C304	0.929300	0.451500	0.829100
C3051	C305	0.887700	0.451500	0.839900
C3061	C306	0.859200	0.451600	0.878200
C3071	C307	0.578600	0.697400	0.233400
C3081	C308	0.622410	0.676790	0.213390
C3091	C309	0.640450	0.637210	0.234230
C3101	C310	0.680320	0.617280	0.217320
C3111	C311	0.701200	0.574000	0.238800
C3121	C312	0.702360	0.636760	0.179420
C3131	C313	0.684500	0.676300	0.158500
C3141	C314	0.644880	0.696840	0.174720
C3151	C315	0.726330	0.749070	0.067930
C3161	C316	0.713200	0.791600	0.052400
C3171	C317	0.736500	0.810100	0.014300
C3181	C318	0.772200	0.787400	0.991600
C3191	C319	0.783700	0.746100	0.008100
C3201	C320	0.760300	0.725700	0.047500
C3211	C321	0.829100	0.790100	0.929300
C3221	C322	0.839900	0.820900	0.887700
C3231	C323	0.878200	0.811000	0.859200
C3241	C324	0.490600	0.233400	0.697400
C3251	C325	0.487410	0.213390	0.676790
C3261	C326	0.488110	0.234230	0.637210
C3271	C327	0.485080	0.217320	0.617280
C3281	C328	0.486000	0.238800	0.574000
C3291	C329	0.481460	0.179420	0.636760
C3301	C330	0.480700	0.158500	0.676300
C3311	C331	0.483560	0.174720	0.696840
C3321	C332	0.456670	0.067930	0.749070
C3331	C333	0.442800	0.052400	0.791600
C3341	C334	0.439100	0.014300	0.810100
C3351	C335	0.448800	0.991600	0.787400
C3361	C336	0.462100	0.008100	0.746100
C3371	C337	0.466500	0.047500	0.725700
C3381	C338	0.451500	0.929300	0.790100
C3391	C339	0.451500	0.887700	0.820900
C3401	C340	0.451600	0.859200	0.811000
C3411	C341	0.697400	0.490600	0.233400
C3421	C342	0.676790	0.487410	0.213390
C3431	C343	0.637210	0.488110	0.234230
C3441	C344	0.617280	0.485080	0.217320
C3451	C345	0.574000	0.486000	0.238800
C3461	C346	0.636760	0.481460	0.179420
C3471	C347	0.676300	0.480700	0.158500
C3481	C348	0.696840	0.483560	0.174720
C3491	C349	0.749070	0.456670	0.067930
C3501	C350	0.791600	0.442800	0.052400
C3511	C351	0.810100	0.439100	0.014300
C3521	C352	0.787400	0.448800	0.991600
C3531	C353	0.746100	0.462100	0.008100
C3541	C354	0.725700	0.466500	0.047500
C3551	C355	0.790100	0.451500	0.929300
C3561	C356	0.820900	0.451500	0.887700
C3571	C357	0.811000	0.451600	0.859200
C3581	C358	0.233400	0.578600	0.697400
C3591	C359	0.213390	0.622410	0.676790
C3601	C360	0.234230	0.640450	0.637210
C3611	C361	0.217320	0.680320	0.617280
C3621	C362	0.238800	0.701200	0.574000
C3631	C363	0.179420	0.702360	0.636760
C3641	C364	0.158500	0.684500	0.676300
C3651	C365	0.174720	0.644880	0.696840
C3661	C366	0.067930	0.726330	0.749070
C3671	C367	0.052400	0.713200	0.791600
C3681	C368	0.014300	0.736500	0.810100
C3691	C369	0.991600	0.772200	0.787400
C3701	C370	0.008100	0.783700	0.746100
C3711	C371	0.047500	0.760300	0.725700
C3721	C372	0.929300	0.829100	0.790100
C3731	C373	0.887700	0.839900	0.820900
C3741	C374	0.859200	0.878200	0.811000
C3751	C375	0.578600	0.233400	0.490600
C3761	C376	0.622410	0.213390	0.487410
C3771	C377	0.640450	0.234230	0.488110
C3781	C378	0.680320	0.217320	0.485080
C3791	C379	0.701200	0.238800	0.486000
C3801	C380	0.702360	0.179420	0.481460
C3811	C381	0.684500	0.158500	0.480700
C3821	C382	0.644880	0.174720	0.483560
C3831	C383	0.726330	0.067930	0.456670
C3841	C384	0.713200	0.052400	0.442800
C3851	C385	0.736500	0.014300	0.439100
C3861	C386	0.772200	0.991600	0.448800
C3871	C387	0.783700	0.008100	0.462100
C3881	C388	0.760300	0.047500	0.466500
C3891	C389	0.829100	0.929300	0.451500
C3901	C390	0.839900	0.887700	0.451500
C3911	C391	0.878200	0.859200	0.451600
C3921	C392	0.490600	0.697400	0.578600
C3931	C393	0.487410	0.676790	0.622410
C3941	C394	0.488110	0.637210	0.640450
C3951	C395	0.485080	0.617280	0.680320
C3961	C396	0.486000	0.574000	0.701200
C3971	C397	0.481460	0.636760	0.702360
C3981	C398	0.480700	0.676300	0.684500
C3991	C399	0.483560	0.696840	0.644880
C4001	C400	0.456670	0.749070	0.726330
C4011	C401	0.442800	0.791600	0.713200
C4021	C402	0.439100	0.810100	0.736500
C4031	C403	0.448800	0.787400	0.772200
C4041	C404	0.462100	0.746100	0.783700
C4051	C405	0.466500	0.725700	0.760300
C4061	C406	0.451500	0.790100	0.829100
C4071	C407	0.451500	0.820900	0.839900
C4081	C408	0.451600	0.811000	0.878200
N11	N1	0.305090	0.880710	0.291090
N21	N2	0.268300	0.892100	0.299500
N31	N3	0.880710	0.305090	0.523110
N41	N4	0.892100	0.268300	0.540100
N51	N5	0.291090	0.523110	0.305090
N61	N6	0.299500	0.540100	0.268300
N71	N7	0.523110	0.291090	0.880710
N81	N8	0.540100	0.299500	0.892100
N91	N9	0.305090	0.291090	0.523110
N101	N10	0.268300	0.299500	0.540100
N111	N11	0.880710	0.523110	0.291090
N121	N12	0.892100	0.540100	0.299500
N131	N13	0.291090	0.305090	0.880710
N141	N14	0.299500	0.268300	0.892100
N151	N15	0.523110	0.880710	0.305090
N161	N16	0.540100	0.892100	0.268300
N171	N17	0.305090	0.523110	0.880710
N181	N18	0.268300	0.540100	0.892100
N191	N19	0.880710	0.291090	0.305090
N201	N20	0.892100	0.299500	0.268300
N211	N21	0.291090	0.880710	0.523110
N221	N22	0.299500	0.892100	0.540100
N231	N23	0.523110	0.305090	0.291090
N241	N24	0.540100	0.268300	0.299500
N251	N25	0.694910	0.119290	0.708910
N261	N26	0.731700	0.107900	0.700500
N271	N27	0.119290	0.694910	0.476890
N281	N28	0.107900	0.731700	0.459900
N291	N29	0.708910	0.476890	0.694910
N301	N30	0.700500	0.459900	0.731700
N311	N31	0.476890	0.708910	0.119290
N321	N32	0.459900	0.700500	0.107900
N331	N33	0.694910	0.708910	0.476890
N341	N34	0.731700	0.700500	0.459900
N351	N35	0.119290	0.476890	0.708910
N361	N36	0.107900	0.459900	0.700500
N371	N37	0.708910	0.694910	0.119290
N381	N38	0.700500	0.731700	0.107900
N391	N39	0.476890	0.119290	0.694910
N401	N40	0.459900	0.107900	0.731700
N411	N41	0.694910	0.476890	0.119290
N421	N42	0.731700	0.459900	0.107900
N431	N43	0.119290	0.708910	0.694910
N441	N44	0.107900	0.700500	0.731700
N451	N45	0.708910	0.119290	0.476890
N461	N46	0.700500	0.107900	0.459900
N471	N47	0.476890	0.694910	0.708910
N481	N48	0.459900	0.731700	0.700500
O11	O1	0.442170	0.780230	0.262170
O21	O2	0.445400	0.725800	0.317000
O31	O3	0.267670	0.785590	0.440610
O41	O4	0.320510	0.730350	0.439390
O51	O5	0.190300	0.045500	0.207900
O61	O6	0.780230	0.442170	0.515430
O71	O7	0.725800	0.445400	0.511800
O81	O8	0.785590	0.267670	0.506130
O91	O9	0.730350	0.320510	0.509750
O101	O10	0.045500	0.190300	0.556300
O111	O11	0.262170	0.515430	0.442170
O121	O12	0.317000	0.511800	0.445400
O131	O13	0.440610	0.506130	0.267670
O141	O14	0.439390	0.509750	0.320510
O151	O15	0.207900	0.556300	0.190300
O161	O16	0.515430	0.262170	0.780230
O171	O17	0.511800	0.317000	0.725800
O181	O18	0.506130	0.440610	0.785590
O191	O19	0.509750	0.439390	0.730350
O201	O20	0.556300	0.207900	0.045500
O211	O21	0.442170	0.262170	0.515430
O221	O22	0.445400	0.317000	0.511800
O231	O23	0.267670	0.440610	0.506130
O241	O24	0.320510	0.439390	0.509750
O251	O25	0.190300	0.207900	0.556300
O261	O26	0.780230	0.515430	0.262170
O271	O27	0.725800	0.511800	0.317000
O281	O28	0.785590	0.506130	0.440610
O291	O29	0.730350	0.509750	0.439390
O301	O30	0.045500	0.556300	0.207900
O311	O31	0.262170	0.442170	0.780230
O321	O32	0.317000	0.445400	0.725800
O331	O33	0.440610	0.267670	0.785590
O341	O34	0.439390	0.320510	0.730350
O351	O35	0.207900	0.190300	0.045500
O361	O36	0.515430	0.780230	0.442170
O371	O37	0.511800	0.725800	0.445400
O381	O38	0.506130	0.785590	0.267670
O391	O39	0.509750	0.730350	0.320510
O401	O40	0.556300	0.045500	0.190300
O411	O41	0.442170	0.515430	0.780230
O421	O42	0.445400	0.511800	0.725800
O431	O43	0.267670	0.506130	0.785590
O441	O44	0.320510	0.509750	0.730350
O451	O45	0.190300	0.556300	0.045500
O461	O46	0.780230	0.262170	0.442170
O471	O47	0.725800	0.317000	0.445400
O481	O48	0.785590	0.440610	0.267670
O491	O49	0.730350	0.439390	0.320510
O501	O50	0.045500	0.207900	0.190300
O511	O51	0.262170	0.780230	0.515430
O521	O52	0.317000	0.725800	0.511800
O531	O53	0.440610	0.785590	0.506130
O541	O54	0.439390	0.730350	0.509750
O551	O55	0.207900	0.045500	0.556300
O561	O56	0.515430	0.442170	0.262170
O571	O57	0.511800	0.445400	0.317000
O581	O58	0.506130	0.267670	0.440610
O591	O59	0.509750	0.320510	0.439390
O601	O60	0.556300	0.190300	0.207900
O611	O61	0.557830	0.219770	0.737830
O621	O62	0.554600	0.274200	0.683000
O631	O63	0.732330	0.214410	0.559390
O641	O64	0.679490	0.269650	0.560610
O651	O65	0.809700	0.954500	0.792100
O661	O66	0.219770	0.557830	0.484570
O671	O67	0.274200	0.554600	0.488200
O681	O68	0.214410	0.732330	0.493870
O691	O69	0.269650	0.679490	0.490250
O701	O70	0.954500	0.809700	0.443700
O711	O71	0.737830	0.484570	0.557830
O721	O72	0.683000	0.488200	0.554600
O731	O73	0.559390	0.493870	0.732330
O741	O74	0.560610	0.490250	0.679490
O751	O75	0.792100	0.443700	0.809700
O761	O76	0.484570	0.737830	0.219770
O771	O77	0.488200	0.683000	0.274200
O781	O78	0.493870	0.559390	0.214410
O791	O79	0.490250	0.560610	0.269650
O801	O80	0.443700	0.792100	0.954500
O811	O81	0.557830	0.737830	0.484570
O821	O82	0.554600	0.683000	0.488200
O831	O83	0.732330	0.559390	0.493870
O841	O84	0.679490	0.560610	0.490250
O851	O85	0.809700	0.792100	0.443700
O861	O86	0.219770	0.484570	0.737830
O871	O87	0.274200	0.488200	0.683000
O881	O88	0.214410	0.493870	0.559390
O891	O89	0.269650	0.490250	0.560610
O901	O90	0.954500	0.443700	0.792100
O911	O91	0.737830	0.557830	0.219770
O921	O92	0.683000	0.554600	0.274200
O931	O93	0.559390	0.732330	0.214410
O941	O94	0.560610	0.679490	0.269650
O951	O95	0.792100	0.809700	0.954500
O961	O96	0.484570	0.219770	0.557830
O971	O97	0.488200	0.274200	0.554600
O981	O98	0.493870	0.214410	0.732330
O991	O99	0.490250	0.269650	0.679490
O1001	O100	0.443700	0.954500	0.809700
O1011	O101	0.557830	0.484570	0.219770
O1021	O102	0.554600	0.488200	0.274200
O1031	O103	0.732330	0.493870	0.214410
O1041	O104	0.679490	0.490250	0.269650
O1051	O105	0.809700	0.443700	0.954500
O1061	O106	0.219770	0.737830	0.557830
O1071	O107	0.274200	0.683000	0.554600
O1081	O108	0.214410	0.559390	0.732330
O1091	O109	0.269650	0.560610	0.679490
O1101	O110	0.954500	0.792100	0.809700
O1111	O111	0.737830	0.219770	0.484570
O1121	O112	0.683000	0.274200	0.488200
O1131	O113	0.559390	0.214410	0.493870
O1141	O114	0.560610	0.269650	0.490250
O1151	O115	0.792100	0.954500	0.443700
O1161	O116	0.484570	0.557830	0.737830
O1171	O117	0.488200	0.554600	0.683000
O1181	O118	0.493870	0.732330	0.559390
O1191	O119	0.490250	0.679490	0.560610
O1201	O120	0.443700	0.809700	0.792100
