data_ADAXEK_clean_PM
_symmetry_space_group_name_H-M	'P1'
_cell_length_a	7.166800
_cell_length_b	9.852400
_cell_length_c	12.372200
_cell_angle_alpha	91.285400
_cell_angle_beta	106.836000
_cell_angle_gamma	85.557900
_symmetry_Int_Tables_number 1

loop_
_symmetry_equiv_pos_as_xyz
'x,y,z'

loop_
_atom_site_label
_atom_site_type_symbol
_atom_site_fract_x
_atom_site_fract_y
_atom_site_fract_z
Co11	Co1	0.500000	0.500000	0.500000
Co21	Co2	0.000000	0.500000	0.500000
H11	H1	0.547800	0.143200	0.634200
H21	H2	0.104300	0.087700	0.630400
H31	H3	0.501900	0.302300	0.086600
H41	H4	0.596900	0.304800	0.280400
H51	H5	0.086400	0.856800	0.634200
H61	H6	0.526100	0.912300	0.630400
H71	H7	0.584700	0.697700	0.086600
H81	H8	0.683500	0.695200	0.280400
H91	H9	0.452200	0.856800	0.365800
H101	H10	0.895700	0.912300	0.369600
H111	H11	0.498100	0.697700	0.913400
H121	H12	0.403100	0.695200	0.719600
H131	H13	0.913600	0.143200	0.365800
H141	H14	0.473900	0.087700	0.369600
H151	H15	0.415300	0.302300	0.913400
H161	H16	0.316500	0.304800	0.719600
C11	C1	0.826270	0.141500	0.628540
C21	C2	0.655500	0.085800	0.631400
C31	C3	0.987200	0.052900	0.630200
C41	C4	0.828040	0.291700	0.611080
C51	C5	0.537500	0.383100	0.124600
C61	C6	0.594790	0.384000	0.240380
C71	C7	0.802270	0.858500	0.628540
C81	C8	0.975900	0.914200	0.631400
C91	C9	0.643000	0.947100	0.630200
C101	C10	0.783040	0.708300	0.611080
C111	C11	0.587100	0.616900	0.124600
C121	C12	0.645590	0.616000	0.240380
C131	C13	0.173730	0.858500	0.371460
C141	C14	0.344500	0.914200	0.368600
C151	C15	0.012800	0.947100	0.369800
C161	C16	0.171960	0.708300	0.388920
C171	C17	0.462500	0.616900	0.875400
C181	C18	0.405210	0.616000	0.759620
C191	C19	0.197730	0.141500	0.371460
C201	C20	0.024100	0.085800	0.368600
C211	C21	0.357000	0.052900	0.369800
C221	C22	0.216960	0.291700	0.388920
C231	C23	0.412900	0.383100	0.875400
C241	C24	0.354410	0.384000	0.759620
C251	C25	0.531400	0.500000	0.062800
C261	C26	0.468600	0.500000	0.937200
N11	N1	0.647700	0.500000	0.295400
N21	N2	0.352300	0.500000	0.704600
O11	O1	0.682540	0.366400	0.619280
O21	O2	0.974990	0.330000	0.587180
O31	O3	0.936740	0.633600	0.619280
O41	O4	0.612190	0.670000	0.587180
O51	O5	0.317460	0.633600	0.380720
O61	O6	0.025010	0.670000	0.412820
O71	O7	0.063260	0.366400	0.380720
O81	O8	0.387810	0.330000	0.412820
O91	O9	0.704140	0.500000	0.408280
O101	O10	0.295860	0.500000	0.591720
