data_ADEGIA01_clean_PM
_symmetry_space_group_name_H-M	'P1'
_cell_length_a	8.600600
_cell_length_b	10.173000
_cell_length_c	11.125000
_cell_angle_alpha	65.110000
_cell_angle_beta	71.800000
_cell_angle_gamma	78.860000
_symmetry_Int_Tables_number 1

loop_
_symmetry_equiv_pos_as_xyz
'x,y,z'

loop_
_atom_site_label
_atom_site_type_symbol
_atom_site_fract_x
_atom_site_fract_y
_atom_site_fract_z
Gd11	Gd1	0.131880	0.439420	0.653710
O11	O1	0.034600	0.368000	0.479300
O21	O2	0.131900	0.204200	0.647100
O31	O3	0.844300	0.380300	0.764300
O41	O4	0.939100	0.522600	0.825800
O51	O5	0.178900	0.264800	0.868500
O61	O6	0.397900	0.300300	0.694400
C11	C1	0.067900	0.235900	0.552300
C21	C2	0.034200	0.114700	0.522900
C31	C3	0.992700	0.984200	0.630500
H11	H1	0.894500	0.999900	0.695100
C41	C4	0.042900	0.132700	0.390300
H21	H2	0.966100	0.210700	0.354400
C51	C5	0.821000	0.460000	0.832600
C61	C6	0.654900	0.481800	0.917700
C71	C7	0.526400	0.409200	0.928500
H31	H3	0.510800	0.436800	0.839100
C81	C8	0.630200	0.569500	0.992300
H41	H4	0.659200	0.666100	0.929800
C91	C9	0.325900	0.232000	0.819300
C101	C10	0.417700	0.111600	0.910200
C111	C11	0.337800	0.040200	0.048100
H51	H5	0.303000	0.109300	0.090900
C121	C12	0.581200	0.070400	0.862100
H61	H6	0.645900	0.151700	0.828900
Gd21	Gd2	0.868120	0.560580	0.346290
O71	O7	0.965400	0.632000	0.520700
O81	O8	0.868100	0.795800	0.352900
O91	O9	0.155700	0.619700	0.235700
O101	O10	0.060900	0.477400	0.174200
O111	O11	0.821100	0.735200	0.131500
O121	O12	0.602100	0.699700	0.305600
C131	C13	0.932100	0.764100	0.447700
C141	C14	0.965800	0.885300	0.477100
C151	C15	0.007300	0.015800	0.369500
H71	H7	0.105500	0.000100	0.304900
C161	C16	0.957100	0.867300	0.609700
H81	H8	0.033900	0.789300	0.645600
C171	C17	0.179000	0.540000	0.167400
C181	C18	0.345100	0.518200	0.082300
C191	C19	0.473600	0.590800	0.071500
H91	H9	0.489200	0.563200	0.160900
C201	C20	0.369800	0.430500	0.007700
H101	H10	0.340800	0.333900	0.070200
C211	C21	0.674100	0.768000	0.180700
C221	C22	0.582300	0.888400	0.089800
C231	C23	0.662200	0.959800	0.951900
H111	H11	0.697000	0.890700	0.909100
C241	C24	0.418800	0.929600	0.137900
H121	H12	0.354100	0.848300	0.171100
