data_ADOCEC_clean_PM
_symmetry_space_group_name_H-M	'P1'
_cell_length_a	17.091000
_cell_length_b	17.091000
_cell_length_c	14.611000
_cell_angle_alpha	90.000000
_cell_angle_beta	90.000000
_cell_angle_gamma	90.000000
_symmetry_Int_Tables_number 1

loop_
_symmetry_equiv_pos_as_xyz
'x,y,z'

loop_
_atom_site_label
_atom_site_type_symbol
_atom_site_fract_x
_atom_site_fract_y
_atom_site_fract_z
V11	V1	0.378710	0.386820	0.628100
V21	V2	0.685440	0.452660	0.588690
V31	V3	0.533210	0.311330	0.587040
V41	V4	0.566270	0.428940	0.730170
C11	C1	0.078600	0.272600	0.684100
H11	H1	0.068900	0.261500	0.745400
C21	C2	0.015800	0.275800	0.625900
H21	H2	0.965400	0.267400	0.647700
C31	C3	0.028600	0.292100	0.532700
C41	C4	0.164400	0.304800	0.573100
H31	H3	0.214800	0.318500	0.555500
C51	C5	0.828000	0.304600	0.426600
H41	H4	0.777600	0.318400	0.444500
C61	C6	0.888100	0.311700	0.488600
H51	H5	0.877900	0.330500	0.547100
C71	C7	0.963500	0.291000	0.465000
C81	C8	0.914200	0.263300	0.315700
H61	H6	0.923900	0.249300	0.255300
C91	C9	0.976700	0.267400	0.374700
H71	H7	0.026900	0.254800	0.355000
C101	C10	0.105700	0.306800	0.507900
H81	H8	0.118000	0.318100	0.447300
N11	N1	0.152400	0.284300	0.659100
N21	N2	0.278300	0.160200	0.659800
O11	O1	0.480900	0.370700	0.682000
O21	O2	0.620400	0.369200	0.623400
O31	O3	0.368900	0.490800	0.682200
O41	O4	0.313500	0.440500	0.538900
O51	O5	0.427100	0.320300	0.537000
O61	O6	0.318800	0.328300	0.681800
V51	V5	0.621290	0.613180	0.628100
V61	V6	0.314560	0.547340	0.588690
V71	V7	0.466790	0.688670	0.587040
V81	V8	0.433730	0.571060	0.730170
C111	C11	0.921400	0.727400	0.684100
H91	H9	0.931100	0.738500	0.745400
C121	C12	0.984200	0.724200	0.625900
H101	H10	0.034600	0.732600	0.647700
C131	C13	0.971400	0.707900	0.532700
C141	C14	0.835600	0.695200	0.573100
H111	H11	0.785200	0.681500	0.555500
C151	C15	0.172000	0.695400	0.426600
H121	H12	0.222400	0.681600	0.444500
C161	C16	0.111900	0.688300	0.488600
H131	H13	0.122100	0.669500	0.547100
C171	C17	0.036500	0.709000	0.465000
C181	C18	0.085800	0.736700	0.315700
H141	H14	0.076100	0.750700	0.255300
C191	C19	0.023300	0.732600	0.374700
H151	H15	0.973100	0.745200	0.355000
C201	C20	0.894300	0.693200	0.507900
H161	H16	0.882000	0.681900	0.447300
N31	N3	0.847600	0.715700	0.659100
N41	N4	0.721700	0.839800	0.659800
O71	O7	0.519100	0.629300	0.682000
O81	O8	0.379600	0.630800	0.623400
O91	O9	0.631100	0.509200	0.682200
O101	O10	0.686500	0.559500	0.538900
O111	O11	0.572900	0.679700	0.537000
O121	O12	0.681200	0.671700	0.681800
V91	V9	0.386820	0.621290	0.371900
V101	V10	0.452660	0.314560	0.411310
V111	V11	0.311330	0.466790	0.412960
V121	V12	0.428940	0.433730	0.269830
C211	C21	0.272600	0.921400	0.315900
H171	H17	0.261500	0.931100	0.254600
C221	C22	0.275800	0.984200	0.374100
H181	H18	0.267400	0.034600	0.352300
C231	C23	0.292100	0.971400	0.467300
C241	C24	0.304800	0.835600	0.426900
H191	H19	0.318500	0.785200	0.444500
C251	C25	0.304600	0.172000	0.573400
H201	H20	0.318400	0.222400	0.555500
C261	C26	0.311700	0.111900	0.511400
H211	H21	0.330500	0.122100	0.452900
C271	C27	0.291000	0.036500	0.535000
C281	C28	0.263300	0.085800	0.684300
H221	H22	0.249300	0.076100	0.744700
C291	C29	0.267400	0.023300	0.625300
H231	H23	0.254800	0.973100	0.645000
C301	C30	0.306800	0.894300	0.492100
H241	H24	0.318100	0.882000	0.552700
N51	N5	0.284300	0.847600	0.340900
N61	N6	0.160200	0.721700	0.340200
O131	O13	0.370700	0.519100	0.318000
O141	O14	0.369200	0.379600	0.376600
O151	O15	0.490800	0.631100	0.317800
O161	O16	0.440500	0.686500	0.461100
O171	O17	0.320300	0.572900	0.463000
O181	O18	0.328300	0.681200	0.318200
V131	V13	0.613180	0.378710	0.371900
V141	V14	0.547340	0.685440	0.411310
V151	V15	0.688670	0.533210	0.412960
V161	V16	0.571060	0.566270	0.269830
C311	C31	0.727400	0.078600	0.315900
H251	H25	0.738500	0.068900	0.254600
C321	C32	0.724200	0.015800	0.374100
H261	H26	0.732600	0.965400	0.352300
C331	C33	0.707900	0.028600	0.467300
C341	C34	0.695200	0.164400	0.426900
H271	H27	0.681500	0.214800	0.444500
C351	C35	0.695400	0.828000	0.573400
H281	H28	0.681600	0.777600	0.555500
C361	C36	0.688300	0.888100	0.511400
H291	H29	0.669500	0.877900	0.452900
C371	C37	0.709000	0.963500	0.535000
C381	C38	0.736700	0.914200	0.684300
H301	H30	0.750700	0.923900	0.744700
C391	C39	0.732600	0.976700	0.625300
H311	H31	0.745200	0.026900	0.645000
C401	C40	0.693200	0.105700	0.492100
H321	H32	0.681900	0.118000	0.552700
N71	N7	0.715700	0.152400	0.340900
N81	N8	0.839800	0.278300	0.340200
O191	O19	0.629300	0.480900	0.318000
O201	O20	0.630800	0.620400	0.376600
O211	O21	0.509200	0.368900	0.317800
O221	O22	0.559500	0.313500	0.461100
O231	O23	0.679700	0.427100	0.463000
O241	O24	0.671700	0.318800	0.318200
V171	V17	0.878710	0.113180	0.128100
V181	V18	0.185440	0.047340	0.088690
V191	V19	0.033210	0.188670	0.087040
V201	V20	0.066270	0.071060	0.230170
C411	C41	0.578600	0.227400	0.184100
H331	H33	0.568900	0.238500	0.245400
C421	C42	0.515800	0.224200	0.125900
H341	H34	0.465400	0.232600	0.147700
C431	C43	0.528600	0.207900	0.032700
C441	C44	0.664400	0.195200	0.073100
H351	H35	0.714800	0.181500	0.055500
C451	C45	0.328000	0.195400	0.926600
H361	H36	0.277600	0.181600	0.944500
C461	C46	0.388100	0.188300	0.988600
H371	H37	0.377900	0.169500	0.047100
C471	C47	0.463500	0.209000	0.965000
C481	C48	0.414200	0.236700	0.815700
H381	H38	0.423900	0.250700	0.755300
C491	C49	0.476700	0.232600	0.874700
H391	H39	0.526900	0.245200	0.855000
C501	C50	0.605700	0.193200	0.007900
H401	H40	0.618000	0.181900	0.947300
N91	N9	0.652400	0.215700	0.159100
N101	N10	0.778300	0.339800	0.159800
O251	O25	0.980900	0.129300	0.182000
O261	O26	0.120400	0.130800	0.123400
O271	O27	0.868900	0.009200	0.182200
O281	O28	0.813500	0.059500	0.038900
O291	O29	0.927100	0.179700	0.037000
O301	O30	0.818800	0.171700	0.181800
V211	V21	0.121290	0.886820	0.128100
V221	V22	0.814560	0.952660	0.088690
V231	V23	0.966790	0.811330	0.087040
V241	V24	0.933730	0.928940	0.230170
C511	C51	0.421400	0.772600	0.184100
H411	H41	0.431100	0.761500	0.245400
C521	C52	0.484200	0.775800	0.125900
H421	H42	0.534600	0.767400	0.147700
C531	C53	0.471400	0.792100	0.032700
C541	C54	0.335600	0.804800	0.073100
H431	H43	0.285200	0.818500	0.055500
C551	C55	0.672000	0.804600	0.926600
H441	H44	0.722400	0.818400	0.944500
C561	C56	0.611900	0.811700	0.988600
H451	H45	0.622100	0.830500	0.047100
C571	C57	0.536500	0.791000	0.965000
C581	C58	0.585800	0.763300	0.815700
H461	H46	0.576100	0.749300	0.755300
C591	C59	0.523300	0.767400	0.874700
H471	H47	0.473100	0.754800	0.855000
C601	C60	0.394300	0.806800	0.007900
H481	H48	0.382000	0.818100	0.947300
N111	N11	0.347600	0.784300	0.159100
N121	N12	0.221700	0.660200	0.159800
O311	O31	0.019100	0.870700	0.182000
O321	O32	0.879600	0.869200	0.123400
O331	O33	0.131100	0.990800	0.182200
O341	O34	0.186500	0.940500	0.038900
O351	O35	0.072900	0.820300	0.037000
O361	O36	0.181200	0.828300	0.181800
V251	V25	0.886820	0.878710	0.871900
V261	V26	0.952660	0.185440	0.911310
V271	V27	0.811330	0.033210	0.912960
V281	V28	0.928940	0.066270	0.769830
C611	C61	0.772600	0.578600	0.815900
H491	H49	0.761500	0.568900	0.754600
C621	C62	0.775800	0.515800	0.874100
H501	H50	0.767400	0.465400	0.852300
C631	C63	0.792100	0.528600	0.967300
C641	C64	0.804800	0.664400	0.926900
H511	H51	0.818500	0.714800	0.944500
C651	C65	0.804600	0.328000	0.073400
H521	H52	0.818400	0.277600	0.055500
C661	C66	0.811700	0.388100	0.011400
H531	H53	0.830500	0.377900	0.952900
C671	C67	0.791000	0.463500	0.035000
C681	C68	0.763300	0.414200	0.184300
H541	H54	0.749300	0.423900	0.244700
C691	C69	0.767400	0.476700	0.125300
H551	H55	0.754800	0.526900	0.145000
C701	C70	0.806800	0.605700	0.992100
H561	H56	0.818100	0.618000	0.052700
N131	N13	0.784300	0.652400	0.840900
N141	N14	0.660200	0.778300	0.840200
O371	O37	0.870700	0.980900	0.818000
O381	O38	0.869200	0.120400	0.876600
O391	O39	0.990800	0.868900	0.817800
O401	O40	0.940500	0.813500	0.961100
O411	O41	0.820300	0.927100	0.963000
O421	O42	0.828300	0.818800	0.818200
V291	V29	0.113180	0.121290	0.871900
V301	V30	0.047340	0.814560	0.911310
V311	V31	0.188670	0.966790	0.912960
V321	V32	0.071060	0.933730	0.769830
C711	C71	0.227400	0.421400	0.815900
H571	H57	0.238500	0.431100	0.754600
C721	C72	0.224200	0.484200	0.874100
H581	H58	0.232600	0.534600	0.852300
C731	C73	0.207900	0.471400	0.967300
C741	C74	0.195200	0.335600	0.926900
H591	H59	0.181500	0.285200	0.944500
C751	C75	0.195400	0.672000	0.073400
H601	H60	0.181600	0.722400	0.055500
C761	C76	0.188300	0.611900	0.011400
H611	H61	0.169500	0.622100	0.952900
C771	C77	0.209000	0.536500	0.035000
C781	C78	0.236700	0.585800	0.184300
H621	H62	0.250700	0.576100	0.244700
C791	C79	0.232600	0.523300	0.125300
H631	H63	0.245200	0.473100	0.145000
C801	C80	0.193200	0.394300	0.992100
H641	H64	0.181900	0.382000	0.052700
N151	N15	0.215700	0.347600	0.840900
N161	N16	0.339800	0.221700	0.840200
O431	O43	0.129300	0.019100	0.818000
O441	O44	0.130800	0.879600	0.876600
O451	O45	0.009200	0.131100	0.817800
O461	O46	0.059500	0.186500	0.961100
O471	O47	0.179700	0.072900	0.963000
O481	O48	0.171700	0.181200	0.818200
Ni11	Ni1	0.246390	0.253610	0.750000
Ni21	Ni2	0.753610	0.746390	0.750000
Ni31	Ni3	0.253610	0.753610	0.250000
Ni41	Ni4	0.746390	0.246390	0.250000
O491	O49	0.500000	0.500000	0.782400
O501	O50	0.500000	0.500000	0.217600
O511	O51	0.000000	0.000000	0.282400
O521	O52	0.000000	0.000000	0.717600
