data_ADODII_clean_PM
_symmetry_space_group_name_H-M	'P1'
_cell_length_a	7.393300
_cell_length_b	14.349000
_cell_length_c	16.975400
_cell_angle_alpha	104.154000
_cell_angle_beta	102.578000
_cell_angle_gamma	90.000000
_symmetry_Int_Tables_number 1

loop_
_symmetry_equiv_pos_as_xyz
'x,y,z'

loop_
_atom_site_label
_atom_site_type_symbol
_atom_site_fract_x
_atom_site_fract_y
_atom_site_fract_z
La11	La1	0.507390	0.963770	0.501320
La21	La2	0.006070	0.036230	0.498680
H11	H1	0.280800	0.527000	0.098800
H21	H2	0.301600	0.433400	0.031200
H31	H3	0.898000	0.492100	0.110400
H41	H4	0.922800	0.424000	0.171400
H51	H5	0.368800	0.343700	0.130600
H61	H6	0.351200	0.433100	0.203000
H71	H7	0.966800	0.281000	0.068800
H81	H8	0.899400	0.347700	0.008400
H91	H9	0.574100	0.341900	0.248400
H101	H10	0.776000	0.268800	0.338200
H111	H11	0.344200	0.127300	0.371600
H121	H12	0.147300	0.199400	0.282400
H131	H13	0.252000	0.210600	0.862800
H141	H14	0.108000	0.118900	0.730600
H151	H15	0.629100	0.118800	0.802400
H161	H16	0.772600	0.206400	0.934600
H171	H17	0.725900	0.556000	0.198400
H181	H18	0.581400	0.672200	0.276000
H191	H19	0.071000	0.790400	0.417600
H201	H20	0.220500	0.675600	0.335600
H211	H21	0.182000	0.473000	0.901200
H221	H22	0.270400	0.566600	0.968800
H231	H23	0.787600	0.507900	0.889600
H241	H24	0.751400	0.576000	0.828600
H251	H25	0.238200	0.656300	0.869400
H261	H26	0.148200	0.566900	0.797000
H271	H27	0.898000	0.719000	0.931200
H281	H28	0.891000	0.652300	0.991600
H291	H29	0.325700	0.658100	0.751600
H301	H30	0.437800	0.731200	0.661800
H311	H31	0.972600	0.872700	0.628400
H321	H32	0.864900	0.800600	0.717600
H331	H33	0.389200	0.789400	0.137200
H341	H34	0.377400	0.881100	0.269400
H351	H35	0.826700	0.881200	0.197600
H361	H36	0.838000	0.793600	0.065400
H371	H37	0.527500	0.444000	0.801600
H381	H38	0.305400	0.327800	0.724000
H391	H39	0.653400	0.209600	0.582400
H401	H40	0.884900	0.324400	0.664400
C11	C1	0.124800	0.410500	0.104000
C21	C2	0.213700	0.470900	0.058800
C31	C3	0.988300	0.466100	0.148800
C41	C4	0.283700	0.377600	0.162400
C51	C5	0.008200	0.324700	0.040000
C61	C6	0.342300	0.275500	0.255600
C71	C7	0.528100	0.298100	0.272600
C81	C8	0.648900	0.254400	0.327000
C91	C9	0.583100	0.191100	0.364000
C101	C10	0.391800	0.170000	0.347000
C111	C11	0.274700	0.212900	0.293400
C121	C12	0.021700	0.218700	0.908800
C131	C13	0.126300	0.192200	0.850200
C141	C14	0.039400	0.137100	0.771200
C151	C15	0.852300	0.108900	0.752400
C161	C16	0.755000	0.136600	0.814200
C171	C17	0.839300	0.190200	0.893000
C181	C18	0.754600	0.053800	0.668800
C191	C19	0.986700	0.605100	0.258000
C201	C20	0.796000	0.603700	0.241600
C211	C21	0.710200	0.672300	0.289000
C221	C22	0.810200	0.742800	0.357000
C231	C23	0.001300	0.743600	0.373400
C241	C24	0.091600	0.674800	0.324200
C251	C25	0.712400	0.817500	0.406200
C261	C26	0.716300	0.143700	0.418600
C271	C27	0.020800	0.589500	0.896000
C281	C28	0.154900	0.529100	0.941200
C291	C29	0.839500	0.533900	0.851200
C301	C30	0.121300	0.622400	0.837600
C311	C31	0.968200	0.675300	0.960000
C321	C32	0.086700	0.724500	0.744400
C331	C33	0.255500	0.701900	0.727400
C341	C34	0.321900	0.745600	0.673000
C351	C35	0.219100	0.808900	0.636000
C361	C36	0.044800	0.830000	0.653000
C371	C37	0.981300	0.787100	0.706600
C381	C38	0.112900	0.781300	0.091200
C391	C39	0.276100	0.807800	0.149800
C401	C40	0.268200	0.862900	0.228800
C411	C41	0.099900	0.891100	0.247600
C421	C42	0.940800	0.863400	0.185800
C431	C43	0.946300	0.809800	0.107000
C441	C44	0.085800	0.946200	0.331200
C451	C45	0.728700	0.394900	0.742000
C461	C46	0.554400	0.396300	0.758400
C471	C47	0.421200	0.327700	0.711000
C481	C48	0.453200	0.257200	0.643000
C491	C49	0.627900	0.256400	0.626600
C501	C50	0.767400	0.325200	0.675800
C511	C51	0.306200	0.182500	0.593800
C521	C52	0.297700	0.856300	0.581400
O11	O1	0.832290	0.042400	0.607780
O21	O2	0.593270	0.022200	0.657940
O31	O3	0.883000	0.173900	0.442600
O41	O4	0.660350	0.071900	0.440100
O51	O5	0.806970	0.883900	0.465340
O61	O6	0.540630	0.815400	0.390460
O71	O7	0.213100	0.315400	0.204200
O81	O8	0.088350	0.542300	0.214500
O91	O9	0.115950	0.275600	0.985100
O101	O10	0.224510	0.957600	0.392220
O111	O11	0.935330	0.977800	0.342060
O121	O12	0.440400	0.826100	0.557400
O131	O13	0.220250	0.928100	0.559900
O141	O14	0.341630	0.116100	0.534660
O151	O15	0.150170	0.184600	0.609540
O161	O16	0.008900	0.684600	0.795800
O171	O17	0.873850	0.457700	0.785500
O181	O18	0.130850	0.724400	0.014900
O191	O19	0.077500	0.500000	0.000000
