data_ADODAA_charged_PM
_symmetry_space_group_name_H-M	'P1'
_cell_length_a	21.333600
_cell_length_b	21.333600
_cell_length_c	21.333600
_cell_angle_alpha	60.000000
_cell_angle_beta	60.000000
_cell_angle_gamma	60.000000
_symmetry_Int_Tables_number 1

loop_
_symmetry_equiv_pos_as_xyz
'x,y,z'

loop_
_atom_site_label
_atom_site_type_symbol
_atom_site_fract_x
_atom_site_fract_y
_atom_site_fract_z
Cu11	Cu1	0.022360	0.649200	0.125740
Cu21	Cu2	0.649200	0.022360	0.202700
Cu31	Cu3	0.125740	0.202700	0.022360
Cu41	Cu4	0.202700	0.125740	0.649200
Cu51	Cu5	0.022360	0.125740	0.202700
Cu61	Cu6	0.649200	0.202700	0.125740
Cu71	Cu7	0.125740	0.022360	0.649200
Cu81	Cu8	0.202700	0.649200	0.022360
Cu91	Cu9	0.022360	0.202700	0.649200
Cu101	Cu10	0.649200	0.125740	0.022360
Cu111	Cu11	0.125740	0.649200	0.202700
Cu121	Cu12	0.202700	0.022360	0.125740
Cu131	Cu13	0.522360	0.149200	0.702700
Cu141	Cu14	0.149200	0.522360	0.625740
Cu151	Cu15	0.625740	0.702700	0.149200
Cu161	Cu16	0.702700	0.625740	0.522360
Cu171	Cu17	0.522360	0.625740	0.149200
Cu181	Cu18	0.149200	0.702700	0.522360
Cu191	Cu19	0.625740	0.522360	0.702700
Cu201	Cu20	0.702700	0.149200	0.625740
Cu211	Cu21	0.522360	0.702700	0.625740
Cu221	Cu22	0.149200	0.625740	0.702700
Cu231	Cu23	0.625740	0.149200	0.522360
Cu241	Cu24	0.702700	0.522360	0.149200
H11	H1	0.872800	0.639400	0.278400
H21	H2	0.988400	0.661400	0.363000
H31	H3	0.639400	0.872800	0.209400
H41	H4	0.661400	0.988400	0.987200
H51	H5	0.278400	0.209400	0.872800
H61	H6	0.363000	0.987200	0.988400
H71	H7	0.209400	0.278400	0.639400
H81	H8	0.987200	0.363000	0.661400
H91	H9	0.872800	0.278400	0.209400
H101	H10	0.988400	0.363000	0.987200
H111	H11	0.639400	0.209400	0.278400
H121	H12	0.661400	0.987200	0.363000
H131	H13	0.278400	0.872800	0.639400
H141	H14	0.363000	0.988400	0.661400
H151	H15	0.209400	0.639400	0.872800
H161	H16	0.987200	0.661400	0.988400
H171	H17	0.872800	0.209400	0.639400
H181	H18	0.988400	0.987200	0.661400
H191	H19	0.639400	0.278400	0.872800
H201	H20	0.661400	0.363000	0.988400
H211	H21	0.278400	0.639400	0.209400
H221	H22	0.363000	0.661400	0.987200
H231	H23	0.209400	0.872800	0.278400
H241	H24	0.987200	0.988400	0.363000
H251	H25	0.372800	0.139400	0.709400
H261	H26	0.488400	0.161400	0.487200
H271	H27	0.139400	0.372800	0.778400
H281	H28	0.161400	0.488400	0.863000
H291	H29	0.778400	0.709400	0.139400
H301	H30	0.863000	0.487200	0.161400
H311	H31	0.709400	0.778400	0.372800
H321	H32	0.487200	0.863000	0.488400
H331	H33	0.372800	0.778400	0.139400
H341	H34	0.488400	0.863000	0.161400
H351	H35	0.139400	0.709400	0.372800
H361	H36	0.161400	0.487200	0.488400
H371	H37	0.778400	0.372800	0.709400
H381	H38	0.863000	0.488400	0.487200
H391	H39	0.709400	0.139400	0.778400
H401	H40	0.487200	0.161400	0.863000
H411	H41	0.372800	0.709400	0.778400
H421	H42	0.488400	0.487200	0.863000
H431	H43	0.139400	0.778400	0.709400
H441	H44	0.161400	0.863000	0.487200
H451	H45	0.778400	0.139400	0.372800
H461	H46	0.863000	0.161400	0.488400
H471	H47	0.709400	0.372800	0.139400
H481	H48	0.487200	0.488400	0.161400
C11	C1	0.841100	0.648700	0.420300
C21	C2	0.905700	0.651100	0.347900
C31	C3	0.911200	0.644800	0.283800
C41	C4	0.974700	0.656900	0.329700
C51	C5	0.648700	0.841100	0.089900
C61	C6	0.651100	0.905700	0.095300
C71	C7	0.644800	0.911200	0.160200
C81	C8	0.656900	0.974700	0.038700
C91	C9	0.420300	0.089900	0.841100
C101	C10	0.347900	0.095300	0.905700
C111	C11	0.283800	0.160200	0.911200
C121	C12	0.329700	0.038700	0.974700
C131	C13	0.089900	0.420300	0.648700
C141	C14	0.095300	0.347900	0.651100
C151	C15	0.160200	0.283800	0.644800
C161	C16	0.038700	0.329700	0.656900
C171	C17	0.841100	0.420300	0.089900
C181	C18	0.905700	0.347900	0.095300
C191	C19	0.911200	0.283800	0.160200
C201	C20	0.974700	0.329700	0.038700
C211	C21	0.648700	0.089900	0.420300
C221	C22	0.651100	0.095300	0.347900
C231	C23	0.644800	0.160200	0.283800
C241	C24	0.656900	0.038700	0.329700
C251	C25	0.420300	0.841100	0.648700
C261	C26	0.347900	0.905700	0.651100
C271	C27	0.283800	0.911200	0.644800
C281	C28	0.329700	0.974700	0.656900
C291	C29	0.089900	0.648700	0.841100
C301	C30	0.095300	0.651100	0.905700
C311	C31	0.160200	0.644800	0.911200
C321	C32	0.038700	0.656900	0.974700
C331	C33	0.841100	0.089900	0.648700
C341	C34	0.905700	0.095300	0.651100
C351	C35	0.911200	0.160200	0.644800
C361	C36	0.974700	0.038700	0.656900
C371	C37	0.648700	0.420300	0.841100
C381	C38	0.651100	0.347900	0.905700
C391	C39	0.644800	0.283800	0.911200
C401	C40	0.656900	0.329700	0.974700
C411	C41	0.420300	0.648700	0.089900
C421	C42	0.347900	0.651100	0.095300
C431	C43	0.283800	0.644800	0.160200
C441	C44	0.329700	0.656900	0.038700
C451	C45	0.089900	0.841100	0.420300
C461	C46	0.095300	0.905700	0.347900
C471	C47	0.160200	0.911200	0.283800
C481	C48	0.038700	0.974700	0.329700
C491	C49	0.341100	0.148700	0.589900
C501	C50	0.405700	0.151100	0.595300
C511	C51	0.411200	0.144800	0.660200
C521	C52	0.474700	0.156900	0.538700
C531	C53	0.148700	0.341100	0.920300
C541	C54	0.151100	0.405700	0.847900
C551	C55	0.144800	0.411200	0.783800
C561	C56	0.156900	0.474700	0.829700
C571	C57	0.920300	0.589900	0.148700
C581	C58	0.847900	0.595300	0.151100
C591	C59	0.783800	0.660200	0.144800
C601	C60	0.829700	0.538700	0.156900
C611	C61	0.589900	0.920300	0.341100
C621	C62	0.595300	0.847900	0.405700
C631	C63	0.660200	0.783800	0.411200
C641	C64	0.538700	0.829700	0.474700
C651	C65	0.341100	0.920300	0.148700
C661	C66	0.405700	0.847900	0.151100
C671	C67	0.411200	0.783800	0.144800
C681	C68	0.474700	0.829700	0.156900
C691	C69	0.148700	0.589900	0.341100
C701	C70	0.151100	0.595300	0.405700
C711	C71	0.144800	0.660200	0.411200
C721	C72	0.156900	0.538700	0.474700
C731	C73	0.920300	0.341100	0.589900
C741	C74	0.847900	0.405700	0.595300
C751	C75	0.783800	0.411200	0.660200
C761	C76	0.829700	0.474700	0.538700
C771	C77	0.589900	0.148700	0.920300
C781	C78	0.595300	0.151100	0.847900
C791	C79	0.660200	0.144800	0.783800
C801	C80	0.538700	0.156900	0.829700
C811	C81	0.341100	0.589900	0.920300
C821	C82	0.405700	0.595300	0.847900
C831	C83	0.411200	0.660200	0.783800
C841	C84	0.474700	0.538700	0.829700
C851	C85	0.148700	0.920300	0.589900
C861	C86	0.151100	0.847900	0.595300
C871	C87	0.144800	0.783800	0.660200
C881	C88	0.156900	0.829700	0.538700
C891	C89	0.920300	0.148700	0.341100
C901	C90	0.847900	0.151100	0.405700
C911	C91	0.783800	0.144800	0.411200
C921	C92	0.829700	0.156900	0.474700
C931	C93	0.589900	0.341100	0.148700
C941	C94	0.595300	0.405700	0.151100
C951	C95	0.660200	0.411200	0.144800
C961	C96	0.538700	0.474700	0.156900
N11	N1	0.980100	0.647700	0.230100
N21	N2	0.066300	0.655300	0.019300
N31	N3	0.647700	0.980100	0.142100
N41	N4	0.655300	0.066300	0.259100
N51	N5	0.230100	0.142100	0.980100
N61	N6	0.019300	0.259100	0.066300
N71	N7	0.142100	0.230100	0.647700
N81	N8	0.259100	0.019300	0.655300
N91	N9	0.980100	0.230100	0.142100
N101	N10	0.066300	0.019300	0.259100
N111	N11	0.647700	0.142100	0.230100
N121	N12	0.655300	0.259100	0.019300
N131	N13	0.230100	0.980100	0.647700
N141	N14	0.019300	0.066300	0.655300
N151	N15	0.142100	0.647700	0.980100
N161	N16	0.259100	0.655300	0.066300
N171	N17	0.980100	0.142100	0.647700
N181	N18	0.066300	0.259100	0.655300
N191	N19	0.647700	0.230100	0.980100
N201	N20	0.655300	0.019300	0.066300
N211	N21	0.230100	0.647700	0.142100
N221	N22	0.019300	0.655300	0.259100
N231	N23	0.142100	0.980100	0.230100
N241	N24	0.259100	0.066300	0.019300
N251	N25	0.480100	0.147700	0.642100
N261	N26	0.566300	0.155300	0.759100
N271	N27	0.147700	0.480100	0.730100
N281	N28	0.155300	0.566300	0.519300
N291	N29	0.730100	0.642100	0.147700
N301	N30	0.519300	0.759100	0.155300
N311	N31	0.642100	0.730100	0.480100
N321	N32	0.759100	0.519300	0.566300
N331	N33	0.480100	0.730100	0.147700
N341	N34	0.566300	0.519300	0.155300
N351	N35	0.147700	0.642100	0.480100
N361	N36	0.155300	0.759100	0.566300
N371	N37	0.730100	0.480100	0.642100
N381	N38	0.519300	0.566300	0.759100
N391	N39	0.642100	0.147700	0.730100
N401	N40	0.759100	0.155300	0.519300
N411	N41	0.480100	0.642100	0.730100
N421	N42	0.566300	0.759100	0.519300
N431	N43	0.147700	0.730100	0.642100
N441	N44	0.155300	0.519300	0.759100
N451	N45	0.730100	0.147700	0.480100
N461	N46	0.519300	0.155300	0.566300
N471	N47	0.642100	0.480100	0.147700
N481	N48	0.759100	0.566300	0.155300
O11	O1	0.786410	0.633810	0.424590
O21	O2	0.842600	0.656600	0.473400
O31	O3	0.633810	0.786410	0.155190
O41	O4	0.656600	0.842600	0.027400
O51	O5	0.424590	0.155190	0.786410
O61	O6	0.473400	0.027400	0.842600
O71	O7	0.155190	0.424590	0.633810
O81	O8	0.027400	0.473400	0.656600
O91	O9	0.786410	0.424590	0.155190
O101	O10	0.842600	0.473400	0.027400
O111	O11	0.633810	0.155190	0.424590
O121	O12	0.656600	0.027400	0.473400
O131	O13	0.424590	0.786410	0.633810
O141	O14	0.473400	0.842600	0.656600
O151	O15	0.155190	0.633810	0.786410
O161	O16	0.027400	0.656600	0.842600
O171	O17	0.786410	0.155190	0.633810
O181	O18	0.842600	0.027400	0.656600
O191	O19	0.633810	0.424590	0.786410
O201	O20	0.656600	0.473400	0.842600
O211	O21	0.424590	0.633810	0.155190
O221	O22	0.473400	0.656600	0.027400
O231	O23	0.155190	0.786410	0.424590
O241	O24	0.027400	0.842600	0.473400
O251	O25	0.286410	0.133810	0.655190
O261	O26	0.342600	0.156600	0.527400
O271	O27	0.133810	0.286410	0.924590
O281	O28	0.156600	0.342600	0.973400
O291	O29	0.924590	0.655190	0.133810
O301	O30	0.973400	0.527400	0.156600
O311	O31	0.655190	0.924590	0.286410
O321	O32	0.527400	0.973400	0.342600
O331	O33	0.286410	0.924590	0.133810
O341	O34	0.342600	0.973400	0.156600
O351	O35	0.133810	0.655190	0.286410
O361	O36	0.156600	0.527400	0.342600
O371	O37	0.924590	0.286410	0.655190
O381	O38	0.973400	0.342600	0.527400
O391	O39	0.655190	0.133810	0.924590
O401	O40	0.527400	0.156600	0.973400
O411	O41	0.286410	0.655190	0.924590
O421	O42	0.342600	0.527400	0.973400
O431	O43	0.133810	0.924590	0.655190
O441	O44	0.156600	0.973400	0.527400
O451	O45	0.924590	0.133810	0.286410
O461	O46	0.973400	0.156600	0.342600
O471	O47	0.655190	0.286410	0.133810
O481	O48	0.527400	0.342600	0.156600
O491	O49	0.128300	0.615100	0.128300
O501	O50	0.615100	0.128300	0.128300
O511	O51	0.128300	0.128300	0.128300
O521	O52	0.128300	0.128300	0.615100
O531	O53	0.628300	0.115100	0.628300
O541	O54	0.115100	0.628300	0.628300
O551	O55	0.628300	0.628300	0.115100
O561	O56	0.628300	0.628300	0.628300
