data_ADUROI_clean_PM
_symmetry_space_group_name_H-M	'P1'
_cell_length_a	50.819800
_cell_length_b	50.819800
_cell_length_c	50.819800
_cell_angle_alpha	60.000000
_cell_angle_beta	60.000000
_cell_angle_gamma	60.000000
_symmetry_Int_Tables_number 1

loop_
_symmetry_equiv_pos_as_xyz
'x,y,z'

loop_
_atom_site_label
_atom_site_type_symbol
_atom_site_fract_x
_atom_site_fract_y
_atom_site_fract_z
Zn11	Zn1	0.347190	0.548990	0.162530
Zn21	Zn2	0.048990	0.847190	0.941290
Zn31	Zn3	0.662530	0.941290	0.847190
Zn41	Zn4	0.441290	0.162530	0.548990
Zn51	Zn5	0.347190	0.162530	0.941290
Zn61	Zn6	0.048990	0.941290	0.162530
Zn71	Zn7	0.662530	0.847190	0.548990
Zn81	Zn8	0.441290	0.548990	0.847190
Zn91	Zn9	0.347190	0.941290	0.548990
Zn101	Zn10	0.048990	0.162530	0.847190
Zn111	Zn11	0.662530	0.548990	0.941290
Zn121	Zn12	0.441290	0.847190	0.162530
Zn131	Zn13	0.548990	0.347190	0.662530
Zn141	Zn14	0.847190	0.048990	0.441290
Zn151	Zn15	0.941290	0.662530	0.347190
Zn161	Zn16	0.162530	0.441290	0.048990
Zn171	Zn17	0.162530	0.347190	0.441290
Zn181	Zn18	0.941290	0.048990	0.662530
Zn191	Zn19	0.847190	0.662530	0.048990
Zn201	Zn20	0.548990	0.441290	0.347190
Zn211	Zn21	0.941290	0.347190	0.048990
Zn221	Zn22	0.162530	0.048990	0.347190
Zn231	Zn23	0.548990	0.662530	0.441290
Zn241	Zn24	0.847190	0.441290	0.662530
H11	H1	0.548100	0.545300	0.097900
H21	H2	0.414700	0.548100	0.116300
H31	H3	0.567400	0.539000	0.002800
H41	H4	0.523400	0.433600	0.282200
H51	H5	0.447900	0.502300	0.315100
H61	H6	0.470900	0.522100	0.164900
H71	H7	0.519600	0.535200	0.043800
H81	H8	0.377900	0.527900	0.210100
H91	H9	0.426800	0.516000	0.277400
H101	H10	0.501100	0.446300	0.244700
H111	H11	0.594000	0.551600	0.055800
H121	H12	0.502500	0.531700	0.120900
H131	H13	0.466400	0.483200	0.216200
H141	H14	0.045300	0.048100	0.808700
H151	H15	0.048100	0.914700	0.920900
H161	H16	0.039000	0.067400	0.890800
H171	H17	0.933600	0.023400	0.760800
H181	H18	0.002300	0.947900	0.734700
H191	H19	0.022100	0.970900	0.842100
H201	H20	0.035200	0.019600	0.901400
H211	H21	0.027900	0.877900	0.884100
H221	H22	0.016000	0.926800	0.779800
H231	H23	0.946300	0.001100	0.807900
H241	H24	0.051600	0.094000	0.798600
H251	H25	0.031700	0.002500	0.844900
H261	H26	0.983200	0.966400	0.834200
H271	H27	0.597900	0.808700	0.048100
H281	H28	0.616300	0.920900	0.914700
H291	H29	0.502800	0.890800	0.067400
H301	H30	0.782200	0.760800	0.023400
H311	H31	0.815100	0.734700	0.947900
H321	H32	0.664900	0.842100	0.970900
H331	H33	0.543800	0.901400	0.019600
H341	H34	0.710100	0.884100	0.877900
H351	H35	0.777400	0.779800	0.926800
H361	H36	0.744700	0.807900	0.001100
H371	H37	0.555800	0.798600	0.094000
H381	H38	0.620900	0.844900	0.002500
H391	H39	0.716200	0.834200	0.966400
H401	H40	0.308700	0.097900	0.545300
H411	H41	0.420900	0.116300	0.548100
H421	H42	0.390800	0.002800	0.539000
H431	H43	0.260800	0.282200	0.433600
H441	H44	0.234700	0.315100	0.502300
H451	H45	0.342100	0.164900	0.522100
H461	H46	0.401400	0.043800	0.535200
H471	H47	0.384100	0.210100	0.527900
H481	H48	0.279800	0.277400	0.516000
H491	H49	0.307900	0.244700	0.446300
H501	H50	0.298600	0.055800	0.551600
H511	H51	0.344900	0.120900	0.531700
H521	H52	0.334200	0.216200	0.483200
H531	H53	0.548100	0.097900	0.808700
H541	H54	0.414700	0.116300	0.920900
H551	H55	0.567400	0.002800	0.890800
H561	H56	0.523400	0.282200	0.760800
H571	H57	0.447900	0.315100	0.734700
H581	H58	0.470900	0.164900	0.842100
H591	H59	0.519600	0.043800	0.901400
H601	H60	0.377900	0.210100	0.884100
H611	H61	0.426800	0.277400	0.779800
H621	H62	0.501100	0.244700	0.807900
H631	H63	0.594000	0.055800	0.798600
H641	H64	0.502500	0.120900	0.844900
H651	H65	0.466400	0.216200	0.834200
H661	H66	0.045300	0.808700	0.097900
H671	H67	0.048100	0.920900	0.116300
H681	H68	0.039000	0.890800	0.002800
H691	H69	0.933600	0.760800	0.282200
H701	H70	0.002300	0.734700	0.315100
H711	H71	0.022100	0.842100	0.164900
H721	H72	0.035200	0.901400	0.043800
H731	H73	0.027900	0.884100	0.210100
H741	H74	0.016000	0.779800	0.277400
H751	H75	0.946300	0.807900	0.244700
H761	H76	0.051600	0.798600	0.055800
H771	H77	0.031700	0.844900	0.120900
H781	H78	0.983200	0.834200	0.216200
H791	H79	0.597900	0.048100	0.545300
H801	H80	0.616300	0.914700	0.548100
H811	H81	0.502800	0.067400	0.539000
H821	H82	0.782200	0.023400	0.433600
H831	H83	0.815100	0.947900	0.502300
H841	H84	0.664900	0.970900	0.522100
H851	H85	0.543800	0.019600	0.535200
H861	H86	0.710100	0.877900	0.527900
H871	H87	0.777400	0.926800	0.516000
H881	H88	0.744700	0.001100	0.446300
H891	H89	0.555800	0.094000	0.551600
H901	H90	0.620900	0.002500	0.531700
H911	H91	0.716200	0.966400	0.483200
H921	H92	0.308700	0.545300	0.048100
H931	H93	0.420900	0.548100	0.914700
H941	H94	0.390800	0.539000	0.067400
H951	H95	0.260800	0.433600	0.023400
H961	H96	0.234700	0.502300	0.947900
H971	H97	0.342100	0.522100	0.970900
H981	H98	0.401400	0.535200	0.019600
H991	H99	0.384100	0.527900	0.877900
H1001	H100	0.279800	0.516000	0.926800
H1011	H101	0.307900	0.446300	0.001100
H1021	H102	0.298600	0.551600	0.094000
H1031	H103	0.344900	0.531700	0.002500
H1041	H104	0.334200	0.483200	0.966400
H1051	H105	0.548100	0.808700	0.545300
H1061	H106	0.414700	0.920900	0.548100
H1071	H107	0.567400	0.890800	0.539000
H1081	H108	0.523400	0.760800	0.433600
H1091	H109	0.447900	0.734700	0.502300
H1101	H110	0.470900	0.842100	0.522100
H1111	H111	0.519600	0.901400	0.535200
H1121	H112	0.377900	0.884100	0.527900
H1131	H113	0.426800	0.779800	0.516000
H1141	H114	0.501100	0.807900	0.446300
H1151	H115	0.594000	0.798600	0.551600
H1161	H116	0.502500	0.844900	0.531700
H1171	H117	0.466400	0.834200	0.483200
H1181	H118	0.045300	0.097900	0.048100
H1191	H119	0.048100	0.116300	0.914700
H1201	H120	0.039000	0.002800	0.067400
H1211	H121	0.933600	0.282200	0.023400
H1221	H122	0.002300	0.315100	0.947900
H1231	H123	0.022100	0.164900	0.970900
H1241	H124	0.035200	0.043800	0.019600
H1251	H125	0.027900	0.210100	0.877900
H1261	H126	0.016000	0.277400	0.926800
H1271	H127	0.946300	0.244700	0.001100
H1281	H128	0.051600	0.055800	0.094000
H1291	H129	0.031700	0.120900	0.002500
H1301	H130	0.983200	0.216200	0.966400
H1311	H131	0.597900	0.545300	0.808700
H1321	H132	0.616300	0.548100	0.920900
H1331	H133	0.502800	0.539000	0.890800
H1341	H134	0.782200	0.433600	0.760800
H1351	H135	0.815100	0.502300	0.734700
H1361	H136	0.664900	0.522100	0.842100
H1371	H137	0.543800	0.535200	0.901400
H1381	H138	0.710100	0.527900	0.884100
H1391	H139	0.777400	0.516000	0.779800
H1401	H140	0.744700	0.446300	0.807900
H1411	H141	0.555800	0.551600	0.798600
H1421	H142	0.620900	0.531700	0.844900
H1431	H143	0.716200	0.483200	0.834200
H1441	H144	0.308700	0.048100	0.097900
H1451	H145	0.420900	0.914700	0.116300
H1461	H146	0.390800	0.067400	0.002800
H1471	H147	0.260800	0.023400	0.282200
H1481	H148	0.234700	0.947900	0.315100
H1491	H149	0.342100	0.970900	0.164900
H1501	H150	0.401400	0.019600	0.043800
H1511	H151	0.384100	0.877900	0.210100
H1521	H152	0.279800	0.926800	0.277400
H1531	H153	0.307900	0.001100	0.244700
H1541	H154	0.298600	0.094000	0.055800
H1551	H155	0.344900	0.002500	0.120900
H1561	H156	0.334200	0.966400	0.216200
H1571	H157	0.545300	0.548100	0.597900
H1581	H158	0.548100	0.414700	0.616300
H1591	H159	0.539000	0.567400	0.502800
H1601	H160	0.433600	0.523400	0.782200
H1611	H161	0.502300	0.447900	0.815100
H1621	H162	0.522100	0.470900	0.664900
H1631	H163	0.535200	0.519600	0.543800
H1641	H164	0.527900	0.377900	0.710100
H1651	H165	0.516000	0.426800	0.777400
H1661	H166	0.446300	0.501100	0.744700
H1671	H167	0.551600	0.594000	0.555800
H1681	H168	0.531700	0.502500	0.620900
H1691	H169	0.483200	0.466400	0.716200
H1701	H170	0.048100	0.045300	0.308700
H1711	H171	0.914700	0.048100	0.420900
H1721	H172	0.067400	0.039000	0.390800
H1731	H173	0.023400	0.933600	0.260800
H1741	H174	0.947900	0.002300	0.234700
H1751	H175	0.970900	0.022100	0.342100
H1761	H176	0.019600	0.035200	0.401400
H1771	H177	0.877900	0.027900	0.384100
H1781	H178	0.926800	0.016000	0.279800
H1791	H179	0.001100	0.946300	0.307900
H1801	H180	0.094000	0.051600	0.298600
H1811	H181	0.002500	0.031700	0.344900
H1821	H182	0.966400	0.983200	0.334200
H1831	H183	0.808700	0.597900	0.548100
H1841	H184	0.920900	0.616300	0.414700
H1851	H185	0.890800	0.502800	0.567400
H1861	H186	0.760800	0.782200	0.523400
H1871	H187	0.734700	0.815100	0.447900
H1881	H188	0.842100	0.664900	0.470900
H1891	H189	0.901400	0.543800	0.519600
H1901	H190	0.884100	0.710100	0.377900
H1911	H191	0.779800	0.777400	0.426800
H1921	H192	0.807900	0.744700	0.501100
H1931	H193	0.798600	0.555800	0.594000
H1941	H194	0.844900	0.620900	0.502500
H1951	H195	0.834200	0.716200	0.466400
H1961	H196	0.097900	0.308700	0.045300
H1971	H197	0.116300	0.420900	0.048100
H1981	H198	0.002800	0.390800	0.039000
H1991	H199	0.282200	0.260800	0.933600
H2001	H200	0.315100	0.234700	0.002300
H2011	H201	0.164900	0.342100	0.022100
H2021	H202	0.043800	0.401400	0.035200
H2031	H203	0.210100	0.384100	0.027900
H2041	H204	0.277400	0.279800	0.016000
H2051	H205	0.244700	0.307900	0.946300
H2061	H206	0.055800	0.298600	0.051600
H2071	H207	0.120900	0.344900	0.031700
H2081	H208	0.216200	0.334200	0.983200
H2091	H209	0.097900	0.548100	0.308700
H2101	H210	0.116300	0.414700	0.420900
H2111	H211	0.002800	0.567400	0.390800
H2121	H212	0.282200	0.523400	0.260800
H2131	H213	0.315100	0.447900	0.234700
H2141	H214	0.164900	0.470900	0.342100
H2151	H215	0.043800	0.519600	0.401400
H2161	H216	0.210100	0.377900	0.384100
H2171	H217	0.277400	0.426800	0.279800
H2181	H218	0.244700	0.501100	0.307900
H2191	H219	0.055800	0.594000	0.298600
H2201	H220	0.120900	0.502500	0.344900
H2211	H221	0.216200	0.466400	0.334200
H2221	H222	0.808700	0.045300	0.597900
H2231	H223	0.920900	0.048100	0.616300
H2241	H224	0.890800	0.039000	0.502800
H2251	H225	0.760800	0.933600	0.782200
H2261	H226	0.734700	0.002300	0.815100
H2271	H227	0.842100	0.022100	0.664900
H2281	H228	0.901400	0.035200	0.543800
H2291	H229	0.884100	0.027900	0.710100
H2301	H230	0.779800	0.016000	0.777400
H2311	H231	0.807900	0.946300	0.744700
H2321	H232	0.798600	0.051600	0.555800
H2331	H233	0.844900	0.031700	0.620900
H2341	H234	0.834200	0.983200	0.716200
H2351	H235	0.048100	0.597900	0.045300
H2361	H236	0.914700	0.616300	0.048100
H2371	H237	0.067400	0.502800	0.039000
H2381	H238	0.023400	0.782200	0.933600
H2391	H239	0.947900	0.815100	0.002300
H2401	H240	0.970900	0.664900	0.022100
H2411	H241	0.019600	0.543800	0.035200
H2421	H242	0.877900	0.710100	0.027900
H2431	H243	0.926800	0.777400	0.016000
H2441	H244	0.001100	0.744700	0.946300
H2451	H245	0.094000	0.555800	0.051600
H2461	H246	0.002500	0.620900	0.031700
H2471	H247	0.966400	0.716200	0.983200
H2481	H248	0.545300	0.308700	0.548100
H2491	H249	0.548100	0.420900	0.414700
H2501	H250	0.539000	0.390800	0.567400
H2511	H251	0.433600	0.260800	0.523400
H2521	H252	0.502300	0.234700	0.447900
H2531	H253	0.522100	0.342100	0.470900
H2541	H254	0.535200	0.401400	0.519600
H2551	H255	0.527900	0.384100	0.377900
H2561	H256	0.516000	0.279800	0.426800
H2571	H257	0.446300	0.307900	0.501100
H2581	H258	0.551600	0.298600	0.594000
H2591	H259	0.531700	0.344900	0.502500
H2601	H260	0.483200	0.334200	0.466400
H2611	H261	0.808700	0.548100	0.045300
H2621	H262	0.920900	0.414700	0.048100
H2631	H263	0.890800	0.567400	0.039000
H2641	H264	0.760800	0.523400	0.933600
H2651	H265	0.734700	0.447900	0.002300
H2661	H266	0.842100	0.470900	0.022100
H2671	H267	0.901400	0.519600	0.035200
H2681	H268	0.884100	0.377900	0.027900
H2691	H269	0.779800	0.426800	0.016000
H2701	H270	0.807900	0.501100	0.946300
H2711	H271	0.798600	0.594000	0.051600
H2721	H272	0.844900	0.502500	0.031700
H2731	H273	0.834200	0.466400	0.983200
H2741	H274	0.097900	0.045300	0.548100
H2751	H275	0.116300	0.048100	0.414700
H2761	H276	0.002800	0.039000	0.567400
H2771	H277	0.282200	0.933600	0.523400
H2781	H278	0.315100	0.002300	0.447900
H2791	H279	0.164900	0.022100	0.470900
H2801	H280	0.043800	0.035200	0.519600
H2811	H281	0.210100	0.027900	0.377900
H2821	H282	0.277400	0.016000	0.426800
H2831	H283	0.244700	0.946300	0.501100
H2841	H284	0.055800	0.051600	0.594000
H2851	H285	0.120900	0.031700	0.502500
H2861	H286	0.216200	0.983200	0.466400
H2871	H287	0.545300	0.597900	0.308700
H2881	H288	0.548100	0.616300	0.420900
H2891	H289	0.539000	0.502800	0.390800
H2901	H290	0.433600	0.782200	0.260800
H2911	H291	0.502300	0.815100	0.234700
H2921	H292	0.522100	0.664900	0.342100
H2931	H293	0.535200	0.543800	0.401400
H2941	H294	0.527900	0.710100	0.384100
H2951	H295	0.516000	0.777400	0.279800
H2961	H296	0.446300	0.744700	0.307900
H2971	H297	0.551600	0.555800	0.298600
H2981	H298	0.531700	0.620900	0.344900
H2991	H299	0.483200	0.716200	0.334200
H3001	H300	0.048100	0.308700	0.597900
H3011	H301	0.914700	0.420900	0.616300
H3021	H302	0.067400	0.390800	0.502800
H3031	H303	0.023400	0.260800	0.782200
H3041	H304	0.947900	0.234700	0.815100
H3051	H305	0.970900	0.342100	0.664900
H3061	H306	0.019600	0.401400	0.543800
H3071	H307	0.877900	0.384100	0.710100
H3081	H308	0.926800	0.279800	0.777400
H3091	H309	0.001100	0.307900	0.744700
H3101	H310	0.094000	0.298600	0.555800
H3111	H311	0.002500	0.344900	0.620900
H3121	H312	0.966400	0.334200	0.716200
C11	C1	0.551620	0.544540	0.078460
C21	C2	0.417190	0.541690	0.135750
C31	C3	0.487540	0.467000	0.302300
C41	C4	0.585520	0.545880	0.024280
C51	C5	0.446810	0.535850	0.135310
C61	C6	0.473350	0.539390	0.103770
C71	C7	0.528780	0.539960	0.075620
C81	C8	0.424900	0.522640	0.193040
C91	C9	0.462230	0.483770	0.256350
C101	C10	0.563300	0.540800	0.021900
C111	C11	0.503890	0.450090	0.281410
C121	C12	0.459130	0.491130	0.300670
C131	C13	0.502790	0.460550	0.325230
C141	C14	0.450990	0.526130	0.164570
C151	C15	0.425120	0.514900	0.225220
C161	C16	0.534640	0.538160	0.046480
C171	C17	0.395600	0.529520	0.191140
C181	C18	0.616020	0.548400	0.997980
C191	C19	0.446470	0.499410	0.277890
C201	C20	0.490630	0.458190	0.258410
C211	C21	0.579280	0.547880	0.053480
C221	C22	0.044540	0.051620	0.825380
C231	C23	0.041690	0.917190	0.905370
C241	C24	0.967000	0.987540	0.743160
C251	C25	0.045880	0.085520	0.844320
C261	C26	0.035850	0.946810	0.882030
C271	C27	0.039390	0.973350	0.883490
C281	C28	0.039960	0.028780	0.855640
C291	C29	0.022640	0.924900	0.859420
C301	C30	0.983770	0.962230	0.797650
C311	C31	0.040800	0.063300	0.874000
C321	C32	0.950090	0.003890	0.764610
C331	C33	0.991130	0.959130	0.749070
C341	C34	0.960550	0.002790	0.711430
C351	C35	0.026130	0.950990	0.858310
C361	C36	0.014900	0.925120	0.834760
C371	C37	0.038160	0.034640	0.880720
C381	C38	0.029520	0.895600	0.883740
C391	C39	0.048400	0.116020	0.837600
C401	C40	0.999410	0.946470	0.776230
C411	C41	0.958190	0.990630	0.792770
C421	C42	0.047880	0.079280	0.819360
C431	C43	0.578460	0.825380	0.051620
C441	C44	0.635750	0.905370	0.917190
C451	C45	0.802300	0.743160	0.987540
C461	C46	0.524280	0.844320	0.085520
C471	C47	0.635310	0.882030	0.946810
C481	C48	0.603770	0.883490	0.973350
C491	C49	0.575620	0.855640	0.028780
C501	C50	0.693040	0.859420	0.924900
C511	C51	0.756350	0.797650	0.962230
C521	C52	0.521900	0.874000	0.063300
C531	C53	0.781410	0.764610	0.003890
C541	C54	0.800670	0.749070	0.959130
C551	C55	0.825230	0.711430	0.002790
C561	C56	0.664570	0.858310	0.950990
C571	C57	0.725220	0.834760	0.925120
C581	C58	0.546480	0.880720	0.034640
C591	C59	0.691140	0.883740	0.895600
C601	C60	0.497980	0.837600	0.116020
C611	C61	0.777890	0.776230	0.946470
C621	C62	0.758410	0.792770	0.990630
C631	C63	0.553480	0.819360	0.079280
C641	C64	0.325380	0.078460	0.544540
C651	C65	0.405370	0.135750	0.541690
C661	C66	0.243160	0.302300	0.467000
C671	C67	0.344320	0.024280	0.545880
C681	C68	0.382030	0.135310	0.535850
C691	C69	0.383490	0.103770	0.539390
C701	C70	0.355640	0.075620	0.539960
C711	C71	0.359420	0.193040	0.522640
C721	C72	0.297650	0.256350	0.483770
C731	C73	0.374000	0.021900	0.540800
C741	C74	0.264610	0.281410	0.450090
C751	C75	0.249070	0.300670	0.491130
C761	C76	0.211430	0.325230	0.460550
C771	C77	0.358310	0.164570	0.526130
C781	C78	0.334760	0.225220	0.514900
C791	C79	0.380720	0.046480	0.538160
C801	C80	0.383740	0.191140	0.529520
C811	C81	0.337600	0.997980	0.548400
C821	C82	0.276230	0.277890	0.499410
C831	C83	0.292770	0.258410	0.458190
C841	C84	0.319360	0.053480	0.547880
C851	C85	0.551620	0.078460	0.825380
C861	C86	0.417190	0.135750	0.905370
C871	C87	0.487540	0.302300	0.743160
C881	C88	0.585520	0.024280	0.844320
C891	C89	0.446810	0.135310	0.882030
C901	C90	0.473350	0.103770	0.883490
C911	C91	0.528780	0.075620	0.855640
C921	C92	0.424900	0.193040	0.859420
C931	C93	0.462230	0.256350	0.797650
C941	C94	0.563300	0.021900	0.874000
C951	C95	0.503890	0.281410	0.764610
C961	C96	0.459130	0.300670	0.749070
C971	C97	0.502790	0.325230	0.711430
C981	C98	0.450990	0.164570	0.858310
C991	C99	0.425120	0.225220	0.834760
C1001	C100	0.534640	0.046480	0.880720
C1011	C101	0.395600	0.191140	0.883740
C1021	C102	0.616020	0.997980	0.837600
C1031	C103	0.446470	0.277890	0.776230
C1041	C104	0.490630	0.258410	0.792770
C1051	C105	0.579280	0.053480	0.819360
C1061	C106	0.044540	0.825380	0.078460
C1071	C107	0.041690	0.905370	0.135750
C1081	C108	0.967000	0.743160	0.302300
C1091	C109	0.045880	0.844320	0.024280
C1101	C110	0.035850	0.882030	0.135310
C1111	C111	0.039390	0.883490	0.103770
C1121	C112	0.039960	0.855640	0.075620
C1131	C113	0.022640	0.859420	0.193040
C1141	C114	0.983770	0.797650	0.256350
C1151	C115	0.040800	0.874000	0.021900
C1161	C116	0.950090	0.764610	0.281410
C1171	C117	0.991130	0.749070	0.300670
C1181	C118	0.960550	0.711430	0.325230
C1191	C119	0.026130	0.858310	0.164570
C1201	C120	0.014900	0.834760	0.225220
C1211	C121	0.038160	0.880720	0.046480
C1221	C122	0.029520	0.883740	0.191140
C1231	C123	0.048400	0.837600	0.997980
C1241	C124	0.999410	0.776230	0.277890
C1251	C125	0.958190	0.792770	0.258410
C1261	C126	0.047880	0.819360	0.053480
C1271	C127	0.578460	0.051620	0.544540
C1281	C128	0.635750	0.917190	0.541690
C1291	C129	0.802300	0.987540	0.467000
C1301	C130	0.524280	0.085520	0.545880
C1311	C131	0.635310	0.946810	0.535850
C1321	C132	0.603770	0.973350	0.539390
C1331	C133	0.575620	0.028780	0.539960
C1341	C134	0.693040	0.924900	0.522640
C1351	C135	0.756350	0.962230	0.483770
C1361	C136	0.521900	0.063300	0.540800
C1371	C137	0.781410	0.003890	0.450090
C1381	C138	0.800670	0.959130	0.491130
C1391	C139	0.825230	0.002790	0.460550
C1401	C140	0.664570	0.950990	0.526130
C1411	C141	0.725220	0.925120	0.514900
C1421	C142	0.546480	0.034640	0.538160
C1431	C143	0.691140	0.895600	0.529520
C1441	C144	0.497980	0.116020	0.548400
C1451	C145	0.777890	0.946470	0.499410
C1461	C146	0.758410	0.990630	0.458190
C1471	C147	0.553480	0.079280	0.547880
C1481	C148	0.325380	0.544540	0.051620
C1491	C149	0.405370	0.541690	0.917190
C1501	C150	0.243160	0.467000	0.987540
C1511	C151	0.344320	0.545880	0.085520
C1521	C152	0.382030	0.535850	0.946810
C1531	C153	0.383490	0.539390	0.973350
C1541	C154	0.355640	0.539960	0.028780
C1551	C155	0.359420	0.522640	0.924900
C1561	C156	0.297650	0.483770	0.962230
C1571	C157	0.374000	0.540800	0.063300
C1581	C158	0.264610	0.450090	0.003890
C1591	C159	0.249070	0.491130	0.959130
C1601	C160	0.211430	0.460550	0.002790
C1611	C161	0.358310	0.526130	0.950990
C1621	C162	0.334760	0.514900	0.925120
C1631	C163	0.380720	0.538160	0.034640
C1641	C164	0.383740	0.529520	0.895600
C1651	C165	0.337600	0.548400	0.116020
C1661	C166	0.276230	0.499410	0.946470
C1671	C167	0.292770	0.458190	0.990630
C1681	C168	0.319360	0.547880	0.079280
C1691	C169	0.551620	0.825380	0.544540
C1701	C170	0.417190	0.905370	0.541690
C1711	C171	0.487540	0.743160	0.467000
C1721	C172	0.585520	0.844320	0.545880
C1731	C173	0.446810	0.882030	0.535850
C1741	C174	0.473350	0.883490	0.539390
C1751	C175	0.528780	0.855640	0.539960
C1761	C176	0.424900	0.859420	0.522640
C1771	C177	0.462230	0.797650	0.483770
C1781	C178	0.563300	0.874000	0.540800
C1791	C179	0.503890	0.764610	0.450090
C1801	C180	0.459130	0.749070	0.491130
C1811	C181	0.502790	0.711430	0.460550
C1821	C182	0.450990	0.858310	0.526130
C1831	C183	0.425120	0.834760	0.514900
C1841	C184	0.534640	0.880720	0.538160
C1851	C185	0.395600	0.883740	0.529520
C1861	C186	0.616020	0.837600	0.548400
C1871	C187	0.446470	0.776230	0.499410
C1881	C188	0.490630	0.792770	0.458190
C1891	C189	0.579280	0.819360	0.547880
C1901	C190	0.044540	0.078460	0.051620
C1911	C191	0.041690	0.135750	0.917190
C1921	C192	0.967000	0.302300	0.987540
C1931	C193	0.045880	0.024280	0.085520
C1941	C194	0.035850	0.135310	0.946810
C1951	C195	0.039390	0.103770	0.973350
C1961	C196	0.039960	0.075620	0.028780
C1971	C197	0.022640	0.193040	0.924900
C1981	C198	0.983770	0.256350	0.962230
C1991	C199	0.040800	0.021900	0.063300
C2001	C200	0.950090	0.281410	0.003890
C2011	C201	0.991130	0.300670	0.959130
C2021	C202	0.960550	0.325230	0.002790
C2031	C203	0.026130	0.164570	0.950990
C2041	C204	0.014900	0.225220	0.925120
C2051	C205	0.038160	0.046480	0.034640
C2061	C206	0.029520	0.191140	0.895600
C2071	C207	0.048400	0.997980	0.116020
C2081	C208	0.999410	0.277890	0.946470
C2091	C209	0.958190	0.258410	0.990630
C2101	C210	0.047880	0.053480	0.079280
C2111	C211	0.578460	0.544540	0.825380
C2121	C212	0.635750	0.541690	0.905370
C2131	C213	0.802300	0.467000	0.743160
C2141	C214	0.524280	0.545880	0.844320
C2151	C215	0.635310	0.535850	0.882030
C2161	C216	0.603770	0.539390	0.883490
C2171	C217	0.575620	0.539960	0.855640
C2181	C218	0.693040	0.522640	0.859420
C2191	C219	0.756350	0.483770	0.797650
C2201	C220	0.521900	0.540800	0.874000
C2211	C221	0.781410	0.450090	0.764610
C2221	C222	0.800670	0.491130	0.749070
C2231	C223	0.825230	0.460550	0.711430
C2241	C224	0.664570	0.526130	0.858310
C2251	C225	0.725220	0.514900	0.834760
C2261	C226	0.546480	0.538160	0.880720
C2271	C227	0.691140	0.529520	0.883740
C2281	C228	0.497980	0.548400	0.837600
C2291	C229	0.777890	0.499410	0.776230
C2301	C230	0.758410	0.458190	0.792770
C2311	C231	0.553480	0.547880	0.819360
C2321	C232	0.325380	0.051620	0.078460
C2331	C233	0.405370	0.917190	0.135750
C2341	C234	0.243160	0.987540	0.302300
C2351	C235	0.344320	0.085520	0.024280
C2361	C236	0.382030	0.946810	0.135310
C2371	C237	0.383490	0.973350	0.103770
C2381	C238	0.355640	0.028780	0.075620
C2391	C239	0.359420	0.924900	0.193040
C2401	C240	0.297650	0.962230	0.256350
C2411	C241	0.374000	0.063300	0.021900
C2421	C242	0.264610	0.003890	0.281410
C2431	C243	0.249070	0.959130	0.300670
C2441	C244	0.211430	0.002790	0.325230
C2451	C245	0.358310	0.950990	0.164570
C2461	C246	0.334760	0.925120	0.225220
C2471	C247	0.380720	0.034640	0.046480
C2481	C248	0.383740	0.895600	0.191140
C2491	C249	0.337600	0.116020	0.997980
C2501	C250	0.276230	0.946470	0.277890
C2511	C251	0.292770	0.990630	0.258410
C2521	C252	0.319360	0.079280	0.053480
C2531	C253	0.544540	0.551620	0.578460
C2541	C254	0.541690	0.417190	0.635750
C2551	C255	0.467000	0.487540	0.802300
C2561	C256	0.545880	0.585520	0.524280
C2571	C257	0.535850	0.446810	0.635310
C2581	C258	0.539390	0.473350	0.603770
C2591	C259	0.539960	0.528780	0.575620
C2601	C260	0.522640	0.424900	0.693040
C2611	C261	0.483770	0.462230	0.756350
C2621	C262	0.540800	0.563300	0.521900
C2631	C263	0.450090	0.503890	0.781410
C2641	C264	0.491130	0.459130	0.800670
C2651	C265	0.460550	0.502790	0.825230
C2661	C266	0.526130	0.450990	0.664570
C2671	C267	0.514900	0.425120	0.725220
C2681	C268	0.538160	0.534640	0.546480
C2691	C269	0.529520	0.395600	0.691140
C2701	C270	0.548400	0.616020	0.497980
C2711	C271	0.499410	0.446470	0.777890
C2721	C272	0.458190	0.490630	0.758410
C2731	C273	0.547880	0.579280	0.553480
C2741	C274	0.051620	0.044540	0.325380
C2751	C275	0.917190	0.041690	0.405370
C2761	C276	0.987540	0.967000	0.243160
C2771	C277	0.085520	0.045880	0.344320
C2781	C278	0.946810	0.035850	0.382030
C2791	C279	0.973350	0.039390	0.383490
C2801	C280	0.028780	0.039960	0.355640
C2811	C281	0.924900	0.022640	0.359420
C2821	C282	0.962230	0.983770	0.297650
C2831	C283	0.063300	0.040800	0.374000
C2841	C284	0.003890	0.950090	0.264610
C2851	C285	0.959130	0.991130	0.249070
C2861	C286	0.002790	0.960550	0.211430
C2871	C287	0.950990	0.026130	0.358310
C2881	C288	0.925120	0.014900	0.334760
C2891	C289	0.034640	0.038160	0.380720
C2901	C290	0.895600	0.029520	0.383740
C2911	C291	0.116020	0.048400	0.337600
C2921	C292	0.946470	0.999410	0.276230
C2931	C293	0.990630	0.958190	0.292770
C2941	C294	0.079280	0.047880	0.319360
C2951	C295	0.825380	0.578460	0.551620
C2961	C296	0.905370	0.635750	0.417190
C2971	C297	0.743160	0.802300	0.487540
C2981	C298	0.844320	0.524280	0.585520
C2991	C299	0.882030	0.635310	0.446810
C3001	C300	0.883490	0.603770	0.473350
C3011	C301	0.855640	0.575620	0.528780
C3021	C302	0.859420	0.693040	0.424900
C3031	C303	0.797650	0.756350	0.462230
C3041	C304	0.874000	0.521900	0.563300
C3051	C305	0.764610	0.781410	0.503890
C3061	C306	0.749070	0.800670	0.459130
C3071	C307	0.711430	0.825230	0.502790
C3081	C308	0.858310	0.664570	0.450990
C3091	C309	0.834760	0.725220	0.425120
C3101	C310	0.880720	0.546480	0.534640
C3111	C311	0.883740	0.691140	0.395600
C3121	C312	0.837600	0.497980	0.616020
C3131	C313	0.776230	0.777890	0.446470
C3141	C314	0.792770	0.758410	0.490630
C3151	C315	0.819360	0.553480	0.579280
C3161	C316	0.078460	0.325380	0.044540
C3171	C317	0.135750	0.405370	0.041690
C3181	C318	0.302300	0.243160	0.967000
C3191	C319	0.024280	0.344320	0.045880
C3201	C320	0.135310	0.382030	0.035850
C3211	C321	0.103770	0.383490	0.039390
C3221	C322	0.075620	0.355640	0.039960
C3231	C323	0.193040	0.359420	0.022640
C3241	C324	0.256350	0.297650	0.983770
C3251	C325	0.021900	0.374000	0.040800
C3261	C326	0.281410	0.264610	0.950090
C3271	C327	0.300670	0.249070	0.991130
C3281	C328	0.325230	0.211430	0.960550
C3291	C329	0.164570	0.358310	0.026130
C3301	C330	0.225220	0.334760	0.014900
C3311	C331	0.046480	0.380720	0.038160
C3321	C332	0.191140	0.383740	0.029520
C3331	C333	0.997980	0.337600	0.048400
C3341	C334	0.277890	0.276230	0.999410
C3351	C335	0.258410	0.292770	0.958190
C3361	C336	0.053480	0.319360	0.047880
C3371	C337	0.078460	0.551620	0.325380
C3381	C338	0.135750	0.417190	0.405370
C3391	C339	0.302300	0.487540	0.243160
C3401	C340	0.024280	0.585520	0.344320
C3411	C341	0.135310	0.446810	0.382030
C3421	C342	0.103770	0.473350	0.383490
C3431	C343	0.075620	0.528780	0.355640
C3441	C344	0.193040	0.424900	0.359420
C3451	C345	0.256350	0.462230	0.297650
C3461	C346	0.021900	0.563300	0.374000
C3471	C347	0.281410	0.503890	0.264610
C3481	C348	0.300670	0.459130	0.249070
C3491	C349	0.325230	0.502790	0.211430
C3501	C350	0.164570	0.450990	0.358310
C3511	C351	0.225220	0.425120	0.334760
C3521	C352	0.046480	0.534640	0.380720
C3531	C353	0.191140	0.395600	0.383740
C3541	C354	0.997980	0.616020	0.337600
C3551	C355	0.277890	0.446470	0.276230
C3561	C356	0.258410	0.490630	0.292770
C3571	C357	0.053480	0.579280	0.319360
C3581	C358	0.825380	0.044540	0.578460
C3591	C359	0.905370	0.041690	0.635750
C3601	C360	0.743160	0.967000	0.802300
C3611	C361	0.844320	0.045880	0.524280
C3621	C362	0.882030	0.035850	0.635310
C3631	C363	0.883490	0.039390	0.603770
C3641	C364	0.855640	0.039960	0.575620
C3651	C365	0.859420	0.022640	0.693040
C3661	C366	0.797650	0.983770	0.756350
C3671	C367	0.874000	0.040800	0.521900
C3681	C368	0.764610	0.950090	0.781410
C3691	C369	0.749070	0.991130	0.800670
C3701	C370	0.711430	0.960550	0.825230
C3711	C371	0.858310	0.026130	0.664570
C3721	C372	0.834760	0.014900	0.725220
C3731	C373	0.880720	0.038160	0.546480
C3741	C374	0.883740	0.029520	0.691140
C3751	C375	0.837600	0.048400	0.497980
C3761	C376	0.776230	0.999410	0.777890
C3771	C377	0.792770	0.958190	0.758410
C3781	C378	0.819360	0.047880	0.553480
C3791	C379	0.051620	0.578460	0.044540
C3801	C380	0.917190	0.635750	0.041690
C3811	C381	0.987540	0.802300	0.967000
C3821	C382	0.085520	0.524280	0.045880
C3831	C383	0.946810	0.635310	0.035850
C3841	C384	0.973350	0.603770	0.039390
C3851	C385	0.028780	0.575620	0.039960
C3861	C386	0.924900	0.693040	0.022640
C3871	C387	0.962230	0.756350	0.983770
C3881	C388	0.063300	0.521900	0.040800
C3891	C389	0.003890	0.781410	0.950090
C3901	C390	0.959130	0.800670	0.991130
C3911	C391	0.002790	0.825230	0.960550
C3921	C392	0.950990	0.664570	0.026130
C3931	C393	0.925120	0.725220	0.014900
C3941	C394	0.034640	0.546480	0.038160
C3951	C395	0.895600	0.691140	0.029520
C3961	C396	0.116020	0.497980	0.048400
C3971	C397	0.946470	0.777890	0.999410
C3981	C398	0.990630	0.758410	0.958190
C3991	C399	0.079280	0.553480	0.047880
C4001	C400	0.544540	0.325380	0.551620
C4011	C401	0.541690	0.405370	0.417190
C4021	C402	0.467000	0.243160	0.487540
C4031	C403	0.545880	0.344320	0.585520
C4041	C404	0.535850	0.382030	0.446810
C4051	C405	0.539390	0.383490	0.473350
C4061	C406	0.539960	0.355640	0.528780
C4071	C407	0.522640	0.359420	0.424900
C4081	C408	0.483770	0.297650	0.462230
C4091	C409	0.540800	0.374000	0.563300
C4101	C410	0.450090	0.264610	0.503890
C4111	C411	0.491130	0.249070	0.459130
C4121	C412	0.460550	0.211430	0.502790
C4131	C413	0.526130	0.358310	0.450990
C4141	C414	0.514900	0.334760	0.425120
C4151	C415	0.538160	0.380720	0.534640
C4161	C416	0.529520	0.383740	0.395600
C4171	C417	0.548400	0.337600	0.616020
C4181	C418	0.499410	0.276230	0.446470
C4191	C419	0.458190	0.292770	0.490630
C4201	C420	0.547880	0.319360	0.579280
C4211	C421	0.825380	0.551620	0.044540
C4221	C422	0.905370	0.417190	0.041690
C4231	C423	0.743160	0.487540	0.967000
C4241	C424	0.844320	0.585520	0.045880
C4251	C425	0.882030	0.446810	0.035850
C4261	C426	0.883490	0.473350	0.039390
C4271	C427	0.855640	0.528780	0.039960
C4281	C428	0.859420	0.424900	0.022640
C4291	C429	0.797650	0.462230	0.983770
C4301	C430	0.874000	0.563300	0.040800
C4311	C431	0.764610	0.503890	0.950090
C4321	C432	0.749070	0.459130	0.991130
C4331	C433	0.711430	0.502790	0.960550
C4341	C434	0.858310	0.450990	0.026130
C4351	C435	0.834760	0.425120	0.014900
C4361	C436	0.880720	0.534640	0.038160
C4371	C437	0.883740	0.395600	0.029520
C4381	C438	0.837600	0.616020	0.048400
C4391	C439	0.776230	0.446470	0.999410
C4401	C440	0.792770	0.490630	0.958190
C4411	C441	0.819360	0.579280	0.047880
C4421	C442	0.078460	0.044540	0.551620
C4431	C443	0.135750	0.041690	0.417190
C4441	C444	0.302300	0.967000	0.487540
C4451	C445	0.024280	0.045880	0.585520
C4461	C446	0.135310	0.035850	0.446810
C4471	C447	0.103770	0.039390	0.473350
C4481	C448	0.075620	0.039960	0.528780
C4491	C449	0.193040	0.022640	0.424900
C4501	C450	0.256350	0.983770	0.462230
C4511	C451	0.021900	0.040800	0.563300
C4521	C452	0.281410	0.950090	0.503890
C4531	C453	0.300670	0.991130	0.459130
C4541	C454	0.325230	0.960550	0.502790
C4551	C455	0.164570	0.026130	0.450990
C4561	C456	0.225220	0.014900	0.425120
C4571	C457	0.046480	0.038160	0.534640
C4581	C458	0.191140	0.029520	0.395600
C4591	C459	0.997980	0.048400	0.616020
C4601	C460	0.277890	0.999410	0.446470
C4611	C461	0.258410	0.958190	0.490630
C4621	C462	0.053480	0.047880	0.579280
C4631	C463	0.544540	0.578460	0.325380
C4641	C464	0.541690	0.635750	0.405370
C4651	C465	0.467000	0.802300	0.243160
C4661	C466	0.545880	0.524280	0.344320
C4671	C467	0.535850	0.635310	0.382030
C4681	C468	0.539390	0.603770	0.383490
C4691	C469	0.539960	0.575620	0.355640
C4701	C470	0.522640	0.693040	0.359420
C4711	C471	0.483770	0.756350	0.297650
C4721	C472	0.540800	0.521900	0.374000
C4731	C473	0.450090	0.781410	0.264610
C4741	C474	0.491130	0.800670	0.249070
C4751	C475	0.460550	0.825230	0.211430
C4761	C476	0.526130	0.664570	0.358310
C4771	C477	0.514900	0.725220	0.334760
C4781	C478	0.538160	0.546480	0.380720
C4791	C479	0.529520	0.691140	0.383740
C4801	C480	0.548400	0.497980	0.337600
C4811	C481	0.499410	0.777890	0.276230
C4821	C482	0.458190	0.758410	0.292770
C4831	C483	0.547880	0.553480	0.319360
C4841	C484	0.051620	0.325380	0.578460
C4851	C485	0.917190	0.405370	0.635750
C4861	C486	0.987540	0.243160	0.802300
C4871	C487	0.085520	0.344320	0.524280
C4881	C488	0.946810	0.382030	0.635310
C4891	C489	0.973350	0.383490	0.603770
C4901	C490	0.028780	0.355640	0.575620
C4911	C491	0.924900	0.359420	0.693040
C4921	C492	0.962230	0.297650	0.756350
C4931	C493	0.063300	0.374000	0.521900
C4941	C494	0.003890	0.264610	0.781410
C4951	C495	0.959130	0.249070	0.800670
C4961	C496	0.002790	0.211430	0.825230
C4971	C497	0.950990	0.358310	0.664570
C4981	C498	0.925120	0.334760	0.725220
C4991	C499	0.034640	0.380720	0.546480
C5001	C500	0.895600	0.383740	0.691140
C5011	C501	0.116020	0.337600	0.497980
C5021	C502	0.946470	0.276230	0.777890
C5031	C503	0.990630	0.292770	0.758410
C5041	C504	0.079280	0.319360	0.553480
N11	N1	0.391490	0.538510	0.162930
N21	N2	0.501200	0.536380	0.102760
N31	N3	0.453060	0.492720	0.230220
N41	N4	0.038510	0.891490	0.907070
N51	N5	0.036380	0.001200	0.859660
N61	N6	0.992720	0.953060	0.824000
N71	N7	0.662930	0.907070	0.891490
N81	N8	0.602760	0.859660	0.001200
N91	N9	0.730220	0.824000	0.953060
N101	N10	0.407070	0.162930	0.538510
N111	N11	0.359660	0.102760	0.536380
N121	N12	0.324000	0.230220	0.492720
N131	N13	0.391490	0.162930	0.907070
N141	N14	0.501200	0.102760	0.859660
N151	N15	0.453060	0.230220	0.824000
N161	N16	0.038510	0.907070	0.162930
N171	N17	0.036380	0.859660	0.102760
N181	N18	0.992720	0.824000	0.230220
N191	N19	0.662930	0.891490	0.538510
N201	N20	0.602760	0.001200	0.536380
N211	N21	0.730220	0.953060	0.492720
N221	N22	0.407070	0.538510	0.891490
N231	N23	0.359660	0.536380	0.001200
N241	N24	0.324000	0.492720	0.953060
N251	N25	0.391490	0.907070	0.538510
N261	N26	0.501200	0.859660	0.536380
N271	N27	0.453060	0.824000	0.492720
N281	N28	0.038510	0.162930	0.891490
N291	N29	0.036380	0.102760	0.001200
N301	N30	0.992720	0.230220	0.953060
N311	N31	0.662930	0.538510	0.907070
N321	N32	0.602760	0.536380	0.859660
N331	N33	0.730220	0.492720	0.824000
N341	N34	0.407070	0.891490	0.162930
N351	N35	0.359660	0.001200	0.102760
N361	N36	0.324000	0.953060	0.230220
N371	N37	0.538510	0.391490	0.662930
N381	N38	0.536380	0.501200	0.602760
N391	N39	0.492720	0.453060	0.730220
N401	N40	0.891490	0.038510	0.407070
N411	N41	0.001200	0.036380	0.359660
N421	N42	0.953060	0.992720	0.324000
N431	N43	0.907070	0.662930	0.391490
N441	N44	0.859660	0.602760	0.501200
N451	N45	0.824000	0.730220	0.453060
N461	N46	0.162930	0.407070	0.038510
N471	N47	0.102760	0.359660	0.036380
N481	N48	0.230220	0.324000	0.992720
N491	N49	0.162930	0.391490	0.407070
N501	N50	0.102760	0.501200	0.359660
N511	N51	0.230220	0.453060	0.324000
N521	N52	0.907070	0.038510	0.662930
N531	N53	0.859660	0.036380	0.602760
N541	N54	0.824000	0.992720	0.730220
N551	N55	0.891490	0.662930	0.038510
N561	N56	0.001200	0.602760	0.036380
N571	N57	0.953060	0.730220	0.992720
N581	N58	0.538510	0.407070	0.391490
N591	N59	0.536380	0.359660	0.501200
N601	N60	0.492720	0.324000	0.453060
N611	N61	0.907070	0.391490	0.038510
N621	N62	0.859660	0.501200	0.036380
N631	N63	0.824000	0.453060	0.992720
N641	N64	0.162930	0.038510	0.391490
N651	N65	0.102760	0.036380	0.501200
N661	N66	0.230220	0.992720	0.453060
N671	N67	0.538510	0.662930	0.407070
N681	N68	0.536380	0.602760	0.359660
N691	N69	0.492720	0.730220	0.324000
N701	N70	0.891490	0.407070	0.662930
N711	N71	0.001200	0.359660	0.602760
N721	N72	0.953060	0.324000	0.730220
O11	O1	0.467550	0.546390	0.080150
O21	O2	0.402280	0.527440	0.244440
O31	O3	0.530870	0.439570	0.322810
O41	O4	0.487750	0.476490	0.343710
O51	O5	0.638340	0.549280	0.001900
O61	O6	0.619780	0.548020	0.971620
O71	O7	0.046390	0.967550	0.905910
O81	O8	0.027440	0.902280	0.825840
O91	O9	0.939570	0.030870	0.706750
O101	O10	0.976490	0.987750	0.692050
O111	O11	0.049280	0.138340	0.810480
O121	O12	0.048020	0.119780	0.860580
O131	O13	0.580150	0.905910	0.967550
O141	O14	0.744440	0.825840	0.902280
O151	O15	0.822810	0.706750	0.030870
O161	O16	0.843710	0.692050	0.987750
O171	O17	0.501900	0.810480	0.138340
O181	O18	0.471620	0.860580	0.119780
O191	O19	0.405910	0.080150	0.546390
O201	O20	0.325840	0.244440	0.527440
O211	O21	0.206750	0.322810	0.439570
O221	O22	0.192050	0.343710	0.476490
O231	O23	0.310480	0.001900	0.549280
O241	O24	0.360580	0.971620	0.548020
O251	O25	0.467550	0.080150	0.905910
O261	O26	0.402280	0.244440	0.825840
O271	O27	0.530870	0.322810	0.706750
O281	O28	0.487750	0.343710	0.692050
O291	O29	0.638340	0.001900	0.810480
O301	O30	0.619780	0.971620	0.860580
O311	O31	0.046390	0.905910	0.080150
O321	O32	0.027440	0.825840	0.244440
O331	O33	0.939570	0.706750	0.322810
O341	O34	0.976490	0.692050	0.343710
O351	O35	0.049280	0.810480	0.001900
O361	O36	0.048020	0.860580	0.971620
O371	O37	0.580150	0.967550	0.546390
O381	O38	0.744440	0.902280	0.527440
O391	O39	0.822810	0.030870	0.439570
O401	O40	0.843710	0.987750	0.476490
O411	O41	0.501900	0.138340	0.549280
O421	O42	0.471620	0.119780	0.548020
O431	O43	0.405910	0.546390	0.967550
O441	O44	0.325840	0.527440	0.902280
O451	O45	0.206750	0.439570	0.030870
O461	O46	0.192050	0.476490	0.987750
O471	O47	0.310480	0.549280	0.138340
O481	O48	0.360580	0.548020	0.119780
O491	O49	0.467550	0.905910	0.546390
O501	O50	0.402280	0.825840	0.527440
O511	O51	0.530870	0.706750	0.439570
O521	O52	0.487750	0.692050	0.476490
O531	O53	0.638340	0.810480	0.549280
O541	O54	0.619780	0.860580	0.548020
O551	O55	0.046390	0.080150	0.967550
O561	O56	0.027440	0.244440	0.902280
O571	O57	0.939570	0.322810	0.030870
O581	O58	0.976490	0.343710	0.987750
O591	O59	0.049280	0.001900	0.138340
O601	O60	0.048020	0.971620	0.119780
O611	O61	0.580150	0.546390	0.905910
O621	O62	0.744440	0.527440	0.825840
O631	O63	0.822810	0.439570	0.706750
O641	O64	0.843710	0.476490	0.692050
O651	O65	0.501900	0.549280	0.810480
O661	O66	0.471620	0.548020	0.860580
O671	O67	0.405910	0.967550	0.080150
O681	O68	0.325840	0.902280	0.244440
O691	O69	0.206750	0.030870	0.322810
O701	O70	0.192050	0.987750	0.343710
O711	O71	0.310480	0.138340	0.001900
O721	O72	0.360580	0.119780	0.971620
O731	O73	0.546390	0.467550	0.580150
O741	O74	0.527440	0.402280	0.744440
O751	O75	0.439570	0.530870	0.822810
O761	O76	0.476490	0.487750	0.843710
O771	O77	0.549280	0.638340	0.501900
O781	O78	0.548020	0.619780	0.471620
O791	O79	0.967550	0.046390	0.405910
O801	O80	0.902280	0.027440	0.325840
O811	O81	0.030870	0.939570	0.206750
O821	O82	0.987750	0.976490	0.192050
O831	O83	0.138340	0.049280	0.310480
O841	O84	0.119780	0.048020	0.360580
O851	O85	0.905910	0.580150	0.467550
O861	O86	0.825840	0.744440	0.402280
O871	O87	0.706750	0.822810	0.530870
O881	O88	0.692050	0.843710	0.487750
O891	O89	0.810480	0.501900	0.638340
O901	O90	0.860580	0.471620	0.619780
O911	O91	0.080150	0.405910	0.046390
O921	O92	0.244440	0.325840	0.027440
O931	O93	0.322810	0.206750	0.939570
O941	O94	0.343710	0.192050	0.976490
O951	O95	0.001900	0.310480	0.049280
O961	O96	0.971620	0.360580	0.048020
O971	O97	0.080150	0.467550	0.405910
O981	O98	0.244440	0.402280	0.325840
O991	O99	0.322810	0.530870	0.206750
O1001	O100	0.343710	0.487750	0.192050
O1011	O101	0.001900	0.638340	0.310480
O1021	O102	0.971620	0.619780	0.360580
O1031	O103	0.905910	0.046390	0.580150
O1041	O104	0.825840	0.027440	0.744440
O1051	O105	0.706750	0.939570	0.822810
O1061	O106	0.692050	0.976490	0.843710
O1071	O107	0.810480	0.049280	0.501900
O1081	O108	0.860580	0.048020	0.471620
O1091	O109	0.967550	0.580150	0.046390
O1101	O110	0.902280	0.744440	0.027440
O1111	O111	0.030870	0.822810	0.939570
O1121	O112	0.987750	0.843710	0.976490
O1131	O113	0.138340	0.501900	0.049280
O1141	O114	0.119780	0.471620	0.048020
O1151	O115	0.546390	0.405910	0.467550
O1161	O116	0.527440	0.325840	0.402280
O1171	O117	0.439570	0.206750	0.530870
O1181	O118	0.476490	0.192050	0.487750
O1191	O119	0.549280	0.310480	0.638340
O1201	O120	0.548020	0.360580	0.619780
O1211	O121	0.905910	0.467550	0.046390
O1221	O122	0.825840	0.402280	0.027440
O1231	O123	0.706750	0.530870	0.939570
O1241	O124	0.692050	0.487750	0.976490
O1251	O125	0.810480	0.638340	0.049280
O1261	O126	0.860580	0.619780	0.048020
O1271	O127	0.080150	0.046390	0.467550
O1281	O128	0.244440	0.027440	0.402280
O1291	O129	0.322810	0.939570	0.530870
O1301	O130	0.343710	0.976490	0.487750
O1311	O131	0.001900	0.049280	0.638340
O1321	O132	0.971620	0.048020	0.619780
O1331	O133	0.546390	0.580150	0.405910
O1341	O134	0.527440	0.744440	0.325840
O1351	O135	0.439570	0.822810	0.206750
O1361	O136	0.476490	0.843710	0.192050
O1371	O137	0.549280	0.501900	0.310480
O1381	O138	0.548020	0.471620	0.360580
O1391	O139	0.967550	0.405910	0.580150
O1401	O140	0.902280	0.325840	0.744440
O1411	O141	0.030870	0.206750	0.822810
O1421	O142	0.987750	0.192050	0.843710
O1431	O143	0.138340	0.310480	0.501900
O1441	O144	0.119780	0.360580	0.471620
Zn251	Zn25	0.451010	0.652810	0.337470
Zn261	Zn26	0.152810	0.951010	0.558710
Zn271	Zn27	0.058710	0.337470	0.652810
Zn281	Zn28	0.837470	0.558710	0.951010
Zn291	Zn29	0.837470	0.652810	0.558710
Zn301	Zn30	0.058710	0.951010	0.337470
Zn311	Zn31	0.152810	0.337470	0.951010
Zn321	Zn32	0.451010	0.558710	0.652810
Zn331	Zn33	0.058710	0.652810	0.951010
Zn341	Zn34	0.837470	0.951010	0.652810
Zn351	Zn35	0.451010	0.337470	0.558710
Zn361	Zn36	0.152810	0.558710	0.337470
Zn371	Zn37	0.652810	0.451010	0.837470
Zn381	Zn38	0.951010	0.152810	0.058710
Zn391	Zn39	0.337470	0.058710	0.152810
Zn401	Zn40	0.558710	0.837470	0.451010
Zn411	Zn41	0.652810	0.837470	0.058710
Zn421	Zn42	0.951010	0.058710	0.837470
Zn431	Zn43	0.337470	0.152810	0.451010
Zn441	Zn44	0.558710	0.451010	0.152810
Zn451	Zn45	0.652810	0.058710	0.451010
Zn461	Zn46	0.951010	0.837470	0.152810
Zn471	Zn47	0.337470	0.451010	0.058710
Zn481	Zn48	0.558710	0.152810	0.837470
H3131	H313	0.454700	0.451900	0.402100
H3141	H314	0.451900	0.585300	0.383700
H3151	H315	0.461000	0.432600	0.497200
H3161	H316	0.566400	0.476600	0.217800
H3171	H317	0.497700	0.552100	0.184900
H3181	H318	0.477900	0.529100	0.335100
H3191	H319	0.464800	0.480400	0.456200
H3201	H320	0.472100	0.622100	0.289900
H3211	H321	0.484000	0.573200	0.222600
H3221	H322	0.553700	0.498900	0.255300
H3231	H323	0.448400	0.406000	0.444200
H3241	H324	0.468300	0.497500	0.379100
H3251	H325	0.516800	0.533600	0.283800
H3261	H326	0.951900	0.954700	0.691300
H3271	H327	0.085300	0.951900	0.579100
H3281	H328	0.932600	0.961000	0.609200
H3291	H329	0.976600	0.066400	0.739200
H3301	H330	0.052100	0.997700	0.765300
H3311	H331	0.029100	0.977900	0.657900
H3321	H332	0.980400	0.964800	0.598600
H3331	H333	0.122100	0.972100	0.615900
H3341	H334	0.073200	0.984000	0.720200
H3351	H335	0.998900	0.053700	0.692100
H3361	H336	0.906000	0.948400	0.701400
H3371	H337	0.997500	0.968300	0.655100
H3381	H338	0.033600	0.016800	0.665800
H3391	H339	0.191300	0.402100	0.451900
H3401	H340	0.079100	0.383700	0.585300
H3411	H341	0.109200	0.497200	0.432600
H3421	H342	0.239200	0.217800	0.476600
H3431	H343	0.265300	0.184900	0.552100
H3441	H344	0.157900	0.335100	0.529100
H3451	H345	0.098600	0.456200	0.480400
H3461	H346	0.115900	0.289900	0.622100
H3471	H347	0.220200	0.222600	0.573200
H3481	H348	0.192100	0.255300	0.498900
H3491	H349	0.201400	0.444200	0.406000
H3501	H350	0.155100	0.379100	0.497500
H3511	H351	0.165800	0.283800	0.533600
H3521	H352	0.902100	0.691300	0.954700
H3531	H353	0.883700	0.579100	0.951900
H3541	H354	0.997200	0.609200	0.961000
H3551	H355	0.717800	0.739200	0.066400
H3561	H356	0.684900	0.765300	0.997700
H3571	H357	0.835100	0.657900	0.977900
H3581	H358	0.956200	0.598600	0.964800
H3591	H359	0.789900	0.615900	0.972100
H3601	H360	0.722600	0.720200	0.984000
H3611	H361	0.755300	0.692100	0.053700
H3621	H362	0.944200	0.701400	0.948400
H3631	H363	0.879100	0.655100	0.968300
H3641	H364	0.783800	0.665800	0.016800
H3651	H365	0.902100	0.451900	0.691300
H3661	H366	0.883700	0.585300	0.579100
H3671	H367	0.997200	0.432600	0.609200
H3681	H368	0.717800	0.476600	0.739200
H3691	H369	0.684900	0.552100	0.765300
H3701	H370	0.835100	0.529100	0.657900
H3711	H371	0.956200	0.480400	0.598600
H3721	H372	0.789900	0.622100	0.615900
H3731	H373	0.722600	0.573200	0.720200
H3741	H374	0.755300	0.498900	0.692100
H3751	H375	0.944200	0.406000	0.701400
H3761	H376	0.879100	0.497500	0.655100
H3771	H377	0.783800	0.533600	0.665800
H3781	H378	0.191300	0.954700	0.402100
H3791	H379	0.079100	0.951900	0.383700
H3801	H380	0.109200	0.961000	0.497200
H3811	H381	0.239200	0.066400	0.217800
H3821	H382	0.265300	0.997700	0.184900
H3831	H383	0.157900	0.977900	0.335100
H3841	H384	0.098600	0.964800	0.456200
H3851	H385	0.115900	0.972100	0.289900
H3861	H386	0.220200	0.984000	0.222600
H3871	H387	0.192100	0.053700	0.255300
H3881	H388	0.201400	0.948400	0.444200
H3891	H389	0.155100	0.968300	0.379100
H3901	H390	0.165800	0.016800	0.283800
H3911	H391	0.951900	0.402100	0.954700
H3921	H392	0.085300	0.383700	0.951900
H3931	H393	0.932600	0.497200	0.961000
H3941	H394	0.976600	0.217800	0.066400
H3951	H395	0.052100	0.184900	0.997700
H3961	H396	0.029100	0.335100	0.977900
H3971	H397	0.980400	0.456200	0.964800
H3981	H398	0.122100	0.289900	0.972100
H3991	H399	0.073200	0.222600	0.984000
H4001	H400	0.998900	0.255300	0.053700
H4011	H401	0.906000	0.444200	0.948400
H4021	H402	0.997500	0.379100	0.968300
H4031	H403	0.033600	0.283800	0.016800
H4041	H404	0.454700	0.691300	0.451900
H4051	H405	0.451900	0.579100	0.585300
H4061	H406	0.461000	0.609200	0.432600
H4071	H407	0.566400	0.739200	0.476600
H4081	H408	0.497700	0.765300	0.552100
H4091	H409	0.477900	0.657900	0.529100
H4101	H410	0.464800	0.598600	0.480400
H4111	H411	0.472100	0.615900	0.622100
H4121	H412	0.484000	0.720200	0.573200
H4131	H413	0.553700	0.692100	0.498900
H4141	H414	0.448400	0.701400	0.406000
H4151	H415	0.468300	0.655100	0.497500
H4161	H416	0.516800	0.665800	0.533600
H4171	H417	0.191300	0.451900	0.954700
H4181	H418	0.079100	0.585300	0.951900
H4191	H419	0.109200	0.432600	0.961000
H4201	H420	0.239200	0.476600	0.066400
H4211	H421	0.265300	0.552100	0.997700
H4221	H422	0.157900	0.529100	0.977900
H4231	H423	0.098600	0.480400	0.964800
H4241	H424	0.115900	0.622100	0.972100
H4251	H425	0.220200	0.573200	0.984000
H4261	H426	0.192100	0.498900	0.053700
H4271	H427	0.201400	0.406000	0.948400
H4281	H428	0.155100	0.497500	0.968300
H4291	H429	0.165800	0.533600	0.016800
H4301	H430	0.902100	0.954700	0.451900
H4311	H431	0.883700	0.951900	0.585300
H4321	H432	0.997200	0.961000	0.432600
H4331	H433	0.717800	0.066400	0.476600
H4341	H434	0.684900	0.997700	0.552100
H4351	H435	0.835100	0.977900	0.529100
H4361	H436	0.956200	0.964800	0.480400
H4371	H437	0.789900	0.972100	0.622100
H4381	H438	0.722600	0.984000	0.573200
H4391	H439	0.755300	0.053700	0.498900
H4401	H440	0.944200	0.948400	0.406000
H4411	H441	0.879100	0.968300	0.497500
H4421	H442	0.783800	0.016800	0.533600
H4431	H443	0.454700	0.402100	0.691300
H4441	H444	0.451900	0.383700	0.579100
H4451	H445	0.461000	0.497200	0.609200
H4461	H446	0.566400	0.217800	0.739200
H4471	H447	0.497700	0.184900	0.765300
H4481	H448	0.477900	0.335100	0.657900
H4491	H449	0.464800	0.456200	0.598600
H4501	H450	0.472100	0.289900	0.615900
H4511	H451	0.484000	0.222600	0.720200
H4521	H452	0.553700	0.255300	0.692100
H4531	H453	0.448400	0.444200	0.701400
H4541	H454	0.468300	0.379100	0.655100
H4551	H455	0.516800	0.283800	0.665800
H4561	H456	0.951900	0.691300	0.402100
H4571	H457	0.085300	0.579100	0.383700
H4581	H458	0.932600	0.609200	0.497200
H4591	H459	0.976600	0.739200	0.217800
H4601	H460	0.052100	0.765300	0.184900
H4611	H461	0.029100	0.657900	0.335100
H4621	H462	0.980400	0.598600	0.456200
H4631	H463	0.122100	0.615900	0.289900
H4641	H464	0.073200	0.720200	0.222600
H4651	H465	0.998900	0.692100	0.255300
H4661	H466	0.906000	0.701400	0.444200
H4671	H467	0.997500	0.655100	0.379100
H4681	H468	0.033600	0.665800	0.283800
H4691	H469	0.451900	0.454700	0.902100
H4701	H470	0.585300	0.451900	0.883700
H4711	H471	0.432600	0.461000	0.997200
H4721	H472	0.476600	0.566400	0.717800
H4731	H473	0.552100	0.497700	0.684900
H4741	H474	0.529100	0.477900	0.835100
H4751	H475	0.480400	0.464800	0.956200
H4761	H476	0.622100	0.472100	0.789900
H4771	H477	0.573200	0.484000	0.722600
H4781	H478	0.498900	0.553700	0.755300
H4791	H479	0.406000	0.448400	0.944200
H4801	H480	0.497500	0.468300	0.879100
H4811	H481	0.533600	0.516800	0.783800
H4821	H482	0.954700	0.951900	0.191300
H4831	H483	0.951900	0.085300	0.079100
H4841	H484	0.961000	0.932600	0.109200
H4851	H485	0.066400	0.976600	0.239200
H4861	H486	0.997700	0.052100	0.265300
H4871	H487	0.977900	0.029100	0.157900
H4881	H488	0.964800	0.980400	0.098600
H4891	H489	0.972100	0.122100	0.115900
H4901	H490	0.984000	0.073200	0.220200
H4911	H491	0.053700	0.998900	0.192100
H4921	H492	0.948400	0.906000	0.201400
H4931	H493	0.968300	0.997500	0.155100
H4941	H494	0.016800	0.033600	0.165800
H4951	H495	0.402100	0.191300	0.951900
H4961	H496	0.383700	0.079100	0.085300
H4971	H497	0.497200	0.109200	0.932600
H4981	H498	0.217800	0.239200	0.976600
H4991	H499	0.184900	0.265300	0.052100
H5001	H500	0.335100	0.157900	0.029100
H5011	H501	0.456200	0.098600	0.980400
H5021	H502	0.289900	0.115900	0.122100
H5031	H503	0.222600	0.220200	0.073200
H5041	H504	0.255300	0.192100	0.998900
H5051	H505	0.444200	0.201400	0.906000
H5061	H506	0.379100	0.155100	0.997500
H5071	H507	0.283800	0.165800	0.033600
H5081	H508	0.691300	0.902100	0.454700
H5091	H509	0.579100	0.883700	0.451900
H5101	H510	0.609200	0.997200	0.461000
H5111	H511	0.739200	0.717800	0.566400
H5121	H512	0.765300	0.684900	0.497700
H5131	H513	0.657900	0.835100	0.477900
H5141	H514	0.598600	0.956200	0.464800
H5151	H515	0.615900	0.789900	0.472100
H5161	H516	0.720200	0.722600	0.484000
H5171	H517	0.692100	0.755300	0.553700
H5181	H518	0.701400	0.944200	0.448400
H5191	H519	0.655100	0.879100	0.468300
H5201	H520	0.665800	0.783800	0.516800
H5211	H521	0.451900	0.902100	0.191300
H5221	H522	0.585300	0.883700	0.079100
H5231	H523	0.432600	0.997200	0.109200
H5241	H524	0.476600	0.717800	0.239200
H5251	H525	0.552100	0.684900	0.265300
H5261	H526	0.529100	0.835100	0.157900
H5271	H527	0.480400	0.956200	0.098600
H5281	H528	0.622100	0.789900	0.115900
H5291	H529	0.573200	0.722600	0.220200
H5301	H530	0.498900	0.755300	0.192100
H5311	H531	0.406000	0.944200	0.201400
H5321	H532	0.497500	0.879100	0.155100
H5331	H533	0.533600	0.783800	0.165800
H5341	H534	0.954700	0.191300	0.902100
H5351	H535	0.951900	0.079100	0.883700
H5361	H536	0.961000	0.109200	0.997200
H5371	H537	0.066400	0.239200	0.717800
H5381	H538	0.997700	0.265300	0.684900
H5391	H539	0.977900	0.157900	0.835100
H5401	H540	0.964800	0.098600	0.956200
H5411	H541	0.972100	0.115900	0.789900
H5421	H542	0.984000	0.220200	0.722600
H5431	H543	0.053700	0.192100	0.755300
H5441	H544	0.948400	0.201400	0.944200
H5451	H545	0.968300	0.155100	0.879100
H5461	H546	0.016800	0.165800	0.783800
H5471	H547	0.402100	0.951900	0.454700
H5481	H548	0.383700	0.085300	0.451900
H5491	H549	0.497200	0.932600	0.461000
H5501	H550	0.217800	0.976600	0.566400
H5511	H551	0.184900	0.052100	0.497700
H5521	H552	0.335100	0.029100	0.477900
H5531	H553	0.456200	0.980400	0.464800
H5541	H554	0.289900	0.122100	0.472100
H5551	H555	0.222600	0.073200	0.484000
H5561	H556	0.255300	0.998900	0.553700
H5571	H557	0.444200	0.906000	0.448400
H5581	H558	0.379100	0.997500	0.468300
H5591	H559	0.283800	0.033600	0.516800
H5601	H560	0.691300	0.454700	0.951900
H5611	H561	0.579100	0.451900	0.085300
H5621	H562	0.609200	0.461000	0.932600
H5631	H563	0.739200	0.566400	0.976600
H5641	H564	0.765300	0.497700	0.052100
H5651	H565	0.657900	0.477900	0.029100
H5661	H566	0.598600	0.464800	0.980400
H5671	H567	0.615900	0.472100	0.122100
H5681	H568	0.720200	0.484000	0.073200
H5691	H569	0.692100	0.553700	0.998900
H5701	H570	0.701400	0.448400	0.906000
H5711	H571	0.655100	0.468300	0.997500
H5721	H572	0.665800	0.516800	0.033600
H5731	H573	0.451900	0.191300	0.454700
H5741	H574	0.585300	0.079100	0.451900
H5751	H575	0.432600	0.109200	0.461000
H5761	H576	0.476600	0.239200	0.566400
H5771	H577	0.552100	0.265300	0.497700
H5781	H578	0.529100	0.157900	0.477900
H5791	H579	0.480400	0.098600	0.464800
H5801	H580	0.622100	0.115900	0.472100
H5811	H581	0.573200	0.220200	0.484000
H5821	H582	0.498900	0.192100	0.553700
H5831	H583	0.406000	0.201400	0.448400
H5841	H584	0.497500	0.155100	0.468300
H5851	H585	0.533600	0.165800	0.516800
H5861	H586	0.954700	0.902100	0.951900
H5871	H587	0.951900	0.883700	0.085300
H5881	H588	0.961000	0.997200	0.932600
H5891	H589	0.066400	0.717800	0.976600
H5901	H590	0.997700	0.684900	0.052100
H5911	H591	0.977900	0.835100	0.029100
H5921	H592	0.964800	0.956200	0.980400
H5931	H593	0.972100	0.789900	0.122100
H5941	H594	0.984000	0.722600	0.073200
H5951	H595	0.053700	0.755300	0.998900
H5961	H596	0.948400	0.944200	0.906000
H5971	H597	0.968300	0.879100	0.997500
H5981	H598	0.016800	0.783800	0.033600
H5991	H599	0.402100	0.454700	0.191300
H6001	H600	0.383700	0.451900	0.079100
H6011	H601	0.497200	0.461000	0.109200
H6021	H602	0.217800	0.566400	0.239200
H6031	H603	0.184900	0.497700	0.265300
H6041	H604	0.335100	0.477900	0.157900
H6051	H605	0.456200	0.464800	0.098600
H6061	H606	0.289900	0.472100	0.115900
H6071	H607	0.222600	0.484000	0.220200
H6081	H608	0.255300	0.553700	0.192100
H6091	H609	0.444200	0.448400	0.201400
H6101	H610	0.379100	0.468300	0.155100
H6111	H611	0.283800	0.516800	0.165800
H6121	H612	0.691300	0.951900	0.902100
H6131	H613	0.579100	0.085300	0.883700
H6141	H614	0.609200	0.932600	0.997200
H6151	H615	0.739200	0.976600	0.717800
H6161	H616	0.765300	0.052100	0.684900
H6171	H617	0.657900	0.029100	0.835100
H6181	H618	0.598600	0.980400	0.956200
H6191	H619	0.615900	0.122100	0.789900
H6201	H620	0.720200	0.073200	0.722600
H6211	H621	0.692100	0.998900	0.755300
H6221	H622	0.701400	0.906000	0.944200
H6231	H623	0.655100	0.997500	0.879100
H6241	H624	0.665800	0.033600	0.783800
C5051	C505	0.455460	0.448380	0.421540
C5061	C506	0.458310	0.582810	0.364250
C5071	C507	0.533000	0.512460	0.197700
C5081	C508	0.454120	0.414480	0.475720
C5091	C509	0.464150	0.553190	0.364690
C5101	C510	0.460610	0.526650	0.396230
C5111	C511	0.460040	0.471220	0.424380
C5121	C512	0.477360	0.575100	0.306960
C5131	C513	0.516230	0.537770	0.243650
C5141	C514	0.459200	0.436700	0.478100
C5151	C515	0.549910	0.496110	0.218590
C5161	C516	0.508870	0.540870	0.199330
C5171	C517	0.539450	0.497210	0.174770
C5181	C518	0.473870	0.549010	0.335430
C5191	C519	0.485100	0.574880	0.274780
C5201	C520	0.461840	0.465360	0.453520
C5211	C521	0.470480	0.604400	0.308860
C5221	C522	0.451600	0.383980	0.502020
C5231	C523	0.500590	0.553530	0.222110
C5241	C524	0.541810	0.509370	0.241590
C5251	C525	0.452120	0.420720	0.446520
C5261	C526	0.948380	0.955460	0.674620
C5271	C527	0.082810	0.958310	0.594630
C5281	C528	0.012460	0.033000	0.756840
C5291	C529	0.914480	0.954120	0.655680
C5301	C530	0.053190	0.964150	0.617970
C5311	C531	0.026650	0.960610	0.616510
C5321	C532	0.971220	0.960040	0.644360
C5331	C533	0.075100	0.977360	0.640580
C5341	C534	0.037770	0.016230	0.702350
C5351	C535	0.936700	0.959200	0.626000
C5361	C536	0.996110	0.049910	0.735390
C5371	C537	0.040870	0.008870	0.750930
C5381	C538	0.997210	0.039450	0.788570
C5391	C539	0.049010	0.973870	0.641690
C5401	C540	0.074880	0.985100	0.665240
C5411	C541	0.965360	0.961840	0.619280
C5421	C542	0.104400	0.970480	0.616260
C5431	C543	0.883980	0.951600	0.662400
C5441	C544	0.053530	0.000590	0.723770
C5451	C545	0.009370	0.041810	0.707230
C5461	C546	0.920720	0.952120	0.680640
C5471	C547	0.174620	0.421540	0.448380
C5481	C548	0.094630	0.364250	0.582810
C5491	C549	0.256840	0.197700	0.512460
C5501	C550	0.155680	0.475720	0.414480
C5511	C551	0.117970	0.364690	0.553190
C5521	C552	0.116510	0.396230	0.526650
C5531	C553	0.144360	0.424380	0.471220
C5541	C554	0.140580	0.306960	0.575100
C5551	C555	0.202350	0.243650	0.537770
C5561	C556	0.126000	0.478100	0.436700
C5571	C557	0.235390	0.218590	0.496110
C5581	C558	0.250930	0.199330	0.540870
C5591	C559	0.288570	0.174770	0.497210
C5601	C560	0.141690	0.335430	0.549010
C5611	C561	0.165240	0.274780	0.574880
C5621	C562	0.119280	0.453520	0.465360
C5631	C563	0.116260	0.308860	0.604400
C5641	C564	0.162400	0.502020	0.383980
C5651	C565	0.223770	0.222110	0.553530
C5661	C566	0.207230	0.241590	0.509370
C5671	C567	0.180640	0.446520	0.420720
C5681	C568	0.921540	0.674620	0.955460
C5691	C569	0.864250	0.594630	0.958310
C5701	C570	0.697700	0.756840	0.033000
C5711	C571	0.975720	0.655680	0.954120
C5721	C572	0.864690	0.617970	0.964150
C5731	C573	0.896230	0.616510	0.960610
C5741	C574	0.924380	0.644360	0.960040
C5751	C575	0.806960	0.640580	0.977360
C5761	C576	0.743650	0.702350	0.016230
C5771	C577	0.978100	0.626000	0.959200
C5781	C578	0.718590	0.735390	0.049910
C5791	C579	0.699330	0.750930	0.008870
C5801	C580	0.674770	0.788570	0.039450
C5811	C581	0.835430	0.641690	0.973870
C5821	C582	0.774780	0.665240	0.985100
C5831	C583	0.953520	0.619280	0.961840
C5841	C584	0.808860	0.616260	0.970480
C5851	C585	0.002020	0.662400	0.951600
C5861	C586	0.722110	0.723770	0.000590
C5871	C587	0.741590	0.707230	0.041810
C5881	C588	0.946520	0.680640	0.952120
C5891	C589	0.921540	0.448380	0.674620
C5901	C590	0.864250	0.582810	0.594630
C5911	C591	0.697700	0.512460	0.756840
C5921	C592	0.975720	0.414480	0.655680
C5931	C593	0.864690	0.553190	0.617970
C5941	C594	0.896230	0.526650	0.616510
C5951	C595	0.924380	0.471220	0.644360
C5961	C596	0.806960	0.575100	0.640580
C5971	C597	0.743650	0.537770	0.702350
C5981	C598	0.978100	0.436700	0.626000
C5991	C599	0.718590	0.496110	0.735390
C6001	C600	0.699330	0.540870	0.750930
C6011	C601	0.674770	0.497210	0.788570
C6021	C602	0.835430	0.549010	0.641690
C6031	C603	0.774780	0.574880	0.665240
C6041	C604	0.953520	0.465360	0.619280
C6051	C605	0.808860	0.604400	0.616260
C6061	C606	0.002020	0.383980	0.662400
C6071	C607	0.722110	0.553530	0.723770
C6081	C608	0.741590	0.509370	0.707230
C6091	C609	0.946520	0.420720	0.680640
C6101	C610	0.174620	0.955460	0.421540
C6111	C611	0.094630	0.958310	0.364250
C6121	C612	0.256840	0.033000	0.197700
C6131	C613	0.155680	0.954120	0.475720
C6141	C614	0.117970	0.964150	0.364690
C6151	C615	0.116510	0.960610	0.396230
C6161	C616	0.144360	0.960040	0.424380
C6171	C617	0.140580	0.977360	0.306960
C6181	C618	0.202350	0.016230	0.243650
C6191	C619	0.126000	0.959200	0.478100
C6201	C620	0.235390	0.049910	0.218590
C6211	C621	0.250930	0.008870	0.199330
C6221	C622	0.288570	0.039450	0.174770
C6231	C623	0.141690	0.973870	0.335430
C6241	C624	0.165240	0.985100	0.274780
C6251	C625	0.119280	0.961840	0.453520
C6261	C626	0.116260	0.970480	0.308860
C6271	C627	0.162400	0.951600	0.502020
C6281	C628	0.223770	0.000590	0.222110
C6291	C629	0.207230	0.041810	0.241590
C6301	C630	0.180640	0.952120	0.446520
C6311	C631	0.948380	0.421540	0.955460
C6321	C632	0.082810	0.364250	0.958310
C6331	C633	0.012460	0.197700	0.033000
C6341	C634	0.914480	0.475720	0.954120
C6351	C635	0.053190	0.364690	0.964150
C6361	C636	0.026650	0.396230	0.960610
C6371	C637	0.971220	0.424380	0.960040
C6381	C638	0.075100	0.306960	0.977360
C6391	C639	0.037770	0.243650	0.016230
C6401	C640	0.936700	0.478100	0.959200
C6411	C641	0.996110	0.218590	0.049910
C6421	C642	0.040870	0.199330	0.008870
C6431	C643	0.997210	0.174770	0.039450
C6441	C644	0.049010	0.335430	0.973870
C6451	C645	0.074880	0.274780	0.985100
C6461	C646	0.965360	0.453520	0.961840
C6471	C647	0.104400	0.308860	0.970480
C6481	C648	0.883980	0.502020	0.951600
C6491	C649	0.053530	0.222110	0.000590
C6501	C650	0.009370	0.241590	0.041810
C6511	C651	0.920720	0.446520	0.952120
C6521	C652	0.455460	0.674620	0.448380
C6531	C653	0.458310	0.594630	0.582810
C6541	C654	0.533000	0.756840	0.512460
C6551	C655	0.454120	0.655680	0.414480
C6561	C656	0.464150	0.617970	0.553190
C6571	C657	0.460610	0.616510	0.526650
C6581	C658	0.460040	0.644360	0.471220
C6591	C659	0.477360	0.640580	0.575100
C6601	C660	0.516230	0.702350	0.537770
C6611	C661	0.459200	0.626000	0.436700
C6621	C662	0.549910	0.735390	0.496110
C6631	C663	0.508870	0.750930	0.540870
C6641	C664	0.539450	0.788570	0.497210
C6651	C665	0.473870	0.641690	0.549010
C6661	C666	0.485100	0.665240	0.574880
C6671	C667	0.461840	0.619280	0.465360
C6681	C668	0.470480	0.616260	0.604400
C6691	C669	0.451600	0.662400	0.383980
C6701	C670	0.500590	0.723770	0.553530
C6711	C671	0.541810	0.707230	0.509370
C6721	C672	0.452120	0.680640	0.420720
C6731	C673	0.174620	0.448380	0.955460
C6741	C674	0.094630	0.582810	0.958310
C6751	C675	0.256840	0.512460	0.033000
C6761	C676	0.155680	0.414480	0.954120
C6771	C677	0.117970	0.553190	0.964150
C6781	C678	0.116510	0.526650	0.960610
C6791	C679	0.144360	0.471220	0.960040
C6801	C680	0.140580	0.575100	0.977360
C6811	C681	0.202350	0.537770	0.016230
C6821	C682	0.126000	0.436700	0.959200
C6831	C683	0.235390	0.496110	0.049910
C6841	C684	0.250930	0.540870	0.008870
C6851	C685	0.288570	0.497210	0.039450
C6861	C686	0.141690	0.549010	0.973870
C6871	C687	0.165240	0.574880	0.985100
C6881	C688	0.119280	0.465360	0.961840
C6891	C689	0.116260	0.604400	0.970480
C6901	C690	0.162400	0.383980	0.951600
C6911	C691	0.223770	0.553530	0.000590
C6921	C692	0.207230	0.509370	0.041810
C6931	C693	0.180640	0.420720	0.952120
C6941	C694	0.921540	0.955460	0.448380
C6951	C695	0.864250	0.958310	0.582810
C6961	C696	0.697700	0.033000	0.512460
C6971	C697	0.975720	0.954120	0.414480
C6981	C698	0.864690	0.964150	0.553190
C6991	C699	0.896230	0.960610	0.526650
C7001	C700	0.924380	0.960040	0.471220
C7011	C701	0.806960	0.977360	0.575100
C7021	C702	0.743650	0.016230	0.537770
C7031	C703	0.978100	0.959200	0.436700
C7041	C704	0.718590	0.049910	0.496110
C7051	C705	0.699330	0.008870	0.540870
C7061	C706	0.674770	0.039450	0.497210
C7071	C707	0.835430	0.973870	0.549010
C7081	C708	0.774780	0.985100	0.574880
C7091	C709	0.953520	0.961840	0.465360
C7101	C710	0.808860	0.970480	0.604400
C7111	C711	0.002020	0.951600	0.383980
C7121	C712	0.722110	0.000590	0.553530
C7131	C713	0.741590	0.041810	0.509370
C7141	C714	0.946520	0.952120	0.420720
C7151	C715	0.455460	0.421540	0.674620
C7161	C716	0.458310	0.364250	0.594630
C7171	C717	0.533000	0.197700	0.756840
C7181	C718	0.454120	0.475720	0.655680
C7191	C719	0.464150	0.364690	0.617970
C7201	C720	0.460610	0.396230	0.616510
C7211	C721	0.460040	0.424380	0.644360
C7221	C722	0.477360	0.306960	0.640580
C7231	C723	0.516230	0.243650	0.702350
C7241	C724	0.459200	0.478100	0.626000
C7251	C725	0.549910	0.218590	0.735390
C7261	C726	0.508870	0.199330	0.750930
C7271	C727	0.539450	0.174770	0.788570
C7281	C728	0.473870	0.335430	0.641690
C7291	C729	0.485100	0.274780	0.665240
C7301	C730	0.461840	0.453520	0.619280
C7311	C731	0.470480	0.308860	0.616260
C7321	C732	0.451600	0.502020	0.662400
C7331	C733	0.500590	0.222110	0.723770
C7341	C734	0.541810	0.241590	0.707230
C7351	C735	0.452120	0.446520	0.680640
C7361	C736	0.948380	0.674620	0.421540
C7371	C737	0.082810	0.594630	0.364250
C7381	C738	0.012460	0.756840	0.197700
C7391	C739	0.914480	0.655680	0.475720
C7401	C740	0.053190	0.617970	0.364690
C7411	C741	0.026650	0.616510	0.396230
C7421	C742	0.971220	0.644360	0.424380
C7431	C743	0.075100	0.640580	0.306960
C7441	C744	0.037770	0.702350	0.243650
C7451	C745	0.936700	0.626000	0.478100
C7461	C746	0.996110	0.735390	0.218590
C7471	C747	0.040870	0.750930	0.199330
C7481	C748	0.997210	0.788570	0.174770
C7491	C749	0.049010	0.641690	0.335430
C7501	C750	0.074880	0.665240	0.274780
C7511	C751	0.965360	0.619280	0.453520
C7521	C752	0.104400	0.616260	0.308860
C7531	C753	0.883980	0.662400	0.502020
C7541	C754	0.053530	0.723770	0.222110
C7551	C755	0.009370	0.707230	0.241590
C7561	C756	0.920720	0.680640	0.446520
C7571	C757	0.448380	0.455460	0.921540
C7581	C758	0.582810	0.458310	0.864250
C7591	C759	0.512460	0.533000	0.697700
C7601	C760	0.414480	0.454120	0.975720
C7611	C761	0.553190	0.464150	0.864690
C7621	C762	0.526650	0.460610	0.896230
C7631	C763	0.471220	0.460040	0.924380
C7641	C764	0.575100	0.477360	0.806960
C7651	C765	0.537770	0.516230	0.743650
C7661	C766	0.436700	0.459200	0.978100
C7671	C767	0.496110	0.549910	0.718590
C7681	C768	0.540870	0.508870	0.699330
C7691	C769	0.497210	0.539450	0.674770
C7701	C770	0.549010	0.473870	0.835430
C7711	C771	0.574880	0.485100	0.774780
C7721	C772	0.465360	0.461840	0.953520
C7731	C773	0.604400	0.470480	0.808860
C7741	C774	0.383980	0.451600	0.002020
C7751	C775	0.553530	0.500590	0.722110
C7761	C776	0.509370	0.541810	0.741590
C7771	C777	0.420720	0.452120	0.946520
C7781	C778	0.955460	0.948380	0.174620
C7791	C779	0.958310	0.082810	0.094630
C7801	C780	0.033000	0.012460	0.256840
C7811	C781	0.954120	0.914480	0.155680
C7821	C782	0.964150	0.053190	0.117970
C7831	C783	0.960610	0.026650	0.116510
C7841	C784	0.960040	0.971220	0.144360
C7851	C785	0.977360	0.075100	0.140580
C7861	C786	0.016230	0.037770	0.202350
C7871	C787	0.959200	0.936700	0.126000
C7881	C788	0.049910	0.996110	0.235390
C7891	C789	0.008870	0.040870	0.250930
C7901	C790	0.039450	0.997210	0.288570
C7911	C791	0.973870	0.049010	0.141690
C7921	C792	0.985100	0.074880	0.165240
C7931	C793	0.961840	0.965360	0.119280
C7941	C794	0.970480	0.104400	0.116260
C7951	C795	0.951600	0.883980	0.162400
C7961	C796	0.000590	0.053530	0.223770
C7971	C797	0.041810	0.009370	0.207230
C7981	C798	0.952120	0.920720	0.180640
C7991	C799	0.421540	0.174620	0.948380
C8001	C800	0.364250	0.094630	0.082810
C8011	C801	0.197700	0.256840	0.012460
C8021	C802	0.475720	0.155680	0.914480
C8031	C803	0.364690	0.117970	0.053190
C8041	C804	0.396230	0.116510	0.026650
C8051	C805	0.424380	0.144360	0.971220
C8061	C806	0.306960	0.140580	0.075100
C8071	C807	0.243650	0.202350	0.037770
C8081	C808	0.478100	0.126000	0.936700
C8091	C809	0.218590	0.235390	0.996110
C8101	C810	0.199330	0.250930	0.040870
C8111	C811	0.174770	0.288570	0.997210
C8121	C812	0.335430	0.141690	0.049010
C8131	C813	0.274780	0.165240	0.074880
C8141	C814	0.453520	0.119280	0.965360
C8151	C815	0.308860	0.116260	0.104400
C8161	C816	0.502020	0.162400	0.883980
C8171	C817	0.222110	0.223770	0.053530
C8181	C818	0.241590	0.207230	0.009370
C8191	C819	0.446520	0.180640	0.920720
C8201	C820	0.674620	0.921540	0.455460
C8211	C821	0.594630	0.864250	0.458310
C8221	C822	0.756840	0.697700	0.533000
C8231	C823	0.655680	0.975720	0.454120
C8241	C824	0.617970	0.864690	0.464150
C8251	C825	0.616510	0.896230	0.460610
C8261	C826	0.644360	0.924380	0.460040
C8271	C827	0.640580	0.806960	0.477360
C8281	C828	0.702350	0.743650	0.516230
C8291	C829	0.626000	0.978100	0.459200
C8301	C830	0.735390	0.718590	0.549910
C8311	C831	0.750930	0.699330	0.508870
C8321	C832	0.788570	0.674770	0.539450
C8331	C833	0.641690	0.835430	0.473870
C8341	C834	0.665240	0.774780	0.485100
C8351	C835	0.619280	0.953520	0.461840
C8361	C836	0.616260	0.808860	0.470480
C8371	C837	0.662400	0.002020	0.451600
C8381	C838	0.723770	0.722110	0.500590
C8391	C839	0.707230	0.741590	0.541810
C8401	C840	0.680640	0.946520	0.452120
C8411	C841	0.448380	0.921540	0.174620
C8421	C842	0.582810	0.864250	0.094630
C8431	C843	0.512460	0.697700	0.256840
C8441	C844	0.414480	0.975720	0.155680
C8451	C845	0.553190	0.864690	0.117970
C8461	C846	0.526650	0.896230	0.116510
C8471	C847	0.471220	0.924380	0.144360
C8481	C848	0.575100	0.806960	0.140580
C8491	C849	0.537770	0.743650	0.202350
C8501	C850	0.436700	0.978100	0.126000
C8511	C851	0.496110	0.718590	0.235390
C8521	C852	0.540870	0.699330	0.250930
C8531	C853	0.497210	0.674770	0.288570
C8541	C854	0.549010	0.835430	0.141690
C8551	C855	0.574880	0.774780	0.165240
C8561	C856	0.465360	0.953520	0.119280
C8571	C857	0.604400	0.808860	0.116260
C8581	C858	0.383980	0.002020	0.162400
C8591	C859	0.553530	0.722110	0.223770
C8601	C860	0.509370	0.741590	0.207230
C8611	C861	0.420720	0.946520	0.180640
C8621	C862	0.955460	0.174620	0.921540
C8631	C863	0.958310	0.094630	0.864250
C8641	C864	0.033000	0.256840	0.697700
C8651	C865	0.954120	0.155680	0.975720
C8661	C866	0.964150	0.117970	0.864690
C8671	C867	0.960610	0.116510	0.896230
C8681	C868	0.960040	0.144360	0.924380
C8691	C869	0.977360	0.140580	0.806960
C8701	C870	0.016230	0.202350	0.743650
C8711	C871	0.959200	0.126000	0.978100
C8721	C872	0.049910	0.235390	0.718590
C8731	C873	0.008870	0.250930	0.699330
C8741	C874	0.039450	0.288570	0.674770
C8751	C875	0.973870	0.141690	0.835430
C8761	C876	0.985100	0.165240	0.774780
C8771	C877	0.961840	0.119280	0.953520
C8781	C878	0.970480	0.116260	0.808860
C8791	C879	0.951600	0.162400	0.002020
C8801	C880	0.000590	0.223770	0.722110
C8811	C881	0.041810	0.207230	0.741590
C8821	C882	0.952120	0.180640	0.946520
C8831	C883	0.421540	0.948380	0.455460
C8841	C884	0.364250	0.082810	0.458310
C8851	C885	0.197700	0.012460	0.533000
C8861	C886	0.475720	0.914480	0.454120
C8871	C887	0.364690	0.053190	0.464150
C8881	C888	0.396230	0.026650	0.460610
C8891	C889	0.424380	0.971220	0.460040
C8901	C890	0.306960	0.075100	0.477360
C8911	C891	0.243650	0.037770	0.516230
C8921	C892	0.478100	0.936700	0.459200
C8931	C893	0.218590	0.996110	0.549910
C8941	C894	0.199330	0.040870	0.508870
C8951	C895	0.174770	0.997210	0.539450
C8961	C896	0.335430	0.049010	0.473870
C8971	C897	0.274780	0.074880	0.485100
C8981	C898	0.453520	0.965360	0.461840
C8991	C899	0.308860	0.104400	0.470480
C9001	C900	0.502020	0.883980	0.451600
C9011	C901	0.222110	0.053530	0.500590
C9021	C902	0.241590	0.009370	0.541810
C9031	C903	0.446520	0.920720	0.452120
C9041	C904	0.674620	0.455460	0.948380
C9051	C905	0.594630	0.458310	0.082810
C9061	C906	0.756840	0.533000	0.012460
C9071	C907	0.655680	0.454120	0.914480
C9081	C908	0.617970	0.464150	0.053190
C9091	C909	0.616510	0.460610	0.026650
C9101	C910	0.644360	0.460040	0.971220
C9111	C911	0.640580	0.477360	0.075100
C9121	C912	0.702350	0.516230	0.037770
C9131	C913	0.626000	0.459200	0.936700
C9141	C914	0.735390	0.549910	0.996110
C9151	C915	0.750930	0.508870	0.040870
C9161	C916	0.788570	0.539450	0.997210
C9171	C917	0.641690	0.473870	0.049010
C9181	C918	0.665240	0.485100	0.074880
C9191	C919	0.619280	0.461840	0.965360
C9201	C920	0.616260	0.470480	0.104400
C9211	C921	0.662400	0.451600	0.883980
C9221	C922	0.723770	0.500590	0.053530
C9231	C923	0.707230	0.541810	0.009370
C9241	C924	0.680640	0.452120	0.920720
C9251	C925	0.448380	0.174620	0.455460
C9261	C926	0.582810	0.094630	0.458310
C9271	C927	0.512460	0.256840	0.533000
C9281	C928	0.414480	0.155680	0.454120
C9291	C929	0.553190	0.117970	0.464150
C9301	C930	0.526650	0.116510	0.460610
C9311	C931	0.471220	0.144360	0.460040
C9321	C932	0.575100	0.140580	0.477360
C9331	C933	0.537770	0.202350	0.516230
C9341	C934	0.436700	0.126000	0.459200
C9351	C935	0.496110	0.235390	0.549910
C9361	C936	0.540870	0.250930	0.508870
C9371	C937	0.497210	0.288570	0.539450
C9381	C938	0.549010	0.141690	0.473870
C9391	C939	0.574880	0.165240	0.485100
C9401	C940	0.465360	0.119280	0.461840
C9411	C941	0.604400	0.116260	0.470480
C9421	C942	0.383980	0.162400	0.451600
C9431	C943	0.553530	0.223770	0.500590
C9441	C944	0.509370	0.207230	0.541810
C9451	C945	0.420720	0.180640	0.452120
C9461	C946	0.955460	0.921540	0.948380
C9471	C947	0.958310	0.864250	0.082810
C9481	C948	0.033000	0.697700	0.012460
C9491	C949	0.954120	0.975720	0.914480
C9501	C950	0.964150	0.864690	0.053190
C9511	C951	0.960610	0.896230	0.026650
C9521	C952	0.960040	0.924380	0.971220
C9531	C953	0.977360	0.806960	0.075100
C9541	C954	0.016230	0.743650	0.037770
C9551	C955	0.959200	0.978100	0.936700
C9561	C956	0.049910	0.718590	0.996110
C9571	C957	0.008870	0.699330	0.040870
C9581	C958	0.039450	0.674770	0.997210
C9591	C959	0.973870	0.835430	0.049010
C9601	C960	0.985100	0.774780	0.074880
C9611	C961	0.961840	0.953520	0.965360
C9621	C962	0.970480	0.808860	0.104400
C9631	C963	0.951600	0.002020	0.883980
C9641	C964	0.000590	0.722110	0.053530
C9651	C965	0.041810	0.741590	0.009370
C9661	C966	0.952120	0.946520	0.920720
C9671	C967	0.421540	0.455460	0.174620
C9681	C968	0.364250	0.458310	0.094630
C9691	C969	0.197700	0.533000	0.256840
C9701	C970	0.475720	0.454120	0.155680
C9711	C971	0.364690	0.464150	0.117970
C9721	C972	0.396230	0.460610	0.116510
C9731	C973	0.424380	0.460040	0.144360
C9741	C974	0.306960	0.477360	0.140580
C9751	C975	0.243650	0.516230	0.202350
C9761	C976	0.478100	0.459200	0.126000
C9771	C977	0.218590	0.549910	0.235390
C9781	C978	0.199330	0.508870	0.250930
C9791	C979	0.174770	0.539450	0.288570
C9801	C980	0.335430	0.473870	0.141690
C9811	C981	0.274780	0.485100	0.165240
C9821	C982	0.453520	0.461840	0.119280
C9831	C983	0.308860	0.470480	0.116260
C9841	C984	0.502020	0.451600	0.162400
C9851	C985	0.222110	0.500590	0.223770
C9861	C986	0.241590	0.541810	0.207230
C9871	C987	0.446520	0.452120	0.180640
C9881	C988	0.674620	0.948380	0.921540
C9891	C989	0.594630	0.082810	0.864250
C9901	C990	0.756840	0.012460	0.697700
C9911	C991	0.655680	0.914480	0.975720
C9921	C992	0.617970	0.053190	0.864690
C9931	C993	0.616510	0.026650	0.896230
C9941	C994	0.644360	0.971220	0.924380
C9951	C995	0.640580	0.075100	0.806960
C9961	C996	0.702350	0.037770	0.743650
C9971	C997	0.626000	0.936700	0.978100
C9981	C998	0.735390	0.996110	0.718590
C9991	C999	0.750930	0.040870	0.699330
C10001	C1000	0.788570	0.997210	0.674770
C10011	C1001	0.641690	0.049010	0.835430
C10021	C1002	0.665240	0.074880	0.774780
C10031	C1003	0.619280	0.965360	0.953520
C10041	C1004	0.616260	0.104400	0.808860
C10051	C1005	0.662400	0.883980	0.002020
C10061	C1006	0.723770	0.053530	0.722110
C10071	C1007	0.707230	0.009370	0.741590
C10081	C1008	0.680640	0.920720	0.946520
N731	N73	0.461490	0.608510	0.337070
N741	N74	0.463620	0.498800	0.397240
N751	N75	0.507280	0.546940	0.269780
N761	N76	0.108510	0.961490	0.592930
N771	N77	0.998800	0.963620	0.640340
N781	N78	0.046940	0.007280	0.676000
N791	N79	0.092930	0.337070	0.608510
N801	N80	0.140340	0.397240	0.498800
N811	N81	0.176000	0.269780	0.546940
N821	N82	0.837070	0.592930	0.961490
N831	N83	0.897240	0.640340	0.963620
N841	N84	0.769780	0.676000	0.007280
N851	N85	0.837070	0.608510	0.592930
N861	N86	0.897240	0.498800	0.640340
N871	N87	0.769780	0.546940	0.676000
N881	N88	0.092930	0.961490	0.337070
N891	N89	0.140340	0.963620	0.397240
N901	N90	0.176000	0.007280	0.269780
N911	N91	0.108510	0.337070	0.961490
N921	N92	0.998800	0.397240	0.963620
N931	N93	0.046940	0.269780	0.007280
N941	N94	0.461490	0.592930	0.608510
N951	N95	0.463620	0.640340	0.498800
N961	N96	0.507280	0.676000	0.546940
N971	N97	0.092930	0.608510	0.961490
N981	N98	0.140340	0.498800	0.963620
N991	N99	0.176000	0.546940	0.007280
N1001	N100	0.837070	0.961490	0.608510
N1011	N101	0.897240	0.963620	0.498800
N1021	N102	0.769780	0.007280	0.546940
N1031	N103	0.461490	0.337070	0.592930
N1041	N104	0.463620	0.397240	0.640340
N1051	N105	0.507280	0.269780	0.676000
N1061	N106	0.108510	0.592930	0.337070
N1071	N107	0.998800	0.640340	0.397240
N1081	N108	0.046940	0.676000	0.269780
N1091	N109	0.608510	0.461490	0.837070
N1101	N110	0.498800	0.463620	0.897240
N1111	N111	0.546940	0.507280	0.769780
N1121	N112	0.961490	0.108510	0.092930
N1131	N113	0.963620	0.998800	0.140340
N1141	N114	0.007280	0.046940	0.176000
N1151	N115	0.337070	0.092930	0.108510
N1161	N116	0.397240	0.140340	0.998800
N1171	N117	0.269780	0.176000	0.046940
N1181	N118	0.592930	0.837070	0.461490
N1191	N119	0.640340	0.897240	0.463620
N1201	N120	0.676000	0.769780	0.507280
N1211	N121	0.608510	0.837070	0.092930
N1221	N122	0.498800	0.897240	0.140340
N1231	N123	0.546940	0.769780	0.176000
N1241	N124	0.961490	0.092930	0.837070
N1251	N125	0.963620	0.140340	0.897240
N1261	N126	0.007280	0.176000	0.769780
N1271	N127	0.337070	0.108510	0.461490
N1281	N128	0.397240	0.998800	0.463620
N1291	N129	0.269780	0.046940	0.507280
N1301	N130	0.592930	0.461490	0.108510
N1311	N131	0.640340	0.463620	0.998800
N1321	N132	0.676000	0.507280	0.046940
N1331	N133	0.608510	0.092930	0.461490
N1341	N134	0.498800	0.140340	0.463620
N1351	N135	0.546940	0.176000	0.507280
N1361	N136	0.961490	0.837070	0.108510
N1371	N137	0.963620	0.897240	0.998800
N1381	N138	0.007280	0.769780	0.046940
N1391	N139	0.337070	0.461490	0.092930
N1401	N140	0.397240	0.463620	0.140340
N1411	N141	0.269780	0.507280	0.176000
N1421	N142	0.592930	0.108510	0.837070
N1431	N143	0.640340	0.998800	0.897240
N1441	N144	0.676000	0.046940	0.769780
O1451	O145	0.453610	0.532450	0.419850
O1461	O146	0.472560	0.597720	0.255560
O1471	O147	0.560430	0.469130	0.177190
O1481	O148	0.523510	0.512250	0.156290
O1491	O149	0.450720	0.361660	0.498100
O1501	O150	0.451980	0.380220	0.528380
O1511	O151	0.032450	0.953610	0.594090
O1521	O152	0.097720	0.972560	0.674160
O1531	O153	0.969130	0.060430	0.793250
O1541	O154	0.012250	0.023510	0.807950
O1551	O155	0.861660	0.950720	0.689520
O1561	O156	0.880220	0.951980	0.639420
O1571	O157	0.094090	0.419850	0.532450
O1581	O158	0.174160	0.255560	0.597720
O1591	O159	0.293250	0.177190	0.469130
O1601	O160	0.307950	0.156290	0.512250
O1611	O161	0.189520	0.498100	0.361660
O1621	O162	0.139420	0.528380	0.380220
O1631	O163	0.919850	0.594090	0.953610
O1641	O164	0.755560	0.674160	0.972560
O1651	O165	0.677190	0.793250	0.060430
O1661	O166	0.656290	0.807950	0.023510
O1671	O167	0.998100	0.689520	0.950720
O1681	O168	0.028380	0.639420	0.951980
O1691	O169	0.919850	0.532450	0.594090
O1701	O170	0.755560	0.597720	0.674160
O1711	O171	0.677190	0.469130	0.793250
O1721	O172	0.656290	0.512250	0.807950
O1731	O173	0.998100	0.361660	0.689520
O1741	O174	0.028380	0.380220	0.639420
O1751	O175	0.094090	0.953610	0.419850
O1761	O176	0.174160	0.972560	0.255560
O1771	O177	0.293250	0.060430	0.177190
O1781	O178	0.307950	0.023510	0.156290
O1791	O179	0.189520	0.950720	0.498100
O1801	O180	0.139420	0.951980	0.528380
O1811	O181	0.032450	0.419850	0.953610
O1821	O182	0.097720	0.255560	0.972560
O1831	O183	0.969130	0.177190	0.060430
O1841	O184	0.012250	0.156290	0.023510
O1851	O185	0.861660	0.498100	0.950720
O1861	O186	0.880220	0.528380	0.951980
O1871	O187	0.453610	0.594090	0.532450
O1881	O188	0.472560	0.674160	0.597720
O1891	O189	0.560430	0.793250	0.469130
O1901	O190	0.523510	0.807950	0.512250
O1911	O191	0.450720	0.689520	0.361660
O1921	O192	0.451980	0.639420	0.380220
O1931	O193	0.094090	0.532450	0.953610
O1941	O194	0.174160	0.597720	0.972560
O1951	O195	0.293250	0.469130	0.060430
O1961	O196	0.307950	0.512250	0.023510
O1971	O197	0.189520	0.361660	0.950720
O1981	O198	0.139420	0.380220	0.951980
O1991	O199	0.919850	0.953610	0.532450
O2001	O200	0.755560	0.972560	0.597720
O2011	O201	0.677190	0.060430	0.469130
O2021	O202	0.656290	0.023510	0.512250
O2031	O203	0.998100	0.950720	0.361660
O2041	O204	0.028380	0.951980	0.380220
O2051	O205	0.453610	0.419850	0.594090
O2061	O206	0.472560	0.255560	0.674160
O2071	O207	0.560430	0.177190	0.793250
O2081	O208	0.523510	0.156290	0.807950
O2091	O209	0.450720	0.498100	0.689520
O2101	O210	0.451980	0.528380	0.639420
O2111	O211	0.032450	0.594090	0.419850
O2121	O212	0.097720	0.674160	0.255560
O2131	O213	0.969130	0.793250	0.177190
O2141	O214	0.012250	0.807950	0.156290
O2151	O215	0.861660	0.689520	0.498100
O2161	O216	0.880220	0.639420	0.528380
O2171	O217	0.532450	0.453610	0.919850
O2181	O218	0.597720	0.472560	0.755560
O2191	O219	0.469130	0.560430	0.677190
O2201	O220	0.512250	0.523510	0.656290
O2211	O221	0.361660	0.450720	0.998100
O2221	O222	0.380220	0.451980	0.028380
O2231	O223	0.953610	0.032450	0.094090
O2241	O224	0.972560	0.097720	0.174160
O2251	O225	0.060430	0.969130	0.293250
O2261	O226	0.023510	0.012250	0.307950
O2271	O227	0.950720	0.861660	0.189520
O2281	O228	0.951980	0.880220	0.139420
O2291	O229	0.419850	0.094090	0.032450
O2301	O230	0.255560	0.174160	0.097720
O2311	O231	0.177190	0.293250	0.969130
O2321	O232	0.156290	0.307950	0.012250
O2331	O233	0.498100	0.189520	0.861660
O2341	O234	0.528380	0.139420	0.880220
O2351	O235	0.594090	0.919850	0.453610
O2361	O236	0.674160	0.755560	0.472560
O2371	O237	0.793250	0.677190	0.560430
O2381	O238	0.807950	0.656290	0.523510
O2391	O239	0.689520	0.998100	0.450720
O2401	O240	0.639420	0.028380	0.451980
O2411	O241	0.532450	0.919850	0.094090
O2421	O242	0.597720	0.755560	0.174160
O2431	O243	0.469130	0.677190	0.293250
O2441	O244	0.512250	0.656290	0.307950
O2451	O245	0.361660	0.998100	0.189520
O2461	O246	0.380220	0.028380	0.139420
O2471	O247	0.953610	0.094090	0.919850
O2481	O248	0.972560	0.174160	0.755560
O2491	O249	0.060430	0.293250	0.677190
O2501	O250	0.023510	0.307950	0.656290
O2511	O251	0.950720	0.189520	0.998100
O2521	O252	0.951980	0.139420	0.028380
O2531	O253	0.419850	0.032450	0.453610
O2541	O254	0.255560	0.097720	0.472560
O2551	O255	0.177190	0.969130	0.560430
O2561	O256	0.156290	0.012250	0.523510
O2571	O257	0.498100	0.861660	0.450720
O2581	O258	0.528380	0.880220	0.451980
O2591	O259	0.594090	0.453610	0.032450
O2601	O260	0.674160	0.472560	0.097720
O2611	O261	0.793250	0.560430	0.969130
O2621	O262	0.807950	0.523510	0.012250
O2631	O263	0.689520	0.450720	0.861660
O2641	O264	0.639420	0.451980	0.880220
O2651	O265	0.532450	0.094090	0.453610
O2661	O266	0.597720	0.174160	0.472560
O2671	O267	0.469130	0.293250	0.560430
O2681	O268	0.512250	0.307950	0.523510
O2691	O269	0.361660	0.189520	0.450720
O2701	O270	0.380220	0.139420	0.451980
O2711	O271	0.953610	0.919850	0.032450
O2721	O272	0.972560	0.755560	0.097720
O2731	O273	0.060430	0.677190	0.969130
O2741	O274	0.023510	0.656290	0.012250
O2751	O275	0.950720	0.998100	0.861660
O2761	O276	0.951980	0.028380	0.880220
O2771	O277	0.419850	0.453610	0.094090
O2781	O278	0.255560	0.472560	0.174160
O2791	O279	0.177190	0.560430	0.293250
O2801	O280	0.156290	0.523510	0.307950
O2811	O281	0.498100	0.450720	0.189520
O2821	O282	0.528380	0.451980	0.139420
O2831	O283	0.594090	0.032450	0.919850
O2841	O284	0.674160	0.097720	0.755560
O2851	O285	0.793250	0.969130	0.677190
O2861	O286	0.807950	0.012250	0.656290
O2871	O287	0.689520	0.861660	0.998100
O2881	O288	0.639420	0.880220	0.028380
