data_ADUWON_clean_PM
_symmetry_space_group_name_H-M	'P1'
_cell_length_a	30.014000
_cell_length_b	30.014000
_cell_length_c	30.014000
_cell_angle_alpha	90.000000
_cell_angle_beta	90.000000
_cell_angle_gamma	90.000000
_symmetry_Int_Tables_number 1

loop_
_symmetry_equiv_pos_as_xyz
'x,y,z'

loop_
_atom_site_label
_atom_site_type_symbol
_atom_site_fract_x
_atom_site_fract_y
_atom_site_fract_z
H11	H1	0.235300	0.198200	0.349100
H21	H2	0.735300	0.698200	0.849100
H31	H3	0.764700	0.801800	0.349100
H41	H4	0.264700	0.301800	0.849100
H51	H5	0.764700	0.198200	0.650900
H61	H6	0.264700	0.698200	0.150900
H71	H7	0.235300	0.801800	0.650900
H81	H8	0.735300	0.301800	0.150900
H91	H9	0.349100	0.235300	0.198200
H101	H10	0.849100	0.735300	0.698200
H111	H11	0.349100	0.764700	0.801800
H121	H12	0.849100	0.264700	0.301800
H131	H13	0.650900	0.764700	0.198200
H141	H14	0.150900	0.264700	0.698200
H151	H15	0.650900	0.235300	0.801800
H161	H16	0.150900	0.735300	0.301800
H171	H17	0.198200	0.349100	0.235300
H181	H18	0.698200	0.849100	0.735300
H191	H19	0.801800	0.349100	0.764700
H201	H20	0.301800	0.849100	0.264700
H211	H21	0.198200	0.650900	0.764700
H221	H22	0.698200	0.150900	0.264700
H231	H23	0.801800	0.650900	0.235300
H241	H24	0.301800	0.150900	0.735300
H251	H25	0.198200	0.235300	0.650900
H261	H26	0.698200	0.735300	0.150900
H271	H27	0.801800	0.764700	0.650900
H281	H28	0.301800	0.264700	0.150900
H291	H29	0.198200	0.764700	0.349100
H301	H30	0.698200	0.264700	0.849100
H311	H31	0.801800	0.235300	0.349100
H321	H32	0.301800	0.735300	0.849100
H331	H33	0.235300	0.349100	0.801800
H341	H34	0.735300	0.849100	0.301800
H351	H35	0.764700	0.349100	0.198200
H361	H36	0.264700	0.849100	0.698200
H371	H37	0.764700	0.650900	0.801800
H381	H38	0.264700	0.150900	0.301800
H391	H39	0.235300	0.650900	0.198200
H401	H40	0.735300	0.150900	0.698200
H411	H41	0.349100	0.198200	0.764700
H421	H42	0.849100	0.698200	0.264700
H431	H43	0.349100	0.801800	0.235300
H441	H44	0.849100	0.301800	0.735300
H451	H45	0.650900	0.198200	0.235300
H461	H46	0.150900	0.698200	0.735300
H471	H47	0.650900	0.801800	0.764700
H481	H48	0.150900	0.301800	0.264700
H491	H49	0.764700	0.801800	0.650900
H501	H50	0.264700	0.301800	0.150900
H511	H51	0.235300	0.198200	0.650900
H521	H52	0.735300	0.698200	0.150900
H531	H53	0.235300	0.801800	0.349100
H541	H54	0.735300	0.301800	0.849100
H551	H55	0.764700	0.198200	0.349100
H561	H56	0.264700	0.698200	0.849100
H571	H57	0.650900	0.764700	0.801800
H581	H58	0.150900	0.264700	0.301800
H591	H59	0.650900	0.235300	0.198200
H601	H60	0.150900	0.735300	0.698200
H611	H61	0.349100	0.235300	0.801800
H621	H62	0.849100	0.735300	0.301800
H631	H63	0.349100	0.764700	0.198200
H641	H64	0.849100	0.264700	0.698200
H651	H65	0.801800	0.650900	0.764700
H661	H66	0.301800	0.150900	0.264700
H671	H67	0.198200	0.650900	0.235300
H681	H68	0.698200	0.150900	0.735300
H691	H69	0.801800	0.349100	0.235300
H701	H70	0.301800	0.849100	0.735300
H711	H71	0.198200	0.349100	0.764700
H721	H72	0.698200	0.849100	0.264700
H731	H73	0.801800	0.764700	0.349100
H741	H74	0.301800	0.264700	0.849100
H751	H75	0.198200	0.235300	0.349100
H761	H76	0.698200	0.735300	0.849100
H771	H77	0.801800	0.235300	0.650900
H781	H78	0.301800	0.735300	0.150900
H791	H79	0.198200	0.764700	0.650900
H801	H80	0.698200	0.264700	0.150900
H811	H81	0.764700	0.650900	0.198200
H821	H82	0.264700	0.150900	0.698200
H831	H83	0.235300	0.650900	0.801800
H841	H84	0.735300	0.150900	0.301800
H851	H85	0.235300	0.349100	0.198200
H861	H86	0.735300	0.849100	0.698200
H871	H87	0.764700	0.349100	0.801800
H881	H88	0.264700	0.849100	0.301800
H891	H89	0.650900	0.801800	0.235300
H901	H90	0.150900	0.301800	0.735300
H911	H91	0.650900	0.198200	0.764700
H921	H92	0.150900	0.698200	0.264700
H931	H93	0.349100	0.801800	0.764700
H941	H94	0.849100	0.301800	0.264700
H951	H95	0.349100	0.198200	0.235300
H961	H96	0.849100	0.698200	0.735300
Ni11	Ni1	0.000000	0.000000	0.376570
Ni21	Ni2	0.500000	0.500000	0.876570
Ni31	Ni3	0.000000	0.000000	0.623430
Ni41	Ni4	0.500000	0.500000	0.123430
Ni51	Ni5	0.376570	0.000000	0.000000
Ni61	Ni6	0.876570	0.500000	0.500000
Ni71	Ni7	0.623430	0.000000	0.000000
Ni81	Ni8	0.123430	0.500000	0.500000
Ni91	Ni9	0.000000	0.376570	0.000000
Ni101	Ni10	0.500000	0.876570	0.500000
Ni111	Ni11	0.000000	0.623430	0.000000
Ni121	Ni12	0.500000	0.123430	0.500000
C11	C1	0.067930	0.067930	0.351800
C21	C2	0.101910	0.101910	0.368600
C31	C3	0.109900	0.109900	0.410800
H971	H97	0.093800	0.093800	0.431900
C41	C4	0.137400	0.137400	0.424200
H981	H98	0.141000	0.141000	0.454800
C51	C5	0.164100	0.164100	0.395000
H991	H99	0.184700	0.184700	0.405500
C61	C6	0.157110	0.157110	0.350100
C71	C7	0.125240	0.125240	0.335200
H1001	H100	0.120100	0.120100	0.305100
C81	C8	0.212070	0.212070	0.331400
C91	C9	0.231110	0.231110	0.289730
O11	O1	0.063900	0.063900	0.310890
O21	O2	0.047480	0.047480	0.380020
O31	O3	0.179180	0.179180	0.317750
C101	C10	0.567930	0.567930	0.851800
C111	C11	0.601910	0.601910	0.868600
C121	C12	0.609900	0.609900	0.910800
H1011	H101	0.593800	0.593800	0.931900
C131	C13	0.637400	0.637400	0.924200
H1021	H102	0.641000	0.641000	0.954800
C141	C14	0.664100	0.664100	0.895000
H1031	H103	0.684700	0.684700	0.905500
C151	C15	0.657110	0.657110	0.850100
C161	C16	0.625240	0.625240	0.835200
H1041	H104	0.620100	0.620100	0.805100
C171	C17	0.712070	0.712070	0.831400
C181	C18	0.731110	0.731110	0.789730
O41	O4	0.563900	0.563900	0.810890
O51	O5	0.547480	0.547480	0.880020
O61	O6	0.679180	0.679180	0.817750
C191	C19	0.932070	0.932070	0.351800
C201	C20	0.898090	0.898090	0.368600
C211	C21	0.890100	0.890100	0.410800
H1051	H105	0.906200	0.906200	0.431900
C221	C22	0.862600	0.862600	0.424200
H1061	H106	0.859000	0.859000	0.454800
C231	C23	0.835900	0.835900	0.395000
H1071	H107	0.815300	0.815300	0.405500
C241	C24	0.842890	0.842890	0.350100
C251	C25	0.874760	0.874760	0.335200
H1081	H108	0.879900	0.879900	0.305100
C261	C26	0.787930	0.787930	0.331400
C271	C27	0.768890	0.768890	0.289730
O71	O7	0.936100	0.936100	0.310890
O81	O8	0.952520	0.952520	0.380020
O91	O9	0.820820	0.820820	0.317750
C281	C28	0.432070	0.432070	0.851800
C291	C29	0.398090	0.398090	0.868600
C301	C30	0.390100	0.390100	0.910800
H1091	H109	0.406200	0.406200	0.931900
C311	C31	0.362600	0.362600	0.924200
H1101	H110	0.359000	0.359000	0.954800
C321	C32	0.335900	0.335900	0.895000
H1111	H111	0.315300	0.315300	0.905500
C331	C33	0.342890	0.342890	0.850100
C341	C34	0.374760	0.374760	0.835200
H1121	H112	0.379900	0.379900	0.805100
C351	C35	0.287930	0.287930	0.831400
C361	C36	0.268890	0.268890	0.789730
O101	O10	0.436100	0.436100	0.810890
O111	O11	0.452520	0.452520	0.880020
O121	O12	0.320820	0.320820	0.817750
C371	C37	0.932070	0.067930	0.648200
C381	C38	0.898090	0.101910	0.631400
C391	C39	0.890100	0.109900	0.589200
H1131	H113	0.906200	0.093800	0.568100
C401	C40	0.862600	0.137400	0.575800
H1141	H114	0.859000	0.141000	0.545200
C411	C41	0.835900	0.164100	0.605000
H1151	H115	0.815300	0.184700	0.594500
C421	C42	0.842890	0.157110	0.649900
C431	C43	0.874760	0.125240	0.664800
H1161	H116	0.879900	0.120100	0.694900
C441	C44	0.787930	0.212070	0.668600
C451	C45	0.768890	0.231110	0.710270
O131	O13	0.936100	0.063900	0.689110
O141	O14	0.952520	0.047480	0.619980
O151	O15	0.820820	0.179180	0.682250
C461	C46	0.432070	0.567930	0.148200
C471	C47	0.398090	0.601910	0.131400
C481	C48	0.390100	0.609900	0.089200
H1171	H117	0.406200	0.593800	0.068100
C491	C49	0.362600	0.637400	0.075800
H1181	H118	0.359000	0.641000	0.045200
C501	C50	0.335900	0.664100	0.105000
H1191	H119	0.315300	0.684700	0.094500
C511	C51	0.342890	0.657110	0.149900
C521	C52	0.374760	0.625240	0.164800
H1201	H120	0.379900	0.620100	0.194900
C531	C53	0.287930	0.712070	0.168600
C541	C54	0.268890	0.731110	0.210270
O161	O16	0.436100	0.563900	0.189110
O171	O17	0.452520	0.547480	0.119980
O181	O18	0.320820	0.679180	0.182250
C551	C55	0.067930	0.932070	0.648200
C561	C56	0.101910	0.898090	0.631400
C571	C57	0.109900	0.890100	0.589200
H1211	H121	0.093800	0.906200	0.568100
C581	C58	0.137400	0.862600	0.575800
H1221	H122	0.141000	0.859000	0.545200
C591	C59	0.164100	0.835900	0.605000
H1231	H123	0.184700	0.815300	0.594500
C601	C60	0.157110	0.842890	0.649900
C611	C61	0.125240	0.874760	0.664800
H1241	H124	0.120100	0.879900	0.694900
C621	C62	0.212070	0.787930	0.668600
C631	C63	0.231110	0.768890	0.710270
O191	O19	0.063900	0.936100	0.689110
O201	O20	0.047480	0.952520	0.619980
O211	O21	0.179180	0.820820	0.682250
C641	C64	0.567930	0.432070	0.148200
C651	C65	0.601910	0.398090	0.131400
C661	C66	0.609900	0.390100	0.089200
H1251	H125	0.593800	0.406200	0.068100
C671	C67	0.637400	0.362600	0.075800
H1261	H126	0.641000	0.359000	0.045200
C681	C68	0.664100	0.335900	0.105000
H1271	H127	0.684700	0.315300	0.094500
C691	C69	0.657110	0.342890	0.149900
C701	C70	0.625240	0.374760	0.164800
H1281	H128	0.620100	0.379900	0.194900
C711	C71	0.712070	0.287930	0.168600
C721	C72	0.731110	0.268890	0.210270
O221	O22	0.563900	0.436100	0.189110
O231	O23	0.547480	0.452520	0.119980
O241	O24	0.679180	0.320820	0.182250
C731	C73	0.351800	0.067930	0.067930
C741	C74	0.368600	0.101910	0.101910
C751	C75	0.410800	0.109900	0.109900
H1291	H129	0.431900	0.093800	0.093800
C761	C76	0.424200	0.137400	0.137400
H1301	H130	0.454800	0.141000	0.141000
C771	C77	0.395000	0.164100	0.164100
H1311	H131	0.405500	0.184700	0.184700
C781	C78	0.350100	0.157110	0.157110
C791	C79	0.335200	0.125240	0.125240
H1321	H132	0.305100	0.120100	0.120100
C801	C80	0.331400	0.212070	0.212070
C811	C81	0.289730	0.231110	0.231110
O251	O25	0.310890	0.063900	0.063900
O261	O26	0.380020	0.047480	0.047480
O271	O27	0.317750	0.179180	0.179180
C821	C82	0.851800	0.567930	0.567930
C831	C83	0.868600	0.601910	0.601910
C841	C84	0.910800	0.609900	0.609900
H1331	H133	0.931900	0.593800	0.593800
C851	C85	0.924200	0.637400	0.637400
H1341	H134	0.954800	0.641000	0.641000
C861	C86	0.895000	0.664100	0.664100
H1351	H135	0.905500	0.684700	0.684700
C871	C87	0.850100	0.657110	0.657110
C881	C88	0.835200	0.625240	0.625240
H1361	H136	0.805100	0.620100	0.620100
C891	C89	0.831400	0.712070	0.712070
C901	C90	0.789730	0.731110	0.731110
O281	O28	0.810890	0.563900	0.563900
O291	O29	0.880020	0.547480	0.547480
O301	O30	0.817750	0.679180	0.679180
C911	C91	0.351800	0.932070	0.932070
C921	C92	0.368600	0.898090	0.898090
C931	C93	0.410800	0.890100	0.890100
H1371	H137	0.431900	0.906200	0.906200
C941	C94	0.424200	0.862600	0.862600
H1381	H138	0.454800	0.859000	0.859000
C951	C95	0.395000	0.835900	0.835900
H1391	H139	0.405500	0.815300	0.815300
C961	C96	0.350100	0.842890	0.842890
C971	C97	0.335200	0.874760	0.874760
H1401	H140	0.305100	0.879900	0.879900
C981	C98	0.331400	0.787930	0.787930
C991	C99	0.289730	0.768890	0.768890
O311	O31	0.310890	0.936100	0.936100
O321	O32	0.380020	0.952520	0.952520
O331	O33	0.317750	0.820820	0.820820
C1001	C100	0.851800	0.432070	0.432070
C1011	C101	0.868600	0.398090	0.398090
C1021	C102	0.910800	0.390100	0.390100
H1411	H141	0.931900	0.406200	0.406200
C1031	C103	0.924200	0.362600	0.362600
H1421	H142	0.954800	0.359000	0.359000
C1041	C104	0.895000	0.335900	0.335900
H1431	H143	0.905500	0.315300	0.315300
C1051	C105	0.850100	0.342890	0.342890
C1061	C106	0.835200	0.374760	0.374760
H1441	H144	0.805100	0.379900	0.379900
C1071	C107	0.831400	0.287930	0.287930
C1081	C108	0.789730	0.268890	0.268890
O341	O34	0.810890	0.436100	0.436100
O351	O35	0.880020	0.452520	0.452520
O361	O36	0.817750	0.320820	0.320820
C1091	C109	0.648200	0.932070	0.067930
C1101	C110	0.631400	0.898090	0.101910
C1111	C111	0.589200	0.890100	0.109900
H1451	H145	0.568100	0.906200	0.093800
C1121	C112	0.575800	0.862600	0.137400
H1461	H146	0.545200	0.859000	0.141000
C1131	C113	0.605000	0.835900	0.164100
H1471	H147	0.594500	0.815300	0.184700
C1141	C114	0.649900	0.842890	0.157110
C1151	C115	0.664800	0.874760	0.125240
H1481	H148	0.694900	0.879900	0.120100
C1161	C116	0.668600	0.787930	0.212070
C1171	C117	0.710270	0.768890	0.231110
O371	O37	0.689110	0.936100	0.063900
O381	O38	0.619980	0.952520	0.047480
O391	O39	0.682250	0.820820	0.179180
C1181	C118	0.148200	0.432070	0.567930
C1191	C119	0.131400	0.398090	0.601910
C1201	C120	0.089200	0.390100	0.609900
H1491	H149	0.068100	0.406200	0.593800
C1211	C121	0.075800	0.362600	0.637400
H1501	H150	0.045200	0.359000	0.641000
C1221	C122	0.105000	0.335900	0.664100
H1511	H151	0.094500	0.315300	0.684700
C1231	C123	0.149900	0.342890	0.657110
C1241	C124	0.164800	0.374760	0.625240
H1521	H152	0.194900	0.379900	0.620100
C1251	C125	0.168600	0.287930	0.712070
C1261	C126	0.210270	0.268890	0.731110
O401	O40	0.189110	0.436100	0.563900
O411	O41	0.119980	0.452520	0.547480
O421	O42	0.182250	0.320820	0.679180
C1271	C127	0.648200	0.067930	0.932070
C1281	C128	0.631400	0.101910	0.898090
C1291	C129	0.589200	0.109900	0.890100
H1531	H153	0.568100	0.093800	0.906200
C1301	C130	0.575800	0.137400	0.862600
H1541	H154	0.545200	0.141000	0.859000
C1311	C131	0.605000	0.164100	0.835900
H1551	H155	0.594500	0.184700	0.815300
C1321	C132	0.649900	0.157110	0.842890
C1331	C133	0.664800	0.125240	0.874760
H1561	H156	0.694900	0.120100	0.879900
C1341	C134	0.668600	0.212070	0.787930
C1351	C135	0.710270	0.231110	0.768890
O431	O43	0.689110	0.063900	0.936100
O441	O44	0.619980	0.047480	0.952520
O451	O45	0.682250	0.179180	0.820820
C1361	C136	0.148200	0.567930	0.432070
C1371	C137	0.131400	0.601910	0.398090
C1381	C138	0.089200	0.609900	0.390100
H1571	H157	0.068100	0.593800	0.406200
C1391	C139	0.075800	0.637400	0.362600
H1581	H158	0.045200	0.641000	0.359000
C1401	C140	0.105000	0.664100	0.335900
H1591	H159	0.094500	0.684700	0.315300
C1411	C141	0.149900	0.657110	0.342890
C1421	C142	0.164800	0.625240	0.374760
H1601	H160	0.194900	0.620100	0.379900
C1431	C143	0.168600	0.712070	0.287930
C1441	C144	0.210270	0.731110	0.268890
O461	O46	0.189110	0.563900	0.436100
O471	O47	0.119980	0.547480	0.452520
O481	O48	0.182250	0.679180	0.320820
C1451	C145	0.067930	0.351800	0.067930
C1461	C146	0.101910	0.368600	0.101910
C1471	C147	0.109900	0.410800	0.109900
H1611	H161	0.093800	0.431900	0.093800
C1481	C148	0.137400	0.424200	0.137400
H1621	H162	0.141000	0.454800	0.141000
C1491	C149	0.164100	0.395000	0.164100
H1631	H163	0.184700	0.405500	0.184700
C1501	C150	0.157110	0.350100	0.157110
C1511	C151	0.125240	0.335200	0.125240
H1641	H164	0.120100	0.305100	0.120100
C1521	C152	0.212070	0.331400	0.212070
C1531	C153	0.231110	0.289730	0.231110
O491	O49	0.063900	0.310890	0.063900
O501	O50	0.047480	0.380020	0.047480
O511	O51	0.179180	0.317750	0.179180
C1541	C154	0.567930	0.851800	0.567930
C1551	C155	0.601910	0.868600	0.601910
C1561	C156	0.609900	0.910800	0.609900
H1651	H165	0.593800	0.931900	0.593800
C1571	C157	0.637400	0.924200	0.637400
H1661	H166	0.641000	0.954800	0.641000
C1581	C158	0.664100	0.895000	0.664100
H1671	H167	0.684700	0.905500	0.684700
C1591	C159	0.657110	0.850100	0.657110
C1601	C160	0.625240	0.835200	0.625240
H1681	H168	0.620100	0.805100	0.620100
C1611	C161	0.712070	0.831400	0.712070
C1621	C162	0.731110	0.789730	0.731110
O521	O52	0.563900	0.810890	0.563900
O531	O53	0.547480	0.880020	0.547480
O541	O54	0.679180	0.817750	0.679180
C1631	C163	0.932070	0.351800	0.932070
C1641	C164	0.898090	0.368600	0.898090
C1651	C165	0.890100	0.410800	0.890100
H1691	H169	0.906200	0.431900	0.906200
C1661	C166	0.862600	0.424200	0.862600
H1701	H170	0.859000	0.454800	0.859000
C1671	C167	0.835900	0.395000	0.835900
H1711	H171	0.815300	0.405500	0.815300
C1681	C168	0.842890	0.350100	0.842890
C1691	C169	0.874760	0.335200	0.874760
H1721	H172	0.879900	0.305100	0.879900
C1701	C170	0.787930	0.331400	0.787930
C1711	C171	0.768890	0.289730	0.768890
O551	O55	0.936100	0.310890	0.936100
O561	O56	0.952520	0.380020	0.952520
O571	O57	0.820820	0.317750	0.820820
C1721	C172	0.432070	0.851800	0.432070
C1731	C173	0.398090	0.868600	0.398090
C1741	C174	0.390100	0.910800	0.390100
H1731	H173	0.406200	0.931900	0.406200
C1751	C175	0.362600	0.924200	0.362600
H1741	H174	0.359000	0.954800	0.359000
C1761	C176	0.335900	0.895000	0.335900
H1751	H175	0.315300	0.905500	0.315300
C1771	C177	0.342890	0.850100	0.342890
C1781	C178	0.374760	0.835200	0.374760
H1761	H176	0.379900	0.805100	0.379900
C1791	C179	0.287930	0.831400	0.287930
C1801	C180	0.268890	0.789730	0.268890
O581	O58	0.436100	0.810890	0.436100
O591	O59	0.452520	0.880020	0.452520
O601	O60	0.320820	0.817750	0.320820
C1811	C181	0.067930	0.648200	0.932070
C1821	C182	0.101910	0.631400	0.898090
C1831	C183	0.109900	0.589200	0.890100
H1771	H177	0.093800	0.568100	0.906200
C1841	C184	0.137400	0.575800	0.862600
H1781	H178	0.141000	0.545200	0.859000
C1851	C185	0.164100	0.605000	0.835900
H1791	H179	0.184700	0.594500	0.815300
C1861	C186	0.157110	0.649900	0.842890
C1871	C187	0.125240	0.664800	0.874760
H1801	H180	0.120100	0.694900	0.879900
C1881	C188	0.212070	0.668600	0.787930
C1891	C189	0.231110	0.710270	0.768890
O611	O61	0.063900	0.689110	0.936100
O621	O62	0.047480	0.619980	0.952520
O631	O63	0.179180	0.682250	0.820820
C1901	C190	0.567930	0.148200	0.432070
C1911	C191	0.601910	0.131400	0.398090
C1921	C192	0.609900	0.089200	0.390100
H1811	H181	0.593800	0.068100	0.406200
C1931	C193	0.637400	0.075800	0.362600
H1821	H182	0.641000	0.045200	0.359000
C1941	C194	0.664100	0.105000	0.335900
H1831	H183	0.684700	0.094500	0.315300
C1951	C195	0.657110	0.149900	0.342890
C1961	C196	0.625240	0.164800	0.374760
H1841	H184	0.620100	0.194900	0.379900
C1971	C197	0.712070	0.168600	0.287930
C1981	C198	0.731110	0.210270	0.268890
O641	O64	0.563900	0.189110	0.436100
O651	O65	0.547480	0.119980	0.452520
O661	O66	0.679180	0.182250	0.320820
C1991	C199	0.932070	0.648200	0.067930
C2001	C200	0.898090	0.631400	0.101910
C2011	C201	0.890100	0.589200	0.109900
H1851	H185	0.906200	0.568100	0.093800
C2021	C202	0.862600	0.575800	0.137400
H1861	H186	0.859000	0.545200	0.141000
C2031	C203	0.835900	0.605000	0.164100
H1871	H187	0.815300	0.594500	0.184700
C2041	C204	0.842890	0.649900	0.157110
C2051	C205	0.874760	0.664800	0.125240
H1881	H188	0.879900	0.694900	0.120100
C2061	C206	0.787930	0.668600	0.212070
C2071	C207	0.768890	0.710270	0.231110
O671	O67	0.936100	0.689110	0.063900
O681	O68	0.952520	0.619980	0.047480
O691	O69	0.820820	0.682250	0.179180
C2081	C208	0.432070	0.148200	0.567930
C2091	C209	0.398090	0.131400	0.601910
C2101	C210	0.390100	0.089200	0.609900
H1891	H189	0.406200	0.068100	0.593800
C2111	C211	0.362600	0.075800	0.637400
H1901	H190	0.359000	0.045200	0.641000
C2121	C212	0.335900	0.105000	0.664100
H1911	H191	0.315300	0.094500	0.684700
C2131	C213	0.342890	0.149900	0.657110
C2141	C214	0.374760	0.164800	0.625240
H1921	H192	0.379900	0.194900	0.620100
C2151	C215	0.287930	0.168600	0.712070
C2161	C216	0.268890	0.210270	0.731110
O701	O70	0.436100	0.189110	0.563900
O711	O71	0.452520	0.119980	0.547480
O721	O72	0.320820	0.182250	0.679180
C2171	C217	0.067930	0.067930	0.648200
C2181	C218	0.101910	0.101910	0.631400
C2191	C219	0.109900	0.109900	0.589200
H1931	H193	0.093800	0.093800	0.568100
C2201	C220	0.137400	0.137400	0.575800
H1941	H194	0.141000	0.141000	0.545200
C2211	C221	0.164100	0.164100	0.605000
H1951	H195	0.184700	0.184700	0.594500
C2221	C222	0.157110	0.157110	0.649900
C2231	C223	0.125240	0.125240	0.664800
H1961	H196	0.120100	0.120100	0.694900
C2241	C224	0.212070	0.212070	0.668600
C2251	C225	0.231110	0.231110	0.710270
O731	O73	0.063900	0.063900	0.689110
O741	O74	0.047480	0.047480	0.619980
O751	O75	0.179180	0.179180	0.682250
C2261	C226	0.567930	0.567930	0.148200
C2271	C227	0.601910	0.601910	0.131400
C2281	C228	0.609900	0.609900	0.089200
H1971	H197	0.593800	0.593800	0.068100
C2291	C229	0.637400	0.637400	0.075800
H1981	H198	0.641000	0.641000	0.045200
C2301	C230	0.664100	0.664100	0.105000
H1991	H199	0.684700	0.684700	0.094500
C2311	C231	0.657110	0.657110	0.149900
C2321	C232	0.625240	0.625240	0.164800
H2001	H200	0.620100	0.620100	0.194900
C2331	C233	0.712070	0.712070	0.168600
C2341	C234	0.731110	0.731110	0.210270
O761	O76	0.563900	0.563900	0.189110
O771	O77	0.547480	0.547480	0.119980
O781	O78	0.679180	0.679180	0.182250
C2351	C235	0.932070	0.932070	0.648200
C2361	C236	0.898090	0.898090	0.631400
C2371	C237	0.890100	0.890100	0.589200
H2011	H201	0.906200	0.906200	0.568100
C2381	C238	0.862600	0.862600	0.575800
H2021	H202	0.859000	0.859000	0.545200
C2391	C239	0.835900	0.835900	0.605000
H2031	H203	0.815300	0.815300	0.594500
C2401	C240	0.842890	0.842890	0.649900
C2411	C241	0.874760	0.874760	0.664800
H2041	H204	0.879900	0.879900	0.694900
C2421	C242	0.787930	0.787930	0.668600
C2431	C243	0.768890	0.768890	0.710270
O791	O79	0.936100	0.936100	0.689110
O801	O80	0.952520	0.952520	0.619980
O811	O81	0.820820	0.820820	0.682250
C2441	C244	0.432070	0.432070	0.148200
C2451	C245	0.398090	0.398090	0.131400
C2461	C246	0.390100	0.390100	0.089200
H2051	H205	0.406200	0.406200	0.068100
C2471	C247	0.362600	0.362600	0.075800
H2061	H206	0.359000	0.359000	0.045200
C2481	C248	0.335900	0.335900	0.105000
H2071	H207	0.315300	0.315300	0.094500
C2491	C249	0.342890	0.342890	0.149900
C2501	C250	0.374760	0.374760	0.164800
H2081	H208	0.379900	0.379900	0.194900
C2511	C251	0.287930	0.287930	0.168600
C2521	C252	0.268890	0.268890	0.210270
O821	O82	0.436100	0.436100	0.189110
O831	O83	0.452520	0.452520	0.119980
O841	O84	0.320820	0.320820	0.182250
C2531	C253	0.067930	0.932070	0.351800
C2541	C254	0.101910	0.898090	0.368600
C2551	C255	0.109900	0.890100	0.410800
H2091	H209	0.093800	0.906200	0.431900
C2561	C256	0.137400	0.862600	0.424200
H2101	H210	0.141000	0.859000	0.454800
C2571	C257	0.164100	0.835900	0.395000
H2111	H211	0.184700	0.815300	0.405500
C2581	C258	0.157110	0.842890	0.350100
C2591	C259	0.125240	0.874760	0.335200
H2121	H212	0.120100	0.879900	0.305100
C2601	C260	0.212070	0.787930	0.331400
C2611	C261	0.231110	0.768890	0.289730
O851	O85	0.063900	0.936100	0.310890
O861	O86	0.047480	0.952520	0.380020
O871	O87	0.179180	0.820820	0.317750
C2621	C262	0.567930	0.432070	0.851800
C2631	C263	0.601910	0.398090	0.868600
C2641	C264	0.609900	0.390100	0.910800
H2131	H213	0.593800	0.406200	0.931900
C2651	C265	0.637400	0.362600	0.924200
H2141	H214	0.641000	0.359000	0.954800
C2661	C266	0.664100	0.335900	0.895000
H2151	H215	0.684700	0.315300	0.905500
C2671	C267	0.657110	0.342890	0.850100
C2681	C268	0.625240	0.374760	0.835200
H2161	H216	0.620100	0.379900	0.805100
C2691	C269	0.712070	0.287930	0.831400
C2701	C270	0.731110	0.268890	0.789730
O881	O88	0.563900	0.436100	0.810890
O891	O89	0.547480	0.452520	0.880020
O901	O90	0.679180	0.320820	0.817750
C2711	C271	0.932070	0.067930	0.351800
C2721	C272	0.898090	0.101910	0.368600
C2731	C273	0.890100	0.109900	0.410800
H2171	H217	0.906200	0.093800	0.431900
C2741	C274	0.862600	0.137400	0.424200
H2181	H218	0.859000	0.141000	0.454800
C2751	C275	0.835900	0.164100	0.395000
H2191	H219	0.815300	0.184700	0.405500
C2761	C276	0.842890	0.157110	0.350100
C2771	C277	0.874760	0.125240	0.335200
H2201	H220	0.879900	0.120100	0.305100
C2781	C278	0.787930	0.212070	0.331400
C2791	C279	0.768890	0.231110	0.289730
O911	O91	0.936100	0.063900	0.310890
O921	O92	0.952520	0.047480	0.380020
O931	O93	0.820820	0.179180	0.317750
C2801	C280	0.432070	0.567930	0.851800
C2811	C281	0.398090	0.601910	0.868600
C2821	C282	0.390100	0.609900	0.910800
H2211	H221	0.406200	0.593800	0.931900
C2831	C283	0.362600	0.637400	0.924200
H2221	H222	0.359000	0.641000	0.954800
C2841	C284	0.335900	0.664100	0.895000
H2231	H223	0.315300	0.684700	0.905500
C2851	C285	0.342890	0.657110	0.850100
C2861	C286	0.374760	0.625240	0.835200
H2241	H224	0.379900	0.620100	0.805100
C2871	C287	0.287930	0.712070	0.831400
C2881	C288	0.268890	0.731110	0.789730
O941	O94	0.436100	0.563900	0.810890
O951	O95	0.452520	0.547480	0.880020
O961	O96	0.320820	0.679180	0.817750
C2891	C289	0.067930	0.351800	0.932070
C2901	C290	0.101910	0.368600	0.898090
C2911	C291	0.109900	0.410800	0.890100
H2251	H225	0.093800	0.431900	0.906200
C2921	C292	0.137400	0.424200	0.862600
H2261	H226	0.141000	0.454800	0.859000
C2931	C293	0.164100	0.395000	0.835900
H2271	H227	0.184700	0.405500	0.815300
C2941	C294	0.157110	0.350100	0.842890
C2951	C295	0.125240	0.335200	0.874760
H2281	H228	0.120100	0.305100	0.879900
C2961	C296	0.212070	0.331400	0.787930
C2971	C297	0.231110	0.289730	0.768890
O971	O97	0.063900	0.310890	0.936100
O981	O98	0.047480	0.380020	0.952520
O991	O99	0.179180	0.317750	0.820820
C2981	C298	0.567930	0.851800	0.432070
C2991	C299	0.601910	0.868600	0.398090
C3001	C300	0.609900	0.910800	0.390100
H2291	H229	0.593800	0.931900	0.406200
C3011	C301	0.637400	0.924200	0.362600
H2301	H230	0.641000	0.954800	0.359000
C3021	C302	0.664100	0.895000	0.335900
H2311	H231	0.684700	0.905500	0.315300
C3031	C303	0.657110	0.850100	0.342890
C3041	C304	0.625240	0.835200	0.374760
H2321	H232	0.620100	0.805100	0.379900
C3051	C305	0.712070	0.831400	0.287930
C3061	C306	0.731110	0.789730	0.268890
O1001	O100	0.563900	0.810890	0.436100
O1011	O101	0.547480	0.880020	0.452520
O1021	O102	0.679180	0.817750	0.320820
C3071	C307	0.932070	0.351800	0.067930
C3081	C308	0.898090	0.368600	0.101910
C3091	C309	0.890100	0.410800	0.109900
H2331	H233	0.906200	0.431900	0.093800
C3101	C310	0.862600	0.424200	0.137400
H2341	H234	0.859000	0.454800	0.141000
C3111	C311	0.835900	0.395000	0.164100
H2351	H235	0.815300	0.405500	0.184700
C3121	C312	0.842890	0.350100	0.157110
C3131	C313	0.874760	0.335200	0.125240
H2361	H236	0.879900	0.305100	0.120100
C3141	C314	0.787930	0.331400	0.212070
C3151	C315	0.768890	0.289730	0.231110
O1031	O103	0.936100	0.310890	0.063900
O1041	O104	0.952520	0.380020	0.047480
O1051	O105	0.820820	0.317750	0.179180
C3161	C316	0.432070	0.851800	0.567930
C3171	C317	0.398090	0.868600	0.601910
C3181	C318	0.390100	0.910800	0.609900
H2371	H237	0.406200	0.931900	0.593800
C3191	C319	0.362600	0.924200	0.637400
H2381	H238	0.359000	0.954800	0.641000
C3201	C320	0.335900	0.895000	0.664100
H2391	H239	0.315300	0.905500	0.684700
C3211	C321	0.342890	0.850100	0.657110
C3221	C322	0.374760	0.835200	0.625240
H2401	H240	0.379900	0.805100	0.620100
C3231	C323	0.287930	0.831400	0.712070
C3241	C324	0.268890	0.789730	0.731110
O1061	O106	0.436100	0.810890	0.563900
O1071	O107	0.452520	0.880020	0.547480
O1081	O108	0.320820	0.817750	0.679180
C3251	C325	0.932070	0.648200	0.932070
C3261	C326	0.898090	0.631400	0.898090
C3271	C327	0.890100	0.589200	0.890100
H2411	H241	0.906200	0.568100	0.906200
C3281	C328	0.862600	0.575800	0.862600
H2421	H242	0.859000	0.545200	0.859000
C3291	C329	0.835900	0.605000	0.835900
H2431	H243	0.815300	0.594500	0.815300
C3301	C330	0.842890	0.649900	0.842890
C3311	C331	0.874760	0.664800	0.874760
H2441	H244	0.879900	0.694900	0.879900
C3321	C332	0.787930	0.668600	0.787930
C3331	C333	0.768890	0.710270	0.768890
O1091	O109	0.936100	0.689110	0.936100
O1101	O110	0.952520	0.619980	0.952520
O1111	O111	0.820820	0.682250	0.820820
C3341	C334	0.432070	0.148200	0.432070
C3351	C335	0.398090	0.131400	0.398090
C3361	C336	0.390100	0.089200	0.390100
H2451	H245	0.406200	0.068100	0.406200
C3371	C337	0.362600	0.075800	0.362600
H2461	H246	0.359000	0.045200	0.359000
C3381	C338	0.335900	0.105000	0.335900
H2471	H247	0.315300	0.094500	0.315300
C3391	C339	0.342890	0.149900	0.342890
C3401	C340	0.374760	0.164800	0.374760
H2481	H248	0.379900	0.194900	0.379900
C3411	C341	0.287930	0.168600	0.287930
C3421	C342	0.268890	0.210270	0.268890
O1121	O112	0.436100	0.189110	0.436100
O1131	O113	0.452520	0.119980	0.452520
O1141	O114	0.320820	0.182250	0.320820
C3431	C343	0.067930	0.648200	0.067930
C3441	C344	0.101910	0.631400	0.101910
C3451	C345	0.109900	0.589200	0.109900
H2491	H249	0.093800	0.568100	0.093800
C3461	C346	0.137400	0.575800	0.137400
H2501	H250	0.141000	0.545200	0.141000
C3471	C347	0.164100	0.605000	0.164100
H2511	H251	0.184700	0.594500	0.184700
C3481	C348	0.157110	0.649900	0.157110
C3491	C349	0.125240	0.664800	0.125240
H2521	H252	0.120100	0.694900	0.120100
C3501	C350	0.212070	0.668600	0.212070
C3511	C351	0.231110	0.710270	0.231110
O1151	O115	0.063900	0.689110	0.063900
O1161	O116	0.047480	0.619980	0.047480
O1171	O117	0.179180	0.682250	0.179180
C3521	C352	0.567930	0.148200	0.567930
C3531	C353	0.601910	0.131400	0.601910
C3541	C354	0.609900	0.089200	0.609900
H2531	H253	0.593800	0.068100	0.593800
C3551	C355	0.637400	0.075800	0.637400
H2541	H254	0.641000	0.045200	0.641000
C3561	C356	0.664100	0.105000	0.664100
H2551	H255	0.684700	0.094500	0.684700
C3571	C357	0.657110	0.149900	0.657110
C3581	C358	0.625240	0.164800	0.625240
H2561	H256	0.620100	0.194900	0.620100
C3591	C359	0.712070	0.168600	0.712070
C3601	C360	0.731110	0.210270	0.731110
O1181	O118	0.563900	0.189110	0.563900
O1191	O119	0.547480	0.119980	0.547480
O1201	O120	0.679180	0.182250	0.679180
C3611	C361	0.351800	0.067930	0.932070
C3621	C362	0.368600	0.101910	0.898090
C3631	C363	0.410800	0.109900	0.890100
H2571	H257	0.431900	0.093800	0.906200
C3641	C364	0.424200	0.137400	0.862600
H2581	H258	0.454800	0.141000	0.859000
C3651	C365	0.395000	0.164100	0.835900
H2591	H259	0.405500	0.184700	0.815300
C3661	C366	0.350100	0.157110	0.842890
C3671	C367	0.335200	0.125240	0.874760
H2601	H260	0.305100	0.120100	0.879900
C3681	C368	0.331400	0.212070	0.787930
C3691	C369	0.289730	0.231110	0.768890
O1211	O121	0.310890	0.063900	0.936100
O1221	O122	0.380020	0.047480	0.952520
O1231	O123	0.317750	0.179180	0.820820
C3701	C370	0.851800	0.567930	0.432070
C3711	C371	0.868600	0.601910	0.398090
C3721	C372	0.910800	0.609900	0.390100
H2611	H261	0.931900	0.593800	0.406200
C3731	C373	0.924200	0.637400	0.362600
H2621	H262	0.954800	0.641000	0.359000
C3741	C374	0.895000	0.664100	0.335900
H2631	H263	0.905500	0.684700	0.315300
C3751	C375	0.850100	0.657110	0.342890
C3761	C376	0.835200	0.625240	0.374760
H2641	H264	0.805100	0.620100	0.379900
C3771	C377	0.831400	0.712070	0.287930
C3781	C378	0.789730	0.731110	0.268890
O1241	O124	0.810890	0.563900	0.436100
O1251	O125	0.880020	0.547480	0.452520
O1261	O126	0.817750	0.679180	0.320820
C3791	C379	0.351800	0.932070	0.067930
C3801	C380	0.368600	0.898090	0.101910
C3811	C381	0.410800	0.890100	0.109900
H2651	H265	0.431900	0.906200	0.093800
C3821	C382	0.424200	0.862600	0.137400
H2661	H266	0.454800	0.859000	0.141000
C3831	C383	0.395000	0.835900	0.164100
H2671	H267	0.405500	0.815300	0.184700
C3841	C384	0.350100	0.842890	0.157110
C3851	C385	0.335200	0.874760	0.125240
H2681	H268	0.305100	0.879900	0.120100
C3861	C386	0.331400	0.787930	0.212070
C3871	C387	0.289730	0.768890	0.231110
O1271	O127	0.310890	0.936100	0.063900
O1281	O128	0.380020	0.952520	0.047480
O1291	O129	0.317750	0.820820	0.179180
C3881	C388	0.851800	0.432070	0.567930
C3891	C389	0.868600	0.398090	0.601910
C3901	C390	0.910800	0.390100	0.609900
H2691	H269	0.931900	0.406200	0.593800
C3911	C391	0.924200	0.362600	0.637400
H2701	H270	0.954800	0.359000	0.641000
C3921	C392	0.895000	0.335900	0.664100
H2711	H271	0.905500	0.315300	0.684700
C3931	C393	0.850100	0.342890	0.657110
C3941	C394	0.835200	0.374760	0.625240
H2721	H272	0.805100	0.379900	0.620100
C3951	C395	0.831400	0.287930	0.712070
C3961	C396	0.789730	0.268890	0.731110
O1301	O130	0.810890	0.436100	0.563900
O1311	O131	0.880020	0.452520	0.547480
O1321	O132	0.817750	0.320820	0.679180
C3971	C397	0.648200	0.067930	0.067930
C3981	C398	0.631400	0.101910	0.101910
C3991	C399	0.589200	0.109900	0.109900
H2731	H273	0.568100	0.093800	0.093800
C4001	C400	0.575800	0.137400	0.137400
H2741	H274	0.545200	0.141000	0.141000
C4011	C401	0.605000	0.164100	0.164100
H2751	H275	0.594500	0.184700	0.184700
C4021	C402	0.649900	0.157110	0.157110
C4031	C403	0.664800	0.125240	0.125240
H2761	H276	0.694900	0.120100	0.120100
C4041	C404	0.668600	0.212070	0.212070
C4051	C405	0.710270	0.231110	0.231110
O1331	O133	0.689110	0.063900	0.063900
O1341	O134	0.619980	0.047480	0.047480
O1351	O135	0.682250	0.179180	0.179180
C4061	C406	0.148200	0.567930	0.567930
C4071	C407	0.131400	0.601910	0.601910
C4081	C408	0.089200	0.609900	0.609900
H2771	H277	0.068100	0.593800	0.593800
C4091	C409	0.075800	0.637400	0.637400
H2781	H278	0.045200	0.641000	0.641000
C4101	C410	0.105000	0.664100	0.664100
H2791	H279	0.094500	0.684700	0.684700
C4111	C411	0.149900	0.657110	0.657110
C4121	C412	0.164800	0.625240	0.625240
H2801	H280	0.194900	0.620100	0.620100
C4131	C413	0.168600	0.712070	0.712070
C4141	C414	0.210270	0.731110	0.731110
O1361	O136	0.189110	0.563900	0.563900
O1371	O137	0.119980	0.547480	0.547480
O1381	O138	0.182250	0.679180	0.679180
C4151	C415	0.648200	0.932070	0.932070
C4161	C416	0.631400	0.898090	0.898090
C4171	C417	0.589200	0.890100	0.890100
H2811	H281	0.568100	0.906200	0.906200
C4181	C418	0.575800	0.862600	0.862600
H2821	H282	0.545200	0.859000	0.859000
C4191	C419	0.605000	0.835900	0.835900
H2831	H283	0.594500	0.815300	0.815300
C4201	C420	0.649900	0.842890	0.842890
C4211	C421	0.664800	0.874760	0.874760
H2841	H284	0.694900	0.879900	0.879900
C4221	C422	0.668600	0.787930	0.787930
C4231	C423	0.710270	0.768890	0.768890
O1391	O139	0.689110	0.936100	0.936100
O1401	O140	0.619980	0.952520	0.952520
O1411	O141	0.682250	0.820820	0.820820
C4241	C424	0.148200	0.432070	0.432070
C4251	C425	0.131400	0.398090	0.398090
C4261	C426	0.089200	0.390100	0.390100
H2851	H285	0.068100	0.406200	0.406200
C4271	C427	0.075800	0.362600	0.362600
H2861	H286	0.045200	0.359000	0.359000
C4281	C428	0.105000	0.335900	0.335900
H2871	H287	0.094500	0.315300	0.315300
C4291	C429	0.149900	0.342890	0.342890
C4301	C430	0.164800	0.374760	0.374760
H2881	H288	0.194900	0.379900	0.379900
C4311	C431	0.168600	0.287930	0.287930
C4321	C432	0.210270	0.268890	0.268890
O1421	O142	0.189110	0.436100	0.436100
O1431	O143	0.119980	0.452520	0.452520
O1441	O144	0.182250	0.320820	0.320820
