data_AFOQUI_clean_PM
_symmetry_space_group_name_H-M	'P1'
_cell_length_a	9.862300
_cell_length_b	13.194900
_cell_length_c	17.895300
_cell_angle_alpha	84.089400
_cell_angle_beta	74.005000
_cell_angle_gamma	68.055200
_symmetry_Int_Tables_number 1

loop_
_symmetry_equiv_pos_as_xyz
'x,y,z'

loop_
_atom_site_label
_atom_site_type_symbol
_atom_site_fract_x
_atom_site_fract_y
_atom_site_fract_z
Zn11	Zn1	0.525130	0.819280	0.167980
Zn21	Zn2	0.866730	0.102200	0.194540
Zn31	Zn3	0.512390	0.180720	0.832020
Zn41	Zn4	0.163480	0.897790	0.805450
Zn51	Zn5	0.943110	0.319280	0.332020
Zn61	Zn6	0.311270	0.602210	0.305450
Zn71	Zn7	0.594410	0.680720	0.667980
Zn81	Zn8	0.218920	0.397800	0.694550
Zn91	Zn9	0.020270	0.000000	0.000000
Zn101	Zn10	0.270270	0.500000	0.500000
H11	H1	0.723700	0.457200	0.118400
H21	H2	0.878400	0.614400	0.931000
H31	H3	0.022700	0.286600	0.931800
H41	H4	0.355900	0.873600	0.034000
H51	H5	0.188900	0.984800	0.245200
H61	H6	0.803000	0.852600	0.037000
H71	H7	0.604800	0.996400	0.236800
H81	H8	0.299300	0.542800	0.881600
H91	H9	0.423800	0.385600	0.069000
H101	H10	0.241100	0.713400	0.068200
H111	H11	0.263500	0.126400	0.966000
H121	H12	0.418900	0.015200	0.754800
H131	H13	0.692600	0.147400	0.963000
H141	H14	0.838000	0.003600	0.763200
H151	H15	0.092100	0.957200	0.381600
H161	H16	0.059400	0.114400	0.569000
H171	H17	0.204500	0.786600	0.568200
H181	H18	0.639900	0.373600	0.466000
H191	H19	0.684100	0.484800	0.254800
H201	H20	0.090000	0.352600	0.463000
H211	H21	0.091600	0.496400	0.263200
H221	H22	0.430900	0.042800	0.618400
H231	H23	0.742800	0.885600	0.431000
H241	H24	0.559300	0.213400	0.431800
H251	H25	0.479500	0.626400	0.534000
H261	H26	0.423700	0.515200	0.745200
H271	H27	0.905600	0.647400	0.537000
H281	H28	0.851200	0.503600	0.736800
C11	C1	0.877500	0.250000	0.072000
C21	C2	0.874490	0.356200	0.031820
C31	C3	0.784010	0.455460	0.068120
C41	C4	0.783430	0.552120	0.029620
C51	C5	0.680750	0.660520	0.066580
C61	C6	0.877570	0.549400	0.956260
C71	C7	0.971790	0.449660	0.919560
C81	C8	0.072320	0.449620	0.840340
C91	C9	0.965530	0.353320	0.957020
C101	C10	0.289310	0.910720	0.078860
C111	C11	0.199050	0.970940	0.193560
C121	C12	0.776930	0.897880	0.079260
C131	C13	0.669180	0.975720	0.187520
C141	C14	0.199500	0.750000	0.928000
C151	C15	0.262510	0.643800	0.968180
C161	C16	0.307590	0.544540	0.931880
C171	C17	0.365170	0.447880	0.970380
C181	C18	0.407850	0.339480	0.933420
C191	C19	0.383230	0.450600	0.043740
C201	C20	0.341010	0.550340	0.080440
C211	C21	0.362280	0.550380	0.159660
C221	C22	0.275870	0.646680	0.042980
C231	C23	0.278890	0.089280	0.921140
C241	C24	0.363550	0.029060	0.806440
C251	C25	0.754070	0.102120	0.920740
C261	C26	0.832420	0.024280	0.812480
C271	C27	0.199500	0.750000	0.428000
C281	C28	0.156310	0.856200	0.468180
C291	C29	0.102130	0.955460	0.431880
C301	C30	0.063050	0.052120	0.470380
C311	C31	0.997330	0.160520	0.433420
C321	C32	0.083830	0.049400	0.543740
C331	C33	0.141350	0.949660	0.580440
C341	C34	0.162660	0.949620	0.659660
C351	C35	0.172550	0.853320	0.542980
C361	C36	0.618170	0.410720	0.421140
C371	C37	0.642610	0.470940	0.306440
C381	C38	0.106190	0.397880	0.420740
C391	C39	0.106700	0.475720	0.312480
C401	C40	0.377500	0.250000	0.572000
C411	C41	0.480690	0.143800	0.531820
C421	C42	0.489470	0.044540	0.568120
C431	C43	0.585550	0.947880	0.529620
C441	C44	0.591270	0.839480	0.566580
C451	C45	0.676970	0.950600	0.456260
C461	C46	0.671450	0.050340	0.419560
C471	C47	0.771940	0.050380	0.340340
C481	C48	0.568850	0.146680	0.457020
C491	C49	0.450030	0.589280	0.578860
C501	C50	0.419990	0.529060	0.693560
C511	C51	0.924810	0.602120	0.579260
C521	C52	0.894900	0.524280	0.687520
N11	N1	0.089060	0.013800	0.158280
N21	N2	0.148030	0.974280	0.083260
N31	N3	0.327240	0.905180	0.146740
N41	N4	0.773690	0.016620	0.153200
N51	N5	0.843990	0.965180	0.082440
N61	N6	0.665820	0.900900	0.143660
N71	N7	0.261140	0.986200	0.841720
N81	N8	0.205570	0.025720	0.916740
N91	N9	0.379160	0.094820	0.853260
N101	N10	0.943510	0.983380	0.846800
N111	N11	0.891610	0.034820	0.917560
N121	N12	0.710380	0.099100	0.856340
N131	N13	0.497340	0.513800	0.341720
N141	N14	0.481290	0.474280	0.416740
N151	N15	0.723980	0.405180	0.353260
N161	N16	0.176890	0.516620	0.346800
N171	N17	0.176430	0.465180	0.417560
N181	N18	0.059480	0.400900	0.356340
N191	N19	0.352860	0.486200	0.658280
N201	N20	0.372310	0.525720	0.583260
N211	N21	0.482420	0.594820	0.646740
N221	N22	0.040310	0.483380	0.653200
N231	N23	0.059170	0.534820	0.582440
N241	N24	0.816720	0.599100	0.643660
O11	O1	0.917340	0.168360	0.031160
O21	O2	0.839120	0.249840	0.146120
O31	O3	0.635740	0.663100	0.140820
O41	O4	0.643380	0.743220	0.026020
O51	O5	0.094230	0.533580	0.813760
O61	O6	0.133980	0.359160	0.801280
O71	O7	0.116860	0.831640	0.968840
O81	O8	0.235080	0.750160	0.853880
O91	O9	0.439660	0.336900	0.859180
O101	O10	0.412620	0.256780	0.973980
O111	O11	0.441570	0.466420	0.186240
O121	O12	0.294420	0.640840	0.198720
O131	O13	0.198500	0.668360	0.468840
O141	O14	0.235240	0.749840	0.353880
O151	O15	0.026560	0.163100	0.359180
O161	O16	0.919400	0.243220	0.473980
O171	O17	0.157990	0.033580	0.686240
O181	O18	0.185260	0.859160	0.698720
O191	O19	0.335700	0.331640	0.531160
O201	O20	0.338960	0.250160	0.646120
O211	O21	0.548840	0.836900	0.640820
O221	O22	0.636600	0.756780	0.526020
O231	O23	0.877810	0.966420	0.313760
O241	O24	0.743140	0.140840	0.301280
