data_AFOTUL_clean_PM
_symmetry_space_group_name_H-M	'P1'
_cell_length_a	8.687600
_cell_length_b	14.166000
_cell_length_c	15.140000
_cell_angle_alpha	115.093000
_cell_angle_beta	106.673000
_cell_angle_gamma	90.000000
_symmetry_Int_Tables_number 1

loop_
_symmetry_equiv_pos_as_xyz
'x,y,z'

loop_
_atom_site_label
_atom_site_type_symbol
_atom_site_fract_x
_atom_site_fract_y
_atom_site_fract_z
Sm11	Sm1	0.505020	0.005490	0.545680
Sm21	Sm2	0.959340	0.994510	0.454320
H11	H1	0.440700	0.802200	0.670600
H21	H2	0.453200	0.645100	0.685200
H31	H3	0.979700	0.558700	0.533600
H41	H4	0.964900	0.716800	0.520800
H51	H5	0.418800	0.530400	0.744400
H61	H6	0.461900	0.363500	0.737600
H71	H7	0.067400	0.235500	0.487800
H81	H8	0.041500	0.396600	0.483600
H91	H9	0.397400	0.718400	0.222600
H101	H10	0.323900	0.566600	0.070000
H111	H11	0.864000	0.572100	0.059800
H121	H12	0.936000	0.725600	0.210000
H131	H13	0.770100	0.197800	0.329400
H141	H14	0.768000	0.354900	0.314800
H151	H15	0.446100	0.441300	0.466400
H161	H16	0.444100	0.283200	0.479200
H171	H17	0.674400	0.469600	0.255600
H181	H18	0.724300	0.636500	0.262400
H191	H19	0.579600	0.764500	0.512200
H201	H20	0.557900	0.603400	0.516400
H211	H21	0.174800	0.281600	0.777400
H221	H22	0.253900	0.433400	0.930000
H231	H23	0.804200	0.427900	0.940200
H241	H24	0.726000	0.274400	0.790000
C11	C1	0.197900	0.871000	0.573000
C21	C2	0.205300	0.772800	0.588800
C31	C3	0.347900	0.753000	0.641000
C41	C4	0.355000	0.658000	0.650200
C51	C5	0.217900	0.583200	0.608000
C61	C6	0.073400	0.606600	0.560400
C71	C7	0.064300	0.701500	0.551400
C81	C8	0.230300	0.479000	0.612800
C91	C9	0.352500	0.470300	0.690200
C101	C10	0.376900	0.370000	0.687400
C111	C11	0.271800	0.281900	0.608600
C121	C12	0.143100	0.293900	0.536600
C131	C13	0.123800	0.391000	0.535200
C141	C14	0.312400	0.173600	0.599800
C151	C15	0.221900	0.835200	0.333000
C161	C16	0.175100	0.735000	0.234400
C171	C17	0.288900	0.688600	0.190600
C181	C18	0.244400	0.597000	0.098600
C191	C19	0.082900	0.549500	0.048200
C201	C20	0.973100	0.600200	0.092200
C211	C21	0.016100	0.692600	0.183600
C221	C22	0.624900	0.129000	0.427000
C231	C23	0.616500	0.227200	0.411200
C241	C24	0.706900	0.247000	0.359000
C251	C25	0.704800	0.342000	0.349800
C261	C26	0.609900	0.416800	0.392000
C271	C27	0.513000	0.393400	0.439600
C281	C28	0.512900	0.298500	0.448600
C291	C29	0.617500	0.521000	0.387200
C301	C30	0.662300	0.529700	0.309800
C311	C31	0.689500	0.630000	0.312600
C321	C32	0.663200	0.718100	0.391400
C331	C33	0.606500	0.706100	0.463400
C341	C34	0.588600	0.609000	0.464800
C351	C35	0.712600	0.826400	0.400200
C361	C36	0.888900	0.164800	0.667000
C371	C37	0.940700	0.265000	0.765600
C381	C38	0.098300	0.311400	0.809400
C391	C39	0.145800	0.403000	0.901400
C401	C40	0.034700	0.450500	0.951800
C411	C41	0.880900	0.399800	0.907800
C421	C42	0.832500	0.307400	0.816400
O11	O1	0.327100	0.916400	0.584400
O21	O2	0.063600	0.901400	0.552600
O31	O3	0.228000	0.092700	0.519600
O41	O4	0.433300	0.169100	0.663600
O51	O5	0.369400	0.870500	0.377400
O61	O6	0.107500	0.875800	0.362200
O71	O7	0.742700	0.083600	0.415600
O81	O8	0.511000	0.098600	0.447400
O91	O9	0.708400	0.907300	0.480400
O101	O10	0.769700	0.830900	0.336400
O111	O11	0.992000	0.129500	0.622600
O121	O12	0.745300	0.124200	0.637800
