data_AFOVEX_clean_PM
_symmetry_space_group_name_H-M	'P1'
_cell_length_a	8.789000
_cell_length_b	14.257000
_cell_length_c	15.109200
_cell_angle_alpha	114.932000
_cell_angle_beta	106.909000
_cell_angle_gamma	90.000000
_symmetry_Int_Tables_number 1

loop_
_symmetry_equiv_pos_as_xyz
'x,y,z'

loop_
_atom_site_label
_atom_site_type_symbol
_atom_site_fract_x
_atom_site_fract_y
_atom_site_fract_z
Ce11	Ce1	0.505150	0.005010	0.546540
Ce21	Ce2	0.958610	0.994990	0.453460
H11	H1	0.442400	0.799100	0.667200
H21	H2	0.453200	0.639800	0.681000
H31	H3	0.982400	0.556900	0.533200
H41	H4	0.972100	0.713300	0.519800
H51	H5	0.420900	0.530700	0.743200
H61	H6	0.456900	0.363600	0.739200
H71	H7	0.075000	0.235400	0.487000
H81	H8	0.051700	0.395500	0.482200
H91	H9	0.391800	0.715300	0.221200
H101	H10	0.323900	0.566600	0.070000
H111	H11	0.862000	0.577200	0.054000
H121	H12	0.936300	0.721100	0.211400
H131	H13	0.775200	0.200900	0.332800
H141	H14	0.772200	0.360200	0.319000
H151	H15	0.449200	0.443100	0.466800
H161	H16	0.452300	0.286700	0.480200
H171	H17	0.677700	0.469300	0.256800
H181	H18	0.717700	0.636400	0.260800
H191	H19	0.588000	0.764600	0.513000
H201	H20	0.569500	0.604500	0.517800
H211	H21	0.170600	0.284700	0.778800
H221	H22	0.253900	0.433400	0.930000
H231	H23	0.808000	0.422800	0.946000
H241	H24	0.724900	0.278900	0.788600
C11	C1	0.195500	0.867200	0.573800
C21	C2	0.203100	0.768100	0.586800
C31	C3	0.350800	0.750200	0.638800
C41	C4	0.356100	0.654000	0.647000
C51	C5	0.220700	0.581700	0.605800
C61	C6	0.075600	0.603800	0.559000
C71	C7	0.070500	0.698200	0.551000
C81	C8	0.232700	0.477500	0.609800
C91	C9	0.354500	0.470900	0.689600
C101	C10	0.375300	0.369900	0.687400
C111	C11	0.276000	0.284500	0.610200
C121	C12	0.149100	0.293700	0.536000
C131	C13	0.132600	0.390600	0.535000
C141	C14	0.313100	0.177200	0.601800
C151	C15	0.219900	0.833400	0.329200
C161	C16	0.174300	0.734300	0.233000
C171	C17	0.284400	0.685800	0.188600
C181	C18	0.245400	0.596200	0.098800
C191	C19	0.077800	0.547700	0.048400
C201	C20	0.970800	0.601100	0.089600
C211	C21	0.014500	0.690500	0.182600
C221	C22	0.621700	0.132800	0.426200
C231	C23	0.616300	0.231900	0.413200
C241	C24	0.712000	0.249800	0.361200
C251	C25	0.709100	0.346000	0.353000
C261	C26	0.614900	0.418300	0.394200
C271	C27	0.516600	0.396200	0.441000
C281	C28	0.519500	0.301800	0.449000
C291	C29	0.622900	0.522500	0.390200
C301	C30	0.664900	0.529100	0.310400
C311	C31	0.687900	0.630100	0.312600
C321	C32	0.665800	0.715500	0.389800
C331	C33	0.613100	0.706300	0.464000
C341	C34	0.597600	0.609400	0.465000
C351	C35	0.711300	0.822800	0.398200
C361	C36	0.890700	0.166600	0.670800
C371	C37	0.941300	0.265700	0.767000
C381	C38	0.095800	0.314200	0.811400
C391	C39	0.146600	0.403800	0.901200
C401	C40	0.029400	0.452300	0.951600
C411	C41	0.881200	0.398900	0.910400
C421	C42	0.831900	0.309500	0.817400
O11	O1	0.323500	0.914600	0.585600
O21	O2	0.061100	0.896500	0.551800
O31	O3	0.232400	0.097600	0.523400
O41	O4	0.430700	0.171700	0.668200
O51	O5	0.364900	0.869000	0.373600
O61	O6	0.112200	0.877200	0.361000
O71	O7	0.737900	0.085400	0.414400
O81	O8	0.509300	0.103500	0.448200
O91	O9	0.709000	0.902400	0.476600
O101	O10	0.762500	0.828300	0.331800
O111	O11	0.991300	0.131000	0.626400
O121	O12	0.751200	0.122800	0.639000
