data_AFOVIB_clean_PM
_symmetry_space_group_name_H-M	'P1'
_cell_length_a	8.622000
_cell_length_b	14.066000
_cell_length_c	15.081800
_cell_angle_alpha	115.214000
_cell_angle_beta	106.609000
_cell_angle_gamma	90.000000
_symmetry_Int_Tables_number 1

loop_
_symmetry_equiv_pos_as_xyz
'x,y,z'

loop_
_atom_site_label
_atom_site_type_symbol
_atom_site_fract_x
_atom_site_fract_y
_atom_site_fract_z
Gd11	Gd1	0.505550	0.005530	0.545360
Gd21	Gd2	0.960190	0.994470	0.454640
H11	H1	0.444900	0.801800	0.664600
H21	H2	0.453400	0.646900	0.688800
H31	H3	0.978200	0.558200	0.533200
H41	H4	0.961100	0.718500	0.522000
H51	H5	0.425600	0.531700	0.746000
H61	H6	0.458600	0.364500	0.737600
H71	H7	0.065100	0.232600	0.484600
H81	H8	0.040200	0.396400	0.483000
H91	H9	0.397700	0.719300	0.226800
H101	H10	0.330000	0.565300	0.073200
H111	H11	0.858900	0.576500	0.053200
H121	H12	0.937300	0.720700	0.213200
H131	H13	0.780300	0.198200	0.335400
H141	H14	0.764600	0.353100	0.311200
H151	H15	0.445000	0.441800	0.466800
H161	H16	0.439100	0.281500	0.478000
H171	H17	0.679600	0.468300	0.254000
H181	H18	0.721000	0.635500	0.262400
H191	H19	0.580500	0.767400	0.515400
H201	H20	0.557200	0.603600	0.517000
H211	H21	0.170900	0.280700	0.773200
H221	H22	0.256800	0.434700	0.926800
H231	H23	0.805700	0.423500	0.946800
H241	H24	0.724100	0.279300	0.786800
C11	C1	0.200000	0.871400	0.573600
C21	C2	0.203400	0.773700	0.591200
C31	C3	0.350400	0.754200	0.639800
C41	C4	0.355900	0.659200	0.651800
C51	C5	0.216800	0.584200	0.609000
C61	C6	0.071500	0.607200	0.561000
C71	C7	0.061400	0.702900	0.552800
C81	C8	0.228700	0.480100	0.613400
C91	C9	0.356200	0.471900	0.692400
C101	C10	0.374700	0.371800	0.687400
C111	C11	0.268600	0.282400	0.608600
C121	C12	0.140300	0.291900	0.534600
C131	C13	0.122500	0.390400	0.535000
C141	C14	0.311000	0.174200	0.599000
C151	C15	0.222600	0.833500	0.332600
C161	C16	0.178900	0.734500	0.235800
C171	C17	0.288800	0.688900	0.193600
C181	C18	0.248300	0.595800	0.100600
C191	C19	0.083100	0.548000	0.048200
C201	C20	0.969500	0.600600	0.089000
C211	C21	0.016900	0.689900	0.183800
C221	C22	0.626400	0.128600	0.426400
C231	C23	0.612200	0.226300	0.408800
C241	C24	0.710600	0.245800	0.360200
C251	C25	0.704100	0.340800	0.348200
C261	C26	0.607800	0.415800	0.391000
C271	C27	0.510500	0.392800	0.439000
C281	C28	0.508600	0.297100	0.447200
C291	C29	0.615300	0.519900	0.386600
C301	C30	0.663800	0.528100	0.307600
C311	C31	0.687300	0.628200	0.312600
C321	C32	0.660000	0.717600	0.391400
C331	C33	0.605700	0.708100	0.465400
C341	C34	0.587500	0.609600	0.465000
C351	C35	0.712000	0.825800	0.401000
C361	C36	0.890000	0.166500	0.667400
C371	C37	0.943100	0.265500	0.764200
C381	C38	0.095200	0.311100	0.806400
C391	C39	0.147700	0.404200	0.899400
C401	C40	0.034900	0.452000	0.951800
C411	C41	0.880500	0.399400	0.911000
C421	C42	0.833100	0.310100	0.816200
O11	O1	0.326500	0.916700	0.583400
O21	O2	0.058500	0.901500	0.551200
O31	O3	0.225500	0.092400	0.518800
O41	O4	0.432400	0.167700	0.661800
O51	O5	0.366600	0.873500	0.378400
O61	O6	0.106600	0.875000	0.363600
O71	O7	0.743100	0.083300	0.416600
O81	O8	0.507300	0.098500	0.448800
O91	O9	0.706700	0.907600	0.481200
O101	O10	0.770600	0.832300	0.338200
O111	O11	0.988200	0.126500	0.621600
O121	O12	0.743000	0.125000	0.636400
