data_AFOVAT_clean_PM
_symmetry_space_group_name_H-M	'P1'
_cell_length_a	8.842000
_cell_length_b	14.318000
_cell_length_c	14.498000
_cell_angle_alpha	113.084000
_cell_angle_beta	107.754000
_cell_angle_gamma	90.000000
_symmetry_Int_Tables_number 1

loop_
_symmetry_equiv_pos_as_xyz
'x,y,z'

loop_
_atom_site_label
_atom_site_type_symbol
_atom_site_fract_x
_atom_site_fract_y
_atom_site_fract_z
La11	La1	0.501590	0.003530	0.548580
La21	La2	0.953010	0.996470	0.451420
H11	H1	0.440900	0.785300	0.670000
H21	H2	0.451600	0.632700	0.681600
H31	H3	0.976700	0.554400	0.533000
H41	H4	0.963200	0.710000	0.519200
H51	H5	0.408200	0.520700	0.752400
H61	H6	0.459500	0.358300	0.745400
H71	H7	0.081100	0.233500	0.481800
H81	H8	0.043800	0.391800	0.480200
H91	H9	0.382400	0.717000	0.215800
H101	H10	0.312800	0.564500	0.074000
H111	H11	0.856600	0.564700	0.069800
H121	H12	0.929900	0.725500	0.206400
H131	H13	0.770900	0.214700	0.330000
H141	H14	0.770000	0.367300	0.318400
H151	H15	0.443700	0.445600	0.467000
H161	H16	0.444000	0.290000	0.480800
H171	H17	0.655800	0.479300	0.247600
H181	H18	0.714100	0.641700	0.254600
H191	H19	0.599300	0.766500	0.518200
H201	H20	0.563600	0.608200	0.519800
H211	H21	0.166600	0.283000	0.784200
H221	H22	0.238800	0.435500	0.926000
H231	H23	0.786800	0.435300	0.930200
H241	H24	0.723500	0.274500	0.793600
C11	C1	0.188300	0.862200	0.574600
C21	C2	0.199700	0.761400	0.587600
C31	C3	0.348500	0.738300	0.640600
C41	C4	0.353500	0.647600	0.647400
C51	C5	0.218900	0.574500	0.605800
C61	C6	0.069300	0.600000	0.558600
C71	C7	0.061800	0.693200	0.550200
C81	C8	0.231900	0.473900	0.613000
C91	C9	0.346900	0.462600	0.694600
C101	C10	0.374400	0.365300	0.693000
C111	C11	0.271200	0.279500	0.611000
C121	C12	0.151000	0.291000	0.535000
C131	C13	0.128300	0.386100	0.533800
C141	C14	0.310700	0.173600	0.603800
C151	C15	0.211100	0.837800	0.324000
C161	C16	0.166200	0.738700	0.226200
C171	C17	0.275300	0.688200	0.184600
C181	C18	0.233400	0.596900	0.098800
C191	C19	0.074200	0.549500	0.046400
C201	C20	0.961400	0.597100	0.094800
C211	C21	0.007100	0.691800	0.179600
C221	C22	0.613700	0.137800	0.425400
C231	C23	0.612100	0.238600	0.412400
C241	C24	0.707900	0.261700	0.359400
C251	C25	0.706100	0.352400	0.352600
C261	C26	0.613100	0.425500	0.394200
C271	C27	0.510700	0.400000	0.441400
C281	C28	0.511600	0.306800	0.449800
C291	C29	0.618900	0.526100	0.387000
C301	C30	0.652300	0.537400	0.305400
C311	C31	0.681400	0.634700	0.307000
C321	C32	0.660200	0.720500	0.389000
C331	C33	0.616000	0.709000	0.465000
C341	C34	0.594500	0.613900	0.466200
C351	C35	0.706900	0.826400	0.396200
C361	C36	0.887100	0.162200	0.676000
C371	C37	0.940000	0.261300	0.773800
C381	C38	0.090700	0.311800	0.815400
C391	C39	0.134600	0.403100	0.901200
C401	C40	0.027800	0.450500	0.953600
C411	C41	0.866600	0.402900	0.905200
C421	C42	0.827500	0.308200	0.820400
O11	O1	0.321400	0.910100	0.589200
O21	O2	0.054400	0.890000	0.550000
O31	O3	0.228800	0.095800	0.523800
O41	O4	0.428200	0.167700	0.675200
O51	O5	0.361100	0.871500	0.369600
O61	O6	0.108400	0.880700	0.357200
O71	O7	0.732200	0.089900	0.410800
O81	O8	0.504400	0.110000	0.450000
O91	O9	0.705000	0.904200	0.476200
O101	O10	0.753000	0.832300	0.324800
O111	O11	0.991500	0.128500	0.630400
O121	O12	0.751200	0.119300	0.642800
