data_AFOYOK_clean_PM
_symmetry_space_group_name_H-M	'P1'
_cell_length_a	7.711900
_cell_length_b	13.474500
_cell_length_c	25.189200
_cell_angle_alpha	90.000000
_cell_angle_beta	90.000000
_cell_angle_gamma	106.629000
_symmetry_Int_Tables_number 1

loop_
_symmetry_equiv_pos_as_xyz
'x,y,z'

loop_
_atom_site_label
_atom_site_type_symbol
_atom_site_fract_x
_atom_site_fract_y
_atom_site_fract_z
Cu11	Cu1	0.500000	0.500000	0.500000
Cu21	Cu2	0.500000	0.500000	0.000000
Cu31	Cu3	0.000000	0.500000	0.000000
Cu41	Cu4	0.000000	0.500000	0.500000
H11	H1	0.033800	0.692800	0.703400
H21	H2	0.494600	0.581600	0.703800
H31	H3	0.354900	0.090600	0.444400
H41	H4	0.966200	0.307200	0.203400
H51	H5	0.505400	0.418400	0.203800
H61	H6	0.645100	0.909400	0.944400
H71	H7	0.341000	0.307200	0.796600
H81	H8	0.913000	0.418400	0.796200
H91	H9	0.264300	0.909400	0.055600
H101	H10	0.659000	0.692800	0.296600
H111	H11	0.087000	0.581600	0.296200
H121	H12	0.735700	0.090600	0.555600
H131	H13	0.966200	0.307200	0.296600
H141	H14	0.505400	0.418400	0.296200
H151	H15	0.645100	0.909400	0.555600
H161	H16	0.033800	0.692800	0.796600
H171	H17	0.494600	0.581600	0.796200
H181	H18	0.354900	0.090600	0.055600
H191	H19	0.659000	0.692800	0.203400
H201	H20	0.087000	0.581600	0.203800
H211	H21	0.735700	0.090600	0.944400
H221	H22	0.341000	0.307200	0.703400
H231	H23	0.913000	0.418400	0.703800
H241	H24	0.264300	0.909400	0.444400
C11	C1	0.616460	0.590320	0.607350
C21	C2	0.764770	0.617740	0.637850
C31	C3	0.907490	0.610780	0.608300
C41	C4	0.765690	0.631980	0.695160
C51	C5	0.923040	0.667680	0.722180
C61	C6	0.605960	0.602320	0.722570
C71	C7	0.497500	0.279600	0.499990
C81	C8	0.414420	0.053640	0.467100
C91	C9	0.383540	0.409680	0.107350
C101	C10	0.235230	0.382260	0.137850
C111	C11	0.092510	0.389220	0.108300
C121	C12	0.234310	0.368020	0.195160
C131	C13	0.076960	0.332320	0.222180
C141	C14	0.394040	0.397680	0.222570
C151	C15	0.502500	0.720400	0.999990
C161	C16	0.585580	0.946360	0.967100
C171	C17	0.026140	0.409680	0.892650
C181	C18	0.147030	0.382260	0.862150
C191	C19	0.296710	0.389220	0.891700
C201	C20	0.133710	0.368020	0.804840
C211	C21	0.255360	0.332320	0.777820
C221	C22	0.003640	0.397680	0.777430
C231	C23	0.217900	0.720400	0.000010
C241	C24	0.360780	0.946360	0.032900
C251	C25	0.973860	0.590320	0.392650
C261	C26	0.852970	0.617740	0.362150
C271	C27	0.703290	0.610780	0.391700
C281	C28	0.866290	0.631980	0.304840
C291	C29	0.744640	0.667680	0.277820
C301	C30	0.996360	0.602320	0.277430
C311	C31	0.782100	0.279600	0.500010
C321	C32	0.639220	0.053640	0.532900
C331	C33	0.383540	0.409680	0.392650
C341	C34	0.235230	0.382260	0.362150
C351	C35	0.092510	0.389220	0.391700
C361	C36	0.234310	0.368020	0.304840
C371	C37	0.076960	0.332320	0.277820
C381	C38	0.394040	0.397680	0.277430
C391	C39	0.502500	0.720400	0.500010
C401	C40	0.585580	0.946360	0.532900
C411	C41	0.616460	0.590320	0.892650
C421	C42	0.764770	0.617740	0.862150
C431	C43	0.907490	0.610780	0.891700
C441	C44	0.765690	0.631980	0.804840
C451	C45	0.923040	0.667680	0.777820
C461	C46	0.605960	0.602320	0.777430
C471	C47	0.497500	0.279600	0.000010
C481	C48	0.414420	0.053640	0.032900
C491	C49	0.973860	0.590320	0.107350
C501	C50	0.852970	0.617740	0.137850
C511	C51	0.703290	0.610780	0.108300
C521	C52	0.866290	0.631980	0.195160
C531	C53	0.744640	0.667680	0.222180
C541	C54	0.996360	0.602320	0.222570
C551	C55	0.782100	0.279600	0.999990
C561	C56	0.639220	0.053640	0.967100
C571	C57	0.026140	0.409680	0.607350
C581	C58	0.147030	0.382260	0.637850
C591	C59	0.296710	0.389220	0.608300
C601	C60	0.133710	0.368020	0.695160
C611	C61	0.255360	0.332320	0.722180
C621	C62	0.003640	0.397680	0.722570
C631	C63	0.217900	0.720400	0.499990
C641	C64	0.360780	0.946360	0.467100
C651	C65	0.609160	0.218320	0.500000
C661	C66	0.552920	0.105840	0.500000
C671	C67	0.390840	0.781680	0.000000
C681	C68	0.447080	0.894160	0.000000
C691	C69	0.390840	0.781680	0.500000
C701	C70	0.447080	0.894160	0.500000
C711	C71	0.609160	0.218320	0.000000
C721	C72	0.552920	0.105840	0.000000
N11	N1	0.668490	0.566780	0.560190
N21	N2	0.848160	0.579520	0.560310
N31	N3	0.600200	0.376200	0.499980
N41	N4	0.331510	0.433220	0.060190
N51	N5	0.151840	0.420480	0.060310
N61	N6	0.399800	0.623800	0.999980
N71	N7	0.101710	0.433220	0.939810
N81	N8	0.268640	0.420480	0.939690
N91	N9	0.224000	0.623800	0.000020
N101	N10	0.898290	0.566780	0.439810
N111	N11	0.731360	0.579520	0.439690
N121	N12	0.776000	0.376200	0.500020
N131	N13	0.331510	0.433220	0.439810
N141	N14	0.151840	0.420480	0.439690
N151	N15	0.399800	0.623800	0.500020
N161	N16	0.668490	0.566780	0.939810
N171	N17	0.848160	0.579520	0.939690
N181	N18	0.600200	0.376200	0.000020
N191	N19	0.898290	0.566780	0.060190
N201	N20	0.731360	0.579520	0.060310
N211	N21	0.776000	0.376200	0.999980
N221	N22	0.101710	0.433220	0.560190
N231	N23	0.268640	0.420480	0.560310
N241	N24	0.224000	0.623800	0.499980
