data_AFOYIE_clean_PM
_symmetry_space_group_name_H-M	'P1'
_cell_length_a	7.144200
_cell_length_b	19.438700
_cell_length_c	17.311400
_cell_angle_alpha	90.000000
_cell_angle_beta	90.000000
_cell_angle_gamma	90.000000
_symmetry_Int_Tables_number 1

loop_
_symmetry_equiv_pos_as_xyz
'x,y,z'

loop_
_atom_site_label
_atom_site_type_symbol
_atom_site_fract_x
_atom_site_fract_y
_atom_site_fract_z
N11	N1	0.066600	0.677960	0.198760
N21	N2	0.874600	0.677600	0.194580
N31	N3	0.981300	0.599190	0.117290
C11	C1	0.129600	0.630460	0.151520
H11	H1	0.254900	0.620000	0.142900
C21	C2	0.825100	0.629970	0.145610
H21	H2	0.702600	0.618900	0.132300
C31	C3	0.990200	0.547600	0.057270
C41	C4	0.869200	0.492600	0.058600
H31	H3	0.781300	0.488100	0.097900
C51	C5	0.119300	0.555800	0.999300
H41	H4	0.198500	0.593800	0.999200
N41	N4	0.433400	0.322040	0.698760
N51	N5	0.625400	0.322400	0.694580
N61	N6	0.518700	0.400810	0.617290
C61	C6	0.370400	0.369540	0.651520
H51	H5	0.245100	0.380000	0.642900
C71	C7	0.674900	0.370030	0.645610
H61	H6	0.797400	0.381100	0.632300
C81	C8	0.509800	0.452400	0.557270
C91	C9	0.630800	0.507400	0.558600
H71	H7	0.718700	0.511900	0.597900
C101	C10	0.380700	0.444200	0.499300
H81	H8	0.301500	0.406200	0.499200
N71	N7	0.933400	0.177960	0.801240
N81	N8	0.125400	0.177600	0.805420
N91	N9	0.018700	0.099190	0.882710
C111	C11	0.870400	0.130460	0.848480
H91	H9	0.745100	0.120000	0.857100
C121	C12	0.174900	0.129970	0.854390
H101	H10	0.297400	0.118900	0.867700
C131	C13	0.009800	0.047600	0.942730
C141	C14	0.130800	0.992600	0.941400
H111	H11	0.218700	0.988100	0.902100
C151	C15	0.880700	0.055800	0.000700
H121	H12	0.801500	0.093800	0.000800
N101	N10	0.566600	0.822040	0.301240
N111	N11	0.374600	0.822400	0.305420
N121	N12	0.481300	0.900810	0.382710
C161	C16	0.629600	0.869540	0.348480
H131	H13	0.754900	0.880000	0.357100
C171	C17	0.325100	0.870030	0.354390
H141	H14	0.202600	0.881100	0.367700
C181	C18	0.490200	0.952400	0.442730
C191	C19	0.369200	0.007400	0.441400
H151	H15	0.281300	0.011900	0.402100
C201	C20	0.619300	0.944200	0.500700
H161	H16	0.698500	0.906200	0.500800
N131	N13	0.933400	0.322040	0.801240
N141	N14	0.125400	0.322400	0.805420
N151	N15	0.018700	0.400810	0.882710
C211	C21	0.870400	0.369540	0.848480
H171	H17	0.745100	0.380000	0.857100
C221	C22	0.174900	0.370030	0.854390
H181	H18	0.297400	0.381100	0.867700
C231	C23	0.009800	0.452400	0.942730
C241	C24	0.130800	0.507400	0.941400
H191	H19	0.218700	0.511900	0.902100
C251	C25	0.880700	0.444200	0.000700
H201	H20	0.801500	0.406200	0.000800
N161	N16	0.566600	0.677960	0.301240
N171	N17	0.374600	0.677600	0.305420
N181	N18	0.481300	0.599190	0.382710
C261	C26	0.629600	0.630460	0.348480
H211	H21	0.754900	0.620000	0.357100
C271	C27	0.325100	0.629970	0.354390
H221	H22	0.202600	0.618900	0.367700
C281	C28	0.490200	0.547600	0.442730
C291	C29	0.369200	0.492600	0.441400
H231	H23	0.281300	0.488100	0.402100
C301	C30	0.619300	0.555800	0.500700
H241	H24	0.698500	0.593800	0.500800
N191	N19	0.066600	0.822040	0.198760
N201	N20	0.874600	0.822400	0.194580
N211	N21	0.981300	0.900810	0.117290
C311	C31	0.129600	0.869540	0.151520
H251	H25	0.254900	0.880000	0.142900
C321	C32	0.825100	0.870030	0.145610
H261	H26	0.702600	0.881100	0.132300
C331	C33	0.990200	0.952400	0.057270
C341	C34	0.869200	0.007400	0.058600
H271	H27	0.781300	0.011900	0.097900
C351	C35	0.119300	0.944200	0.999300
H281	H28	0.198500	0.906200	0.999200
N221	N22	0.433400	0.177960	0.698760
N231	N23	0.625400	0.177600	0.694580
N241	N24	0.518700	0.099190	0.617290
C361	C36	0.370400	0.130460	0.651520
H291	H29	0.245100	0.120000	0.642900
C371	C37	0.674900	0.129970	0.645610
H301	H30	0.797400	0.118900	0.632300
C381	C38	0.509800	0.047600	0.557270
C391	C39	0.630800	0.992600	0.558600
H311	H31	0.718700	0.988100	0.597900
C401	C40	0.380700	0.055800	0.499300
H321	H32	0.301500	0.093800	0.499200
Cu11	Cu1	0.215400	0.750000	0.254400
Cu21	Cu2	0.284600	0.250000	0.754400
Cu31	Cu3	0.784600	0.250000	0.745600
Cu41	Cu4	0.715400	0.750000	0.245600
