data_AFUKIX_clean_PM
_symmetry_space_group_name_H-M	'P1'
_cell_length_a	15.326900
_cell_length_b	25.441100
_cell_length_c	31.096000
_cell_angle_alpha	73.244000
_cell_angle_beta	80.178000
_cell_angle_gamma	82.093000
_symmetry_Int_Tables_number 1

loop_
_symmetry_equiv_pos_as_xyz
'x,y,z'

loop_
_atom_site_label
_atom_site_type_symbol
_atom_site_fract_x
_atom_site_fract_y
_atom_site_fract_z
Mn11	Mn1	0.447430	0.704090	0.925300
Mn21	Mn2	0.956350	0.167880	0.976850
Mn31	Mn3	0.219950	0.598120	0.514120
Mn41	Mn4	0.812380	0.117570	0.473410
Mn51	Mn5	0.780050	0.401880	0.485880
Mn61	Mn6	0.552570	0.295910	0.074700
Mn71	Mn7	0.205960	0.738710	0.521770
Mn81	Mn8	0.254300	0.770670	0.979820
Mn91	Mn9	0.187620	0.882430	0.526590
Mn101	Mn10	0.043650	0.832120	0.023150
Mn111	Mn11	0.745700	0.229330	0.020180
Mn121	Mn12	0.794040	0.261290	0.478230
H11	H1	0.072400	0.240000	0.487600
H21	H2	0.487300	0.818100	0.194600
H31	H3	0.447600	0.952600	0.211100
H41	H4	0.778800	0.546400	0.715300
H51	H5	0.094900	0.409400	0.122300
H61	H6	0.919400	0.352400	0.300800
H71	H7	0.289900	0.041900	0.752000
H81	H8	0.819700	0.705900	0.649500
H91	H9	0.718400	0.829400	0.451300
H101	H10	0.166100	0.901200	0.111900
H111	H11	0.646000	0.860800	0.197900
H121	H12	0.611200	0.464000	0.385800
H131	H13	0.449100	0.908500	0.443700
H141	H14	0.865200	0.012100	0.037100
H151	H15	0.743900	0.041000	0.214600
H161	H16	0.898400	0.769000	0.719000
H171	H17	0.550900	0.091500	0.556300
H181	H18	0.134800	0.987900	0.962900
H191	H19	0.639500	0.915500	0.322700
H201	H20	0.717900	0.909900	0.350900
H211	H21	0.908300	0.314300	0.065900
H221	H22	0.908800	0.016200	0.546500
H231	H23	0.567700	0.349100	0.300200
H241	H24	0.754600	0.111800	0.149000
H251	H25	0.808000	0.445100	0.937700
H261	H26	0.389600	0.188800	0.762400
H271	H27	0.148900	0.704500	0.633600
H281	H28	0.770800	0.852200	0.240100
H291	H29	0.967400	0.569400	0.586200
H301	H30	0.772700	0.969900	0.278600
H311	H31	0.294200	0.619200	0.864500
H321	H32	0.091200	0.983800	0.453500
H331	H33	0.801600	0.645300	0.802900
H341	H34	0.470600	0.052100	0.763100
H351	H35	0.705800	0.380800	0.135500
H361	H36	0.472400	0.404500	0.238000
H371	H37	0.282100	0.090100	0.649100
H381	H38	0.281600	0.170600	0.548700
H391	H39	0.032600	0.430600	0.413800
H401	H40	0.512700	0.181900	0.805400
H411	H41	0.428600	0.372100	0.286400
H421	H42	0.354400	0.896100	0.935000
H431	H43	0.485900	0.502500	0.109500
H441	H44	0.004100	0.953600	0.044600
H451	H45	0.055000	0.403000	0.257700
H461	H46	0.576200	0.914600	0.394000
H471	H47	0.352500	0.516400	0.242900
H481	H48	0.513900	0.427600	0.956000
H491	H49	0.719400	0.494000	0.783700
H501	H50	0.976500	0.806300	0.350800
H511	H51	0.486100	0.572400	0.044000
H521	H52	0.920500	0.212600	0.598300
H531	H53	0.268000	0.187300	0.713500
H541	H54	0.111900	0.146900	0.717600
H551	H55	0.333200	0.679100	0.645000
H561	H56	0.014800	0.485500	0.179800
H571	H57	0.075800	0.040800	0.633600
H581	H58	0.960000	0.824800	0.652100
H591	H59	0.014300	0.936200	0.422200
H601	H60	0.497100	0.037000	0.211100
H611	H61	0.256100	0.959000	0.785400
H621	H62	0.378800	0.814800	0.065600
H631	H63	0.778400	0.591600	0.841500
H641	H64	0.354000	0.139200	0.802100
H651	H65	0.785000	0.995900	0.456600
H661	H66	0.423800	0.085400	0.606000
H671	H67	0.843300	0.552000	0.639000
H681	H68	0.952200	0.958900	0.160900
H691	H69	0.393700	0.872300	0.266700
H701	H70	0.227300	0.030100	0.721400
H711	H71	0.692500	0.410000	0.824300
H721	H72	0.307500	0.590000	0.175700
H731	H73	0.710100	0.958100	0.248000
H741	H74	0.652000	0.597400	0.802200
H751	H75	0.237900	0.913100	0.166700
H761	H76	0.606300	0.127700	0.733300
H771	H77	0.068400	0.081700	0.448900
H781	H78	0.749800	0.681300	0.400700
H791	H79	0.683100	0.640200	0.756100
H801	H80	0.198400	0.354700	0.197100
H811	H81	0.159900	0.173800	0.668600
H821	H82	0.763300	0.762100	0.414700
H831	H83	0.180300	0.294100	0.350500
H841	H84	0.080600	0.647600	0.699200
H851	H85	0.261400	0.959800	0.013100
H861	H86	0.541500	0.174400	0.880400
H871	H87	0.632000	0.012200	0.096000
H881	H88	0.491400	0.507000	0.665600
H891	H89	0.023500	0.601500	0.767400
H901	H90	0.529400	0.947900	0.236900
H911	H91	0.156700	0.448000	0.361000
H921	H92	0.038300	0.575300	0.175300
H931	H93	0.171400	0.400600	0.482600
H941	H94	0.976500	0.398500	0.232600
H951	H95	0.173500	0.132500	0.971300
H961	H96	0.828600	0.599400	0.517400
H971	H97	0.571400	0.627900	0.713600
H981	H98	0.809000	0.419400	0.162100
H991	H99	0.250200	0.318700	0.599300
H1001	H100	0.928700	0.646300	0.841800
H1011	H101	0.552400	0.047400	0.788900
H1021	H102	0.360500	0.084500	0.677300
H1031	H103	0.486300	0.868100	0.819300
H1041	H104	0.762100	0.086900	0.833300
H1051	H105	0.701200	0.546100	0.688300
H1061	H106	0.961700	0.424700	0.824700
H1071	H107	0.970100	0.332200	0.855400
H1081	H108	0.215000	0.004100	0.543400
H1091	H109	0.192000	0.554900	0.062300
H1101	H110	0.298800	0.453900	0.311700
H1111	H111	0.475400	0.864500	0.293100
H1121	H112	0.472300	0.084100	0.952900
H1131	H113	0.734100	0.911700	0.461600
H1141	H114	0.101600	0.231000	0.281000
H1151	H115	0.931600	0.918300	0.551100
H1161	H116	0.175100	0.649300	0.029600
H1171	H117	0.388800	0.536000	0.614200
H1181	H118	0.236700	0.237900	0.585300
H1191	H119	0.057900	0.156200	0.473700
H1201	H120	0.986100	0.651000	0.904900
H1211	H121	0.666800	0.320900	0.355000
H1221	H122	0.985200	0.514500	0.820200
H1231	H123	0.966700	0.034000	0.096800
H1241	H124	0.229200	0.147800	0.759900
H1251	H125	0.945000	0.597000	0.742300
H1261	H126	0.040000	0.175200	0.347900
H1271	H127	0.013900	0.349000	0.095100
H1281	H128	0.837200	0.684400	0.532200
H1291	H129	0.901300	0.513500	0.797600
H1301	H130	0.458500	0.825600	0.119600
H1311	H131	0.524600	0.135500	0.706900
H1321	H132	0.280600	0.506000	0.216300
H1331	H133	0.432300	0.650900	0.699800
H1341	H134	0.704100	0.341300	0.890900
H1351	H135	0.833900	0.098800	0.888100
H1361	H136	0.098700	0.486500	0.202400
H1371	H137	0.047800	0.041100	0.839100
H1381	H138	0.513700	0.131900	0.180700
H1391	H139	0.245400	0.888200	0.851000
H1401	H140	0.824900	0.350700	0.970400
H1411	H141	0.905100	0.590600	0.877700
H1421	H142	0.669500	0.892800	0.063400
H1431	H143	0.942100	0.843800	0.526300
H1441	H144	0.621200	0.185200	0.934400
H1451	H145	0.826500	0.867500	0.028700
H1461	H146	0.527700	0.915900	0.047100
H1471	H147	0.410900	0.244700	0.598700
H1481	H148	0.295900	0.658700	0.109100
H1491	H149	0.057300	0.277300	0.401400
H1501	H150	0.404700	0.936800	0.027500
H1511	H151	0.732000	0.812700	0.286500
H1521	H152	0.595300	0.063200	0.972500
H1531	H153	0.645600	0.103900	0.065000
H1541	H154	0.071300	0.353700	0.158200
H1551	H155	0.023500	0.193700	0.649200
H1561	H156	0.514100	0.497500	0.890500
H1571	H157	0.538900	0.250200	0.549200
H1581	H158	0.221200	0.453600	0.284700
H1591	H159	0.477800	0.129600	0.842000
H1601	H160	0.330500	0.107200	0.936600
H1611	H161	0.851100	0.295500	0.366400
H1621	H162	0.610400	0.811200	0.237600
H1631	H163	0.647500	0.483600	0.757100
H1641	H164	0.079500	0.787400	0.401700
H1651	H165	0.461100	0.749800	0.450800
H1661	H166	0.508600	0.493000	0.334400
H1671	H167	0.942700	0.722700	0.598600
H1681	H168	0.985700	0.063800	0.577800
H1691	H169	0.029900	0.667800	0.144600
H1701	H170	0.888100	0.853100	0.282400
H1711	H171	0.527600	0.595500	0.762000
H1721	H172	0.191000	0.580600	0.837900
H1731	H173	0.162800	0.315600	0.467800
H1741	H174	0.348000	0.402600	0.197800
H1751	H175	0.502900	0.963000	0.788900
H1761	H176	0.995900	0.046400	0.955400
H1771	H177	0.221600	0.408400	0.158500
H1781	H178	0.091700	0.685700	0.934100
H1791	H179	0.738600	0.040200	0.986900
H1801	H180	0.589100	0.755300	0.401300
H1811	H181	0.522200	0.870400	0.158000
H1821	H182	0.265900	0.088300	0.538400
H1831	H183	0.316900	0.359800	0.243900
H1841	H184	0.368000	0.987800	0.904000
H1851	H185	0.927600	0.760000	0.512400
H1861	H186	0.840100	0.826200	0.331400
H1871	H187	0.033300	0.966000	0.903200
H1881	H188	0.924200	0.959200	0.366400
C11	C1	0.311300	0.398400	0.227100
C21	C2	0.985400	0.832700	0.364610
C31	C3	0.435900	0.985300	0.843200
C41	C4	0.426100	0.628500	0.681900
C51	C5	0.180400	0.010810	0.520230
C61	C6	0.266800	0.893600	0.146500
C71	C7	0.339000	0.493200	0.225500
C81	C8	0.786700	0.037900	0.190200
C91	C9	0.278100	0.038800	0.977000
C101	C10	0.580200	0.188800	0.102900
C111	C11	0.888100	0.334700	0.086700
C121	C12	0.455600	0.008700	0.994200
C131	C13	0.887100	0.790300	0.503300
C141	C14	0.896700	0.840900	0.511000
C151	C15	0.600100	0.159400	0.881900
C161	C16	0.915200	0.270700	0.938220
C171	C17	0.179400	0.315600	0.495200
C181	C18	0.358400	0.796570	0.350870
C191	C19	0.243100	0.113000	0.707000
C201	C20	0.279100	0.674100	0.444700
C211	C21	0.934000	0.410000	0.854000
C221	C22	0.103300	0.159100	0.489000
C231	C23	0.874100	0.975400	0.036500
C241	C24	0.389100	0.972300	0.010200
C251	C25	0.852700	0.365500	0.941100
C261	C26	0.648400	0.165300	0.914100
C271	C27	0.049000	0.056900	0.959400
C281	C28	0.170000	0.603300	0.856800
C291	C29	0.111900	0.665300	0.913300
C301	C30	0.354800	0.870800	0.148800
C311	C31	0.415500	0.772900	0.320310
C321	C32	0.723000	0.565700	0.706200
C331	C33	0.943000	0.141600	0.581510
C341	C34	0.721600	0.520130	0.425340
C351	C35	0.235600	0.055000	0.738500
C361	C36	0.227200	0.118800	0.527100
C371	C37	0.084800	0.729300	0.061780
C381	C38	0.386900	0.623800	0.070200
C391	C39	0.095200	0.412500	0.188500
C401	C40	0.112900	0.209700	0.496700
C411	C41	0.491000	0.062500	0.787160
C421	C42	0.610900	0.027700	0.989800
C431	C43	0.739500	0.314800	0.080600
C441	C44	0.335700	0.706260	0.400910
C451	C45	0.474900	0.576000	0.686300
C461	C46	0.720900	0.325900	0.555300
C471	C47	0.923500	0.687600	0.607300
C481	C48	0.564100	0.014700	0.156800
C491	C49	0.763900	0.831600	0.466900
C501	C50	0.392800	0.682590	0.370300
C511	C51	0.889700	0.155980	0.543850
C521	C52	0.810700	0.605400	0.811460
C531	C53	0.066000	0.590000	0.146000
C541	C54	0.795500	0.080900	0.151300
C551	C55	0.697300	0.014200	0.997900
C561	C56	0.664300	0.372300	0.891000
C571	C57	0.515200	0.216400	0.560800
C581	C58	0.544400	0.991300	0.005800
C591	C59	0.151300	0.321900	0.363000
C601	C60	0.476700	0.877400	0.435300
C611	C61	0.267800	0.856700	0.083000
C621	C62	0.937800	0.606400	0.848200
C631	C63	0.783300	0.152400	0.953000
C641	C64	0.137000	0.412900	0.369600
C651	C65	0.811300	0.632600	0.497300
C661	C66	0.448900	0.534800	0.109300
C671	C67	0.351600	0.834700	0.085900
C681	C68	0.157700	0.009400	0.807900
C691	C69	0.156800	0.577800	0.078200
C701	C70	0.721900	0.961200	0.023000
C711	C71	0.772800	0.881200	0.472900
C721	C72	0.983400	0.701500	0.714200
C731	C73	0.551100	0.465200	0.890700
C741	C74	0.645200	0.129200	0.851200
C751	C75	0.681500	0.236800	0.608840
C761	C76	0.954200	0.178600	0.604050
C771	C77	0.014600	0.167300	0.635390
C781	C78	0.133400	0.872900	0.927900
C791	C79	0.664300	0.293740	0.599090
C801	C80	0.765600	0.681700	0.428200
C811	C81	0.901900	0.282300	0.350230
C821	C82	0.078000	0.474400	0.179340
C831	C83	0.943300	0.316000	0.310700
C841	C84	0.820600	0.684400	0.504800
C851	C85	0.940100	0.884000	0.355170
C861	C86	0.843200	0.422200	0.921800
C871	C87	0.277000	0.434300	0.293800
C881	C88	0.523300	0.122600	0.564700
C891	C89	0.112600	0.000300	0.472200
C901	C90	0.886500	0.444500	0.878600
C911	C91	0.756900	0.887000	0.293000
C921	C92	0.302000	0.633100	0.584300
C931	C93	0.584500	0.227100	0.679690
C941	C94	0.515600	0.876200	0.222800
C951	C95	0.920700	0.387200	0.132400
C961	C96	0.560600	0.786600	0.409100
C971	C97	0.189300	0.394600	0.188540
C981	C98	0.059900	0.116000	0.644830
C991	C99	0.848700	0.678100	0.637000
C1001	C100	0.016600	0.298500	0.285800
C1011	C101	0.847100	0.860500	0.307800
C1021	C102	0.951000	0.943100	0.040600
C1031	C103	0.887400	0.999700	0.527800
C1041	C104	0.819600	0.989190	0.479770
C1051	C105	0.658200	0.566500	0.746800
C1061	C106	0.089100	0.010400	0.841500
C1071	C107	0.960600	0.611260	0.765400
C1081	C108	0.447300	0.119300	0.595100
C1091	C109	0.515900	0.142000	0.813450
C1101	C110	0.947000	0.755800	0.701400
C1111	C111	0.026900	0.352700	0.410900
C1121	C112	0.484100	0.858000	0.186550
C1131	C113	0.125900	0.024600	0.963500
C1141	C114	0.039400	0.388740	0.234600
C1151	C115	0.430100	0.059100	0.966100
C1161	C116	0.234400	0.318300	0.571800
C1171	C117	0.047200	0.076200	0.625100
C1181	C118	0.939200	0.596600	0.599600
C1191	C119	0.399900	0.840600	0.118100
C1201	C120	0.357800	0.823500	0.484500
C1211	C121	0.641600	0.203430	0.649130
C1221	C122	0.830000	0.396700	0.143200
C1231	C123	0.374000	0.668800	0.026300
C1241	C124	0.642200	0.176500	0.515500
C1251	C125	0.472400	0.949900	0.817800
C1261	C126	0.419500	0.873000	0.879900
C1271	C127	0.152900	0.139500	0.692200
C1281	C128	0.046900	0.643900	0.896500
C1291	C129	0.185800	0.372900	0.350900
C1301	C130	0.655600	0.926500	0.043100
C1311	C131	0.055000	0.656200	0.558900
C1321	C132	0.076500	0.312400	0.392700
C1331	C133	0.233500	0.626100	0.873000
C1341	C134	0.527600	0.050100	0.182200
C1351	C135	0.814200	0.627100	0.649100
C1361	C136	0.726200	0.577320	0.418840
C1371	C137	0.432700	0.715900	0.330000
C1381	C138	0.633300	0.354800	0.351500
C1391	C139	0.898100	0.945100	0.531700
C1401	C140	0.776600	0.729200	0.436200
C1411	C141	0.273800	0.422680	0.581160
C1421	C142	0.484400	0.123800	0.777200
C1431	C143	0.991600	0.089700	0.592780
C1441	C144	0.366700	0.645200	0.648500
C1451	C145	0.642300	0.387200	0.378600
C1461	C146	0.419800	0.811200	0.897100
C1471	C147	0.567300	0.284100	0.670000
C1481	C148	0.866600	0.127100	0.072100
C1491	C149	0.097100	0.668800	0.082800
C1501	C150	0.357700	0.612800	0.621400
C1511	C151	0.733200	0.106400	0.853500
C1521	C152	0.567500	0.591800	0.735000
C1531	C153	0.919700	0.035100	0.119900
C1541	C154	0.138900	0.919800	0.884000
C1551	C155	0.609100	0.851000	0.227100
C1561	C156	0.861100	0.080200	0.116000
C1571	C157	0.953100	0.356100	0.103500
C1581	C158	0.790100	0.530030	0.482410
C1591	C159	0.775400	0.113700	0.886100
C1601	C160	0.607600	0.036600	0.113200
C1611	C161	0.852600	0.896800	0.032000
C1621	C162	0.806800	0.731400	0.474900
C1631	C163	0.558700	0.172400	0.546800
C1641	C164	0.224600	0.886300	0.113900
C1651	C165	0.269300	0.149400	0.731900
C1661	C166	0.223400	0.270800	0.563800
C1671	C167	0.216700	0.847600	0.047000
C1681	C168	0.616400	0.091100	0.094300
C1691	C169	0.607200	0.317410	0.629700
C1701	C170	0.344400	0.073500	0.956900
C1711	C171	0.062200	0.393600	0.151800
C1721	C172	0.552700	0.880700	0.404900
C1731	C173	0.692200	0.892500	0.332700
C1741	C174	0.318500	0.763200	0.391160
C1751	C175	0.335700	0.627700	0.109000
C1761	C176	0.816200	0.785800	0.481800
C1771	C177	0.460900	0.541900	0.661500
C1781	C178	0.221800	0.366300	0.538300
C1791	C179	0.060800	0.403400	0.400400
C1801	C180	0.183800	0.214200	0.518200
C1811	C181	0.204500	0.919100	0.848700
C1821	C182	0.569900	0.940900	0.033900
C1831	C183	0.061600	0.771800	0.634900
C1841	C184	0.863000	0.587100	0.630400
C1851	C185	0.897700	0.190250	0.408100
C1861	C186	0.307800	0.107500	0.667300
C1871	C187	0.904800	0.587500	0.811500
C1881	C188	0.202300	0.657600	0.900600
C1891	C189	0.057000	0.858400	0.418490
C1901	C190	0.484800	0.783600	0.439200
C1911	C191	0.260500	0.685200	0.919400
C1921	C192	0.938400	0.228200	0.365100
C1931	C193	0.973100	0.647300	0.589100
C1941	C194	0.573900	0.371500	0.318100
C1951	C195	0.059900	0.644900	0.127300
C1961	C196	0.952800	0.923800	0.374900
C1971	C197	0.236100	0.168400	0.533100
C1981	C198	0.688700	0.601600	0.772900
C1991	C199	0.390900	0.149000	0.772900
C2001	C200	0.188700	0.367400	0.502700
C2011	C201	0.045800	0.821400	0.395950
C2021	C202	0.161600	0.113700	0.504510
C2031	C203	0.580500	0.127000	0.120100
C2041	C204	0.985500	0.788800	0.661900
C2051	C205	0.940100	0.355100	0.872700
C2061	C206	0.448200	0.575500	0.070100
C2071	C207	0.730700	0.850600	0.268100
C2081	C208	0.302700	0.985800	0.002100
C2091	C209	0.432500	0.408200	0.265000
C2101	C210	0.539100	0.458100	0.338500
C2111	C211	0.945000	0.343800	0.441100
C2121	C212	0.613100	0.376200	0.929800
C2131	C213	0.080300	0.964900	0.880100
C2141	C214	0.209900	0.469970	0.517590
C2151	C215	0.551800	0.424500	0.929900
C2161	C216	0.110300	0.844020	0.456150
C2171	C217	0.732200	0.143300	0.917000
C2181	C218	0.902900	0.331200	0.917200
C2191	C219	0.546200	0.145000	0.731000
C2201	C220	0.838400	0.886300	0.495490
C2211	C221	0.922000	0.525600	0.820660
C2221	C222	0.079300	0.612800	0.867600
C2231	C223	0.778200	0.633700	0.461700
C2241	C224	0.439400	0.213400	0.590900
C2251	C225	0.213300	0.962100	0.809800
C2261	C226	0.193200	0.268600	0.525100
C2271	C227	0.603600	0.460700	0.850900
C2281	C228	0.056700	0.684000	0.689300
C2291	C229	0.463000	0.892600	0.836500
C2301	C230	0.797700	0.342400	0.099400
C2311	C231	0.392400	0.963400	0.886800
C2321	C232	0.147300	0.634500	0.058900
C2331	C233	0.014500	0.211200	0.338100
C2341	C234	0.008400	0.910300	0.407220
C2351	C235	0.404000	0.161400	0.610200
C2361	C236	0.147400	0.103200	0.968000
C2371	C237	0.842300	0.990600	0.192100
C2381	C238	0.053000	0.244200	0.298600
C2391	C239	0.396400	0.539300	0.149100
C2401	C240	0.278400	0.479870	0.574660
C2411	C241	0.101900	0.054900	0.468300
C2421	C242	0.341600	0.585900	0.148900
C2431	C243	0.341800	0.433500	0.253200
C2441	C244	0.400400	0.559900	0.629800
C2451	C245	0.509000	0.937500	0.212840
C2461	C246	0.596000	0.838600	0.389800
C2471	C247	0.383600	0.908900	0.905700
C2481	C248	0.626000	0.331200	0.973700
C2491	C249	0.113500	0.555500	0.121400
C2501	C250	0.661000	0.506800	0.774500
C2511	C251	0.102300	0.809750	0.591900
C2521	C252	0.525100	0.424000	0.313700
C2531	C253	0.537000	0.107400	0.163500
C2541	C254	0.764400	0.945000	0.261500
C2551	C255	0.910900	0.989600	0.158500
C2561	C256	0.599600	0.440100	0.370200
C2571	C257	0.441300	0.827600	0.453200
C2581	C258	0.658400	0.414100	0.851100
C2591	C259	0.698000	0.366900	0.415700
C2601	C260	0.766500	0.373900	0.127000
C2611	C261	0.098100	0.717700	0.649770
C2621	C262	0.453800	0.855000	0.269000
N11	N1	0.768500	0.583440	0.454110
N21	N2	0.851200	0.937310	0.502360
N31	N3	0.938300	0.893140	0.038020
N41	N4	0.158000	0.972570	0.506620
N51	N5	0.231500	0.416560	0.545890
N61	N6	0.842000	0.027430	0.493380
N71	N7	0.238900	0.509100	0.535370
N81	N8	0.761100	0.490900	0.464630
N91	N9	0.809600	0.944690	0.031100
N101	N10	0.190400	0.055310	0.968900
N111	N11	0.148800	0.062690	0.497640
N121	N12	0.061700	0.106860	0.961980
O11	O1	0.161200	0.055880	0.773560
O21	O2	0.752000	0.312640	0.526150
O31	O3	0.342800	0.679310	0.901610
O41	O4	0.325200	0.709530	0.027720
O51	O5	0.879600	0.901100	0.325050
O61	O6	0.068900	0.860550	0.580830
O71	O7	0.882000	0.119790	0.525540
O81	O8	0.737700	0.172690	0.981370
O91	O9	0.221000	0.416100	0.221040
O101	O10	0.686700	0.131950	0.507220
O111	O11	0.262300	0.379020	0.320910
O121	O12	0.395100	0.880440	0.181630
O131	O13	0.831600	0.206560	0.431730
O141	O14	0.729700	0.318760	0.424760
O151	O15	0.771100	0.288150	0.053240
O161	O16	0.779000	0.583900	0.778960
O171	O17	0.262300	0.827310	0.018630
O181	O18	0.120400	0.098900	0.674950
O191	O19	0.331300	0.160740	0.640980
O201	O20	0.147200	0.794910	0.467140
O211	O21	0.270300	0.681240	0.575240
O221	O22	0.059900	0.328820	0.245540
O231	O23	0.708500	0.400760	0.435730
O241	O24	0.291500	0.599240	0.564270
O251	O25	0.536400	0.554470	0.715280
O261	O26	0.672400	0.223460	0.498350
O271	O27	0.073800	0.879500	0.958740
O281	O28	0.135300	0.862820	0.050470
O291	O29	0.543800	0.218730	0.127860
O301	O30	0.917500	0.296670	0.453000
O311	O31	0.617500	0.208960	0.062650
O321	O32	0.099700	0.614620	0.546130
O331	O33	0.926200	0.120500	0.041260
O341	O34	0.327600	0.776540	0.501650
O351	O35	0.309700	0.618200	0.452600
O361	O36	0.967800	0.242290	0.917500
O371	O37	0.358000	0.128570	0.741230
O381	O38	0.545800	0.201390	0.721320
O391	O39	0.124500	0.498460	0.136010
O401	O40	0.674800	0.290470	0.972280
O411	O41	0.852800	0.205090	0.532860
O421	O42	0.875500	0.501540	0.863990
O431	O43	0.382500	0.791040	0.937350
O441	O44	0.456200	0.781270	0.872140
O451	O45	0.463600	0.445530	0.284720
O461	O46	0.931100	0.139450	0.419170
O471	O47	0.029800	0.588610	0.848080
O481	O48	0.940100	0.671180	0.754460
O491	O49	0.118000	0.880210	0.474460
O501	O50	0.690300	0.381800	0.547400
O511	O51	0.668700	0.839260	0.359020
O521	O52	0.864700	0.137180	0.949530
O531	O53	0.657200	0.320690	0.098390
O541	O54	0.642000	0.871430	0.258770
O551	O55	0.562200	0.958790	0.171120
O561	O56	0.454200	0.798610	0.278680
O571	O57	0.405000	0.494560	0.186750
O581	O58	0.573900	0.343330	0.009170
O591	O59	0.125500	0.750490	0.022700
O601	O60	0.032200	0.757710	0.082500
O611	O61	0.737700	0.620980	0.679090
O621	O62	0.900300	0.385380	0.453870
O631	O63	0.604900	0.119560	0.818370
O641	O64	0.168400	0.793440	0.568270
O651	O65	0.874500	0.249510	0.977300
O661	O66	0.192400	0.833310	0.928630
O671	O67	0.082500	0.703330	0.547000
O681	O68	0.838800	0.944120	0.226440
O691	O69	0.807600	0.166690	0.071370
O701	O70	0.248000	0.687360	0.473850
O711	O71	0.970200	0.411390	0.151920
O721	O72	0.313300	0.868050	0.492780
O731	O73	0.595000	0.505440	0.813250
O741	O74	0.228900	0.711850	0.946760
O751	O75	0.437800	0.041210	0.828880
O761	O76	0.426100	0.656670	0.990830
