data_AFUPEX_clean_PM
_symmetry_space_group_name_H-M	'P1'
_cell_length_a	10.801000
_cell_length_b	10.906000
_cell_length_c	15.550000
_cell_angle_alpha	90.000000
_cell_angle_beta	90.000000
_cell_angle_gamma	100.401000
_symmetry_Int_Tables_number 1

loop_
_symmetry_equiv_pos_as_xyz
'x,y,z'

loop_
_atom_site_label
_atom_site_type_symbol
_atom_site_fract_x
_atom_site_fract_y
_atom_site_fract_z
Tm11	Tm1	0.356410	0.602110	0.897920
Tm21	Tm2	0.143590	0.897890	0.397920
Tm31	Tm3	0.643590	0.397890	0.102080
Tm41	Tm4	0.856410	0.102110	0.602080
H11	H1	0.318600	0.222600	0.185600
H21	H2	0.948100	0.181300	0.233500
H31	H3	0.101500	0.409600	0.045000
H41	H4	0.181400	0.277400	0.685600
H51	H5	0.551900	0.318700	0.733500
H61	H6	0.398500	0.090400	0.545000
H71	H7	0.681400	0.777400	0.814400
H81	H8	0.051900	0.818700	0.766500
H91	H9	0.898500	0.590400	0.955000
H101	H10	0.818600	0.722600	0.314400
H111	H11	0.448100	0.681300	0.266500
H121	H12	0.601500	0.909600	0.455000
C11	C1	0.340800	0.386500	0.056300
C21	C2	0.228300	0.325300	0.108700
C31	C3	0.240200	0.242400	0.173400
C41	C4	0.135200	0.187800	0.220900
C51	C5	0.018200	0.218300	0.202100
C61	C6	0.004100	0.302200	0.137900
C71	C7	0.109600	0.355000	0.089600
C81	C8	0.143800	0.097100	0.292100
C91	C9	0.877900	0.335400	0.122200
C101	C10	0.159200	0.113500	0.556300
C111	C11	0.271700	0.174700	0.608700
C121	C12	0.259800	0.257600	0.673400
C131	C13	0.364800	0.312200	0.720900
C141	C14	0.481800	0.281700	0.702100
C151	C15	0.495900	0.197800	0.637900
C161	C16	0.390400	0.145000	0.589600
C171	C17	0.356200	0.402900	0.792100
C181	C18	0.622100	0.164600	0.622200
C191	C19	0.659200	0.613500	0.943700
C201	C20	0.771700	0.674700	0.891300
C211	C21	0.759800	0.757600	0.826600
C221	C22	0.864800	0.812200	0.779100
C231	C23	0.981800	0.781700	0.797900
C241	C24	0.995900	0.697800	0.862100
C251	C25	0.890400	0.645000	0.910400
C261	C26	0.856200	0.902900	0.707900
C271	C27	0.122100	0.664600	0.877800
C281	C28	0.840800	0.886500	0.443700
C291	C29	0.728300	0.825300	0.391300
C301	C30	0.740200	0.742400	0.326600
C311	C31	0.635200	0.687800	0.279100
C321	C32	0.518200	0.718300	0.297900
C331	C33	0.504100	0.802200	0.362100
C341	C34	0.609600	0.855000	0.410400
C351	C35	0.643800	0.597100	0.207900
C361	C36	0.377900	0.835400	0.377800
O11	O1	0.329800	0.476200	0.010500
O21	O2	0.438100	0.336500	0.062700
O31	O3	0.243700	0.054600	0.302000
O41	O4	0.049400	0.060000	0.338400
O51	O5	0.864100	0.410000	0.063700
O61	O6	0.787500	0.288400	0.169600
O71	O7	0.170200	0.023800	0.510500
O81	O8	0.061900	0.163500	0.562700
O91	O9	0.256300	0.445400	0.802000
O101	O10	0.450600	0.440000	0.838400
O111	O11	0.635900	0.090000	0.563700
O121	O12	0.712500	0.211600	0.669600
O131	O13	0.670200	0.523800	0.989500
O141	O14	0.561900	0.663500	0.937300
O151	O15	0.756300	0.945400	0.698000
O161	O16	0.950600	0.940000	0.661600
O171	O17	0.135900	0.590000	0.936300
O181	O18	0.212500	0.711600	0.830400
O191	O19	0.829800	0.976200	0.489500
O201	O20	0.938100	0.836500	0.437300
O211	O21	0.743700	0.554600	0.198000
O221	O22	0.549400	0.560000	0.161600
O231	O23	0.364100	0.910000	0.436300
O241	O24	0.287500	0.788400	0.330400
