data_AGIMOU_clean_PM
_symmetry_space_group_name_H-M	'P1'
_cell_length_a	9.334800
_cell_length_b	9.360600
_cell_length_c	13.000900
_cell_angle_alpha	90.000000
_cell_angle_beta	90.000000
_cell_angle_gamma	91.282000
_symmetry_Int_Tables_number 1

loop_
_symmetry_equiv_pos_as_xyz
'x,y,z'

loop_
_atom_site_label
_atom_site_type_symbol
_atom_site_fract_x
_atom_site_fract_y
_atom_site_fract_z
Mn11	Mn1	0.783610	0.514380	0.757300
Mn21	Mn2	0.716390	0.985620	0.257300
Mn31	Mn3	0.500000	0.000000	0.500000
Mn41	Mn4	0.216390	0.485620	0.242700
Mn51	Mn5	0.283610	0.014380	0.742700
Mn61	Mn6	0.000000	0.500000	0.000000
H11	H1	0.485800	0.419200	0.873000
H21	H2	0.019400	0.152100	0.591500
H31	H3	0.367200	0.310500	0.866600
H41	H4	0.014200	0.080800	0.373000
H51	H5	0.519400	0.652100	0.908500
H61	H6	0.132800	0.189500	0.366600
H71	H7	0.480600	0.347900	0.091500
H81	H8	0.096400	0.741300	0.402200
H91	H9	0.596400	0.241300	0.097800
H101	H10	0.867200	0.810500	0.633400
H111	H11	0.903600	0.258700	0.597800
H121	H12	0.980600	0.847900	0.408500
H131	H13	0.514200	0.580800	0.127000
H141	H14	0.403600	0.758700	0.902200
H151	H15	0.632800	0.689500	0.133400
H161	H16	0.985800	0.919200	0.627000
C11	C1	0.003000	0.794700	0.744200
C21	C2	0.014700	0.248300	0.723200
C31	C3	0.985300	0.751700	0.276800
C41	C4	0.485300	0.251700	0.223200
C51	C5	0.514700	0.748300	0.776800
C61	C6	0.997000	0.205300	0.255800
C71	C7	0.497000	0.705300	0.244200
C81	C8	0.503000	0.294700	0.755800
N11	N1	0.445000	0.347900	0.842300
N21	N2	0.622200	0.347100	0.710820
N31	N3	0.129700	0.251000	0.865670
N41	N4	0.471700	0.156900	0.371690
N51	N5	0.547700	0.154900	0.282800
N61	N6	0.961500	0.329100	0.120650
N71	N7	0.877800	0.152900	0.210820
N81	N8	0.377800	0.652900	0.289180
N91	N9	0.051300	0.315500	0.202070
N101	N10	0.948700	0.684500	0.797930
N111	N11	0.974300	0.215700	0.625600
N121	N12	0.047700	0.654900	0.217200
N131	N13	0.875700	0.812800	0.227520
N141	N14	0.028300	0.343100	0.871690
N151	N15	0.870300	0.749000	0.134330
N161	N16	0.945000	0.847900	0.657700
N171	N17	0.528300	0.843100	0.628310
N181	N18	0.038500	0.670900	0.879350
N191	N19	0.641300	0.266100	0.625640
N201	N20	0.551300	0.815500	0.297930
N211	N21	0.461500	0.829100	0.379350
N221	N22	0.474300	0.715700	0.874400
N231	N23	0.124300	0.187200	0.772480
N241	N24	0.122200	0.847100	0.789180
N251	N25	0.629700	0.751000	0.634330
N261	N26	0.141300	0.766100	0.874360
N271	N27	0.025700	0.784300	0.374400
N281	N28	0.358700	0.733900	0.374360
N291	N29	0.555000	0.652100	0.157700
N301	N30	0.538500	0.170900	0.620650
N311	N31	0.624300	0.687200	0.727520
N321	N32	0.952300	0.345100	0.782800
N331	N33	0.055000	0.152100	0.342300
N341	N34	0.375700	0.312800	0.272480
N351	N35	0.370300	0.249000	0.365670
N361	N36	0.452300	0.845100	0.717200
N371	N37	0.971700	0.656900	0.128310
N381	N38	0.525700	0.284300	0.125600
N391	N39	0.858700	0.233900	0.125640
N401	N40	0.448700	0.184500	0.702070
Cl11	Cl1	0.765980	0.007360	0.451630
Cl21	Cl2	0.265980	0.507360	0.048370
Cl31	Cl3	0.234020	0.992640	0.548370
Cl41	Cl4	0.734020	0.492640	0.951630
