data_AGOFEJ_clean_PM
_symmetry_space_group_name_H-M	'P1'
_cell_length_a	19.425100
_cell_length_b	36.589000
_cell_length_c	37.762000
_cell_angle_alpha	90.000000
_cell_angle_beta	114.202000
_cell_angle_gamma	90.000000
_symmetry_Int_Tables_number 1

loop_
_symmetry_equiv_pos_as_xyz
'x,y,z'

loop_
_atom_site_label
_atom_site_type_symbol
_atom_site_fract_x
_atom_site_fract_y
_atom_site_fract_z
Cu11	Cu1	0.096410	0.189280	0.247030
C11	C1	0.675480	0.988460	0.309850
H11	H1	0.715700	0.970700	0.324200
H21	H2	0.647600	0.994100	0.326000
C21	C2	0.671340	0.355900	0.330900
H31	H3	0.692400	0.343600	0.356500
H41	H4	0.670100	0.382500	0.335500
C31	C3	0.487900	0.433870	0.179470
H51	H5	0.449800	0.447600	0.157700
H61	H6	0.464900	0.426900	0.197500
C41	C4	0.392840	0.419040	0.718490
H71	H7	0.383100	0.445300	0.720900
H81	H8	0.343500	0.406700	0.705200
Cu21	Cu2	0.162010	0.188760	0.323390
Cu31	Cu3	0.406930	0.205140	0.947160
Cu41	Cu4	0.554940	0.200900	0.973090
Cu51	Cu5	0.547890	0.456670	0.762220
Cu61	Cu6	0.605010	0.392180	0.249220
N11	N1	0.624480	0.972550	0.273480
N21	N2	0.719920	0.348950	0.310970
N31	N3	0.552490	0.456800	0.199410
N41	N4	0.436490	0.415180	0.694990
N51	N5	0.554920	0.988560	0.254070
N61	N6	0.711410	0.370260	0.279790
N71	N7	0.605070	0.445310	0.234280
N81	N8	0.502560	0.434090	0.706140
C51	C5	0.522330	0.970490	0.220250
C61	C6	0.765890	0.359710	0.269140
C71	C7	0.659780	0.470520	0.245420
C81	C8	0.524800	0.428600	0.677350
C91	C9	0.573100	0.943500	0.217410
C101	C10	0.810450	0.331870	0.293550
C111	C11	0.641220	0.498480	0.217010
C121	C12	0.473100	0.406920	0.648000
C131	C13	0.636990	0.945620	0.252160
C141	C14	0.778640	0.325320	0.320070
C151	C15	0.571710	0.488770	0.188070
C161	C16	0.416200	0.398650	0.659980
C171	C17	0.444890	0.980030	0.192220
H91	H9	0.409800	0.960700	0.192100
H101	H10	0.444000	0.982500	0.166200
H111	H11	0.429700	0.003200	0.199900
C181	C18	0.774500	0.378810	0.235530
H121	H12	0.754500	0.363100	0.212500
H131	H13	0.828100	0.383700	0.242400
H141	H14	0.746600	0.401900	0.230000
C191	C19	0.727550	0.466060	0.282590
H151	H15	0.723900	0.482600	0.302200
H161	H16	0.773000	0.471900	0.278500
H171	H17	0.730400	0.440800	0.291600
C201	C20	0.596600	0.447130	0.680020
H181	H18	0.608800	0.467400	0.698600
H191	H19	0.589200	0.456600	0.654400
H201	H20	0.638100	0.429400	0.688800
C211	C21	0.707850	0.923710	0.268090
H211	H21	0.747800	0.936800	0.263800
H221	H22	0.699100	0.899900	0.255000
H231	H23	0.723300	0.920000	0.296000
C221	C22	0.797300	0.298100	0.352130
H241	H24	0.820800	0.310600	0.377200
H251	H25	0.832400	0.279900	0.350000
H261	H26	0.751000	0.285900	0.350200
C231	C23	0.521920	0.507500	0.151970
H271	H27	0.532600	0.498600	0.130300
H281	H28	0.531000	0.533900	0.154900
H291	H29	0.469100	0.502500	0.146800
C241	C24	0.349300	0.375900	0.642660
H301	H30	0.350200	0.356900	0.661200
H311	H31	0.348400	0.364400	0.619000
H321	H32	0.304100	0.391000	0.636100
C251	C25	0.561240	0.918990	0.184330
C261	C26	0.875100	0.312420	0.291810
C271	C27	0.684870	0.531760	0.217390
C281	C28	0.477400	0.394320	0.611620
C291	C29	0.489890	0.906030	0.160020
H331	H33	0.447300	0.913200	0.164700
C301	C30	0.874600	0.301520	0.256190
H341	H34	0.834200	0.308800	0.232800
C311	C31	0.731950	0.548550	0.252420
H351	H35	0.737500	0.538000	0.276400
C321	C32	0.544600	0.381670	0.611600
H361	H36	0.589500	0.383100	0.634700
C331	C33	0.479830	0.882970	0.129160
H371	H37	0.430600	0.874900	0.112600
C341	C34	0.932500	0.280150	0.254550
H381	H38	0.931700	0.273100	0.230200
C351	C35	0.770460	0.580430	0.252240
H391	H39	0.803000	0.591300	0.276100
C361	C36	0.547400	0.366790	0.577900
H401	H40	0.594200	0.358900	0.578200
C371	C37	0.541620	0.871580	0.122470
C381	C38	0.992000	0.269010	0.289010
C391	C39	0.761500	0.596560	0.216960
C401	C40	0.481900	0.363680	0.544270
C411	C41	0.613780	0.884500	0.146310
H411	H41	0.656400	0.876900	0.141900
C421	C42	0.994250	0.281290	0.324200
H421	H42	0.035300	0.274700	0.347700
C431	C43	0.717090	0.580000	0.182920
H431	H43	0.711400	0.590900	0.159100
C441	C44	0.413600	0.377320	0.543830
H441	H44	0.368600	0.375800	0.520800
C451	C45	0.622520	0.908330	0.176130
H451	H45	0.671300	0.917800	0.191500
C461	C46	0.937400	0.303020	0.325180
H461	H46	0.940900	0.311900	0.349500
C471	C47	0.679840	0.547300	0.182370
H471	H47	0.651100	0.535500	0.158400
C481	C48	0.412300	0.392760	0.576790
H481	H48	0.366400	0.402600	0.575900
C491	C49	0.532100	0.844640	0.090340
C501	C50	0.048920	0.242100	0.287800
C511	C51	0.800730	0.631920	0.216770
C521	C52	0.482200	0.342520	0.510220
O11	O1	0.592850	0.830660	0.091210
O21	O2	0.047010	0.233670	0.254430
O31	O3	0.848410	0.643550	0.249200
O41	O4	0.417460	0.333860	0.484230
O51	O5	0.465880	0.837410	0.066600
O61	O6	0.092490	0.228630	0.319890
O71	O7	0.782120	0.647330	0.184330
O81	O8	0.546400	0.334000	0.510920
N91	N9	0.709030	0.021590	0.303060
N101	N10	0.595350	0.342970	0.308750
N111	N11	0.509330	0.401010	0.164580
N121	N12	0.431620	0.403640	0.756820
N131	N13	0.662750	0.050720	0.287870
N141	N14	0.553020	0.360130	0.275060
N151	N15	0.556410	0.377000	0.191360
N161	N16	0.493980	0.421300	0.782950
C531	C53	0.706700	0.076720	0.283250
C541	C54	0.485840	0.343720	0.261750
C551	C55	0.563800	0.349250	0.170230
C561	C56	0.518640	0.400780	0.815370
C571	C57	0.781270	0.064030	0.295590
C581	C58	0.485240	0.316460	0.287780
C591	C59	0.522800	0.355670	0.130740
C601	C60	0.469960	0.370340	0.809660
C611	C61	0.780310	0.028580	0.307930
C621	C62	0.555590	0.316540	0.317480
C631	C63	0.487700	0.389240	0.127720
C641	C64	0.416250	0.372500	0.771930
C651	C65	0.674300	0.114040	0.268240
H491	H49	0.663000	0.115700	0.240500
H501	H50	0.711000	0.132900	0.282400
H511	H51	0.627800	0.117600	0.272100
C661	C66	0.422900	0.355720	0.224340
H521	H52	0.422700	0.382400	0.222600
H531	H53	0.374500	0.347400	0.223700
H541	H54	0.430500	0.345100	0.202400
C671	C67	0.610800	0.316630	0.190320
H551	H55	0.662100	0.319600	0.191700
H561	H56	0.588100	0.294400	0.175700
H571	H57	0.612900	0.314700	0.216600
C681	C68	0.586990	0.410980	0.849960
H581	H58	0.629700	0.396000	0.851000
H591	H59	0.578200	0.406800	0.873400
H601	H60	0.598400	0.436900	0.848400
C691	C69	0.842700	0.000780	0.324270
H611	H61	0.857400	0.998300	0.352300
H621	H62	0.886400	0.008800	0.319600
H631	H63	0.825000	0.977100	0.311600
C701	C70	0.590290	0.293320	0.353810
H641	H64	0.639200	0.283900	0.356200
H651	H65	0.556600	0.272800	0.352100
H661	H66	0.597500	0.308200	0.376600
C711	C71	0.437500	0.410760	0.093350
H671	H67	0.385800	0.410200	0.091600
H681	H68	0.438500	0.400200	0.069700
H691	H69	0.455100	0.436100	0.096100
C721	C72	0.353820	0.347270	0.748990
H701	H70	0.305900	0.360700	0.738900
H711	H71	0.351300	0.327300	0.765700
H721	H72	0.363100	0.337300	0.727300
C731	C73	0.845570	0.084520	0.294340
C741	C74	0.420000	0.293770	0.285510
C751	C75	0.514800	0.330580	0.098080
C761	C76	0.475320	0.341780	0.838360
C771	C77	0.913400	0.088700	0.326740
H731	H73	0.920000	0.077100	0.350400
C781	C78	0.402770	0.290560	0.317970
H741	H74	0.432900	0.303000	0.341300
C791	C79	0.577500	0.315420	0.095550
H751	H75	0.626200	0.322500	0.113700
C801	C80	0.542830	0.323490	0.859380
H761	H76	0.587400	0.330100	0.856300
C811	C81	0.971100	0.109410	0.325040
H771	H77	0.016100	0.112900	0.347800
C821	C82	0.342770	0.269550	0.316610
H781	H78	0.332900	0.267300	0.339200
C831	C83	0.571100	0.289650	0.066710
H791	H79	0.615000	0.279100	0.065700
C841	C84	0.544990	0.295500	0.885010
H801	H80	0.591200	0.283300	0.899500
C851	C85	0.964170	0.125170	0.290280
C861	C86	0.297350	0.251930	0.283240
C871	C87	0.500700	0.279850	0.039970
C881	C88	0.480170	0.285380	0.889390
C891	C89	0.898500	0.120720	0.257710
H811	H81	0.893500	0.131000	0.233700
C901	C90	0.312100	0.255130	0.249980
H821	H82	0.280700	0.243100	0.226600
C911	C91	0.436300	0.295690	0.041250
H831	H83	0.387400	0.289600	0.022400
C921	C92	0.412430	0.303950	0.869050
H841	H84	0.368100	0.297300	0.872400
C931	C93	0.839000	0.101010	0.260050
H851	H85	0.793000	0.098800	0.237600
C941	C94	0.373160	0.276030	0.251500
H861	H86	0.383100	0.278200	0.228900
C951	C95	0.445300	0.320690	0.070820
H871	H87	0.401600	0.331200	0.072100
C961	C96	0.410350	0.332110	0.843980
H881	H88	0.364500	0.345000	0.830500
C971	C97	0.026900	0.148600	0.288900
C981	C98	0.233550	0.228860	0.282680
C991	C99	0.492800	0.251460	0.010050
C1001	C100	0.481070	0.253930	0.915280
O91	O9	0.082760	0.154520	0.320520
O101	O10	0.231220	0.222910	0.315260
O111	O11	0.553600	0.240220	0.008450
O121	O12	0.418710	0.245070	0.915800
O131	O13	0.018540	0.160790	0.256050
O141	O14	0.185950	0.217140	0.250180
O151	O15	0.427050	0.240320	0.989420
O161	O16	0.543240	0.238550	0.933850
Cu71	Cu7	0.903590	0.689280	0.252970
C1011	C101	0.324520	0.488460	0.190150
H891	H89	0.284300	0.470700	0.175800
H901	H90	0.352400	0.494100	0.174000
C1021	C102	0.328660	0.855900	0.169100
H911	H91	0.307600	0.843600	0.143500
H921	H92	0.329900	0.882500	0.164500
C1031	C103	0.512100	0.933870	0.320530
H931	H93	0.550200	0.947600	0.342300
H941	H94	0.535100	0.926900	0.302500
C1041	C104	0.607160	0.919040	0.781510
H951	H95	0.616900	0.945300	0.779100
H961	H96	0.656500	0.906700	0.794800
Cu81	Cu8	0.837990	0.688760	0.176610
Cu91	Cu9	0.593070	0.705140	0.552840
Cu101	Cu10	0.445060	0.700900	0.526910
Cu111	Cu11	0.452110	0.956670	0.737780
Cu121	Cu12	0.394990	0.892180	0.250780
N171	N17	0.375520	0.472550	0.226520
N181	N18	0.280080	0.848950	0.189030
N191	N19	0.447510	0.956800	0.300590
N201	N20	0.563510	0.915180	0.805010
N211	N21	0.445080	0.488560	0.245930
N221	N22	0.288590	0.870260	0.220210
N231	N23	0.394930	0.945310	0.265720
N241	N24	0.497440	0.934090	0.793860
C1051	C105	0.477670	0.470490	0.279750
C1061	C106	0.234110	0.859710	0.230860
C1071	C107	0.340220	0.970520	0.254580
C1081	C108	0.475200	0.928600	0.822650
C1091	C109	0.426900	0.443500	0.282590
C1101	C110	0.189550	0.831870	0.206450
C1111	C111	0.358780	0.998480	0.282990
C1121	C112	0.526900	0.906920	0.852000
C1131	C113	0.363010	0.445620	0.247840
C1141	C114	0.221360	0.825320	0.179930
C1151	C115	0.428290	0.988770	0.311930
C1161	C116	0.583800	0.898650	0.840020
C1171	C117	0.555110	0.480030	0.307780
H971	H97	0.590200	0.460700	0.307900
H981	H98	0.556000	0.482500	0.333800
H991	H99	0.570300	0.503200	0.300100
C1181	C118	0.225500	0.878810	0.264470
H1001	H100	0.245500	0.863100	0.287500
H1011	H101	0.171900	0.883700	0.257600
H1021	H102	0.253400	0.901900	0.270000
C1191	C119	0.272450	0.966060	0.217410
H1031	H103	0.276100	0.982600	0.197800
H1041	H104	0.227000	0.971900	0.221500
H1051	H105	0.269600	0.940800	0.208400
C1201	C120	0.403400	0.947130	0.819980
H1061	H106	0.391200	0.967400	0.801400
H1071	H107	0.410800	0.956600	0.845600
H1081	H108	0.361900	0.929400	0.811200
C1211	C121	0.292150	0.423710	0.231910
H1091	H109	0.252200	0.436800	0.236200
H1101	H110	0.300900	0.399900	0.245000
H1111	H111	0.276700	0.420000	0.204000
C1221	C122	0.202700	0.798100	0.147870
H1121	H112	0.179200	0.810600	0.122800
H1131	H113	0.167600	0.779900	0.150000
H1141	H114	0.249000	0.785900	0.149800
C1231	C123	0.478080	0.007500	0.348030
H1151	H115	0.467400	0.998600	0.369700
H1161	H116	0.469000	0.033900	0.345100
H1171	H117	0.530900	0.002500	0.353200
C1241	C124	0.650700	0.875900	0.857340
H1181	H118	0.649800	0.856900	0.838800
H1191	H119	0.651600	0.864400	0.881000
H1201	H120	0.695900	0.891000	0.863900
C1251	C125	0.438760	0.418990	0.315670
C1261	C126	0.124900	0.812420	0.208190
C1271	C127	0.315130	0.031760	0.282610
C1281	C128	0.522600	0.894320	0.888380
C1291	C129	0.510110	0.406030	0.339980
H1211	H121	0.552700	0.413200	0.335300
C1301	C130	0.125400	0.801520	0.243810
H1221	H122	0.165800	0.808800	0.267200
C1311	C131	0.268050	0.048550	0.247580
H1231	H123	0.262500	0.038000	0.223600
C1321	C132	0.455400	0.881670	0.888400
H1241	H124	0.410500	0.883100	0.865300
C1331	C133	0.520170	0.382970	0.370840
H1251	H125	0.569400	0.374900	0.387400
C1341	C134	0.067500	0.780150	0.245450
H1261	H126	0.068300	0.773100	0.269800
C1351	C135	0.229540	0.080430	0.247760
H1271	H127	0.197000	0.091300	0.223900
C1361	C136	0.452600	0.866790	0.922100
H1281	H128	0.405800	0.858900	0.921800
C1371	C137	0.458380	0.371580	0.377530
C1381	C138	0.008000	0.769010	0.210990
C1391	C139	0.238500	0.096560	0.283040
C1401	C140	0.518100	0.863680	0.955730
C1411	C141	0.386220	0.384500	0.353690
H1291	H129	0.343600	0.376900	0.358100
C1421	C142	0.005750	0.781290	0.175800
H1301	H130	0.964700	0.774700	0.152300
C1431	C143	0.282910	0.080000	0.317080
H1311	H131	0.288600	0.090900	0.340900
C1441	C144	0.586400	0.877320	0.956170
H1321	H132	0.631400	0.875800	0.979200
C1451	C145	0.377480	0.408330	0.323870
H1331	H133	0.328700	0.417800	0.308500
C1461	C146	0.062600	0.803020	0.174820
H1341	H134	0.059100	0.811900	0.150500
C1471	C147	0.320160	0.047300	0.317630
H1351	H135	0.348900	0.035500	0.341600
C1481	C148	0.587700	0.892760	0.923210
H1361	H136	0.633600	0.902600	0.924100
C1491	C149	0.467900	0.344640	0.409660
C1501	C150	0.951080	0.742100	0.212200
C1511	C151	0.199270	0.131920	0.283230
C1521	C152	0.517800	0.842520	0.989780
O171	O17	0.407150	0.330660	0.408790
O181	O18	0.952990	0.733670	0.245570
O191	O19	0.151590	0.143550	0.250800
O201	O20	0.582540	0.833860	0.015770
O211	O21	0.534120	0.337410	0.433400
O221	O22	0.907510	0.728630	0.180110
O231	O23	0.217880	0.147330	0.315670
O241	O24	0.453600	0.834000	0.989080
N251	N25	0.290970	0.521590	0.196940
N261	N26	0.404650	0.842970	0.191250
N271	N27	0.490670	0.901010	0.335420
N281	N28	0.568380	0.903640	0.743180
N291	N29	0.337250	0.550720	0.212130
N301	N30	0.446980	0.860130	0.224940
N311	N31	0.443590	0.877000	0.308640
N321	N32	0.506020	0.921300	0.717050
C1531	C153	0.293300	0.576720	0.216750
C1541	C154	0.514160	0.843720	0.238250
C1551	C155	0.436200	0.849250	0.329770
C1561	C156	0.481360	0.900780	0.684630
C1571	C157	0.218730	0.564030	0.204410
C1581	C158	0.514760	0.816460	0.212220
C1591	C159	0.477200	0.855670	0.369260
C1601	C160	0.530040	0.870340	0.690340
C1611	C161	0.219690	0.528580	0.192070
C1621	C162	0.444410	0.816540	0.182520
C1631	C163	0.512300	0.889240	0.372280
C1641	C164	0.583750	0.872500	0.728070
C1651	C165	0.325700	0.614040	0.231760
H1371	H137	0.337000	0.615700	0.259500
H1381	H138	0.289000	0.632900	0.217600
H1391	H139	0.372200	0.617600	0.227900
C1661	C166	0.577100	0.855720	0.275660
H1401	H140	0.577300	0.882400	0.277400
H1411	H141	0.625500	0.847400	0.276300
H1421	H142	0.569500	0.845100	0.297600
C1671	C167	0.389200	0.816630	0.309680
H1431	H143	0.337900	0.819600	0.308300
H1441	H144	0.411900	0.794400	0.324300
H1451	H145	0.387100	0.814700	0.283400
C1681	C168	0.413010	0.910980	0.650040
H1461	H146	0.370300	0.896000	0.649000
H1471	H147	0.421800	0.906800	0.626600
H1481	H148	0.401600	0.936900	0.651600
C1691	C169	0.157300	0.500780	0.175730
H1491	H149	0.142600	0.498300	0.147700
H1501	H150	0.113600	0.508800	0.180400
H1511	H151	0.175000	0.477100	0.188400
C1701	C170	0.409710	0.793320	0.146190
H1521	H152	0.360800	0.783900	0.143800
H1531	H153	0.443400	0.772800	0.147900
H1541	H154	0.402500	0.808200	0.123400
C1711	C171	0.562500	0.910760	0.406650
H1551	H155	0.614200	0.910200	0.408400
H1561	H156	0.561500	0.900200	0.430300
H1571	H157	0.544900	0.936100	0.403900
C1721	C172	0.646180	0.847270	0.751010
H1581	H158	0.694100	0.860700	0.761100
H1591	H159	0.648700	0.827300	0.734300
H1601	H160	0.636900	0.837300	0.772700
C1731	C173	0.154430	0.584520	0.205660
C1741	C174	0.580000	0.793770	0.214490
C1751	C175	0.485200	0.830580	0.401920
C1761	C176	0.524680	0.841780	0.661640
C1771	C177	0.086600	0.588700	0.173260
H1611	H161	0.080000	0.577100	0.149600
C1781	C178	0.597230	0.790560	0.182030
H1621	H162	0.567100	0.803000	0.158700
C1791	C179	0.422500	0.815420	0.404450
H1631	H163	0.373800	0.822500	0.386300
C1801	C180	0.457170	0.823490	0.640620
H1641	H164	0.412600	0.830100	0.643700
C1811	C181	0.028900	0.609410	0.174960
H1651	H165	0.983900	0.612900	0.152200
C1821	C182	0.657230	0.769550	0.183390
H1661	H166	0.667100	0.767300	0.160800
C1831	C183	0.428900	0.789650	0.433290
H1671	H167	0.385000	0.779100	0.434300
C1841	C184	0.455010	0.795500	0.614990
H1681	H168	0.408800	0.783300	0.600500
C1851	C185	0.035830	0.625170	0.209720
C1861	C186	0.702650	0.751930	0.216760
C1871	C187	0.499300	0.779850	0.460030
C1881	C188	0.519830	0.785380	0.610610
C1891	C189	0.101500	0.620720	0.242290
H1691	H169	0.106500	0.631000	0.266300
C1901	C190	0.687900	0.755130	0.250020
H1701	H170	0.719300	0.743100	0.273400
C1911	C191	0.563700	0.795690	0.458750
H1711	H171	0.612600	0.789600	0.477600
C1921	C192	0.587570	0.803950	0.630950
H1721	H172	0.631900	0.797300	0.627600
C1931	C193	0.161000	0.601010	0.239950
H1731	H173	0.207000	0.598800	0.262400
C1941	C194	0.626840	0.776030	0.248500
H1741	H174	0.616900	0.778200	0.271100
C1951	C195	0.554700	0.820690	0.429180
H1751	H175	0.598400	0.831200	0.427900
C1961	C196	0.589650	0.832110	0.656020
H1761	H176	0.635500	0.845000	0.669500
C1971	C197	0.973100	0.648600	0.211100
C1981	C198	0.766450	0.728860	0.217320
C1991	C199	0.507200	0.751460	0.489950
C2001	C200	0.518930	0.753930	0.584720
O251	O25	0.917240	0.654520	0.179480
O261	O26	0.768780	0.722910	0.184740
O271	O27	0.446400	0.740220	0.491550
O281	O28	0.581290	0.745070	0.584200
O291	O29	0.981460	0.660790	0.243950
O301	O30	0.814050	0.717140	0.249820
O311	O31	0.572950	0.740320	0.510580
O321	O32	0.456760	0.738550	0.566150
Cu131	Cu13	0.903590	0.810720	0.752970
C2011	C201	0.324520	0.011540	0.690150
H1771	H177	0.284300	0.029300	0.675800
H1781	H178	0.352400	0.005900	0.674000
C2021	C202	0.328660	0.644100	0.669100
H1791	H179	0.307600	0.656400	0.643500
H1801	H180	0.329900	0.617500	0.664500
C2031	C203	0.512100	0.566130	0.820530
H1811	H181	0.550200	0.552400	0.842300
H1821	H182	0.535100	0.573100	0.802500
C2041	C204	0.607160	0.580960	0.281510
H1831	H183	0.616900	0.554700	0.279100
H1841	H184	0.656500	0.593300	0.294800
Cu141	Cu14	0.837990	0.811240	0.676610
Cu151	Cu15	0.593070	0.794860	0.052840
Cu161	Cu16	0.445060	0.799100	0.026910
Cu171	Cu17	0.452110	0.543330	0.237780
Cu181	Cu18	0.394990	0.607820	0.750780
N331	N33	0.375520	0.027450	0.726520
N341	N34	0.280080	0.651050	0.689030
N351	N35	0.447510	0.543200	0.800590
N361	N36	0.563510	0.584820	0.305010
N371	N37	0.445080	0.011440	0.745930
N381	N38	0.288590	0.629740	0.720210
N391	N39	0.394930	0.554690	0.765720
N401	N40	0.497440	0.565910	0.293860
C2051	C205	0.477670	0.029510	0.779750
C2061	C206	0.234110	0.640290	0.730860
C2071	C207	0.340220	0.529480	0.754580
C2081	C208	0.475200	0.571400	0.322650
C2091	C209	0.426900	0.056500	0.782590
C2101	C210	0.189550	0.668130	0.706450
C2111	C211	0.358780	0.501520	0.782990
C2121	C212	0.526900	0.593080	0.352000
C2131	C213	0.363010	0.054380	0.747840
C2141	C214	0.221360	0.674680	0.679930
C2151	C215	0.428290	0.511230	0.811930
C2161	C216	0.583800	0.601350	0.340020
C2171	C217	0.555110	0.019970	0.807780
H1851	H185	0.590200	0.039300	0.807900
H1861	H186	0.556000	0.017500	0.833800
H1871	H187	0.570300	0.996800	0.800100
C2181	C218	0.225500	0.621190	0.764470
H1881	H188	0.245500	0.636900	0.787500
H1891	H189	0.171900	0.616300	0.757600
H1901	H190	0.253400	0.598100	0.770000
C2191	C219	0.272450	0.533940	0.717410
H1911	H191	0.276100	0.517400	0.697800
H1921	H192	0.227000	0.528100	0.721500
H1931	H193	0.269600	0.559200	0.708400
C2201	C220	0.403400	0.552870	0.319980
H1941	H194	0.391200	0.532600	0.301400
H1951	H195	0.410800	0.543400	0.345600
H1961	H196	0.361900	0.570600	0.311200
C2211	C221	0.292150	0.076290	0.731910
H1971	H197	0.252200	0.063200	0.736200
H1981	H198	0.300900	0.100100	0.745000
H1991	H199	0.276700	0.080000	0.704000
C2221	C222	0.202700	0.701900	0.647870
H2001	H200	0.179200	0.689400	0.622800
H2011	H201	0.167600	0.720100	0.650000
H2021	H202	0.249000	0.714100	0.649800
C2231	C223	0.478080	0.492500	0.848030
H2031	H203	0.467400	0.501400	0.869700
H2041	H204	0.469000	0.466100	0.845100
H2051	H205	0.530900	0.497500	0.853200
C2241	C224	0.650700	0.624100	0.357340
H2061	H206	0.649800	0.643100	0.338800
H2071	H207	0.651600	0.635600	0.381000
H2081	H208	0.695900	0.609000	0.363900
C2251	C225	0.438760	0.081010	0.815670
C2261	C226	0.124900	0.687580	0.708190
C2271	C227	0.315130	0.468240	0.782610
C2281	C228	0.522600	0.605680	0.388380
C2291	C229	0.510110	0.093970	0.839980
H2091	H209	0.552700	0.086800	0.835300
C2301	C230	0.125400	0.698480	0.743810
H2101	H210	0.165800	0.691200	0.767200
C2311	C231	0.268050	0.451450	0.747580
H2111	H211	0.262500	0.462000	0.723600
C2321	C232	0.455400	0.618330	0.388400
H2121	H212	0.410500	0.616900	0.365300
C2331	C233	0.520170	0.117030	0.870840
H2131	H213	0.569400	0.125100	0.887400
C2341	C234	0.067500	0.719850	0.745450
H2141	H214	0.068300	0.726900	0.769800
C2351	C235	0.229540	0.419570	0.747760
H2151	H215	0.197000	0.408700	0.723900
C2361	C236	0.452600	0.633210	0.422100
H2161	H216	0.405800	0.641100	0.421800
C2371	C237	0.458380	0.128420	0.877530
C2381	C238	0.008000	0.730990	0.710990
C2391	C239	0.238500	0.403440	0.783040
C2401	C240	0.518100	0.636320	0.455730
C2411	C241	0.386220	0.115500	0.853690
H2171	H217	0.343600	0.123100	0.858100
C2421	C242	0.005750	0.718710	0.675800
H2181	H218	0.964700	0.725300	0.652300
C2431	C243	0.282910	0.420000	0.817080
H2191	H219	0.288600	0.409100	0.840900
C2441	C244	0.586400	0.622680	0.456170
H2201	H220	0.631400	0.624200	0.479200
C2451	C245	0.377480	0.091670	0.823870
H2211	H221	0.328700	0.082200	0.808500
C2461	C246	0.062600	0.696980	0.674820
H2221	H222	0.059100	0.688100	0.650500
C2471	C247	0.320160	0.452700	0.817630
H2231	H223	0.348900	0.464500	0.841600
C2481	C248	0.587700	0.607240	0.423210
H2241	H224	0.633600	0.597400	0.424100
C2491	C249	0.467900	0.155360	0.909660
C2501	C250	0.951080	0.757900	0.712200
C2511	C251	0.199270	0.368080	0.783230
C2521	C252	0.517800	0.657480	0.489780
O331	O33	0.407150	0.169340	0.908790
O341	O34	0.952990	0.766330	0.745570
O351	O35	0.151590	0.356450	0.750800
O361	O36	0.582540	0.666140	0.515770
O371	O37	0.534120	0.162590	0.933400
O381	O38	0.907510	0.771370	0.680110
O391	O39	0.217880	0.352670	0.815670
O401	O40	0.453600	0.666000	0.489080
N411	N41	0.290970	0.978410	0.696940
N421	N42	0.404650	0.657030	0.691250
N431	N43	0.490670	0.598990	0.835420
N441	N44	0.568380	0.596360	0.243180
N451	N45	0.337250	0.949280	0.712130
N461	N46	0.446980	0.639870	0.724940
N471	N47	0.443590	0.623000	0.808640
N481	N48	0.506020	0.578700	0.217050
C2531	C253	0.293300	0.923280	0.716750
C2541	C254	0.514160	0.656280	0.738250
C2551	C255	0.436200	0.650750	0.829770
C2561	C256	0.481360	0.599220	0.184630
C2571	C257	0.218730	0.935970	0.704410
C2581	C258	0.514760	0.683540	0.712220
C2591	C259	0.477200	0.644330	0.869260
C2601	C260	0.530040	0.629660	0.190340
C2611	C261	0.219690	0.971420	0.692070
C2621	C262	0.444410	0.683460	0.682520
C2631	C263	0.512300	0.610760	0.872280
C2641	C264	0.583750	0.627500	0.228070
C2651	C265	0.325700	0.885960	0.731760
H2251	H225	0.337000	0.884300	0.759500
H2261	H226	0.289000	0.867100	0.717600
H2271	H227	0.372200	0.882400	0.727900
C2661	C266	0.577100	0.644280	0.775660
H2281	H228	0.577300	0.617600	0.777400
H2291	H229	0.625500	0.652600	0.776300
H2301	H230	0.569500	0.654900	0.797600
C2671	C267	0.389200	0.683370	0.809680
H2311	H231	0.337900	0.680400	0.808300
H2321	H232	0.411900	0.705600	0.824300
H2331	H233	0.387100	0.685300	0.783400
C2681	C268	0.413010	0.589020	0.150040
H2341	H234	0.370300	0.604000	0.149000
H2351	H235	0.421800	0.593200	0.126600
H2361	H236	0.401600	0.563100	0.151600
C2691	C269	0.157300	0.999220	0.675730
H2371	H237	0.142600	0.001700	0.647700
H2381	H238	0.113600	0.991200	0.680400
H2391	H239	0.175000	0.022900	0.688400
C2701	C270	0.409710	0.706680	0.646190
H2401	H240	0.360800	0.716100	0.643800
H2411	H241	0.443400	0.727200	0.647900
H2421	H242	0.402500	0.691800	0.623400
C2711	C271	0.562500	0.589240	0.906650
H2431	H243	0.614200	0.589800	0.908400
H2441	H244	0.561500	0.599800	0.930300
H2451	H245	0.544900	0.563900	0.903900
C2721	C272	0.646180	0.652730	0.251010
H2461	H246	0.694100	0.639300	0.261100
H2471	H247	0.648700	0.672700	0.234300
H2481	H248	0.636900	0.662700	0.272700
C2731	C273	0.154430	0.915480	0.705660
C2741	C274	0.580000	0.706230	0.714490
C2751	C275	0.485200	0.669420	0.901920
C2761	C276	0.524680	0.658220	0.161640
C2771	C277	0.086600	0.911300	0.673260
H2491	H249	0.080000	0.922900	0.649600
C2781	C278	0.597230	0.709440	0.682030
H2501	H250	0.567100	0.697000	0.658700
C2791	C279	0.422500	0.684580	0.904450
H2511	H251	0.373800	0.677500	0.886300
C2801	C280	0.457170	0.676510	0.140620
H2521	H252	0.412600	0.669900	0.143700
C2811	C281	0.028900	0.890590	0.674960
H2531	H253	0.983900	0.887100	0.652200
C2821	C282	0.657230	0.730450	0.683390
H2541	H254	0.667100	0.732700	0.660800
C2831	C283	0.428900	0.710350	0.933290
H2551	H255	0.385000	0.720900	0.934300
C2841	C284	0.455010	0.704500	0.114990
H2561	H256	0.408800	0.716700	0.100500
C2851	C285	0.035830	0.874830	0.709720
C2861	C286	0.702650	0.748070	0.716760
C2871	C287	0.499300	0.720150	0.960030
C2881	C288	0.519830	0.714620	0.110610
C2891	C289	0.101500	0.879280	0.742290
H2571	H257	0.106500	0.869000	0.766300
C2901	C290	0.687900	0.744870	0.750020
H2581	H258	0.719300	0.756900	0.773400
C2911	C291	0.563700	0.704310	0.958750
H2591	H259	0.612600	0.710400	0.977600
C2921	C292	0.587570	0.696050	0.130950
H2601	H260	0.631900	0.702700	0.127600
C2931	C293	0.161000	0.898990	0.739950
H2611	H261	0.207000	0.901200	0.762400
C2941	C294	0.626840	0.723970	0.748500
H2621	H262	0.616900	0.721800	0.771100
C2951	C295	0.554700	0.679310	0.929180
H2631	H263	0.598400	0.668800	0.927900
C2961	C296	0.589650	0.667890	0.156020
H2641	H264	0.635500	0.655000	0.169500
C2971	C297	0.973100	0.851400	0.711100
C2981	C298	0.766450	0.771140	0.717320
C2991	C299	0.507200	0.748540	0.989950
C3001	C300	0.518930	0.746070	0.084720
O411	O41	0.917240	0.845480	0.679480
O421	O42	0.768780	0.777090	0.684740
O431	O43	0.446400	0.759780	0.991550
O441	O44	0.581290	0.754930	0.084200
O451	O45	0.981460	0.839210	0.743950
O461	O46	0.814050	0.782860	0.749820
O471	O47	0.572950	0.759680	0.010580
O481	O48	0.456760	0.761450	0.066150
Cu191	Cu19	0.096410	0.310720	0.747030
C3011	C301	0.675480	0.511540	0.809850
H2651	H265	0.715700	0.529300	0.824200
H2661	H266	0.647600	0.505900	0.826000
C3021	C302	0.671340	0.144100	0.830900
H2671	H267	0.692400	0.156400	0.856500
H2681	H268	0.670100	0.117500	0.835500
C3031	C303	0.487900	0.066130	0.679470
H2691	H269	0.449800	0.052400	0.657700
H2701	H270	0.464900	0.073100	0.697500
C3041	C304	0.392840	0.080960	0.218490
H2711	H271	0.383100	0.054700	0.220900
H2721	H272	0.343500	0.093300	0.205200
Cu201	Cu20	0.162010	0.311240	0.823390
Cu211	Cu21	0.406930	0.294860	0.447160
Cu221	Cu22	0.554940	0.299100	0.473090
Cu231	Cu23	0.547890	0.043330	0.262220
Cu241	Cu24	0.605010	0.107820	0.749220
N491	N49	0.624480	0.527450	0.773480
N501	N50	0.719920	0.151050	0.810970
N511	N51	0.552490	0.043200	0.699410
N521	N52	0.436490	0.084820	0.194990
N531	N53	0.554920	0.511440	0.754070
N541	N54	0.711410	0.129740	0.779790
N551	N55	0.605070	0.054690	0.734280
N561	N56	0.502560	0.065910	0.206140
C3051	C305	0.522330	0.529510	0.720250
C3061	C306	0.765890	0.140290	0.769140
C3071	C307	0.659780	0.029480	0.745420
C3081	C308	0.524800	0.071400	0.177350
C3091	C309	0.573100	0.556500	0.717410
C3101	C310	0.810450	0.168130	0.793550
C3111	C311	0.641220	0.001520	0.717010
C3121	C312	0.473100	0.093080	0.148000
C3131	C313	0.636990	0.554380	0.752160
C3141	C314	0.778640	0.174680	0.820070
C3151	C315	0.571710	0.011230	0.688070
C3161	C316	0.416200	0.101350	0.159980
C3171	C317	0.444890	0.519970	0.692220
H2731	H273	0.409800	0.539300	0.692100
H2741	H274	0.444000	0.517500	0.666200
H2751	H275	0.429700	0.496800	0.699900
C3181	C318	0.774500	0.121190	0.735530
H2761	H276	0.754500	0.136900	0.712500
H2771	H277	0.828100	0.116300	0.742400
H2781	H278	0.746600	0.098100	0.730000
C3191	C319	0.727550	0.033940	0.782590
H2791	H279	0.723900	0.017400	0.802200
H2801	H280	0.773000	0.028100	0.778500
H2811	H281	0.730400	0.059200	0.791600
C3201	C320	0.596600	0.052870	0.180020
H2821	H282	0.608800	0.032600	0.198600
H2831	H283	0.589200	0.043400	0.154400
H2841	H284	0.638100	0.070600	0.188800
C3211	C321	0.707850	0.576290	0.768090
H2851	H285	0.747800	0.563200	0.763800
H2861	H286	0.699100	0.600100	0.755000
H2871	H287	0.723300	0.580000	0.796000
C3221	C322	0.797300	0.201900	0.852130
H2881	H288	0.820800	0.189400	0.877200
H2891	H289	0.832400	0.220100	0.850000
H2901	H290	0.751000	0.214100	0.850200
C3231	C323	0.521920	0.992500	0.651970
H2911	H291	0.532600	0.001400	0.630300
H2921	H292	0.531000	0.966100	0.654900
H2931	H293	0.469100	0.997500	0.646800
C3241	C324	0.349300	0.124100	0.142660
H2941	H294	0.350200	0.143100	0.161200
H2951	H295	0.348400	0.135600	0.119000
H2961	H296	0.304100	0.109000	0.136100
C3251	C325	0.561240	0.581010	0.684330
C3261	C326	0.875100	0.187580	0.791810
C3271	C327	0.684870	0.968240	0.717390
C3281	C328	0.477400	0.105680	0.111620
C3291	C329	0.489890	0.593970	0.660020
H2971	H297	0.447300	0.586800	0.664700
C3301	C330	0.874600	0.198480	0.756190
H2981	H298	0.834200	0.191200	0.732800
C3311	C331	0.731950	0.951450	0.752420
H2991	H299	0.737500	0.962000	0.776400
C3321	C332	0.544600	0.118330	0.111600
H3001	H300	0.589500	0.116900	0.134700
C3331	C333	0.479830	0.617030	0.629160
H3011	H301	0.430600	0.625100	0.612600
C3341	C334	0.932500	0.219850	0.754550
H3021	H302	0.931700	0.226900	0.730200
C3351	C335	0.770460	0.919570	0.752240
H3031	H303	0.803000	0.908700	0.776100
C3361	C336	0.547400	0.133210	0.077900
H3041	H304	0.594200	0.141100	0.078200
C3371	C337	0.541620	0.628420	0.622470
C3381	C338	0.992000	0.230990	0.789010
C3391	C339	0.761500	0.903440	0.716960
C3401	C340	0.481900	0.136320	0.044270
C3411	C341	0.613780	0.615500	0.646310
H3051	H305	0.656400	0.623100	0.641900
C3421	C342	0.994250	0.218710	0.824200
H3061	H306	0.035300	0.225300	0.847700
C3431	C343	0.717090	0.920000	0.682920
H3071	H307	0.711400	0.909100	0.659100
C3441	C344	0.413600	0.122680	0.043830
H3081	H308	0.368600	0.124200	0.020800
C3451	C345	0.622520	0.591670	0.676130
H3091	H309	0.671300	0.582200	0.691500
C3461	C346	0.937400	0.196980	0.825180
H3101	H310	0.940900	0.188100	0.849500
C3471	C347	0.679840	0.952700	0.682370
H3111	H311	0.651100	0.964500	0.658400
C3481	C348	0.412300	0.107240	0.076790
H3121	H312	0.366400	0.097400	0.075900
C3491	C349	0.532100	0.655360	0.590340
C3501	C350	0.048920	0.257900	0.787800
C3511	C351	0.800730	0.868080	0.716770
C3521	C352	0.482200	0.157480	0.010220
O491	O49	0.592850	0.669340	0.591210
O501	O50	0.047010	0.266330	0.754430
O511	O51	0.848410	0.856450	0.749200
O521	O52	0.417460	0.166140	0.984230
O531	O53	0.465880	0.662590	0.566600
O541	O54	0.092490	0.271370	0.819890
O551	O55	0.782120	0.852670	0.684330
O561	O56	0.546400	0.166000	0.010920
N571	N57	0.709030	0.478410	0.803060
N581	N58	0.595350	0.157030	0.808750
N591	N59	0.509330	0.098990	0.664580
N601	N60	0.431620	0.096360	0.256820
N611	N61	0.662750	0.449280	0.787870
N621	N62	0.553020	0.139870	0.775060
N631	N63	0.556410	0.123000	0.691360
N641	N64	0.493980	0.078700	0.282950
C3531	C353	0.706700	0.423280	0.783250
C3541	C354	0.485840	0.156280	0.761750
C3551	C355	0.563800	0.150750	0.670230
C3561	C356	0.518640	0.099220	0.315370
C3571	C357	0.781270	0.435970	0.795590
C3581	C358	0.485240	0.183540	0.787780
C3591	C359	0.522800	0.144330	0.630740
C3601	C360	0.469960	0.129660	0.309660
C3611	C361	0.780310	0.471420	0.807930
C3621	C362	0.555590	0.183460	0.817480
C3631	C363	0.487700	0.110760	0.627720
C3641	C364	0.416250	0.127500	0.271930
C3651	C365	0.674300	0.385960	0.768240
H3131	H313	0.663000	0.384300	0.740500
H3141	H314	0.711000	0.367100	0.782400
H3151	H315	0.627800	0.382400	0.772100
C3661	C366	0.422900	0.144280	0.724340
H3161	H316	0.422700	0.117600	0.722600
H3171	H317	0.374500	0.152600	0.723700
H3181	H318	0.430500	0.154900	0.702400
C3671	C367	0.610800	0.183370	0.690320
H3191	H319	0.662100	0.180400	0.691700
H3201	H320	0.588100	0.205600	0.675700
H3211	H321	0.612900	0.185300	0.716600
C3681	C368	0.586990	0.089020	0.349960
H3221	H322	0.629700	0.104000	0.351000
H3231	H323	0.578200	0.093200	0.373400
H3241	H324	0.598400	0.063100	0.348400
C3691	C369	0.842700	0.499220	0.824270
H3251	H325	0.857400	0.501700	0.852300
H3261	H326	0.886400	0.491200	0.819600
H3271	H327	0.825000	0.522900	0.811600
C3701	C370	0.590290	0.206680	0.853810
H3281	H328	0.639200	0.216100	0.856200
H3291	H329	0.556600	0.227200	0.852100
H3301	H330	0.597500	0.191800	0.876600
C3711	C371	0.437500	0.089240	0.593350
H3311	H331	0.385800	0.089800	0.591600
H3321	H332	0.438500	0.099800	0.569700
H3331	H333	0.455100	0.063900	0.596100
C3721	C372	0.353820	0.152730	0.248990
H3341	H334	0.305900	0.139300	0.238900
H3351	H335	0.351300	0.172700	0.265700
H3361	H336	0.363100	0.162700	0.227300
C3731	C373	0.845570	0.415480	0.794340
C3741	C374	0.420000	0.206230	0.785510
C3751	C375	0.514800	0.169420	0.598080
C3761	C376	0.475320	0.158220	0.338360
C3771	C377	0.913400	0.411300	0.826740
H3371	H337	0.920000	0.422900	0.850400
C3781	C378	0.402770	0.209440	0.817970
H3381	H338	0.432900	0.197000	0.841300
C3791	C379	0.577500	0.184580	0.595550
H3391	H339	0.626200	0.177500	0.613700
C3801	C380	0.542830	0.176510	0.359380
H3401	H340	0.587400	0.169900	0.356300
C3811	C381	0.971100	0.390590	0.825040
H3411	H341	0.016100	0.387100	0.847800
C3821	C382	0.342770	0.230450	0.816610
H3421	H342	0.332900	0.232700	0.839200
C3831	C383	0.571100	0.210350	0.566710
H3431	H343	0.615000	0.220900	0.565700
C3841	C384	0.544990	0.204500	0.385010
H3441	H344	0.591200	0.216700	0.399500
C3851	C385	0.964170	0.374830	0.790280
C3861	C386	0.297350	0.248070	0.783240
C3871	C387	0.500700	0.220150	0.539970
C3881	C388	0.480170	0.214620	0.389390
C3891	C389	0.898500	0.379280	0.757710
H3451	H345	0.893500	0.369000	0.733700
C3901	C390	0.312100	0.244870	0.749980
H3461	H346	0.280700	0.256900	0.726600
C3911	C391	0.436300	0.204310	0.541250
H3471	H347	0.387400	0.210400	0.522400
C3921	C392	0.412430	0.196050	0.369050
H3481	H348	0.368100	0.202700	0.372400
C3931	C393	0.839000	0.398990	0.760050
H3491	H349	0.793000	0.401200	0.737600
C3941	C394	0.373160	0.223970	0.751500
H3501	H350	0.383100	0.221800	0.728900
C3951	C395	0.445300	0.179310	0.570820
H3511	H351	0.401600	0.168800	0.572100
C3961	C396	0.410350	0.167890	0.343980
H3521	H352	0.364500	0.155000	0.330500
C3971	C397	0.026900	0.351400	0.788900
C3981	C398	0.233550	0.271140	0.782680
C3991	C399	0.492800	0.248540	0.510050
C4001	C400	0.481070	0.246070	0.415280
O571	O57	0.082760	0.345480	0.820520
O581	O58	0.231220	0.277090	0.815260
O591	O59	0.553600	0.259780	0.508450
O601	O60	0.418710	0.254930	0.415800
O611	O61	0.018540	0.339210	0.756050
O621	O62	0.185950	0.282860	0.750180
O631	O63	0.427050	0.259680	0.489420
O641	O64	0.543240	0.261450	0.433850
