data_AGONAM_clean_PM
_symmetry_space_group_name_H-M	'P1'
_cell_length_a	7.910500
_cell_length_b	11.128000
_cell_length_c	19.441000
_cell_angle_alpha	90.000000
_cell_angle_beta	101.061000
_cell_angle_gamma	90.000000
_symmetry_Int_Tables_number 1

loop_
_symmetry_equiv_pos_as_xyz
'x,y,z'

loop_
_atom_site_label
_atom_site_type_symbol
_atom_site_fract_x
_atom_site_fract_y
_atom_site_fract_z
Cd11	Cd1	0.852450	0.996280	0.076970
O11	O1	0.943400	0.171240	0.139620
O21	O2	0.023700	0.000530	0.192970
O31	O3	0.363300	0.107100	0.183640
H11	H1	0.439300	0.070500	0.169000
O41	O4	0.546400	0.091800	0.284570
O51	O5	0.455700	0.384650	0.466300
O61	O6	0.191500	0.410110	0.484440
O71	O7	0.905900	0.492490	0.369900
O81	O8	0.811200	0.327220	0.411700
C11	C1	0.098500	0.181800	0.256800
C21	C2	0.276100	0.183200	0.284740
C31	C3	0.334700	0.246400	0.346080
H21	H2	0.452100	0.247100	0.364800
C41	C4	0.223500	0.308800	0.380440
C51	C5	0.046900	0.308400	0.352200
C61	C6	0.986500	0.244100	0.291390
H31	H3	0.868900	0.242400	0.273300
C71	C7	0.019300	0.111600	0.192320
C81	C8	0.408600	0.121600	0.251530
C91	C9	0.295500	0.373200	0.447540
C101	C10	0.915400	0.380800	0.381450
Cd21	Cd2	0.647550	0.496280	0.423030
O91	O9	0.556600	0.671240	0.360380
O101	O10	0.476300	0.500530	0.307030
O111	O11	0.136700	0.607100	0.316360
H41	H4	0.060700	0.570500	0.331000
O121	O12	0.953600	0.591800	0.215430
O131	O13	0.044300	0.884650	0.033700
O141	O14	0.308500	0.910110	0.015560
O151	O15	0.594100	0.992490	0.130100
O161	O16	0.688800	0.827220	0.088300
C111	C11	0.401500	0.681800	0.243200
C121	C12	0.223900	0.683200	0.215260
C131	C13	0.165300	0.746400	0.153920
H51	H5	0.047900	0.747100	0.135200
C141	C14	0.276500	0.808800	0.119560
C151	C15	0.453100	0.808400	0.147800
C161	C16	0.513500	0.744100	0.208610
H61	H6	0.631100	0.742400	0.226700
C171	C17	0.480700	0.611600	0.307680
C181	C18	0.091400	0.621600	0.248470
C191	C19	0.204500	0.873200	0.052460
C201	C20	0.584600	0.880800	0.118550
Cd31	Cd3	0.147550	0.003720	0.923030
O171	O17	0.056600	0.828760	0.860380
O181	O18	0.976300	0.999470	0.807030
O191	O19	0.636700	0.892900	0.816360
H71	H7	0.560700	0.929500	0.831000
O201	O20	0.453600	0.908200	0.715430
O211	O21	0.544300	0.615350	0.533700
O221	O22	0.808500	0.589890	0.515560
O231	O23	0.094100	0.507510	0.630100
O241	O24	0.188800	0.672780	0.588300
C211	C21	0.901500	0.818200	0.743200
C221	C22	0.723900	0.816800	0.715260
C231	C23	0.665300	0.753600	0.653920
H81	H8	0.547900	0.752900	0.635200
C241	C24	0.776500	0.691200	0.619560
C251	C25	0.953100	0.691600	0.647800
C261	C26	0.013500	0.755900	0.708610
H91	H9	0.131100	0.757600	0.726700
C271	C27	0.980700	0.888400	0.807680
C281	C28	0.591400	0.878400	0.748470
C291	C29	0.704500	0.626800	0.552460
C301	C30	0.084600	0.619200	0.618550
Cd41	Cd4	0.352450	0.503720	0.576970
O251	O25	0.443400	0.328760	0.639620
O261	O26	0.523700	0.499470	0.692970
O271	O27	0.863300	0.392900	0.683640
H101	H10	0.939300	0.429500	0.669000
O281	O28	0.046400	0.408200	0.784570
O291	O29	0.955700	0.115350	0.966300
O301	O30	0.691500	0.089890	0.984440
O311	O31	0.405900	0.007510	0.869900
O321	O32	0.311200	0.172780	0.911700
C311	C31	0.598500	0.318200	0.756800
C321	C32	0.776100	0.316800	0.784740
C331	C33	0.834700	0.253600	0.846080
H111	H11	0.952100	0.252900	0.864800
C341	C34	0.723500	0.191200	0.880440
C351	C35	0.546900	0.191600	0.852200
C361	C36	0.486500	0.255900	0.791390
H121	H12	0.368900	0.257600	0.773300
C371	C37	0.519300	0.388400	0.692320
C381	C38	0.908600	0.378400	0.751530
C391	C39	0.795500	0.126800	0.947540
C401	C40	0.415400	0.119200	0.881450
