data_AGOVOJ_clean_PM
_symmetry_space_group_name_H-M	'P1'
_cell_length_a	29.050500
_cell_length_b	29.050500
_cell_length_c	28.796700
_cell_angle_alpha	90.000000
_cell_angle_beta	90.000000
_cell_angle_gamma	90.000000
_symmetry_Int_Tables_number 1

loop_
_symmetry_equiv_pos_as_xyz
'x,y,z'

loop_
_atom_site_label
_atom_site_type_symbol
_atom_site_fract_x
_atom_site_fract_y
_atom_site_fract_z
In11	In1	0.209100	0.790890	0.384550
In21	In2	0.203880	0.881380	0.303230
In31	In3	0.118730	0.796090	0.303210
O11	O1	0.177200	0.822200	0.330200
O21	O2	0.200700	0.723600	0.355100
O31	O3	0.147000	0.727600	0.298100
O41	O4	0.272800	0.852400	0.298500
O51	O5	0.218300	0.853500	0.422800
O61	O6	0.218600	0.147900	0.578000
O71	O7	0.276000	0.799900	0.354900
O81	O8	0.358900	0.695100	0.732600
N11	N1	0.242600	0.757600	0.442500
O91	O9	0.305100	0.640000	0.731800
O101	O10	0.219000	0.909000	0.370600
O111	O11	0.220300	0.090700	0.629200
C11	C1	0.221800	0.895400	0.411500
N21	N2	0.266300	0.446000	0.224800
C21	C2	0.190200	0.661700	0.306700
C31	C3	0.179000	0.708000	0.321300
C41	C4	0.338900	0.810200	0.307600
C51	C5	0.293400	0.823200	0.321600
C61	C6	0.426700	0.782200	0.276800
N31	N3	0.554100	0.733200	0.222600
C71	C7	0.226100	0.070600	0.552000
C81	C8	0.225500	0.928500	0.448000
C91	C9	0.245800	0.700000	0.501800
C101	C10	0.297800	0.757300	0.505400
C111	C11	0.280700	0.776200	0.463100
C121	C12	0.365800	0.782100	0.334300
C131	C13	0.327600	0.673500	0.712600
C141	C14	0.213400	0.630100	0.335300
C151	C15	0.410800	0.771800	0.320200
C161	C16	0.223400	0.718900	0.464400
C171	C17	0.222900	0.106100	0.589000
C181	C18	0.294800	0.705100	0.574700
C191	C19	0.216000	0.573200	0.278600
C201	C20	0.282800	0.661400	0.641500
C211	C21	0.317600	0.681700	0.666000
C221	C22	0.228000	0.005400	0.478500
C231	C23	0.274600	0.723000	0.528300
C241	C24	0.337500	0.716600	0.640600
C251	C25	0.229200	0.026200	0.557200
C261	C26	0.229700	0.993200	0.522200
C271	C27	0.227300	0.974100	0.442700
C281	C28	0.229400	0.589300	0.318800
C291	C29	0.358100	0.825100	0.268100
C301	C30	0.178400	0.646500	0.264700
C311	C31	0.332100	0.726900	0.596100
C321	C32	0.270100	0.672100	0.598300
C331	C33	0.241900	0.527200	0.260900
C341	C34	0.187900	0.599500	0.251600
C351	C35	0.225000	0.087000	0.508700
C361	C36	0.400800	0.810900	0.251200
C371	C37	0.242000	0.045000	0.468100
C381	C38	0.227000	0.910900	0.491500
C391	C39	0.230000	0.949600	0.531100
C401	C40	0.469100	0.761800	0.256800
C411	C41	0.521000	0.715600	0.208300
C421	C42	0.510600	0.766200	0.274800
C431	C43	0.230900	0.488600	0.278900
C441	C44	0.550700	0.757000	0.253000
C451	C45	0.273000	0.496000	0.212000
C461	C46	0.250300	0.446600	0.259200
C471	C47	0.470800	0.731000	0.214700
In41	In4	0.709100	0.290890	0.884550
In51	In5	0.703880	0.381380	0.803230
In61	In6	0.618730	0.296090	0.803210
O121	O12	0.677200	0.322200	0.830200
O131	O13	0.700700	0.223600	0.855100
O141	O14	0.647000	0.227600	0.798100
O151	O15	0.772800	0.352400	0.798500
O161	O16	0.718300	0.353500	0.922800
O171	O17	0.718600	0.647900	0.078000
O181	O18	0.776000	0.299900	0.854900
O191	O19	0.858900	0.195100	0.232600
N41	N4	0.742600	0.257600	0.942500
O201	O20	0.805100	0.140000	0.231800
O211	O21	0.719000	0.409000	0.870600
O221	O22	0.720300	0.590700	0.129200
C481	C48	0.721800	0.395400	0.911500
N51	N5	0.766300	0.946000	0.724800
C491	C49	0.690200	0.161700	0.806700
C501	C50	0.679000	0.208000	0.821300
C511	C51	0.838900	0.310200	0.807600
C521	C52	0.793400	0.323200	0.821600
C531	C53	0.926700	0.282200	0.776800
N61	N6	0.054100	0.233200	0.722600
C541	C54	0.726100	0.570600	0.052000
C551	C55	0.725500	0.428500	0.948000
C561	C56	0.745800	0.200000	0.001800
C571	C57	0.797800	0.257300	0.005400
C581	C58	0.780700	0.276200	0.963100
C591	C59	0.865800	0.282100	0.834300
C601	C60	0.827600	0.173500	0.212600
C611	C61	0.713400	0.130100	0.835300
C621	C62	0.910800	0.271800	0.820200
C631	C63	0.723400	0.218900	0.964400
C641	C64	0.722900	0.606100	0.089000
C651	C65	0.794800	0.205100	0.074700
C661	C66	0.716000	0.073200	0.778600
C671	C67	0.782800	0.161400	0.141500
C681	C68	0.817600	0.181700	0.166000
C691	C69	0.728000	0.505400	0.978500
C701	C70	0.774600	0.223000	0.028300
C711	C71	0.837500	0.216600	0.140600
C721	C72	0.729200	0.526200	0.057200
C731	C73	0.729700	0.493200	0.022200
C741	C74	0.727300	0.474100	0.942700
C751	C75	0.729400	0.089300	0.818800
C761	C76	0.858100	0.325100	0.768100
C771	C77	0.678400	0.146500	0.764700
C781	C78	0.832100	0.226900	0.096100
C791	C79	0.770100	0.172100	0.098300
C801	C80	0.741900	0.027200	0.760900
C811	C81	0.687900	0.099500	0.751600
C821	C82	0.725000	0.587000	0.008700
C831	C83	0.900800	0.310900	0.751200
C841	C84	0.742000	0.545000	0.968100
C851	C85	0.727000	0.410900	0.991500
C861	C86	0.730000	0.449600	0.031100
C871	C87	0.969100	0.261800	0.756800
C881	C88	0.021000	0.215600	0.708300
C891	C89	0.010600	0.266200	0.774800
C901	C90	0.730900	0.988600	0.778900
C911	C91	0.050700	0.257000	0.753000
C921	C92	0.773000	0.996000	0.712000
C931	C93	0.750300	0.946600	0.759200
C941	C94	0.970800	0.231000	0.714700
In71	In7	0.790900	0.209110	0.384550
In81	In8	0.796120	0.118620	0.303230
In91	In9	0.881270	0.203910	0.303210
O231	O23	0.822800	0.177800	0.330200
O241	O24	0.799300	0.276400	0.355100
O251	O25	0.853000	0.272400	0.298100
O261	O26	0.727200	0.147600	0.298500
O271	O27	0.781700	0.146500	0.422800
O281	O28	0.781400	0.852100	0.578000
O291	O29	0.724000	0.200100	0.354900
O301	O30	0.641100	0.304900	0.732600
N71	N7	0.757400	0.242400	0.442500
O311	O31	0.694900	0.360000	0.731800
O321	O32	0.781000	0.091000	0.370600
O331	O33	0.779700	0.909300	0.629200
C951	C95	0.778200	0.104600	0.411500
N81	N8	0.733700	0.554000	0.224800
C961	C96	0.809800	0.338300	0.306700
C971	C97	0.821000	0.292000	0.321300
C981	C98	0.661100	0.189800	0.307600
C991	C99	0.706600	0.176800	0.321600
C1001	C100	0.573300	0.217800	0.276800
N91	N9	0.445900	0.266800	0.222600
C1011	C101	0.773900	0.929400	0.552000
C1021	C102	0.774500	0.071500	0.448000
C1031	C103	0.754200	0.300000	0.501800
C1041	C104	0.702200	0.242700	0.505400
C1051	C105	0.719300	0.223800	0.463100
C1061	C106	0.634200	0.217900	0.334300
C1071	C107	0.672400	0.326500	0.712600
C1081	C108	0.786600	0.369900	0.335300
C1091	C109	0.589200	0.228200	0.320200
C1101	C110	0.776600	0.281100	0.464400
C1111	C111	0.777100	0.893900	0.589000
C1121	C112	0.705200	0.294900	0.574700
C1131	C113	0.784000	0.426800	0.278600
C1141	C114	0.717200	0.338600	0.641500
C1151	C115	0.682400	0.318300	0.666000
C1161	C116	0.772000	0.994600	0.478500
C1171	C117	0.725400	0.277000	0.528300
C1181	C118	0.662500	0.283400	0.640600
C1191	C119	0.770800	0.973800	0.557200
C1201	C120	0.770300	0.006800	0.522200
C1211	C121	0.772700	0.025900	0.442700
C1221	C122	0.770600	0.410700	0.318800
C1231	C123	0.641900	0.174900	0.268100
C1241	C124	0.821600	0.353500	0.264700
C1251	C125	0.667900	0.273100	0.596100
C1261	C126	0.729900	0.327900	0.598300
C1271	C127	0.758100	0.472800	0.260900
C1281	C128	0.812100	0.400500	0.251600
C1291	C129	0.775000	0.913000	0.508700
C1301	C130	0.599200	0.189100	0.251200
C1311	C131	0.758000	0.955000	0.468100
C1321	C132	0.773000	0.089100	0.491500
C1331	C133	0.770000	0.050400	0.531100
C1341	C134	0.530900	0.238200	0.256800
C1351	C135	0.479000	0.284400	0.208300
C1361	C136	0.489400	0.233800	0.274800
C1371	C137	0.769100	0.511400	0.278900
C1381	C138	0.449300	0.243000	0.253000
C1391	C139	0.727000	0.504000	0.212000
C1401	C140	0.749700	0.553400	0.259200
C1411	C141	0.529200	0.269000	0.214700
In101	In10	0.290900	0.709110	0.884550
In111	In11	0.296120	0.618620	0.803230
In121	In12	0.381270	0.703910	0.803210
O341	O34	0.322800	0.677800	0.830200
O351	O35	0.299300	0.776400	0.855100
O361	O36	0.353000	0.772400	0.798100
O371	O37	0.227200	0.647600	0.798500
O381	O38	0.281700	0.646500	0.922800
O391	O39	0.281400	0.352100	0.078000
O401	O40	0.224000	0.700100	0.854900
O411	O41	0.141100	0.804900	0.232600
N101	N10	0.257400	0.742400	0.942500
O421	O42	0.194900	0.860000	0.231800
O431	O43	0.281000	0.591000	0.870600
O441	O44	0.279700	0.409300	0.129200
C1421	C142	0.278200	0.604600	0.911500
N111	N11	0.233700	0.054000	0.724800
C1431	C143	0.309800	0.838300	0.806700
C1441	C144	0.321000	0.792000	0.821300
C1451	C145	0.161100	0.689800	0.807600
C1461	C146	0.206600	0.676800	0.821600
C1471	C147	0.073300	0.717800	0.776800
N121	N12	0.945900	0.766800	0.722600
C1481	C148	0.273900	0.429400	0.052000
C1491	C149	0.274500	0.571500	0.948000
C1501	C150	0.254200	0.800000	0.001800
C1511	C151	0.202200	0.742700	0.005400
C1521	C152	0.219300	0.723800	0.963100
C1531	C153	0.134200	0.717900	0.834300
C1541	C154	0.172400	0.826500	0.212600
C1551	C155	0.286600	0.869900	0.835300
C1561	C156	0.089200	0.728200	0.820200
C1571	C157	0.276600	0.781100	0.964400
C1581	C158	0.277100	0.393900	0.089000
C1591	C159	0.205200	0.794900	0.074700
C1601	C160	0.284000	0.926800	0.778600
C1611	C161	0.217200	0.838600	0.141500
C1621	C162	0.182400	0.818300	0.166000
C1631	C163	0.272000	0.494600	0.978500
C1641	C164	0.225400	0.777000	0.028300
C1651	C165	0.162500	0.783400	0.140600
C1661	C166	0.270800	0.473800	0.057200
C1671	C167	0.270300	0.506800	0.022200
C1681	C168	0.272700	0.525900	0.942700
C1691	C169	0.270600	0.910700	0.818800
C1701	C170	0.141900	0.674900	0.768100
C1711	C171	0.321600	0.853500	0.764700
C1721	C172	0.167900	0.773100	0.096100
C1731	C173	0.229900	0.827900	0.098300
C1741	C174	0.258100	0.972800	0.760900
C1751	C175	0.312100	0.900500	0.751600
C1761	C176	0.275000	0.413000	0.008700
C1771	C177	0.099200	0.689100	0.751200
C1781	C178	0.258000	0.455000	0.968100
C1791	C179	0.273000	0.589100	0.991500
C1801	C180	0.270000	0.550400	0.031100
C1811	C181	0.030900	0.738200	0.756800
C1821	C182	0.979000	0.784400	0.708300
C1831	C183	0.989400	0.733800	0.774800
C1841	C184	0.269100	0.011400	0.778900
C1851	C185	0.949300	0.743000	0.753000
C1861	C186	0.227000	0.004000	0.712000
C1871	C187	0.249700	0.053400	0.759200
C1881	C188	0.029200	0.769000	0.714700
In131	In13	0.790890	0.790900	0.615450
In141	In14	0.881380	0.796120	0.696770
In151	In15	0.796090	0.881270	0.696790
O451	O45	0.822200	0.822800	0.669800
O461	O46	0.723600	0.799300	0.644900
O471	O47	0.727600	0.853000	0.701900
O481	O48	0.852400	0.727200	0.701500
O491	O49	0.853500	0.781700	0.577200
O501	O50	0.147900	0.781400	0.422000
O511	O51	0.799900	0.724000	0.645100
O521	O52	0.695100	0.641100	0.267400
N131	N13	0.757600	0.757400	0.557500
O531	O53	0.640000	0.694900	0.268200
O541	O54	0.909000	0.781000	0.629400
O551	O55	0.090700	0.779700	0.370800
C1891	C189	0.895400	0.778200	0.588500
N141	N14	0.446000	0.733700	0.775200
C1901	C190	0.661700	0.809800	0.693300
C1911	C191	0.708000	0.821000	0.678700
C1921	C192	0.810200	0.661100	0.692400
C1931	C193	0.823200	0.706600	0.678400
C1941	C194	0.782200	0.573300	0.723200
N151	N15	0.733200	0.445900	0.777400
C1951	C195	0.070600	0.773900	0.448000
C1961	C196	0.928500	0.774500	0.552000
C1971	C197	0.700000	0.754200	0.498200
C1981	C198	0.757300	0.702200	0.494600
C1991	C199	0.776200	0.719300	0.536900
C2001	C200	0.782100	0.634200	0.665700
C2011	C201	0.673500	0.672400	0.287400
C2021	C202	0.630100	0.786600	0.664700
C2031	C203	0.771800	0.589200	0.679800
C2041	C204	0.718900	0.776600	0.535600
C2051	C205	0.106100	0.777100	0.411000
C2061	C206	0.705100	0.705200	0.425300
C2071	C207	0.573200	0.784000	0.721400
C2081	C208	0.661400	0.717200	0.358500
C2091	C209	0.681700	0.682400	0.334000
C2101	C210	0.005400	0.772000	0.521500
C2111	C211	0.723000	0.725400	0.471700
C2121	C212	0.716600	0.662500	0.359400
C2131	C213	0.026200	0.770800	0.442800
C2141	C214	0.993200	0.770300	0.477800
C2151	C215	0.974100	0.772700	0.557300
C2161	C216	0.589300	0.770600	0.681200
C2171	C217	0.825100	0.641900	0.731900
C2181	C218	0.646500	0.821600	0.735300
C2191	C219	0.726900	0.667900	0.403900
C2201	C220	0.672100	0.729900	0.401700
C2211	C221	0.527200	0.758100	0.739100
C2221	C222	0.599500	0.812100	0.748400
C2231	C223	0.087000	0.775000	0.491300
C2241	C224	0.810900	0.599200	0.748800
C2251	C225	0.045000	0.758000	0.531900
C2261	C226	0.910900	0.773000	0.508500
C2271	C227	0.949600	0.770000	0.468900
C2281	C228	0.761800	0.530900	0.743200
C2291	C229	0.715600	0.479000	0.791700
C2301	C230	0.766200	0.489400	0.725200
C2311	C231	0.488600	0.769100	0.721100
C2321	C232	0.757000	0.449300	0.747000
C2331	C233	0.496000	0.727000	0.788000
C2341	C234	0.446600	0.749700	0.740800
C2351	C235	0.731000	0.529200	0.785300
In161	In16	0.290890	0.290900	0.115450
In171	In17	0.381380	0.296120	0.196770
In181	In18	0.296090	0.381270	0.196790
O561	O56	0.322200	0.322800	0.169800
O571	O57	0.223600	0.299300	0.144900
O581	O58	0.227600	0.353000	0.201900
O591	O59	0.352400	0.227200	0.201500
O601	O60	0.353500	0.281700	0.077200
O611	O61	0.647900	0.281400	0.922000
O621	O62	0.299900	0.224000	0.145100
O631	O63	0.195100	0.141100	0.767400
N161	N16	0.257600	0.257400	0.057500
O641	O64	0.140000	0.194900	0.768200
O651	O65	0.409000	0.281000	0.129400
O661	O66	0.590700	0.279700	0.870800
C2361	C236	0.395400	0.278200	0.088500
N171	N17	0.946000	0.233700	0.275200
C2371	C237	0.161700	0.309800	0.193300
C2381	C238	0.208000	0.321000	0.178700
C2391	C239	0.310200	0.161100	0.192400
C2401	C240	0.323200	0.206600	0.178400
C2411	C241	0.282200	0.073300	0.223200
N181	N18	0.233200	0.945900	0.277400
C2421	C242	0.570600	0.273900	0.948000
C2431	C243	0.428500	0.274500	0.052000
C2441	C244	0.200000	0.254200	0.998200
C2451	C245	0.257300	0.202200	0.994600
C2461	C246	0.276200	0.219300	0.036900
C2471	C247	0.282100	0.134200	0.165700
C2481	C248	0.173500	0.172400	0.787400
C2491	C249	0.130100	0.286600	0.164700
C2501	C250	0.271800	0.089200	0.179800
C2511	C251	0.218900	0.276600	0.035600
C2521	C252	0.606100	0.277100	0.911000
C2531	C253	0.205100	0.205200	0.925300
C2541	C254	0.073200	0.284000	0.221400
C2551	C255	0.161400	0.217200	0.858500
C2561	C256	0.181700	0.182400	0.834000
C2571	C257	0.505400	0.272000	0.021500
C2581	C258	0.223000	0.225400	0.971700
C2591	C259	0.216600	0.162500	0.859400
C2601	C260	0.526200	0.270800	0.942800
C2611	C261	0.493200	0.270300	0.977800
C2621	C262	0.474100	0.272700	0.057300
C2631	C263	0.089300	0.270600	0.181200
C2641	C264	0.325100	0.141900	0.231900
C2651	C265	0.146500	0.321600	0.235300
C2661	C266	0.226900	0.167900	0.903900
C2671	C267	0.172100	0.229900	0.901700
C2681	C268	0.027200	0.258100	0.239100
C2691	C269	0.099500	0.312100	0.248400
C2701	C270	0.587000	0.275000	0.991300
C2711	C271	0.310900	0.099200	0.248800
C2721	C272	0.545000	0.258000	0.031900
C2731	C273	0.410900	0.273000	0.008500
C2741	C274	0.449600	0.270000	0.968900
C2751	C275	0.261800	0.030900	0.243200
C2761	C276	0.215600	0.979000	0.291700
C2771	C277	0.266200	0.989400	0.225200
C2781	C278	0.988600	0.269100	0.221100
C2791	C279	0.257000	0.949300	0.247000
C2801	C280	0.996000	0.227000	0.288000
C2811	C281	0.946600	0.249700	0.240800
C2821	C282	0.231000	0.029200	0.285300
In191	In19	0.209110	0.209100	0.615450
In201	In20	0.118620	0.203880	0.696770
In211	In21	0.203910	0.118730	0.696790
O671	O67	0.177800	0.177200	0.669800
O681	O68	0.276400	0.200700	0.644900
O691	O69	0.272400	0.147000	0.701900
O701	O70	0.147600	0.272800	0.701500
O711	O71	0.146500	0.218300	0.577200
O721	O72	0.852100	0.218600	0.422000
O731	O73	0.200100	0.276000	0.645100
O741	O74	0.304900	0.358900	0.267400
N191	N19	0.242400	0.242600	0.557500
O751	O75	0.360000	0.305100	0.268200
O761	O76	0.091000	0.219000	0.629400
O771	O77	0.909300	0.220300	0.370800
C2831	C283	0.104600	0.221800	0.588500
N201	N20	0.554000	0.266300	0.775200
C2841	C284	0.338300	0.190200	0.693300
C2851	C285	0.292000	0.179000	0.678700
C2861	C286	0.189800	0.338900	0.692400
C2871	C287	0.176800	0.293400	0.678400
C2881	C288	0.217800	0.426700	0.723200
N211	N21	0.266800	0.554100	0.777400
C2891	C289	0.929400	0.226100	0.448000
C2901	C290	0.071500	0.225500	0.552000
C2911	C291	0.300000	0.245800	0.498200
C2921	C292	0.242700	0.297800	0.494600
C2931	C293	0.223800	0.280700	0.536900
C2941	C294	0.217900	0.365800	0.665700
C2951	C295	0.326500	0.327600	0.287400
C2961	C296	0.369900	0.213400	0.664700
C2971	C297	0.228200	0.410800	0.679800
C2981	C298	0.281100	0.223400	0.535600
C2991	C299	0.893900	0.222900	0.411000
C3001	C300	0.294900	0.294800	0.425300
C3011	C301	0.426800	0.216000	0.721400
C3021	C302	0.338600	0.282800	0.358500
C3031	C303	0.318300	0.317600	0.334000
C3041	C304	0.994600	0.228000	0.521500
C3051	C305	0.277000	0.274600	0.471700
C3061	C306	0.283400	0.337500	0.359400
C3071	C307	0.973800	0.229200	0.442800
C3081	C308	0.006800	0.229700	0.477800
C3091	C309	0.025900	0.227300	0.557300
C3101	C310	0.410700	0.229400	0.681200
C3111	C311	0.174900	0.358100	0.731900
C3121	C312	0.353500	0.178400	0.735300
C3131	C313	0.273100	0.332100	0.403900
C3141	C314	0.327900	0.270100	0.401700
C3151	C315	0.472800	0.241900	0.739100
C3161	C316	0.400500	0.187900	0.748400
C3171	C317	0.913000	0.225000	0.491300
C3181	C318	0.189100	0.400800	0.748800
C3191	C319	0.955000	0.242000	0.531900
C3201	C320	0.089100	0.227000	0.508500
C3211	C321	0.050400	0.230000	0.468900
C3221	C322	0.238200	0.469100	0.743200
C3231	C323	0.284400	0.521000	0.791700
C3241	C324	0.233800	0.510600	0.725200
C3251	C325	0.511400	0.230900	0.721100
C3261	C326	0.243000	0.550700	0.747000
C3271	C327	0.504000	0.273000	0.788000
C3281	C328	0.553400	0.250300	0.740800
C3291	C329	0.269000	0.470800	0.785300
In221	In22	0.709110	0.709100	0.115450
In231	In23	0.618620	0.703880	0.196770
In241	In24	0.703910	0.618730	0.196790
O781	O78	0.677800	0.677200	0.169800
O791	O79	0.776400	0.700700	0.144900
O801	O80	0.772400	0.647000	0.201900
O811	O81	0.647600	0.772800	0.201500
O821	O82	0.646500	0.718300	0.077200
O831	O83	0.352100	0.718600	0.922000
O841	O84	0.700100	0.776000	0.145100
O851	O85	0.804900	0.858900	0.767400
N221	N22	0.742400	0.742600	0.057500
O861	O86	0.860000	0.805100	0.768200
O871	O87	0.591000	0.719000	0.129400
O881	O88	0.409300	0.720300	0.870800
C3301	C330	0.604600	0.721800	0.088500
N231	N23	0.054000	0.766300	0.275200
C3311	C331	0.838300	0.690200	0.193300
C3321	C332	0.792000	0.679000	0.178700
C3331	C333	0.689800	0.838900	0.192400
C3341	C334	0.676800	0.793400	0.178400
C3351	C335	0.717800	0.926700	0.223200
N241	N24	0.766800	0.054100	0.277400
C3361	C336	0.429400	0.726100	0.948000
C3371	C337	0.571500	0.725500	0.052000
C3381	C338	0.800000	0.745800	0.998200
C3391	C339	0.742700	0.797800	0.994600
C3401	C340	0.723800	0.780700	0.036900
C3411	C341	0.717900	0.865800	0.165700
C3421	C342	0.826500	0.827600	0.787400
C3431	C343	0.869900	0.713400	0.164700
C3441	C344	0.728200	0.910800	0.179800
C3451	C345	0.781100	0.723400	0.035600
C3461	C346	0.393900	0.722900	0.911000
C3471	C347	0.794900	0.794800	0.925300
C3481	C348	0.926800	0.716000	0.221400
C3491	C349	0.838600	0.782800	0.858500
C3501	C350	0.818300	0.817600	0.834000
C3511	C351	0.494600	0.728000	0.021500
C3521	C352	0.777000	0.774600	0.971700
C3531	C353	0.783400	0.837500	0.859400
C3541	C354	0.473800	0.729200	0.942800
C3551	C355	0.506800	0.729700	0.977800
C3561	C356	0.525900	0.727300	0.057300
C3571	C357	0.910700	0.729400	0.181200
C3581	C358	0.674900	0.858100	0.231900
C3591	C359	0.853500	0.678400	0.235300
C3601	C360	0.773100	0.832100	0.903900
C3611	C361	0.827900	0.770100	0.901700
C3621	C362	0.972800	0.741900	0.239100
C3631	C363	0.900500	0.687900	0.248400
C3641	C364	0.413000	0.725000	0.991300
C3651	C365	0.689100	0.900800	0.248800
C3661	C366	0.455000	0.742000	0.031900
C3671	C367	0.589100	0.727000	0.008500
C3681	C368	0.550400	0.730000	0.968900
C3691	C369	0.738200	0.969100	0.243200
C3701	C370	0.784400	0.021000	0.291700
C3711	C371	0.733800	0.010600	0.225200
C3721	C372	0.011400	0.730900	0.221100
C3731	C373	0.743000	0.050700	0.247000
C3741	C374	0.004000	0.773000	0.288000
C3751	C375	0.053400	0.750300	0.240800
C3761	C376	0.769000	0.970800	0.285300
