data_AGUTUS_clean_PM
_symmetry_space_group_name_H-M	'P1'
_cell_length_a	10.633200
_cell_length_b	12.036100
_cell_length_c	12.805200
_cell_angle_alpha	90.000000
_cell_angle_beta	92.256000
_cell_angle_gamma	90.000000
_symmetry_Int_Tables_number 1

loop_
_symmetry_equiv_pos_as_xyz
'x,y,z'

loop_
_atom_site_label
_atom_site_type_symbol
_atom_site_fract_x
_atom_site_fract_y
_atom_site_fract_z
Cu11	Cu1	0.122270	0.370210	0.495150
N11	N1	0.126450	0.297130	0.635620
N21	N2	0.030440	0.302080	0.705300
N31	N3	0.185460	0.204570	0.772080
N41	N4	0.408100	0.118530	0.963400
N51	N5	0.347830	0.018610	0.936750
N61	N6	0.262550	0.148540	0.843270
N71	N7	0.137040	0.219080	0.429500
N81	N8	0.067550	0.125690	0.455460
N91	N9	0.207670	0.080840	0.343020
N101	N10	0.354350	0.938510	0.145610
N111	N11	0.440140	0.918840	0.229180
N121	N12	0.284100	0.019920	0.280210
C11	C1	0.218680	0.239050	0.676810
C21	C2	0.068640	0.245440	0.787220
C31	C3	0.354440	0.195610	0.905700
C41	C4	0.260830	0.038310	0.864540
C51	C5	0.219790	0.190670	0.362980
C61	C6	0.112030	0.043560	0.402580
C71	C7	0.262280	0.998690	0.176840
C81	C8	0.395800	0.968880	0.309540
H11	H1	0.290000	0.221000	0.649000
H21	H2	0.027000	0.233000	0.847600
H31	H3	0.371000	0.267200	0.906000
H41	H4	0.205500	0.987500	0.837200
H51	H5	0.275000	0.233000	0.329100
H61	H6	0.089000	0.973000	0.403200
H71	H7	0.198000	0.024400	0.138300
H81	H8	0.433000	0.972300	0.378800
Cu21	Cu2	0.377730	0.870210	0.004850
N131	N13	0.373550	0.797130	0.864380
N141	N14	0.469560	0.802080	0.794700
N151	N15	0.314540	0.704570	0.727920
N161	N16	0.091900	0.618530	0.536600
N171	N17	0.152170	0.518610	0.563250
N181	N18	0.237450	0.648540	0.656730
N191	N19	0.362960	0.719080	0.070500
N201	N20	0.432450	0.625690	0.044540
N211	N21	0.292330	0.580840	0.156980
N221	N22	0.145650	0.438510	0.354390
N231	N23	0.059860	0.418840	0.270820
N241	N24	0.215900	0.519920	0.219790
C91	C9	0.281320	0.739050	0.823190
C101	C10	0.431360	0.745440	0.712780
C111	C11	0.145560	0.695610	0.594300
C121	C12	0.239170	0.538310	0.635460
C131	C13	0.280210	0.690670	0.137020
C141	C14	0.387970	0.543560	0.097420
C151	C15	0.237720	0.498690	0.323160
C161	C16	0.104200	0.468880	0.190460
H91	H9	0.210000	0.721000	0.851000
H101	H10	0.473000	0.733000	0.652400
H111	H11	0.129000	0.767200	0.594000
H121	H12	0.294500	0.487500	0.662800
H131	H13	0.225000	0.733000	0.170900
H141	H14	0.411000	0.473000	0.096800
H151	H15	0.302000	0.524400	0.361700
H161	H16	0.067000	0.472300	0.121200
Cu31	Cu3	0.877730	0.629790	0.504850
N251	N25	0.873550	0.702870	0.364380
N261	N26	0.969560	0.697920	0.294700
N271	N27	0.814540	0.795430	0.227920
N281	N28	0.591900	0.881470	0.036600
N291	N29	0.652170	0.981390	0.063250
N301	N30	0.737450	0.851460	0.156730
N311	N31	0.862960	0.780920	0.570500
N321	N32	0.932450	0.874310	0.544540
N331	N33	0.792330	0.919160	0.656980
N341	N34	0.645650	0.061490	0.854390
N351	N35	0.559860	0.081160	0.770820
N361	N36	0.715900	0.980080	0.719790
C171	C17	0.781320	0.760950	0.323190
C181	C18	0.931360	0.754560	0.212780
C191	C19	0.645560	0.804390	0.094300
C201	C20	0.739170	0.961690	0.135460
C211	C21	0.780210	0.809330	0.637020
C221	C22	0.887970	0.956440	0.597420
C231	C23	0.737720	0.001310	0.823160
C241	C24	0.604200	0.031120	0.690460
H171	H17	0.710000	0.779000	0.351000
H181	H18	0.973000	0.767000	0.152400
H191	H19	0.629000	0.732800	0.094000
H201	H20	0.794500	0.012500	0.162800
H211	H21	0.725000	0.767000	0.670900
H221	H22	0.911000	0.027000	0.596800
H231	H23	0.802000	0.975600	0.861700
H241	H24	0.567000	0.027700	0.621200
Cu41	Cu4	0.622270	0.129790	0.995150
N371	N37	0.626450	0.202870	0.135620
N381	N38	0.530440	0.197920	0.205300
N391	N39	0.685460	0.295430	0.272080
N401	N40	0.908100	0.381470	0.463400
N411	N41	0.847830	0.481390	0.436750
N421	N42	0.762550	0.351460	0.343270
N431	N43	0.637040	0.280920	0.929500
N441	N44	0.567550	0.374310	0.955460
N451	N45	0.707670	0.419160	0.843020
N461	N46	0.854350	0.561490	0.645610
N471	N47	0.940140	0.581160	0.729180
N481	N48	0.784100	0.480080	0.780210
C251	C25	0.718680	0.260950	0.176810
C261	C26	0.568640	0.254560	0.287220
C271	C27	0.854440	0.304390	0.405700
C281	C28	0.760830	0.461690	0.364540
C291	C29	0.719790	0.309330	0.862980
C301	C30	0.612030	0.456440	0.902580
C311	C31	0.762280	0.501310	0.676840
C321	C32	0.895800	0.531120	0.809540
H251	H25	0.790000	0.279000	0.149000
H261	H26	0.527000	0.267000	0.347600
H271	H27	0.871000	0.232800	0.406000
H281	H28	0.705500	0.512500	0.337200
H291	H29	0.775000	0.267000	0.829100
H301	H30	0.589000	0.527000	0.903200
H311	H31	0.698000	0.475600	0.638300
H321	H32	0.933000	0.527700	0.878800
