data_AGUVOO_charged_PM
_symmetry_space_group_name_H-M	'P1'
_cell_length_a	17.425900
_cell_length_b	21.520900
_cell_length_c	26.832600
_cell_angle_alpha	90.000000
_cell_angle_beta	90.000000
_cell_angle_gamma	90.000000
_symmetry_Int_Tables_number 1

loop_
_symmetry_equiv_pos_as_xyz
'x,y,z'

loop_
_atom_site_label
_atom_site_type_symbol
_atom_site_fract_x
_atom_site_fract_y
_atom_site_fract_z
Cu11	Cu1	0.727920	0.844770	0.781730
Cu21	Cu2	0.750020	0.747510	0.874900
Cu31	Cu3	0.773440	0.148590	0.033120
Cu41	Cu4	0.772080	0.344770	0.718270
Cu51	Cu5	0.749980	0.247510	0.625100
Cu61	Cu6	0.726560	0.648590	0.466880
Cu71	Cu7	0.272080	0.655230	0.781730
Cu81	Cu8	0.249980	0.752490	0.874900
Cu91	Cu9	0.226560	0.351410	0.033120
Cu101	Cu10	0.227920	0.155230	0.718270
Cu111	Cu11	0.250020	0.252490	0.625100
Cu121	Cu12	0.273440	0.851410	0.466880
Cu131	Cu13	0.272080	0.155230	0.218270
Cu141	Cu14	0.249980	0.252490	0.125100
Cu151	Cu15	0.226560	0.851410	0.966880
Cu161	Cu16	0.227920	0.655230	0.281730
Cu171	Cu17	0.250020	0.752490	0.374900
Cu181	Cu18	0.273440	0.351410	0.533120
Cu191	Cu19	0.727920	0.344770	0.218270
Cu201	Cu20	0.750020	0.247510	0.125100
Cu211	Cu21	0.773440	0.648590	0.966880
Cu221	Cu22	0.772080	0.844770	0.281730
Cu231	Cu23	0.749980	0.747510	0.374900
Cu241	Cu24	0.726560	0.148590	0.533120
H11	H1	0.670500	0.753000	0.805400
H21	H2	0.827400	0.742600	0.945200
H31	H3	0.718700	0.983000	0.837500
H41	H4	0.761700	0.885700	0.960000
H51	H5	0.603400	0.012900	0.935800
H61	H6	0.824100	0.031900	0.964900
H71	H7	0.941400	0.823200	0.752800
H81	H8	0.923200	0.700400	0.862700
H91	H9	0.580900	0.799600	0.889200
H101	H10	0.555300	0.673800	0.996000
H111	H11	0.782900	0.110900	0.711400
H121	H12	0.756200	0.010200	0.587800
H131	H13	0.684200	0.969700	0.720500
H141	H14	0.899900	0.967500	0.675300
H151	H15	0.744000	0.829200	0.659500
H161	H16	0.622800	0.674700	0.679700
H171	H17	0.748600	0.664100	0.589000
H181	H18	0.607300	0.806700	0.573600
H191	H19	0.829500	0.253000	0.694600
H201	H20	0.672600	0.242600	0.554800
H211	H21	0.781300	0.483000	0.662500
H221	H22	0.738300	0.385700	0.540000
H231	H23	0.896600	0.512900	0.564200
H241	H24	0.675900	0.531900	0.535100
H251	H25	0.558600	0.323200	0.747200
H261	H26	0.576800	0.200400	0.637300
H271	H27	0.919100	0.299600	0.610800
H281	H28	0.944700	0.173800	0.504000
H291	H29	0.717100	0.610900	0.788600
H301	H30	0.743800	0.510200	0.912200
H311	H31	0.815800	0.469700	0.779500
H321	H32	0.600100	0.467500	0.824700
H331	H33	0.756000	0.329200	0.840500
H341	H34	0.877200	0.174700	0.820300
H351	H35	0.751400	0.164100	0.911000
H361	H36	0.892700	0.306700	0.926400
H371	H37	0.329500	0.747000	0.805400
H381	H38	0.172600	0.757400	0.945200
H391	H39	0.281300	0.517000	0.837500
H401	H40	0.238300	0.614300	0.960000
H411	H41	0.396600	0.487100	0.935800
H421	H42	0.175900	0.468100	0.964900
H431	H43	0.058600	0.676800	0.752800
H441	H44	0.076800	0.799600	0.862700
H451	H45	0.419100	0.700400	0.889200
H461	H46	0.444700	0.826200	0.996000
H471	H47	0.217100	0.389100	0.711400
H481	H48	0.243800	0.489800	0.587800
H491	H49	0.315800	0.530300	0.720500
H501	H50	0.100100	0.532500	0.675300
H511	H51	0.256000	0.670800	0.659500
H521	H52	0.377200	0.825300	0.679700
H531	H53	0.251400	0.835900	0.589000
H541	H54	0.392700	0.693300	0.573600
H551	H55	0.170500	0.247000	0.694600
H561	H56	0.327400	0.257400	0.554800
H571	H57	0.218700	0.017000	0.662500
H581	H58	0.261700	0.114300	0.540000
H591	H59	0.103400	0.987100	0.564200
H601	H60	0.324100	0.968100	0.535100
H611	H61	0.441400	0.176800	0.747200
H621	H62	0.423200	0.299600	0.637300
H631	H63	0.080900	0.200400	0.610800
H641	H64	0.055300	0.326200	0.504000
H651	H65	0.282900	0.889100	0.788600
H661	H66	0.256200	0.989800	0.912200
H671	H67	0.184200	0.030300	0.779500
H681	H68	0.399900	0.032500	0.824700
H691	H69	0.244000	0.170800	0.840500
H701	H70	0.122800	0.325300	0.820300
H711	H71	0.248600	0.335900	0.911000
H721	H72	0.107300	0.193300	0.926400
H731	H73	0.329500	0.247000	0.194600
H741	H74	0.172600	0.257400	0.054800
H751	H75	0.281300	0.017000	0.162500
H761	H76	0.238300	0.114300	0.040000
H771	H77	0.396600	0.987100	0.064200
H781	H78	0.175900	0.968100	0.035100
H791	H79	0.058600	0.176800	0.247200
H801	H80	0.076800	0.299600	0.137300
H811	H81	0.419100	0.200400	0.110800
H821	H82	0.444700	0.326200	0.004000
H831	H83	0.217100	0.889100	0.288600
H841	H84	0.243800	0.989800	0.412200
H851	H85	0.315800	0.030300	0.279500
H861	H86	0.100100	0.032500	0.324700
H871	H87	0.256000	0.170800	0.340500
H881	H88	0.377200	0.325300	0.320300
H891	H89	0.251400	0.335900	0.411000
H901	H90	0.392700	0.193300	0.426400
H911	H91	0.170500	0.747000	0.305400
H921	H92	0.327400	0.757400	0.445200
H931	H93	0.218700	0.517000	0.337500
H941	H94	0.261700	0.614300	0.460000
H951	H95	0.103400	0.487100	0.435800
H961	H96	0.324100	0.468100	0.464900
H971	H97	0.441400	0.676800	0.252800
H981	H98	0.423200	0.799600	0.362700
H991	H99	0.080900	0.700400	0.389200
H1001	H100	0.055300	0.826200	0.496000
H1011	H101	0.282900	0.389100	0.211400
H1021	H102	0.256200	0.489800	0.087800
H1031	H103	0.184200	0.530300	0.220500
H1041	H104	0.399900	0.532500	0.175300
H1051	H105	0.244000	0.670800	0.159500
H1061	H106	0.122800	0.825300	0.179700
H1071	H107	0.248600	0.835900	0.089000
H1081	H108	0.107300	0.693300	0.073600
H1091	H109	0.670500	0.253000	0.194600
H1101	H110	0.827400	0.242600	0.054800
H1111	H111	0.718700	0.483000	0.162500
H1121	H112	0.761700	0.385700	0.040000
H1131	H113	0.603400	0.512900	0.064200
H1141	H114	0.824100	0.531900	0.035100
H1151	H115	0.941400	0.323200	0.247200
H1161	H116	0.923200	0.200400	0.137300
H1171	H117	0.580900	0.299600	0.110800
H1181	H118	0.555300	0.173800	0.004000
H1191	H119	0.782900	0.610900	0.288600
H1201	H120	0.756200	0.510200	0.412200
H1211	H121	0.684200	0.469700	0.279500
H1221	H122	0.899900	0.467500	0.324700
H1231	H123	0.744000	0.329200	0.340500
H1241	H124	0.622800	0.174700	0.320300
H1251	H125	0.748600	0.164100	0.411000
H1261	H126	0.607300	0.306700	0.426400
H1271	H127	0.829500	0.753000	0.305400
H1281	H128	0.672600	0.742600	0.445200
H1291	H129	0.781300	0.983000	0.337500
H1301	H130	0.738300	0.885700	0.460000
H1311	H131	0.896600	0.012900	0.435800
H1321	H132	0.675900	0.031900	0.464900
H1331	H133	0.558600	0.823200	0.252800
H1341	H134	0.576800	0.700400	0.362700
H1351	H135	0.919100	0.799600	0.389200
H1361	H136	0.944700	0.673800	0.496000
H1371	H137	0.717100	0.110900	0.211400
H1381	H138	0.743800	0.010200	0.087800
H1391	H139	0.815800	0.969700	0.220500
H1401	H140	0.600100	0.967500	0.175300
H1411	H141	0.756000	0.829200	0.159500
H1421	H142	0.877200	0.674700	0.179700
H1431	H143	0.751400	0.664100	0.089000
H1441	H144	0.892700	0.806700	0.073600
C11	C1	0.730900	0.949890	0.859560
C21	C2	0.754400	0.896570	0.925980
C31	C3	0.650200	0.028400	0.948970
C41	C4	0.770300	0.038550	0.964770
C51	C5	0.920780	0.797500	0.778290
C61	C6	0.911000	0.730740	0.838170
C71	C7	0.591050	0.768120	0.913170
C81	C8	0.577200	0.699890	0.971300
C91	C9	0.774800	0.099520	0.677570
C101	C10	0.759900	0.044350	0.610030
C111	C11	0.736400	0.958250	0.716150
C121	C12	0.853400	0.956580	0.691540
C131	C13	0.714900	0.796960	0.674650
C141	C14	0.649500	0.712500	0.685690
C151	C15	0.715800	0.694610	0.574870
C161	C16	0.639500	0.772400	0.566030
C171	C17	0.566000	0.897200	0.807290
C181	C18	0.488700	0.864000	0.794200
C191	C19	0.769100	0.449890	0.640440
C201	C20	0.745600	0.396570	0.574020
C211	C21	0.849800	0.528400	0.551030
C221	C22	0.729700	0.538550	0.535230
C231	C23	0.579220	0.297500	0.721710
C241	C24	0.589000	0.230740	0.661830
C251	C25	0.908950	0.268120	0.586830
C261	C26	0.922800	0.199890	0.528700
C271	C27	0.725200	0.599520	0.822430
C281	C28	0.740100	0.544350	0.889970
C291	C29	0.763600	0.458250	0.783850
C301	C30	0.646600	0.456580	0.808460
C311	C31	0.785100	0.296960	0.825350
C321	C32	0.850500	0.212500	0.814310
C331	C33	0.784200	0.194610	0.925130
C341	C34	0.860500	0.272400	0.933970
C351	C35	0.934000	0.397200	0.692710
C361	C36	0.011300	0.364000	0.705800
C371	C37	0.269100	0.550110	0.859560
C381	C38	0.245600	0.603430	0.925980
C391	C39	0.349800	0.471600	0.948970
C401	C40	0.229700	0.461450	0.964770
C411	C41	0.079220	0.702500	0.778290
C421	C42	0.089000	0.769260	0.838170
C431	C43	0.408950	0.731880	0.913170
C441	C44	0.422800	0.800110	0.971300
C451	C45	0.225200	0.400480	0.677570
C461	C46	0.240100	0.455650	0.610030
C471	C47	0.263600	0.541750	0.716150
C481	C48	0.146600	0.543420	0.691540
C491	C49	0.285100	0.703040	0.674650
C501	C50	0.350500	0.787500	0.685690
C511	C51	0.284200	0.805390	0.574870
C521	C52	0.360500	0.727600	0.566030
C531	C53	0.434000	0.602800	0.807290
C541	C54	0.511300	0.636000	0.794200
C551	C55	0.230900	0.050110	0.640440
C561	C56	0.254400	0.103430	0.574020
C571	C57	0.150200	0.971600	0.551030
C581	C58	0.270300	0.961450	0.535230
C591	C59	0.420780	0.202500	0.721710
C601	C60	0.411000	0.269260	0.661830
C611	C61	0.091050	0.231880	0.586830
C621	C62	0.077200	0.300110	0.528700
C631	C63	0.274800	0.900480	0.822430
C641	C64	0.259900	0.955650	0.889970
C651	C65	0.236400	0.041750	0.783850
C661	C66	0.353400	0.043420	0.808460
C671	C67	0.214900	0.203040	0.825350
C681	C68	0.149500	0.287500	0.814310
C691	C69	0.215800	0.305390	0.925130
C701	C70	0.139500	0.227600	0.933970
C711	C71	0.066000	0.102800	0.692710
C721	C72	0.988700	0.136000	0.705800
C731	C73	0.269100	0.050110	0.140440
C741	C74	0.245600	0.103430	0.074020
C751	C75	0.349800	0.971600	0.051030
C761	C76	0.229700	0.961450	0.035230
C771	C77	0.079220	0.202500	0.221710
C781	C78	0.089000	0.269260	0.161830
C791	C79	0.408950	0.231880	0.086830
C801	C80	0.422800	0.300110	0.028700
C811	C81	0.225200	0.900480	0.322430
C821	C82	0.240100	0.955650	0.389970
C831	C83	0.263600	0.041750	0.283850
C841	C84	0.146600	0.043420	0.308460
C851	C85	0.285100	0.203040	0.325350
C861	C86	0.350500	0.287500	0.314310
C871	C87	0.284200	0.305390	0.425130
C881	C88	0.360500	0.227600	0.433970
C891	C89	0.434000	0.102800	0.192710
C901	C90	0.511300	0.136000	0.205800
C911	C91	0.230900	0.550110	0.359560
C921	C92	0.254400	0.603430	0.425980
C931	C93	0.150200	0.471600	0.448970
C941	C94	0.270300	0.461450	0.464770
C951	C95	0.420780	0.702500	0.278290
C961	C96	0.411000	0.769260	0.338170
C971	C97	0.091050	0.731880	0.413170
C981	C98	0.077200	0.800110	0.471300
C991	C99	0.274800	0.400480	0.177570
C1001	C100	0.259900	0.455650	0.110030
C1011	C101	0.236400	0.541750	0.216150
C1021	C102	0.353400	0.543420	0.191540
C1031	C103	0.214900	0.703040	0.174650
C1041	C104	0.149500	0.787500	0.185690
C1051	C105	0.215800	0.805390	0.074870
C1061	C106	0.139500	0.727600	0.066030
C1071	C107	0.066000	0.602800	0.307290
C1081	C108	0.988700	0.636000	0.294200
C1091	C109	0.730900	0.449890	0.140440
C1101	C110	0.754400	0.396570	0.074020
C1111	C111	0.650200	0.528400	0.051030
C1121	C112	0.770300	0.538550	0.035230
C1131	C113	0.920780	0.297500	0.221710
C1141	C114	0.911000	0.230740	0.161830
C1151	C115	0.591050	0.268120	0.086830
C1161	C116	0.577200	0.199890	0.028700
C1171	C117	0.774800	0.599520	0.322430
C1181	C118	0.759900	0.544350	0.389970
C1191	C119	0.736400	0.458250	0.283850
C1201	C120	0.853400	0.456580	0.308460
C1211	C121	0.714900	0.296960	0.325350
C1221	C122	0.649500	0.212500	0.314310
C1231	C123	0.715800	0.194610	0.425130
C1241	C124	0.639500	0.272400	0.433970
C1251	C125	0.566000	0.397200	0.192710
C1261	C126	0.488700	0.364000	0.205800
C1271	C127	0.769100	0.949890	0.359560
C1281	C128	0.745600	0.896570	0.425980
C1291	C129	0.849800	0.028400	0.448970
C1301	C130	0.729700	0.038550	0.464770
C1311	C131	0.579220	0.797500	0.278290
C1321	C132	0.589000	0.730740	0.338170
C1331	C133	0.908950	0.768120	0.413170
C1341	C134	0.922800	0.699890	0.471300
C1351	C135	0.725200	0.099520	0.177570
C1361	C136	0.740100	0.044350	0.110030
C1371	C137	0.763600	0.958250	0.216150
C1381	C138	0.646600	0.956580	0.191540
C1391	C139	0.785100	0.796960	0.174650
C1401	C140	0.850500	0.712500	0.185690
C1411	C141	0.784200	0.694610	0.074870
C1421	C142	0.860500	0.772400	0.066030
C1431	C143	0.934000	0.897200	0.307290
C1441	C144	0.011300	0.864000	0.294200
N11	N1	0.747230	0.893180	0.846510
N21	N2	0.762070	0.859390	0.889380
N31	N3	0.734300	0.953710	0.909540
N41	N4	0.655200	0.075220	0.980030
N51	N5	0.733810	0.080300	0.989590
N61	N6	0.717640	0.005750	0.938420
N71	N7	0.850810	0.797040	0.792200
N81	N8	0.843840	0.754450	0.831030
N91	N9	0.961450	0.755560	0.805590
N101	N10	0.654880	0.742530	0.920080
N111	N11	0.648210	0.698380	0.957730
N121	N12	0.538450	0.743630	0.945480
N131	N13	0.763000	0.138290	0.640730
N141	N14	0.752850	0.102340	0.598360
N151	N15	0.773630	0.041040	0.659830
N161	N16	0.769520	0.911340	0.737140
N171	N17	0.844360	0.908930	0.721270
N181	N18	0.786540	0.987890	0.687520
N191	N19	0.701700	0.790880	0.721940
N201	N20	0.662500	0.736830	0.729240
N211	N21	0.680100	0.749410	0.650600
N221	N22	0.698270	0.699430	0.527820
N231	N23	0.650600	0.750720	0.522090
N241	N24	0.680100	0.739620	0.599980
N251	N25	0.752770	0.393180	0.653490
N261	N26	0.737930	0.359390	0.610620
N271	N27	0.765700	0.453710	0.590460
N281	N28	0.844800	0.575220	0.519970
N291	N29	0.766190	0.580300	0.510410
N301	N30	0.782360	0.505750	0.561580
N311	N31	0.649190	0.297040	0.707800
N321	N32	0.656160	0.254450	0.668970
N331	N33	0.538550	0.255560	0.694410
N341	N34	0.845120	0.242530	0.579920
N351	N35	0.851790	0.198380	0.542270
N361	N36	0.961550	0.243630	0.554520
N371	N37	0.737000	0.638290	0.859270
N381	N38	0.747150	0.602340	0.901640
N391	N39	0.726370	0.541040	0.840170
N401	N40	0.730480	0.411340	0.762860
N411	N41	0.655640	0.408930	0.778730
N421	N42	0.713460	0.487890	0.812480
N431	N43	0.798300	0.290880	0.778060
N441	N44	0.837500	0.236830	0.770760
N451	N45	0.819900	0.249410	0.849400
N461	N46	0.801730	0.199430	0.972180
N471	N47	0.849400	0.250720	0.977910
N481	N48	0.819900	0.239620	0.900020
N491	N49	0.252770	0.606820	0.846510
N501	N50	0.237930	0.640610	0.889380
N511	N51	0.265700	0.546290	0.909540
N521	N52	0.344800	0.424780	0.980030
N531	N53	0.266190	0.419700	0.989590
N541	N54	0.282360	0.494250	0.938420
N551	N55	0.149190	0.702960	0.792200
N561	N56	0.156160	0.745550	0.831030
N571	N57	0.038550	0.744440	0.805590
N581	N58	0.345120	0.757470	0.920080
N591	N59	0.351790	0.801620	0.957730
N601	N60	0.461550	0.756370	0.945480
N611	N61	0.237000	0.361710	0.640730
N621	N62	0.247150	0.397660	0.598360
N631	N63	0.226370	0.458960	0.659830
N641	N64	0.230480	0.588660	0.737140
N651	N65	0.155640	0.591070	0.721270
N661	N66	0.213460	0.512110	0.687520
N671	N67	0.298300	0.709120	0.721940
N681	N68	0.337500	0.763170	0.729240
N691	N69	0.319900	0.750590	0.650600
N701	N70	0.301730	0.800570	0.527820
N711	N71	0.349400	0.749280	0.522090
N721	N72	0.319900	0.760380	0.599980
N731	N73	0.247230	0.106820	0.653490
N741	N74	0.262070	0.140610	0.610620
N751	N75	0.234300	0.046290	0.590460
N761	N76	0.155200	0.924780	0.519970
N771	N77	0.233810	0.919700	0.510410
N781	N78	0.217640	0.994250	0.561580
N791	N79	0.350810	0.202960	0.707800
N801	N80	0.343840	0.245550	0.668970
N811	N81	0.461450	0.244440	0.694410
N821	N82	0.154880	0.257470	0.579920
N831	N83	0.148210	0.301620	0.542270
N841	N84	0.038450	0.256370	0.554520
N851	N85	0.263000	0.861710	0.859270
N861	N86	0.252850	0.897660	0.901640
N871	N87	0.273630	0.958960	0.840170
N881	N88	0.269520	0.088660	0.762860
N891	N89	0.344360	0.091070	0.778730
N901	N90	0.286540	0.012110	0.812480
N911	N91	0.201700	0.209120	0.778060
N921	N92	0.162500	0.263170	0.770760
N931	N93	0.180100	0.250590	0.849400
N941	N94	0.198270	0.300570	0.972180
N951	N95	0.150600	0.249280	0.977910
N961	N96	0.180100	0.260380	0.900020
N971	N97	0.252770	0.106820	0.153490
N981	N98	0.237930	0.140610	0.110620
N991	N99	0.265700	0.046290	0.090460
N1001	N100	0.344800	0.924780	0.019970
N1011	N101	0.266190	0.919700	0.010410
N1021	N102	0.282360	0.994250	0.061580
N1031	N103	0.149190	0.202960	0.207800
N1041	N104	0.156160	0.245550	0.168970
N1051	N105	0.038550	0.244440	0.194410
N1061	N106	0.345120	0.257470	0.079920
N1071	N107	0.351790	0.301620	0.042270
N1081	N108	0.461550	0.256370	0.054520
N1091	N109	0.237000	0.861710	0.359270
N1101	N110	0.247150	0.897660	0.401640
N1111	N111	0.226370	0.958960	0.340170
N1121	N112	0.230480	0.088660	0.262860
N1131	N113	0.155640	0.091070	0.278730
N1141	N114	0.213460	0.012110	0.312480
N1151	N115	0.298300	0.209120	0.278060
N1161	N116	0.337500	0.263170	0.270760
N1171	N117	0.319900	0.250590	0.349400
N1181	N118	0.301730	0.300570	0.472180
N1191	N119	0.349400	0.249280	0.477910
N1201	N120	0.319900	0.260380	0.400020
N1211	N121	0.247230	0.606820	0.346510
N1221	N122	0.262070	0.640610	0.389380
N1231	N123	0.234300	0.546290	0.409540
N1241	N124	0.155200	0.424780	0.480030
N1251	N125	0.233810	0.419700	0.489590
N1261	N126	0.217640	0.494250	0.438420
N1271	N127	0.350810	0.702960	0.292200
N1281	N128	0.343840	0.745550	0.331030
N1291	N129	0.461450	0.744440	0.305590
N1301	N130	0.154880	0.757470	0.420080
N1311	N131	0.148210	0.801620	0.457730
N1321	N132	0.038450	0.756370	0.445480
N1331	N133	0.263000	0.361710	0.140730
N1341	N134	0.252850	0.397660	0.098360
N1351	N135	0.273630	0.458960	0.159830
N1361	N136	0.269520	0.588660	0.237140
N1371	N137	0.344360	0.591070	0.221270
N1381	N138	0.286540	0.512110	0.187520
N1391	N139	0.201700	0.709120	0.221940
N1401	N140	0.162500	0.763170	0.229240
N1411	N141	0.180100	0.750590	0.150600
N1421	N142	0.198270	0.800570	0.027820
N1431	N143	0.150600	0.749280	0.022090
N1441	N144	0.180100	0.760380	0.099980
N1451	N145	0.747230	0.393180	0.153490
N1461	N146	0.762070	0.359390	0.110620
N1471	N147	0.734300	0.453710	0.090460
N1481	N148	0.655200	0.575220	0.019970
N1491	N149	0.733810	0.580300	0.010410
N1501	N150	0.717640	0.505750	0.061580
N1511	N151	0.850810	0.297040	0.207800
N1521	N152	0.843840	0.254450	0.168970
N1531	N153	0.961450	0.255560	0.194410
N1541	N154	0.654880	0.242530	0.079920
N1551	N155	0.648210	0.198380	0.042270
N1561	N156	0.538450	0.243630	0.054520
N1571	N157	0.763000	0.638290	0.359270
N1581	N158	0.752850	0.602340	0.401640
N1591	N159	0.773630	0.541040	0.340170
N1601	N160	0.769520	0.411340	0.262860
N1611	N161	0.844360	0.408930	0.278730
N1621	N162	0.786540	0.487890	0.312480
N1631	N163	0.701700	0.290880	0.278060
N1641	N164	0.662500	0.236830	0.270760
N1651	N165	0.680100	0.249410	0.349400
N1661	N166	0.698270	0.199430	0.472180
N1671	N167	0.650600	0.250720	0.477910
N1681	N168	0.680100	0.239620	0.400020
N1691	N169	0.752770	0.893180	0.346510
N1701	N170	0.737930	0.859390	0.389380
N1711	N171	0.765700	0.953710	0.409540
N1721	N172	0.844800	0.075220	0.480030
N1731	N173	0.766190	0.080300	0.489590
N1741	N174	0.782360	0.005750	0.438420
N1751	N175	0.649190	0.797040	0.292200
N1761	N176	0.656160	0.754450	0.331030
N1771	N177	0.538550	0.755560	0.305590
N1781	N178	0.845120	0.742530	0.420080
N1791	N179	0.851790	0.698380	0.457730
N1801	N180	0.961550	0.743630	0.445480
N1811	N181	0.737000	0.138290	0.140730
N1821	N182	0.747150	0.102340	0.098360
N1831	N183	0.726370	0.041040	0.159830
N1841	N184	0.730480	0.911340	0.237140
N1851	N185	0.655640	0.908930	0.221270
N1861	N186	0.713460	0.987890	0.187520
N1871	N187	0.798300	0.790880	0.221940
N1881	N188	0.837500	0.736830	0.229240
N1891	N189	0.819900	0.749410	0.150600
N1901	N190	0.801730	0.699430	0.027820
N1911	N191	0.849400	0.750720	0.022090
N1921	N192	0.819900	0.739620	0.099980
O11	O1	0.685980	0.782310	0.823790
O21	O2	0.813900	0.712750	0.926170
O31	O3	0.605380	0.900790	0.774120
O41	O4	0.566600	0.906800	0.853260
O51	O5	0.814020	0.282310	0.676210
O61	O6	0.686100	0.212750	0.573830
O71	O7	0.894620	0.400790	0.725880
O81	O8	0.933400	0.406800	0.646740
O91	O9	0.314020	0.717690	0.823790
O101	O10	0.186100	0.787250	0.926170
O111	O11	0.394620	0.599210	0.774120
O121	O12	0.433400	0.593200	0.853260
O131	O13	0.185980	0.217690	0.676210
O141	O14	0.313900	0.287250	0.573830
O151	O15	0.105380	0.099210	0.725880
O161	O16	0.066600	0.093200	0.646740
O171	O17	0.314020	0.217690	0.176210
O181	O18	0.186100	0.287250	0.073830
O191	O19	0.394620	0.099210	0.225880
O201	O20	0.433400	0.093200	0.146740
O211	O21	0.185980	0.717690	0.323790
O221	O22	0.313900	0.787250	0.426170
O231	O23	0.105380	0.599210	0.274120
O241	O24	0.066600	0.593200	0.353260
O251	O25	0.685980	0.282310	0.176210
O261	O26	0.813900	0.212750	0.073830
O271	O27	0.605380	0.400790	0.225880
O281	O28	0.566600	0.406800	0.146740
O291	O29	0.814020	0.782310	0.323790
O301	O30	0.686100	0.712750	0.426170
O311	O31	0.894620	0.900790	0.274120
O321	O32	0.933400	0.906800	0.353260
F11	F1	0.460900	0.832400	0.832500
F21	F2	0.435600	0.904000	0.779100
F31	F3	0.498700	0.823000	0.756900
F41	F4	0.039100	0.332400	0.667500
F51	F5	0.064400	0.404000	0.720900
F61	F6	0.001300	0.323000	0.743100
F71	F7	0.539100	0.667600	0.832500
F81	F8	0.564400	0.596000	0.779100
F91	F9	0.501300	0.677000	0.756900
F101	F10	0.960900	0.167600	0.667500
F111	F11	0.935600	0.096000	0.720900
F121	F12	0.998700	0.177000	0.743100
F131	F13	0.539100	0.167600	0.167500
F141	F14	0.564400	0.096000	0.220900
F151	F15	0.501300	0.177000	0.243100
F161	F16	0.960900	0.667600	0.332500
F171	F17	0.935600	0.596000	0.279100
F181	F18	0.998700	0.677000	0.256900
F191	F19	0.460900	0.332400	0.167500
F201	F20	0.435600	0.404000	0.220900
F211	F21	0.498700	0.323000	0.243100
F221	F22	0.039100	0.832400	0.332500
F231	F23	0.064400	0.904000	0.279100
F241	F24	0.001300	0.823000	0.256900
