data_AHEBAS_clean_PM
_symmetry_space_group_name_H-M	'P1'
_cell_length_a	20.792900
_cell_length_b	12.487100
_cell_length_c	19.502500
_cell_angle_alpha	90.000000
_cell_angle_beta	97.329000
_cell_angle_gamma	90.000000
_symmetry_Int_Tables_number 1

loop_
_symmetry_equiv_pos_as_xyz
'x,y,z'

loop_
_atom_site_label
_atom_site_type_symbol
_atom_site_fract_x
_atom_site_fract_y
_atom_site_fract_z
Cu11	Cu1	0.302780	0.237030	0.187930
Cu21	Cu2	0.390690	0.372360	0.149970
Cu31	Cu3	0.519960	0.835610	0.437070
O11	O1	0.461100	0.717700	0.409500
O21	O2	0.056700	0.433200	0.579200
O31	O3	0.453100	0.268800	0.195500
O41	O4	0.377000	0.436200	0.240800
O51	O5	0.309000	0.315000	0.274800
O61	O6	0.077900	0.451700	0.469500
N11	N1	0.556100	0.827800	0.341000
O71	O7	0.419180	0.731500	0.510200
O81	O8	0.618210	0.278100	0.932300
O91	O9	0.817700	0.958800	0.108000
O101	O10	0.379600	0.149400	0.221600
O111	O11	0.743800	0.850700	0.148800
N21	N2	0.192700	0.559400	0.512400
O121	O12	0.698700	0.173400	0.903000
O131	O13	0.219400	0.383800	0.506400
N31	N3	0.545600	0.107200	0.204000
C11	C1	0.436800	0.179400	0.216000
C21	C2	0.656600	0.135000	0.007700
N41	N4	0.468500	0.463500	0.116100
C31	C3	0.420900	0.691200	0.450600
C41	C4	0.286000	0.443400	0.387400
H11	H1	0.258300	0.385700	0.376300
C51	C5	0.600600	0.080700	0.103000
C61	C6	0.089100	0.468300	0.534500
C71	C7	0.602500	0.141700	0.042900
H21	H2	0.568000	0.186100	0.026700
C81	C8	0.541000	0.081300	0.138400
C91	C9	0.656400	0.201100	0.943300
O141	O14	0.487100	0.054500	0.105700
C101	C10	0.490100	0.101400	0.243400
H31	H3	0.472900	0.028300	0.242100
C111	C11	0.278200	0.506200	0.444900
C121	C12	0.322100	0.585600	0.463600
H41	H4	0.317600	0.627200	0.502300
C131	C13	0.378800	0.548200	0.366700
H51	H5	0.411500	0.563900	0.339900
C141	C14	0.342300	0.398700	0.282600
C151	C15	0.706000	0.007500	0.090600
C161	C16	0.334900	0.465600	0.346100
C171	C17	0.650600	0.013700	0.124100
H61	H6	0.648000	0.970200	0.162400
C181	C18	0.226800	0.477200	0.490400
C191	C19	0.760100	0.933200	0.118000
C201	C20	0.707900	0.071300	0.031400
H71	H7	0.744300	0.070000	0.008300
C211	C21	0.147500	0.537800	0.562100
H81	H8	0.170700	0.504400	0.603500
C221	C22	0.374200	0.606200	0.425500
C231	C23	0.618900	0.819800	0.338300
H91	H9	0.647300	0.824900	0.379100
C241	C24	0.602900	0.155600	0.247300
H101	H10	0.642900	0.121300	0.238500
H111	H11	0.605800	0.231800	0.238700
C251	C25	0.190800	0.671300	0.489800
H121	H12	0.190400	0.676400	0.440100
H131	H13	0.227600	0.711000	0.512500
C261	C26	0.601800	0.797300	0.216000
H141	H14	0.617400	0.785800	0.174000
C271	C27	0.515700	0.820100	0.282400
H151	H15	0.471300	0.823400	0.284600
C281	C28	0.519600	0.130000	0.317700
H161	H16	0.503200	0.198500	0.331300
H171	H17	0.508600	0.075800	0.349900
C291	C29	0.126200	0.648400	0.579500
H181	H18	0.155400	0.679200	0.617100
H191	H19	0.082600	0.647500	0.592300
C301	C30	0.644200	0.804100	0.275900
H201	H20	0.688700	0.798300	0.275100
C311	C31	0.517600	0.406800	0.096200
H211	H21	0.516000	0.332600	0.099600
C321	C32	0.128600	0.711500	0.511300
H221	H22	0.091900	0.694400	0.477200
H231	H23	0.130000	0.788200	0.519300
C331	C33	0.571400	0.452700	0.070600
H241	H24	0.604300	0.410200	0.057100
C341	C34	0.536800	0.807500	0.218500
H251	H25	0.507500	0.806100	0.178200
C351	C35	0.470500	0.569100	0.109700
H261	H26	0.437900	0.610500	0.124800
C361	C36	0.522100	0.621200	0.079600
H271	H27	0.519700	0.694000	0.069700
C371	C37	0.589600	0.135000	0.318000
H281	H28	0.609200	0.067800	0.334500
H291	H29	0.607700	0.191800	0.348400
C381	C38	0.573800	0.564000	0.066000
H301	H30	0.610400	0.598100	0.053800
Cu41	Cu4	0.802780	0.737030	0.187930
Cu51	Cu5	0.890690	0.872360	0.149970
Cu61	Cu6	0.019960	0.335610	0.437070
O151	O15	0.961100	0.217700	0.409500
O161	O16	0.556700	0.933200	0.579200
O171	O17	0.953100	0.768800	0.195500
O181	O18	0.877000	0.936200	0.240800
O191	O19	0.809000	0.815000	0.274800
O201	O20	0.577900	0.951700	0.469500
N51	N5	0.056100	0.327800	0.341000
O211	O21	0.919180	0.231500	0.510200
O221	O22	0.118210	0.778100	0.932300
O231	O23	0.317700	0.458800	0.108000
O241	O24	0.879600	0.649400	0.221600
O251	O25	0.243800	0.350700	0.148800
N61	N6	0.692700	0.059400	0.512400
O261	O26	0.198700	0.673400	0.903000
O271	O27	0.719400	0.883800	0.506400
N71	N7	0.045600	0.607200	0.204000
C391	C39	0.936800	0.679400	0.216000
C401	C40	0.156600	0.635000	0.007700
N81	N8	0.968500	0.963500	0.116100
C411	C41	0.920900	0.191200	0.450600
C421	C42	0.786000	0.943400	0.387400
H311	H31	0.758300	0.885700	0.376300
C431	C43	0.100600	0.580700	0.103000
C441	C44	0.589100	0.968300	0.534500
C451	C45	0.102500	0.641700	0.042900
H321	H32	0.068000	0.686100	0.026700
C461	C46	0.041000	0.581300	0.138400
C471	C47	0.156400	0.701100	0.943300
O281	O28	0.987100	0.554500	0.105700
C481	C48	0.990100	0.601400	0.243400
H331	H33	0.972900	0.528300	0.242100
C491	C49	0.778200	0.006200	0.444900
C501	C50	0.822100	0.085600	0.463600
H341	H34	0.817600	0.127200	0.502300
C511	C51	0.878800	0.048200	0.366700
H351	H35	0.911500	0.063900	0.339900
C521	C52	0.842300	0.898700	0.282600
C531	C53	0.206000	0.507500	0.090600
C541	C54	0.834900	0.965600	0.346100
C551	C55	0.150600	0.513700	0.124100
H361	H36	0.148000	0.470200	0.162400
C561	C56	0.726800	0.977200	0.490400
C571	C57	0.260100	0.433200	0.118000
C581	C58	0.207900	0.571300	0.031400
H371	H37	0.244300	0.570000	0.008300
C591	C59	0.647500	0.037800	0.562100
H381	H38	0.670700	0.004400	0.603500
C601	C60	0.874200	0.106200	0.425500
C611	C61	0.118900	0.319800	0.338300
H391	H39	0.147300	0.324900	0.379100
C621	C62	0.102900	0.655600	0.247300
H401	H40	0.142900	0.621300	0.238500
H411	H41	0.105800	0.731800	0.238700
C631	C63	0.690800	0.171300	0.489800
H421	H42	0.690400	0.176400	0.440100
H431	H43	0.727600	0.211000	0.512500
C641	C64	0.101800	0.297300	0.216000
H441	H44	0.117400	0.285800	0.174000
C651	C65	0.015700	0.320100	0.282400
H451	H45	0.971300	0.323400	0.284600
C661	C66	0.019600	0.630000	0.317700
H461	H46	0.003200	0.698500	0.331300
H471	H47	0.008600	0.575800	0.349900
C671	C67	0.626200	0.148400	0.579500
H481	H48	0.655400	0.179200	0.617100
H491	H49	0.582600	0.147500	0.592300
C681	C68	0.144200	0.304100	0.275900
H501	H50	0.188700	0.298300	0.275100
C691	C69	0.017600	0.906800	0.096200
H511	H51	0.016000	0.832600	0.099600
C701	C70	0.628600	0.211500	0.511300
H521	H52	0.591900	0.194400	0.477200
H531	H53	0.630000	0.288200	0.519300
C711	C71	0.071400	0.952700	0.070600
H541	H54	0.104300	0.910200	0.057100
C721	C72	0.036800	0.307500	0.218500
H551	H55	0.007500	0.306100	0.178200
C731	C73	0.970500	0.069100	0.109700
H561	H56	0.937900	0.110500	0.124800
C741	C74	0.022100	0.121200	0.079600
H571	H57	0.019700	0.194000	0.069700
C751	C75	0.089600	0.635000	0.318000
H581	H58	0.109200	0.567800	0.334500
H591	H59	0.107700	0.691800	0.348400
C761	C76	0.073800	0.064000	0.066000
H601	H60	0.110400	0.098100	0.053800
Cu71	Cu7	0.697220	0.237030	0.812070
Cu81	Cu8	0.609310	0.372360	0.850030
Cu91	Cu9	0.480040	0.835610	0.562930
O291	O29	0.538900	0.717700	0.590500
O301	O30	0.943300	0.433200	0.420800
O311	O31	0.546900	0.268800	0.804500
O321	O32	0.623000	0.436200	0.759200
O331	O33	0.691000	0.315000	0.725200
O341	O34	0.922100	0.451700	0.530500
N91	N9	0.443900	0.827800	0.659000
O351	O35	0.580820	0.731500	0.489800
O361	O36	0.381790	0.278100	0.067700
O371	O37	0.182300	0.958800	0.892000
O381	O38	0.620400	0.149400	0.778400
O391	O39	0.256200	0.850700	0.851200
N101	N10	0.807300	0.559400	0.487600
O401	O40	0.301300	0.173400	0.097000
O411	O41	0.780600	0.383800	0.493600
N111	N11	0.454400	0.107200	0.796000
C771	C77	0.563200	0.179400	0.784000
C781	C78	0.343400	0.135000	0.992300
N121	N12	0.531500	0.463500	0.883900
C791	C79	0.579100	0.691200	0.549400
C801	C80	0.714000	0.443400	0.612600
H611	H61	0.741700	0.385700	0.623700
C811	C81	0.399400	0.080700	0.897000
C821	C82	0.910900	0.468300	0.465500
C831	C83	0.397500	0.141700	0.957100
H621	H62	0.432000	0.186100	0.973300
C841	C84	0.459000	0.081300	0.861600
C851	C85	0.343600	0.201100	0.056700
O421	O42	0.512900	0.054500	0.894300
C861	C86	0.509900	0.101400	0.756600
H631	H63	0.527100	0.028300	0.757900
C871	C87	0.721800	0.506200	0.555100
C881	C88	0.677900	0.585600	0.536400
H641	H64	0.682400	0.627200	0.497700
C891	C89	0.621200	0.548200	0.633300
H651	H65	0.588500	0.563900	0.660100
C901	C90	0.657700	0.398700	0.717400
C911	C91	0.294000	0.007500	0.909400
C921	C92	0.665100	0.465600	0.653900
C931	C93	0.349400	0.013700	0.875900
H661	H66	0.352000	0.970200	0.837600
C941	C94	0.773200	0.477200	0.509600
C951	C95	0.239900	0.933200	0.882000
C961	C96	0.292100	0.071300	0.968600
H671	H67	0.255700	0.070000	0.991700
C971	C97	0.852500	0.537800	0.437900
H681	H68	0.829300	0.504400	0.396500
C981	C98	0.625800	0.606200	0.574500
C991	C99	0.381100	0.819800	0.661700
H691	H69	0.352700	0.824900	0.620900
C1001	C100	0.397100	0.155600	0.752700
H701	H70	0.357100	0.121300	0.761500
H711	H71	0.394200	0.231800	0.761300
C1011	C101	0.809200	0.671300	0.510200
H721	H72	0.809600	0.676400	0.559900
H731	H73	0.772400	0.711000	0.487500
C1021	C102	0.398200	0.797300	0.784000
H741	H74	0.382600	0.785800	0.826000
C1031	C103	0.484300	0.820100	0.717600
H751	H75	0.528700	0.823400	0.715400
C1041	C104	0.480400	0.130000	0.682300
H761	H76	0.496800	0.198500	0.668700
H771	H77	0.491400	0.075800	0.650100
C1051	C105	0.873800	0.648400	0.420500
H781	H78	0.844600	0.679200	0.382900
H791	H79	0.917400	0.647500	0.407700
C1061	C106	0.355800	0.804100	0.724100
H801	H80	0.311300	0.798300	0.724900
C1071	C107	0.482400	0.406800	0.903800
H811	H81	0.484000	0.332600	0.900400
C1081	C108	0.871400	0.711500	0.488700
H821	H82	0.908100	0.694400	0.522800
H831	H83	0.870000	0.788200	0.480700
C1091	C109	0.428600	0.452700	0.929400
H841	H84	0.395700	0.410200	0.942900
C1101	C110	0.463200	0.807500	0.781500
H851	H85	0.492500	0.806100	0.821800
C1111	C111	0.529500	0.569100	0.890300
H861	H86	0.562100	0.610500	0.875200
C1121	C112	0.477900	0.621200	0.920400
H871	H87	0.480300	0.694000	0.930300
C1131	C113	0.410400	0.135000	0.682000
H881	H88	0.390800	0.067800	0.665500
H891	H89	0.392300	0.191800	0.651600
C1141	C114	0.426200	0.564000	0.934000
H901	H90	0.389600	0.598100	0.946200
Cu101	Cu10	0.197220	0.737030	0.812070
Cu111	Cu11	0.109310	0.872360	0.850030
Cu121	Cu12	0.980040	0.335610	0.562930
O431	O43	0.038900	0.217700	0.590500
O441	O44	0.443300	0.933200	0.420800
O451	O45	0.046900	0.768800	0.804500
O461	O46	0.123000	0.936200	0.759200
O471	O47	0.191000	0.815000	0.725200
O481	O48	0.422100	0.951700	0.530500
N131	N13	0.943900	0.327800	0.659000
O491	O49	0.080820	0.231500	0.489800
O501	O50	0.881790	0.778100	0.067700
O511	O51	0.682300	0.458800	0.892000
O521	O52	0.120400	0.649400	0.778400
O531	O53	0.756200	0.350700	0.851200
N141	N14	0.307300	0.059400	0.487600
O541	O54	0.801300	0.673400	0.097000
O551	O55	0.280600	0.883800	0.493600
N151	N15	0.954400	0.607200	0.796000
C1151	C115	0.063200	0.679400	0.784000
C1161	C116	0.843400	0.635000	0.992300
N161	N16	0.031500	0.963500	0.883900
C1171	C117	0.079100	0.191200	0.549400
C1181	C118	0.214000	0.943400	0.612600
H911	H91	0.241700	0.885700	0.623700
C1191	C119	0.899400	0.580700	0.897000
C1201	C120	0.410900	0.968300	0.465500
C1211	C121	0.897500	0.641700	0.957100
H921	H92	0.932000	0.686100	0.973300
C1221	C122	0.959000	0.581300	0.861600
C1231	C123	0.843600	0.701100	0.056700
O561	O56	0.012900	0.554500	0.894300
C1241	C124	0.009900	0.601400	0.756600
H931	H93	0.027100	0.528300	0.757900
C1251	C125	0.221800	0.006200	0.555100
C1261	C126	0.177900	0.085600	0.536400
H941	H94	0.182400	0.127200	0.497700
C1271	C127	0.121200	0.048200	0.633300
H951	H95	0.088500	0.063900	0.660100
C1281	C128	0.157700	0.898700	0.717400
C1291	C129	0.794000	0.507500	0.909400
C1301	C130	0.165100	0.965600	0.653900
C1311	C131	0.849400	0.513700	0.875900
H961	H96	0.852000	0.470200	0.837600
C1321	C132	0.273200	0.977200	0.509600
C1331	C133	0.739900	0.433200	0.882000
C1341	C134	0.792100	0.571300	0.968600
H971	H97	0.755700	0.570000	0.991700
C1351	C135	0.352500	0.037800	0.437900
H981	H98	0.329300	0.004400	0.396500
C1361	C136	0.125800	0.106200	0.574500
C1371	C137	0.881100	0.319800	0.661700
H991	H99	0.852700	0.324900	0.620900
C1381	C138	0.897100	0.655600	0.752700
H1001	H100	0.857100	0.621300	0.761500
H1011	H101	0.894200	0.731800	0.761300
C1391	C139	0.309200	0.171300	0.510200
H1021	H102	0.309600	0.176400	0.559900
H1031	H103	0.272400	0.211000	0.487500
C1401	C140	0.898200	0.297300	0.784000
H1041	H104	0.882600	0.285800	0.826000
C1411	C141	0.984300	0.320100	0.717600
H1051	H105	0.028700	0.323400	0.715400
C1421	C142	0.980400	0.630000	0.682300
H1061	H106	0.996800	0.698500	0.668700
H1071	H107	0.991400	0.575800	0.650100
C1431	C143	0.373800	0.148400	0.420500
H1081	H108	0.344600	0.179200	0.382900
H1091	H109	0.417400	0.147500	0.407700
C1441	C144	0.855800	0.304100	0.724100
H1101	H110	0.811300	0.298300	0.724900
C1451	C145	0.982400	0.906800	0.903800
H1111	H111	0.984000	0.832600	0.900400
C1461	C146	0.371400	0.211500	0.488700
H1121	H112	0.408100	0.194400	0.522800
H1131	H113	0.370000	0.288200	0.480700
C1471	C147	0.928600	0.952700	0.929400
H1141	H114	0.895700	0.910200	0.942900
C1481	C148	0.963200	0.307500	0.781500
H1151	H115	0.992500	0.306100	0.821800
C1491	C149	0.029500	0.069100	0.890300
H1161	H116	0.062100	0.110500	0.875200
C1501	C150	0.977900	0.121200	0.920400
H1171	H117	0.980300	0.194000	0.930300
C1511	C151	0.910400	0.635000	0.682000
H1181	H118	0.890800	0.567800	0.665500
H1191	H119	0.892300	0.691800	0.651600
C1521	C152	0.926200	0.064000	0.934000
H1201	H120	0.889600	0.098100	0.946200
