data_AHOJUC_clean_PM
_symmetry_space_group_name_H-M	'P1'
_cell_length_a	9.243000
_cell_length_b	8.817000
_cell_length_c	9.684000
_cell_angle_alpha	90.000000
_cell_angle_beta	120.920000
_cell_angle_gamma	90.000000
_symmetry_Int_Tables_number 1

loop_
_symmetry_equiv_pos_as_xyz
'x,y,z'

loop_
_atom_site_label
_atom_site_type_symbol
_atom_site_fract_x
_atom_site_fract_y
_atom_site_fract_z
P11	P1	0.257600	0.898300	0.926500
P21	P2	0.167400	0.667100	0.527200
O11	O1	0.136000	0.601000	0.655000
O21	O2	0.346000	0.743000	0.590000
O31	O3	0.152000	0.552000	0.395000
O41	O4	0.356000	0.942000	0.104000
O51	O5	0.137000	0.768000	0.895000
O61	O6	0.369000	0.885000	0.861000
P31	P3	0.742400	0.898300	0.573500
P41	P4	0.832600	0.667100	0.972800
O71	O7	0.864000	0.601000	0.845000
O81	O8	0.654000	0.743000	0.910000
O91	O9	0.848000	0.552000	0.105000
O101	O10	0.644000	0.942000	0.396000
O111	O11	0.863000	0.768000	0.605000
O121	O12	0.631000	0.885000	0.639000
P51	P5	0.742400	0.101700	0.073500
P61	P6	0.832600	0.332900	0.472800
O131	O13	0.864000	0.399000	0.345000
O141	O14	0.654000	0.257000	0.410000
O151	O15	0.848000	0.448000	0.605000
O161	O16	0.644000	0.058000	0.896000
O171	O17	0.863000	0.232000	0.105000
O181	O18	0.631000	0.115000	0.139000
P71	P7	0.257600	0.101700	0.426500
P81	P8	0.167400	0.332900	0.027200
O191	O19	0.136000	0.399000	0.155000
O201	O20	0.346000	0.257000	0.090000
O211	O21	0.152000	0.448000	0.895000
O221	O22	0.356000	0.058000	0.604000
O231	O23	0.137000	0.232000	0.395000
O241	O24	0.369000	0.115000	0.361000
V11	V1	0.000000	0.607300	0.750000
V21	V2	0.000000	0.392700	0.250000
V31	V3	0.500000	0.889600	0.750000
V41	V4	0.500000	0.110400	0.250000
