data_AHOKIR_clean_PM
_symmetry_space_group_name_H-M	'P1'
_cell_length_a	20.030500
_cell_length_b	6.671300
_cell_length_c	4.399600
_cell_angle_alpha	90.000000
_cell_angle_beta	91.379000
_cell_angle_gamma	90.000000
_symmetry_Int_Tables_number 1

loop_
_symmetry_equiv_pos_as_xyz
'x,y,z'

loop_
_atom_site_label
_atom_site_type_symbol
_atom_site_fract_x
_atom_site_fract_y
_atom_site_fract_z
O11	O1	0.181500	0.304000	0.300800
O21	O2	0.681500	0.804000	0.300800
O31	O3	0.818500	0.304000	0.699200
O41	O4	0.318500	0.804000	0.699200
O51	O5	0.818500	0.696000	0.699200
O61	O6	0.318500	0.196000	0.699200
O71	O7	0.181500	0.696000	0.300800
O81	O8	0.681500	0.196000	0.300800
Cu11	Cu1	0.250000	0.250000	0.000000
Cu21	Cu2	0.750000	0.250000	0.000000
Cu31	Cu3	0.750000	0.750000	0.000000
Cu41	Cu4	0.250000	0.750000	0.000000
P11	P1	0.175000	0.500000	0.478800
C11	C1	0.096100	0.500000	0.667000
C21	C2	0.036900	0.500000	0.438000
P21	P2	0.675000	0.000000	0.478800
C31	C3	0.596100	0.000000	0.667000
C41	C4	0.536900	0.000000	0.438000
P31	P3	0.825000	0.500000	0.521200
C51	C5	0.903900	0.500000	0.333000
C61	C6	0.963100	0.500000	0.562000
P41	P4	0.325000	0.000000	0.521200
C71	C7	0.403900	0.000000	0.333000
C81	C8	0.463100	0.000000	0.562000
O91	O9	0.272300	0.000000	0.253000
O101	O10	0.772300	0.500000	0.253000
O111	O11	0.727700	0.000000	0.747000
O121	O12	0.227700	0.500000	0.747000
