data_AJIGIL_clean_PM
_symmetry_space_group_name_H-M	'P1'
_cell_length_a	15.374500
_cell_length_b	23.402300
_cell_length_c	25.344300
_cell_angle_alpha	90.000000
_cell_angle_beta	90.000000
_cell_angle_gamma	90.000000
_symmetry_Int_Tables_number 1

loop_
_symmetry_equiv_pos_as_xyz
'x,y,z'

loop_
_atom_site_label
_atom_site_type_symbol
_atom_site_fract_x
_atom_site_fract_y
_atom_site_fract_z
Br11	Br1	0.393050	0.627010	0.764850
C11	C1	0.345900	0.553300	0.752100
C21	C2	0.258000	0.552600	0.742900
C31	C3	0.400700	0.505400	0.759000
C41	C4	0.199600	0.604300	0.740600
N11	N1	0.208400	0.504100	0.738600
C51	C5	0.490800	0.504200	0.784100
N21	N2	0.373500	0.452300	0.749800
C61	C6	0.116500	0.578600	0.768500
H11	H1	0.224400	0.636300	0.762000
C71	C7	0.180100	0.624200	0.684500
C81	C8	0.121900	0.517100	0.749200
Co11	Co1	0.255560	0.429330	0.733480
C91	C9	0.525800	0.447500	0.761800
C101	C10	0.556200	0.552700	0.777600
C111	C11	0.475200	0.495800	0.844500
C121	C12	0.441600	0.412300	0.754100
C131	C13	0.131800	0.576600	0.829700
C141	C14	0.033800	0.613200	0.755100
H21	H2	0.144900	0.594500	0.666700
H31	H3	0.144300	0.659300	0.686500
C151	C15	0.259200	0.636600	0.650800
C161	C16	0.055200	0.478400	0.746100
N31	N3	0.142800	0.398800	0.718300
N41	N4	0.227700	0.423900	0.808100
N51	N5	0.287600	0.351500	0.731600
N61	N6	0.281500	0.442300	0.658100
H41	H4	0.565500	0.428500	0.787600
C171	C17	0.569200	0.452500	0.707300
H51	H5	0.613700	0.539800	0.789300
H61	H6	0.537900	0.585500	0.798900
H71	H7	0.559000	0.563900	0.740400
H81	H8	0.531100	0.490200	0.862300
H91	H9	0.438300	0.462200	0.850200
H101	H10	0.446300	0.529700	0.859000
C181	C18	0.441000	0.355200	0.748500
H111	H11	0.086700	0.552100	0.846100
H121	H12	0.189100	0.559000	0.836900
C191	C19	0.128900	0.635100	0.855000
H131	H13	0.016200	0.605200	0.718700
H141	H14	0.045900	0.654100	0.758900
H151	H15	0.986800	0.602300	0.779200
H161	H16	0.298700	0.662500	0.670200
H171	H17	0.290800	0.600500	0.644000
C201	C20	0.234300	0.663700	0.599000
C211	C21	0.067400	0.422400	0.727000
C221	C22	0.966400	0.494300	0.769100
C231	C23	0.138900	0.337000	0.703400
N71	N7	0.269100	0.395800	0.834600
C241	C24	0.360500	0.324600	0.740400
C251	C25	0.215000	0.311300	0.734600
C261	C26	0.354700	0.427500	0.635700
C271	C27	0.234500	0.470400	0.617100
H181	H18	0.542700	0.485400	0.688700
H191	H19	0.554500	0.417800	0.686900
C281	C28	0.669300	0.460100	0.706000
C291	C29	0.525700	0.322900	0.752600
N81	N8	0.056500	0.646900	0.880700
O11	O1	0.189800	0.668600	0.851500
N91	N9	0.285100	0.650300	0.557700
O21	O2	0.173600	0.697400	0.595000
C301	C30	0.996000	0.379500	0.713700
H201	H20	0.974700	0.517000	0.801300
H211	H21	0.934100	0.459400	0.777600
H221	H22	0.933700	0.516800	0.743300
C311	C31	0.042900	0.321400	0.720700
C321	C32	0.155000	0.329800	0.643900
N101	N10	0.311600	0.368100	0.863500
C331	C33	0.348200	0.259300	0.742200
C341	C34	0.255900	0.255000	0.718100
H231	H23	0.196900	0.308000	0.772400
H241	H24	0.398100	0.406200	0.653700
N111	N11	0.364000	0.444700	0.585700
C351	C35	0.154600	0.495800	0.615400
C361	C36	0.288500	0.472700	0.572400
H251	H25	0.687100	0.475400	0.671200
H261	H26	0.687100	0.487900	0.733400
C371	C37	0.714900	0.402600	0.715900
H271	H27	0.571400	0.348700	0.765300
H281	H28	0.541800	0.307900	0.717800
H291	H29	0.519000	0.291100	0.777400
H301	H30	0.050400	0.680200	0.896500
H311	H31	0.014400	0.621500	0.882200
Na11	Na1	0.270440	0.757840	0.838610
H321	H32	0.275400	0.665900	0.526700
H331	H33	0.328300	0.626000	0.561700
H341	H34	0.949900	0.382400	0.741400
C381	C38	0.953100	0.389200	0.659700
C391	C39	0.000300	0.273600	0.690200
C401	C40	0.042100	0.306600	0.780500
H351	H35	0.112400	0.352500	0.624100
H361	H36	0.148900	0.289400	0.634300
H371	H37	0.213900	0.342900	0.635200
C411	C41	0.350000	0.242100	0.801000
C421	C42	0.413400	0.223100	0.711700
H381	H38	0.261700	0.255100	0.678800
C431	C43	0.203100	0.201400	0.734100
C441	C44	0.432900	0.425400	0.549200
H391	H39	0.118100	0.494700	0.645700
C451	C45	0.126400	0.522800	0.570500
C461	C46	0.261400	0.497700	0.525400
N121	N12	0.758900	0.399500	0.761200
O31	O3	0.709900	0.363900	0.684000
H401	H40	0.998500	0.385500	0.632200
H411	H41	0.910200	0.358300	0.653800
C471	C47	0.907200	0.446400	0.652100
H421	H42	0.939500	0.269800	0.701200
H431	H43	0.031100	0.237700	0.697100
H441	H44	0.002800	0.282100	0.652300
H451	H45	0.084100	0.275200	0.786800
H461	H46	0.063000	0.340400	0.800400
C481	C48	0.954300	0.288700	0.803100
H471	H47	0.404100	0.255700	0.817100
H481	H48	0.346900	0.200400	0.804000
H491	H49	0.300200	0.259200	0.819100
H501	H50	0.469900	0.224700	0.730300
H511	H51	0.393400	0.182900	0.712300
C491	C49	0.427800	0.240400	0.654500
H521	H52	0.214900	0.192400	0.771600
H531	H53	0.140200	0.209800	0.730700
C501	C50	0.225500	0.149500	0.700100
C511	C51	0.414800	0.364400	0.530300
H541	H54	0.436400	0.451800	0.518300
O41	O4	0.512800	0.425190	0.576650
C521	C52	0.181700	0.522400	0.523900
C531	C53	0.039200	0.552600	0.568700
H551	H55	0.297800	0.497500	0.495100
H561	H56	0.786700	0.367900	0.769600
H571	H57	0.760100	0.429000	0.782700
H581	H58	0.950600	0.477600	0.654300
H591	H59	0.864600	0.452000	0.680900
C541	C54	0.859800	0.450200	0.598900
N131	N13	0.957900	0.248100	0.839500
O51	O5	0.885000	0.311100	0.790700
H601	H60	0.377300	0.228400	0.633100
H611	H61	0.432700	0.282500	0.652200
C551	C55	0.509400	0.213400	0.632800
N141	N14	0.221400	0.100000	0.724800
O61	O6	0.245200	0.154600	0.652700
C561	C56	0.507500	0.342900	0.523700
H621	H62	0.382400	0.364000	0.496100
O71	O7	0.370600	0.334250	0.569380
C571	C57	0.554500	0.370600	0.569900
C581	C58	0.147300	0.548500	0.473700
H631	H63	0.011400	0.550100	0.603400
H641	H64	0.002100	0.534100	0.542300
H651	H65	0.047600	0.592800	0.559300
O81	O8	0.582400	0.230900	0.646800
N151	N15	0.819700	0.498800	0.590900
O91	O9	0.860500	0.409600	0.566900
H661	H66	0.910000	0.236600	0.855300
H671	H67	0.008200	0.232600	0.847900
N161	N16	0.498200	0.169400	0.600100
H681	H68	0.233000	0.068100	0.707700
H691	H69	0.207100	0.098800	0.758400
Na21	Na2	0.212200	0.143090	0.566830
H701	H70	0.532200	0.357200	0.489700
O101	O10	0.515100	0.283280	0.526050
H711	H71	0.361200	0.300700	0.559000
H721	H72	0.546700	0.346900	0.602400
C591	C59	0.651700	0.380200	0.559300
H731	H73	0.088300	0.562900	0.479700
H741	H74	0.146200	0.519500	0.445900
H751	H75	0.185200	0.580100	0.463000
H761	H76	0.790800	0.504500	0.561400
H771	H77	0.821700	0.525800	0.615000
C601	C60	0.571800	0.139200	0.576400
H781	H78	0.445000	0.158300	0.592400
P11	P1	0.544320	0.250210	0.473750
H791	H79	0.676600	0.403900	0.588000
H801	H80	0.682200	0.342900	0.559400
O111	O11	0.665500	0.407300	0.511000
H811	H81	0.550700	0.102800	0.561000
H821	H82	0.614200	0.129600	0.604400
C611	C61	0.617100	0.173000	0.534200
O121	O12	0.552400	0.187600	0.494530
O131	O13	0.629100	0.274690	0.455500
O141	O14	0.471700	0.251100	0.435200
H831	H83	0.682500	0.446100	0.506500
H841	H84	0.644800	0.208100	0.549100
C621	C62	0.683700	0.135600	0.507100
H851	H85	0.724800	0.120800	0.533300
H861	H86	0.715300	0.158100	0.480800
H871	H87	0.654300	0.103600	0.489700
Br21	Br2	0.106950	0.372990	0.264850
C631	C63	0.154100	0.446700	0.252100
C641	C64	0.242000	0.447400	0.242900
C651	C65	0.099300	0.494600	0.259000
C661	C66	0.300400	0.395700	0.240600
N171	N17	0.291600	0.495900	0.238600
C671	C67	0.009200	0.495800	0.284100
N181	N18	0.126500	0.547700	0.249800
C681	C68	0.383500	0.421400	0.268500
H881	H88	0.275600	0.363700	0.262000
C691	C69	0.319900	0.375800	0.184500
C701	C70	0.378100	0.482900	0.249200
Co21	Co2	0.244440	0.570670	0.233480
C711	C71	0.974200	0.552500	0.261800
C721	C72	0.943800	0.447300	0.277600
C731	C73	0.024800	0.504200	0.344500
C741	C74	0.058400	0.587700	0.254100
C751	C75	0.368200	0.423400	0.329700
C761	C76	0.466200	0.386800	0.255100
H891	H89	0.355100	0.405500	0.166700
H901	H90	0.355700	0.340700	0.186500
C771	C77	0.240800	0.363400	0.150800
C781	C78	0.444800	0.521600	0.246100
N191	N19	0.357200	0.601200	0.218300
N201	N20	0.272300	0.576100	0.308100
N211	N21	0.212400	0.648500	0.231600
N221	N22	0.218500	0.557700	0.158100
H911	H91	0.934500	0.571500	0.287600
C791	C79	0.930800	0.547500	0.207300
H921	H92	0.886300	0.460200	0.289300
H931	H93	0.962100	0.414500	0.298900
H941	H94	0.941000	0.436100	0.240400
H951	H95	0.968900	0.509800	0.362300
H961	H96	0.061700	0.537800	0.350200
H971	H97	0.053700	0.470300	0.359000
C801	C80	0.059000	0.644800	0.248500
H981	H98	0.413300	0.447900	0.346100
H991	H99	0.310900	0.441000	0.336900
C811	C81	0.371100	0.364900	0.355000
H1001	H100	0.483800	0.394800	0.218700
H1011	H101	0.454100	0.345900	0.258900
H1021	H102	0.513200	0.397700	0.279200
H1031	H103	0.201300	0.337500	0.170200
H1041	H104	0.209200	0.399500	0.144000
C821	C82	0.265700	0.336300	0.099000
C831	C83	0.432600	0.577600	0.227000
C841	C84	0.533600	0.505700	0.269100
C851	C85	0.361100	0.663000	0.203400
N231	N23	0.230900	0.604200	0.334600
C861	C86	0.139500	0.675400	0.240400
C871	C87	0.285000	0.688700	0.234600
C881	C88	0.145300	0.572500	0.135700
C891	C89	0.265500	0.529600	0.117100
H1051	H105	0.957300	0.514600	0.188700
H1061	H106	0.945500	0.582200	0.186900
C901	C90	0.830700	0.539900	0.206000
C911	C91	0.974300	0.677100	0.252600
N241	N24	0.443500	0.353100	0.380700
O151	O15	0.310200	0.331400	0.351500
N251	N25	0.214900	0.349700	0.057700
O161	O16	0.326400	0.302600	0.095000
C921	C92	0.504000	0.620500	0.213700
H1071	H107	0.525300	0.483000	0.301300
H1081	H108	0.565900	0.540600	0.277600
H1091	H109	0.566300	0.483200	0.243300
C931	C93	0.457100	0.678600	0.220700
C941	C94	0.345000	0.670200	0.143900
N261	N26	0.188400	0.631900	0.363500
C951	C95	0.151800	0.740700	0.242200
C961	C96	0.244100	0.745000	0.218100
H1101	H110	0.303100	0.692000	0.272400
H1111	H111	0.101900	0.593800	0.153700
N271	N27	0.136000	0.555300	0.085700
C971	C97	0.345400	0.504200	0.115400
C981	C98	0.211500	0.527300	0.072400
H1121	H112	0.812900	0.524600	0.171200
H1131	H113	0.812900	0.512100	0.233400
C991	C99	0.785100	0.597400	0.215900
H1141	H114	0.928600	0.651300	0.265300
H1151	H115	0.958200	0.692100	0.217800
H1161	H116	0.981000	0.708900	0.277400
H1171	H117	0.449600	0.319800	0.396500
H1181	H118	0.485600	0.378500	0.382200
Na31	Na3	0.229560	0.242160	0.338610
H1191	H119	0.224600	0.334100	0.026700
H1201	H120	0.171700	0.374000	0.061700
H1211	H121	0.550100	0.617600	0.241400
C1001	C100	0.546900	0.610800	0.159700
C1011	C101	0.499700	0.726400	0.190200
C1021	C102	0.457900	0.693400	0.280500
H1221	H122	0.387600	0.647500	0.124100
H1231	H123	0.351100	0.710600	0.134300
H1241	H124	0.286100	0.657100	0.135200
C1031	C103	0.150000	0.757900	0.301000
C1041	C104	0.086600	0.776900	0.211700
H1251	H125	0.238300	0.744900	0.178800
C1051	C105	0.296900	0.798600	0.234100
C1061	C106	0.067100	0.574600	0.049200
H1261	H126	0.381900	0.505300	0.145700
C1071	C107	0.373600	0.477200	0.070500
C1081	C108	0.238600	0.502300	0.025400
N281	N28	0.741100	0.600500	0.261200
O171	O17	0.790100	0.636100	0.184000
H1271	H127	0.501500	0.614500	0.132200
H1281	H128	0.589800	0.641700	0.153800
C1091	C109	0.592800	0.553600	0.152100
H1291	H129	0.560500	0.730200	0.201200
H1301	H130	0.468900	0.762300	0.197100
H1311	H131	0.497200	0.717900	0.152300
H1321	H132	0.415900	0.724800	0.286800
H1331	H133	0.437000	0.659600	0.300400
C1101	C110	0.545700	0.711300	0.303100
H1341	H134	0.095900	0.744300	0.317100
H1351	H135	0.153100	0.799600	0.304000
H1361	H136	0.199800	0.740800	0.319100
H1371	H137	0.030100	0.775300	0.230300
H1381	H138	0.106600	0.817100	0.212300
C1111	C111	0.072200	0.759600	0.154500
H1391	H139	0.285100	0.807600	0.271600
H1401	H140	0.359800	0.790200	0.230700
C1121	C112	0.274500	0.850500	0.200100
C1131	C113	0.085200	0.635600	0.030300
H1411	H141	0.063600	0.548200	0.018300
O181	O18	0.987200	0.574810	0.076650
C1141	C114	0.318300	0.477600	0.023900
C1151	C115	0.460800	0.447400	0.068700
H1421	H142	0.202200	0.502500	0.995100
H1431	H143	0.713300	0.632100	0.269600
H1441	H144	0.739900	0.571000	0.282700
H1451	H145	0.549400	0.522400	0.154300
H1461	H146	0.635400	0.548000	0.180900
C1161	C116	0.640200	0.549800	0.098900
N291	N29	0.542100	0.751900	0.339500
O191	O19	0.615000	0.688900	0.290700
H1471	H147	0.122700	0.771600	0.133100
H1481	H148	0.067300	0.717500	0.152200
C1171	C117	0.990600	0.786600	0.132800
N301	N30	0.278600	0.900000	0.224800
O201	O20	0.254800	0.845400	0.152700
C1181	C118	0.992500	0.657100	0.023700
H1491	H149	0.117600	0.636000	0.996100
O211	O21	0.129400	0.665750	0.069380
C1191	C119	0.945500	0.629400	0.069900
C1201	C120	0.352700	0.451500	0.973700
H1501	H150	0.488600	0.449900	0.103400
H1511	H151	0.497900	0.465900	0.042300
H1521	H152	0.452400	0.407200	0.059300
O221	O22	0.917600	0.769100	0.146800
N311	N31	0.680300	0.501200	0.090900
O231	O23	0.639500	0.590400	0.066900
H1531	H153	0.590000	0.763400	0.355300
H1541	H154	0.491800	0.767400	0.347900
N321	N32	0.001800	0.830600	0.100100
H1551	H155	0.267000	0.931900	0.207700
H1561	H156	0.292900	0.901200	0.258400
Na41	Na4	0.287800	0.856910	0.066830
H1571	H157	0.967800	0.642800	0.989700
O241	O24	0.984900	0.716720	0.026050
H1581	H158	0.138800	0.699300	0.059000
H1591	H159	0.953300	0.653100	0.102400
C1211	C121	0.848300	0.619800	0.059300
H1601	H160	0.411700	0.437100	0.979700
H1611	H161	0.353800	0.480500	0.945900
H1621	H162	0.314800	0.419900	0.963000
H1631	H163	0.709200	0.495500	0.061400
H1641	H164	0.678300	0.474200	0.115000
C1221	C122	0.928200	0.860800	0.076400
H1651	H165	0.055000	0.841700	0.092400
P21	P2	0.955680	0.749790	0.973750
H1661	H166	0.823400	0.596100	0.088000
H1671	H167	0.817800	0.657100	0.059400
O251	O25	0.834500	0.592700	0.011000
H1681	H168	0.949300	0.897200	0.061000
H1691	H169	0.885800	0.870400	0.104400
C1231	C123	0.882900	0.827000	0.034200
O261	O26	0.947600	0.812400	0.994530
O271	O27	0.870900	0.725310	0.955500
O281	O28	0.028300	0.748900	0.935200
H1701	H170	0.817500	0.553900	0.006500
H1711	H171	0.855200	0.791900	0.049100
C1241	C124	0.816300	0.864400	0.007100
H1721	H172	0.775200	0.879200	0.033300
H1731	H173	0.784700	0.841900	0.980800
H1741	H174	0.845700	0.896400	0.989700
Br31	Br3	0.606950	0.127010	0.735150
C1251	C125	0.654100	0.053300	0.747900
C1261	C126	0.742000	0.052600	0.757100
C1271	C127	0.599300	0.005400	0.741000
C1281	C128	0.800400	0.104300	0.759400
N331	N33	0.791600	0.004100	0.761400
C1291	C129	0.509200	0.004200	0.715900
N341	N34	0.626500	0.952300	0.750200
C1301	C130	0.883500	0.078600	0.731500
H1751	H175	0.775600	0.136300	0.738000
C1311	C131	0.819900	0.124200	0.815500
C1321	C132	0.878100	0.017100	0.750800
Co31	Co3	0.744440	0.929330	0.766520
C1331	C133	0.474200	0.947500	0.738200
C1341	C134	0.443800	0.052700	0.722400
C1351	C135	0.524800	0.995800	0.655500
C1361	C136	0.558400	0.912300	0.745900
C1371	C137	0.868200	0.076600	0.670300
C1381	C138	0.966200	0.113200	0.744900
H1761	H176	0.855100	0.094500	0.833300
H1771	H177	0.855700	0.159300	0.813500
C1391	C139	0.740800	0.136600	0.849200
C1401	C140	0.944800	0.978400	0.753900
N351	N35	0.857200	0.898800	0.781700
N361	N36	0.772300	0.923900	0.691900
N371	N37	0.712400	0.851500	0.768400
N381	N38	0.718500	0.942300	0.841900
H1781	H178	0.434500	0.928500	0.712400
C1411	C141	0.430800	0.952500	0.792700
H1791	H179	0.386300	0.039800	0.710700
H1801	H180	0.462100	0.085500	0.701100
H1811	H181	0.441000	0.063900	0.759600
H1821	H182	0.468900	0.990200	0.637700
H1831	H183	0.561700	0.962200	0.649800
H1841	H184	0.553700	0.029700	0.641000
C1421	C142	0.559000	0.855200	0.751500
H1851	H185	0.913300	0.052100	0.653900
H1861	H186	0.810900	0.059000	0.663100
C1431	C143	0.871100	0.135100	0.645000
H1871	H187	0.983800	0.105200	0.781300
H1881	H188	0.954100	0.154100	0.741100
H1891	H189	0.013200	0.102300	0.720800
H1901	H190	0.701300	0.162500	0.829800
H1911	H191	0.709200	0.100500	0.856000
C1441	C144	0.765700	0.163700	0.901000
C1451	C145	0.932600	0.922400	0.773000
C1461	C146	0.033600	0.994300	0.730900
C1471	C147	0.861100	0.837000	0.796600
N391	N39	0.730900	0.895800	0.665400
C1481	C148	0.639500	0.824600	0.759600
C1491	C149	0.785000	0.811300	0.765400
C1501	C150	0.645300	0.927500	0.864300
C1511	C151	0.765500	0.970400	0.882900
H1921	H192	0.457300	0.985400	0.811300
H1931	H193	0.445500	0.917800	0.813100
C1521	C152	0.330700	0.960100	0.794000
C1531	C153	0.474300	0.822900	0.747400
N401	N40	0.943500	0.146900	0.619300
O291	O29	0.810200	0.168600	0.648500
N411	N41	0.714900	0.150300	0.942300
O301	O30	0.826400	0.197400	0.905000
C1541	C154	0.004000	0.879500	0.786300
H1941	H194	0.025300	0.017000	0.698700
H1951	H195	0.065900	0.959400	0.722400
H1961	H196	0.066300	0.016800	0.756700
C1551	C155	0.957100	0.821400	0.779300
C1561	C156	0.845000	0.829800	0.856100
N421	N42	0.688400	0.868100	0.636500
C1571	C157	0.651800	0.759300	0.757800
C1581	C158	0.744100	0.755000	0.781900
H1971	H197	0.803100	0.808000	0.727600
H1981	H198	0.601900	0.906200	0.846300
N431	N43	0.636000	0.944700	0.914300
C1591	C159	0.845400	0.995800	0.884600
C1601	C160	0.711500	0.972700	0.927600
H1991	H199	0.312900	0.975400	0.828800
H2001	H200	0.312900	0.987900	0.766600
C1611	C161	0.285100	0.902600	0.784100
H2011	H201	0.428600	0.848700	0.734700
H2021	H202	0.458200	0.807900	0.782200
H2031	H203	0.481000	0.791100	0.722600
H2041	H204	0.949600	0.180200	0.603500
H2051	H205	0.985600	0.121500	0.617800
Na51	Na5	0.729560	0.257840	0.661390
H2061	H206	0.724600	0.165900	0.973300
H2071	H207	0.671700	0.126000	0.938300
H2081	H208	0.050100	0.882400	0.758600
C1621	C162	0.046900	0.889200	0.840300
C1631	C163	0.999700	0.773600	0.809800
C1641	C164	0.957900	0.806600	0.719500
H2091	H209	0.887600	0.852500	0.875900
H2101	H210	0.851100	0.789400	0.865700
H2111	H211	0.786100	0.842900	0.864800
C1651	C165	0.650000	0.742100	0.699000
C1661	C166	0.586600	0.723100	0.788300
H2121	H212	0.738300	0.755100	0.821200
C1671	C167	0.796900	0.701400	0.765900
C1681	C168	0.567100	0.925400	0.950800
H2131	H213	0.881900	0.994700	0.854300
C1691	C169	0.873600	0.022800	0.929500
C1701	C170	0.738600	0.997700	0.974600
N441	N44	0.241100	0.899500	0.738800
O311	O31	0.290100	0.863900	0.816000
H2141	H214	0.001500	0.885500	0.867800
H2151	H215	0.089800	0.858300	0.846200
C1711	C171	0.092800	0.946400	0.847900
H2161	H216	0.060500	0.769800	0.798800
H2171	H217	0.968900	0.737700	0.802900
H2181	H218	0.997200	0.782100	0.847700
H2191	H219	0.915900	0.775200	0.713200
H2201	H220	0.937000	0.840400	0.699600
C1721	C172	0.045700	0.788700	0.696900
H2211	H221	0.595900	0.755700	0.682900
H2221	H222	0.653100	0.700400	0.696000
H2231	H223	0.699800	0.759200	0.680900
H2241	H224	0.530100	0.724700	0.769700
H2251	H225	0.606600	0.682900	0.787700
C1731	C173	0.572200	0.740400	0.845500
H2261	H226	0.785100	0.692400	0.728400
H2271	H227	0.859800	0.709800	0.769300
C1741	C174	0.774500	0.649500	0.799900
C1751	C175	0.585200	0.864400	0.969700
H2281	H228	0.563600	0.951800	0.981700
O321	O32	0.487200	0.925190	0.923350
C1761	C176	0.818300	0.022400	0.976100
C1771	C177	0.960800	0.052600	0.931300
H2291	H229	0.702200	0.997500	0.004900
H2301	H230	0.213300	0.867900	0.730400
H2311	H231	0.239900	0.929000	0.717300
H2321	H232	0.049400	0.977600	0.845700
H2331	H233	0.135400	0.952000	0.819100
C1781	C178	0.140200	0.950200	0.901100
N451	N45	0.042100	0.748100	0.660500
O331	O33	0.115000	0.811100	0.709300
H2341	H234	0.622700	0.728400	0.866900
H2351	H235	0.567300	0.782500	0.847800
C1791	C179	0.490600	0.713400	0.867200
N461	N46	0.778600	0.600000	0.775200
O341	O34	0.754800	0.654600	0.847300
C1801	C180	0.492500	0.842900	0.976300
H2361	H236	0.617600	0.864000	0.003900
O351	O35	0.629400	0.834250	0.930620
C1811	C181	0.445500	0.870600	0.930100
C1821	C182	0.852700	0.048500	0.026300
H2371	H237	0.988600	0.050100	0.896600
H2381	H238	0.997900	0.034100	0.957700
H2391	H239	0.952400	0.092800	0.940700
O361	O36	0.417600	0.730900	0.853200
N471	N47	0.180300	0.998800	0.909100
O371	O37	0.139500	0.909600	0.933100
H2401	H240	0.090000	0.736600	0.644700
H2411	H241	0.991800	0.732600	0.652100
N481	N48	0.501800	0.669400	0.899900
H2421	H242	0.767000	0.568100	0.792300
H2431	H243	0.792900	0.598800	0.741600
Na61	Na6	0.787800	0.643090	0.933170
H2441	H244	0.467800	0.857200	0.010300
O381	O38	0.484900	0.783280	0.973950
H2451	H245	0.638800	0.800700	0.941000
H2461	H246	0.453300	0.846900	0.897600
C1831	C183	0.348300	0.880200	0.940700
H2471	H247	0.911700	0.062900	0.020300
H2481	H248	0.853800	0.019500	0.054100
H2491	H249	0.814800	0.080100	0.037000
H2501	H250	0.209200	0.004500	0.938600
H2511	H251	0.178300	0.025800	0.885000
C1841	C184	0.428200	0.639200	0.923600
H2521	H252	0.555000	0.658300	0.907600
P31	P3	0.455680	0.750210	0.026250
H2531	H253	0.323400	0.903900	0.912000
H2541	H254	0.317800	0.842900	0.940600
O391	O39	0.334500	0.907300	0.989000
H2551	H255	0.449300	0.602800	0.939000
H2561	H256	0.385800	0.629600	0.895600
C1851	C185	0.382900	0.673000	0.965800
O401	O40	0.447600	0.687600	0.005470
O411	O41	0.370900	0.774690	0.044500
O421	O42	0.528300	0.751100	0.064800
H2571	H257	0.317500	0.946100	0.993500
H2581	H258	0.355200	0.708100	0.950900
C1861	C186	0.316300	0.635600	0.992900
H2591	H259	0.275200	0.620800	0.966700
H2601	H260	0.284700	0.658100	0.019200
H2611	H261	0.345700	0.603600	0.010300
Br41	Br4	0.893050	0.872990	0.235150
C1871	C187	0.845900	0.946700	0.247900
C1881	C188	0.758000	0.947400	0.257100
C1891	C189	0.900700	0.994600	0.241000
C1901	C190	0.699600	0.895700	0.259400
N491	N49	0.708400	0.995900	0.261400
C1911	C191	0.990800	0.995800	0.215900
N501	N50	0.873500	0.047700	0.250200
C1921	C192	0.616500	0.921400	0.231500
H2621	H262	0.724400	0.863700	0.238000
C1931	C193	0.680100	0.875800	0.315500
C1941	C194	0.621900	0.982900	0.250800
Co41	Co4	0.755560	0.070670	0.266520
C1951	C195	0.025800	0.052500	0.238200
C1961	C196	0.056200	0.947300	0.222400
C1971	C197	0.975200	0.004200	0.155500
C1981	C198	0.941600	0.087700	0.245900
C1991	C199	0.631800	0.923400	0.170300
C2001	C200	0.533800	0.886800	0.244900
H2631	H263	0.644900	0.905500	0.333300
H2641	H264	0.644300	0.840700	0.313500
C2011	C201	0.759200	0.863400	0.349200
C2021	C202	0.555200	0.021600	0.253900
N511	N51	0.642800	0.101200	0.281700
N521	N52	0.727700	0.076100	0.191900
N531	N53	0.787600	0.148500	0.268400
N541	N54	0.781500	0.057700	0.341900
H2651	H265	0.065500	0.071500	0.212400
C2031	C203	0.069200	0.047500	0.292700
H2661	H266	0.113700	0.960200	0.210700
H2671	H267	0.037900	0.914500	0.201100
H2681	H268	0.059000	0.936100	0.259600
H2691	H269	0.031100	0.009800	0.137700
H2701	H270	0.938300	0.037800	0.149800
H2711	H271	0.946300	0.970300	0.141000
C2041	C204	0.941000	0.144800	0.251500
H2721	H272	0.586700	0.947900	0.153900
H2731	H273	0.689100	0.941000	0.163100
C2051	C205	0.628900	0.864900	0.145000
H2741	H274	0.516200	0.894800	0.281300
H2751	H275	0.545900	0.845900	0.241100
H2761	H276	0.486800	0.897700	0.220800
H2771	H277	0.798700	0.837500	0.329800
H2781	H278	0.790800	0.899500	0.356000
C2061	C206	0.734300	0.836300	0.401000
C2071	C207	0.567400	0.077600	0.273000
C2081	C208	0.466400	0.005700	0.230900
C2091	C209	0.638900	0.163000	0.296600
N551	N55	0.769100	0.104200	0.165400
C2101	C210	0.860500	0.175400	0.259600
C2111	C211	0.715000	0.188700	0.265400
C2121	C212	0.854700	0.072500	0.364300
C2131	C213	0.734500	0.029600	0.382900
H2791	H279	0.042700	0.014600	0.311300
H2801	H280	0.054500	0.082200	0.313100
C2141	C214	0.169300	0.039900	0.294000
C2151	C215	0.025700	0.177100	0.247400
N561	N56	0.556500	0.853100	0.119300
O431	O43	0.689800	0.831400	0.148500
N571	N57	0.785100	0.849700	0.442300
O441	O44	0.673600	0.802600	0.405000
C2161	C216	0.496000	0.120500	0.286300
H2811	H281	0.474700	0.983000	0.198700
H2821	H282	0.434100	0.040600	0.222400
H2831	H283	0.433700	0.983200	0.256700
C2171	C217	0.542900	0.178600	0.279300
C2181	C218	0.655000	0.170200	0.356100
N581	N58	0.811600	0.131900	0.136500
C2191	C219	0.848200	0.240700	0.257800
C2201	C220	0.755900	0.245000	0.281900
H2841	H284	0.696900	0.192000	0.227600
H2851	H285	0.898100	0.093800	0.346300
N591	N59	0.864000	0.055300	0.414300
C2211	C221	0.654600	0.004200	0.384600
C2221	C222	0.788500	0.027300	0.427600
H2861	H286	0.187100	0.024600	0.328800
H2871	H287	0.187100	0.012100	0.266600
C2231	C223	0.214900	0.097400	0.284100
H2881	H288	0.071400	0.151300	0.234700
H2891	H289	0.041800	0.192100	0.282200
H2901	H290	0.019000	0.208900	0.222600
H2911	H291	0.550400	0.819800	0.103500
H2921	H292	0.514400	0.878500	0.117800
Na71	Na7	0.770440	0.742160	0.161390
H2931	H293	0.775400	0.834100	0.473300
H2941	H294	0.828300	0.874000	0.438300
H2951	H295	0.449900	0.117600	0.258600
C2241	C224	0.453100	0.110800	0.340300
C2251	C225	0.500300	0.226400	0.309800
C2261	C226	0.542100	0.193400	0.219500
H2961	H296	0.612400	0.147500	0.375900
H2971	H297	0.648900	0.210600	0.365700
H2981	H298	0.713900	0.157100	0.364800
C2271	C227	0.850000	0.257900	0.199000
C2281	C228	0.913400	0.276900	0.288300
H2991	H299	0.761700	0.244900	0.321200
C2291	C229	0.703100	0.298600	0.265900
C2301	C230	0.932900	0.074600	0.450800
H3001	H300	0.618100	0.005300	0.354300
C2311	C231	0.626400	0.977200	0.429500
C2321	C232	0.761400	0.002300	0.474600
N601	N60	0.258900	0.100500	0.238800
O451	O45	0.209900	0.136100	0.316000
H3011	H301	0.498500	0.114500	0.367800
H3021	H302	0.410200	0.141700	0.346200
C2331	C233	0.407200	0.053600	0.347900
H3031	H303	0.439500	0.230200	0.298800
H3041	H304	0.531100	0.262300	0.302900
H3051	H305	0.502800	0.217900	0.347700
H3061	H306	0.584100	0.224800	0.213200
H3071	H307	0.563000	0.159600	0.199600
C2341	C234	0.454300	0.211300	0.196900
H3081	H308	0.904100	0.244300	0.182900
H3091	H309	0.846900	0.299600	0.196000
H3101	H310	0.800200	0.240800	0.180900
H3111	H311	0.969900	0.275300	0.269700
H3121	H312	0.893400	0.317100	0.287700
C2351	C235	0.927800	0.259600	0.345500
H3131	H313	0.714900	0.307600	0.228400
H3141	H314	0.640200	0.290200	0.269300
C2361	C236	0.725500	0.350500	0.299900
C2371	C237	0.914800	0.135600	0.469700
H3151	H315	0.936400	0.048200	0.481700
O461	O46	0.012800	0.074810	0.423350
C2381	C238	0.681700	0.977600	0.476100
C2391	C239	0.539200	0.947400	0.431300
H3161	H316	0.797800	0.002500	0.504900
H3171	H317	0.286700	0.132100	0.230400
H3181	H318	0.260100	0.071000	0.217300
H3191	H319	0.450600	0.022400	0.345700
H3201	H320	0.364600	0.048000	0.319100
C2401	C240	0.359800	0.049800	0.401100
N611	N61	0.457900	0.251900	0.160500
O471	O47	0.385000	0.188900	0.209300
H3211	H321	0.877300	0.271600	0.366900
H3221	H322	0.932700	0.217500	0.347800
C2411	C241	0.009400	0.286600	0.367200
N621	N62	0.721400	0.400000	0.275200
O481	O48	0.745200	0.345400	0.347300
C2421	C242	0.007500	0.157100	0.476300
H3231	H323	0.882400	0.136000	0.503900
O491	O49	0.870600	0.165750	0.430620
C2431	C243	0.054500	0.129400	0.430100
C2441	C244	0.647300	0.951500	0.526300
H3241	H324	0.511400	0.949900	0.396600
H3251	H325	0.502100	0.965900	0.457700
H3261	H326	0.547600	0.907200	0.440700
O501	O50	0.082400	0.269100	0.353200
N631	N63	0.319700	0.001200	0.409100
O511	O51	0.360500	0.090400	0.433100
H3271	H327	0.410000	0.263400	0.144700
H3281	H328	0.508200	0.267400	0.152100
N641	N64	0.998200	0.330600	0.399900
H3291	H329	0.733000	0.431900	0.292300
H3301	H330	0.707100	0.401200	0.241600
Na81	Na8	0.712200	0.356910	0.433170
H3311	H331	0.032200	0.142800	0.510300
O521	O52	0.015100	0.216720	0.473950
H3321	H332	0.861200	0.199300	0.441000
H3331	H333	0.046700	0.153100	0.397600
C2451	C245	0.151700	0.119800	0.440700
H3341	H334	0.588300	0.937100	0.520300
H3351	H335	0.646200	0.980500	0.554100
H3361	H336	0.685200	0.919900	0.537000
H3371	H337	0.290800	0.995500	0.438600
H3381	H338	0.321700	0.974200	0.385000
C2461	C246	0.071800	0.360800	0.423600
H3391	H339	0.945000	0.341700	0.407600
P41	P4	0.044320	0.249790	0.526250
H3401	H340	0.176600	0.096100	0.412000
H3411	H341	0.182200	0.157100	0.440600
O531	O53	0.165500	0.092700	0.489000
H3421	H342	0.050700	0.397200	0.439000
H3431	H343	0.114200	0.370400	0.395600
C2471	C247	0.117100	0.327000	0.465800
O541	O54	0.052400	0.312400	0.505470
O551	O55	0.129100	0.225310	0.544500
O561	O56	0.971700	0.248900	0.564800
H3441	H344	0.182500	0.053900	0.493500
H3451	H345	0.144800	0.291900	0.450900
C2481	C248	0.183700	0.364400	0.492900
H3461	H346	0.224800	0.379200	0.466700
H3471	H347	0.215300	0.341900	0.519200
H3481	H348	0.154300	0.396400	0.510300
