data_AJINOY_clean_PM
_symmetry_space_group_name_H-M	'P1'
_cell_length_a	9.998300
_cell_length_b	11.015900
_cell_length_c	12.374600
_cell_angle_alpha	90.955000
_cell_angle_beta	110.694000
_cell_angle_gamma	95.116000
_symmetry_Int_Tables_number 1

loop_
_symmetry_equiv_pos_as_xyz
'x,y,z'

loop_
_atom_site_label
_atom_site_type_symbol
_atom_site_fract_x
_atom_site_fract_y
_atom_site_fract_z
Cu11	Cu1	0.675350	0.876990	0.503470
O11	O1	0.693900	0.714300	0.438100
O21	O2	0.919900	0.793900	0.517600
O31	O3	0.245500	0.966700	0.411000
O41	O4	0.432700	0.866700	0.417100
O51	O5	0.690500	0.130300	0.997900
O61	O6	0.789400	0.719200	0.059900
N11	N1	0.661700	0.804900	0.647600
N21	N2	0.698500	0.947800	0.360800
N31	N3	0.904100	0.050900	0.044800
N41	N4	0.577400	0.608900	0.991000
C11	C1	0.829100	0.713600	0.456300
C21	C2	0.870200	0.610200	0.398200
C31	C3	0.982100	0.627000	0.353500
C41	C4	0.008100	0.527100	0.295700
H11	H1	0.079100	0.537200	0.261100
C51	C5	0.933200	0.414300	0.287600
H21	H2	0.952500	0.348000	0.247100
C61	C6	0.830600	0.396800	0.337500
H31	H3	0.782900	0.317700	0.335600
C71	C7	0.797300	0.494900	0.390700
H41	H4	0.723700	0.483600	0.422500
C81	C8	0.072400	0.743500	0.367800
H51	H5	0.028500	0.816700	0.366600
C91	C9	0.305000	0.869900	0.405400
C101	C10	0.814300	0.024600	0.371600
H61	H6	0.875800	0.054200	0.447000
C111	C11	0.848300	0.062800	0.277900
H71	H7	0.932600	0.116300	0.289300
C121	C12	0.758800	0.022500	0.167300
C131	C13	0.637500	0.943400	0.155100
H81	H8	0.572700	0.914400	0.080700
C141	C14	0.613100	0.908000	0.253500
H91	H9	0.531300	0.852300	0.244800
C151	C15	0.783200	0.071300	0.062700
C161	C16	0.018000	0.982900	0.119700
H101	H10	0.983700	0.939800	0.176000
H111	H11	0.102600	0.040500	0.163500
C171	C17	0.938800	0.108500	0.951100
H121	H12	0.018400	0.174100	0.984100
H131	H13	0.854100	0.146200	0.900200
C181	C18	0.439700	0.568400	0.898300
H141	H14	0.443100	0.593800	0.822900
H151	H15	0.361100	0.607000	0.912200
C191	C19	0.588800	0.566100	0.104700
H161	H16	0.519000	0.604100	0.131300
H171	H17	0.686400	0.591600	0.160800
C201	C20	0.681000	0.683400	0.978700
C211	C21	0.665100	0.722700	0.859900
C221	C22	0.590700	0.819500	0.811100
H181	H18	0.538100	0.859100	0.849500
C231	C23	0.593000	0.858400	0.707000
H191	H19	0.543300	0.926600	0.675800
C241	C24	0.733900	0.711700	0.695100
H201	H20	0.784000	0.672500	0.654200
C251	C25	0.739500	0.669400	0.800000
H211	H21	0.794300	0.603800	0.831300
C261	C26	0.211000	0.753200	0.382300
H221	H22	0.253000	0.680200	0.377500
Cu21	Cu2	0.324650	0.123010	0.496530
O71	O7	0.306100	0.285700	0.561900
O81	O8	0.080100	0.206100	0.482400
O91	O9	0.754500	0.033300	0.589000
O101	O10	0.567300	0.133300	0.582900
O111	O11	0.309500	0.869700	0.002100
O121	O12	0.210600	0.280800	0.940100
N51	N5	0.338300	0.195100	0.352400
N61	N6	0.301500	0.052200	0.639200
N71	N7	0.095900	0.949100	0.955200
N81	N8	0.422600	0.391100	0.009000
C271	C27	0.170900	0.286400	0.543700
C281	C28	0.129800	0.389800	0.601800
C291	C29	0.017900	0.373000	0.646500
C301	C30	0.991900	0.472900	0.704300
H231	H23	0.920900	0.462800	0.738900
C311	C31	0.066800	0.585700	0.712400
H241	H24	0.047500	0.652000	0.752900
C321	C32	0.169400	0.603200	0.662500
H251	H25	0.217100	0.682300	0.664400
C331	C33	0.202700	0.505100	0.609300
H261	H26	0.276300	0.516400	0.577500
C341	C34	0.927600	0.256500	0.632200
H271	H27	0.971500	0.183300	0.633400
C351	C35	0.695000	0.130100	0.594600
C361	C36	0.185700	0.975400	0.628400
H281	H28	0.124200	0.945800	0.553000
C371	C37	0.151700	0.937200	0.722100
H291	H29	0.067400	0.883700	0.710700
C381	C38	0.241200	0.977500	0.832700
C391	C39	0.362500	0.056600	0.844900
H301	H30	0.427300	0.085600	0.919300
C401	C40	0.386900	0.092000	0.746500
H311	H31	0.468700	0.147700	0.755200
C411	C41	0.216800	0.928700	0.937300
C421	C42	0.982000	0.017100	0.880300
H321	H32	0.016300	0.060200	0.824000
H331	H33	0.897400	0.959500	0.836500
C431	C43	0.061200	0.891500	0.048900
H341	H34	0.981600	0.825900	0.015900
H351	H35	0.145900	0.853800	0.099800
C441	C44	0.560300	0.431600	0.101700
H361	H36	0.556900	0.406200	0.177100
H371	H37	0.638900	0.393000	0.087800
C451	C45	0.411200	0.433900	0.895300
H381	H38	0.481000	0.395900	0.868700
H391	H39	0.313600	0.408400	0.839200
C461	C46	0.319000	0.316600	0.021300
C471	C47	0.334900	0.277300	0.140100
C481	C48	0.409300	0.180500	0.188900
H401	H40	0.461900	0.140900	0.150500
C491	C49	0.407000	0.141600	0.293000
H411	H41	0.456700	0.073400	0.324200
C501	C50	0.266100	0.288300	0.304900
H421	H42	0.216000	0.327500	0.345800
C511	C51	0.260500	0.330600	0.200000
H431	H43	0.205700	0.396200	0.168700
C521	C52	0.789000	0.246800	0.617700
H441	H44	0.747000	0.319800	0.622500
