data_AJOXAA_clean_PM
_symmetry_space_group_name_H-M	'P1'
_cell_length_a	17.248900
_cell_length_b	11.753900
_cell_length_c	17.752700
_cell_angle_alpha	90.000000
_cell_angle_beta	105.384000
_cell_angle_gamma	90.000000
_symmetry_Int_Tables_number 1

loop_
_symmetry_equiv_pos_as_xyz
'x,y,z'

loop_
_atom_site_label
_atom_site_type_symbol
_atom_site_fract_x
_atom_site_fract_y
_atom_site_fract_z
Nd11	Nd1	0.512470	0.102890	0.914610
Nd21	Nd2	0.486820	0.062220	0.611850
S11	S1	0.745970	0.218790	0.458410
S21	S2	0.748460	0.713780	0.591360
S31	S3	0.234050	0.217900	0.628710
O11	O1	0.429700	0.155500	0.794000
O21	O2	0.574300	0.933400	0.579800
O31	O3	0.920000	0.444400	0.511300
O41	O4	0.897200	0.595600	0.781500
O51	O5	0.894900	0.568800	0.656300
O61	O6	0.068400	0.443600	0.635100
O71	O7	0.906200	0.283900	0.445000
O81	O8	0.563900	0.173800	0.546100
O91	O9	0.616100	0.843600	0.486600
O101	O10	0.085800	0.330600	0.538800
O111	O11	0.598700	0.089900	0.445900
O121	O12	0.381300	0.077300	0.675800
C11	C1	0.680200	0.801000	0.617700
C21	C2	0.795000	0.684600	0.687000
C31	C3	0.619000	0.862600	0.556800
C41	C4	0.105300	0.367500	0.607900
C51	C5	0.803800	0.330900	0.505000
C61	C6	0.868100	0.611500	0.711100
C71	C7	0.376900	0.142900	0.730300
C81	C8	0.676900	0.240800	0.510700
C91	C9	0.881200	0.354500	0.486200
C101	C10	0.607200	0.162100	0.499900
C111	C11	0.178300	0.318200	0.661900
C121	C12	0.770200	0.383100	0.556900
H11	H1	0.792600	0.445800	0.586700
C131	C13	0.303400	0.213600	0.719200
C141	C14	0.283100	0.285500	0.771200
H21	H2	0.313500	0.293900	0.822600
C151	C15	0.697500	0.331400	0.560300
H31	H3	0.666800	0.356300	0.592900
C161	C16	0.211100	0.346300	0.738700
H41	H4	0.188800	0.398700	0.766200
C171	C17	0.759100	0.739100	0.736700
H51	H5	0.776100	0.732500	0.790800
C181	C18	0.693100	0.806500	0.697000
H61	H6	0.662000	0.849600	0.721900
Nd31	Nd3	0.987530	0.602890	0.585390
Nd41	Nd4	0.013180	0.562220	0.888150
S41	S4	0.754030	0.718790	0.041590
S51	S5	0.751540	0.213780	0.908640
S61	S6	0.265950	0.717900	0.871290
O131	O13	0.070300	0.655500	0.706000
O141	O14	0.925700	0.433400	0.920200
O151	O15	0.580000	0.944400	0.988700
O161	O16	0.602800	0.095600	0.718500
O171	O17	0.605100	0.068800	0.843700
O181	O18	0.431600	0.943600	0.864900
O191	O19	0.593800	0.783900	0.055000
O201	O20	0.936100	0.673800	0.953900
O211	O21	0.883900	0.343600	0.013400
O221	O22	0.414200	0.830600	0.961200
O231	O23	0.901300	0.589900	0.054100
O241	O24	0.118700	0.577300	0.824200
C191	C19	0.819800	0.301000	0.882300
C201	C20	0.705000	0.184600	0.813000
C211	C21	0.881000	0.362600	0.943200
C221	C22	0.394700	0.867500	0.892100
C231	C23	0.696200	0.830900	0.995000
C241	C24	0.631900	0.111500	0.788900
C251	C25	0.123100	0.642900	0.769700
C261	C26	0.823100	0.740800	0.989300
C271	C27	0.618800	0.854500	0.013800
C281	C28	0.892800	0.662100	0.000100
C291	C29	0.321700	0.818200	0.838100
C301	C30	0.729800	0.883100	0.943100
H71	H7	0.707400	0.945800	0.913300
C311	C31	0.196600	0.713600	0.780800
C321	C32	0.216900	0.785500	0.728800
H81	H8	0.186500	0.793900	0.677400
C331	C33	0.802500	0.831400	0.939700
H91	H9	0.833200	0.856300	0.907100
C341	C34	0.288900	0.846300	0.761300
H101	H10	0.311200	0.898700	0.733800
C351	C35	0.740900	0.239100	0.763300
H111	H11	0.723900	0.232500	0.709200
C361	C36	0.806900	0.306500	0.803000
H121	H12	0.838000	0.349600	0.778100
Nd51	Nd5	0.487530	0.897110	0.085390
Nd61	Nd6	0.513180	0.937780	0.388150
S71	S7	0.254030	0.781210	0.541590
S81	S8	0.251540	0.286220	0.408640
S91	S9	0.765950	0.782100	0.371290
O251	O25	0.570300	0.844500	0.206000
O261	O26	0.425700	0.066600	0.420200
O271	O27	0.080000	0.555600	0.488700
O281	O28	0.102800	0.404400	0.218500
O291	O29	0.105100	0.431200	0.343700
O301	O30	0.931600	0.556400	0.364900
O311	O31	0.093800	0.716100	0.555000
O321	O32	0.436100	0.826200	0.453900
O331	O33	0.383900	0.156400	0.513400
O341	O34	0.914200	0.669400	0.461200
O351	O35	0.401300	0.910100	0.554100
O361	O36	0.618700	0.922700	0.324200
C371	C37	0.319800	0.199000	0.382300
C381	C38	0.205000	0.315400	0.313000
C391	C39	0.381000	0.137400	0.443200
C401	C40	0.894700	0.632500	0.392100
C411	C41	0.196200	0.669100	0.495000
C421	C42	0.131900	0.388500	0.288900
C431	C43	0.623100	0.857100	0.269700
C441	C44	0.323100	0.759200	0.489300
C451	C45	0.118800	0.645500	0.513800
C461	C46	0.392800	0.837900	0.500100
C471	C47	0.821700	0.681800	0.338100
C481	C48	0.229800	0.616900	0.443100
H131	H13	0.207400	0.554200	0.413300
C491	C49	0.696600	0.786400	0.280800
C501	C50	0.716900	0.714500	0.228800
H141	H14	0.686500	0.706100	0.177400
C511	C51	0.302500	0.668600	0.439700
H151	H15	0.333200	0.643700	0.407100
C521	C52	0.788900	0.653700	0.261300
H161	H16	0.811200	0.601300	0.233800
C531	C53	0.240900	0.260900	0.263300
H171	H17	0.223900	0.267500	0.209200
C541	C54	0.306900	0.193500	0.303000
H181	H18	0.338000	0.150400	0.278100
Nd71	Nd7	0.012470	0.397110	0.414610
Nd81	Nd8	0.986820	0.437780	0.111850
S101	S10	0.245970	0.281210	0.958410
S111	S11	0.248460	0.786220	0.091360
S121	S12	0.734050	0.282100	0.128710
O371	O37	0.929700	0.344500	0.294000
O381	O38	0.074300	0.566600	0.079800
O391	O39	0.420000	0.055600	0.011300
O401	O40	0.397200	0.904400	0.281500
O411	O41	0.394900	0.931200	0.156300
O421	O42	0.568400	0.056400	0.135100
O431	O43	0.406200	0.216100	0.945000
O441	O44	0.063900	0.326200	0.046100
O451	O45	0.116100	0.656400	0.986600
O461	O46	0.585800	0.169400	0.038800
O471	O47	0.098700	0.410100	0.945900
O481	O48	0.881300	0.422700	0.175800
C551	C55	0.180200	0.699000	0.117700
C561	C56	0.295000	0.815400	0.187000
C571	C57	0.119000	0.637400	0.056800
C581	C58	0.605300	0.132500	0.107900
C591	C59	0.303800	0.169100	0.005000
C601	C60	0.368100	0.888500	0.211100
C611	C61	0.876900	0.357100	0.230300
C621	C62	0.176900	0.259200	0.010700
C631	C63	0.381200	0.145500	0.986200
C641	C64	0.107200	0.337900	0.999900
C651	C65	0.678300	0.181800	0.161900
C661	C66	0.270200	0.116900	0.056900
H191	H19	0.292600	0.054200	0.086700
C671	C67	0.803400	0.286400	0.219200
C681	C68	0.783100	0.214500	0.271200
H201	H20	0.813500	0.206100	0.322600
C691	C69	0.197500	0.168600	0.060300
H211	H21	0.166800	0.143700	0.092900
C701	C70	0.711100	0.153700	0.238700
H221	H22	0.688800	0.101300	0.266200
C711	C71	0.259100	0.760900	0.236700
H231	H23	0.276100	0.767500	0.290800
C721	C72	0.193100	0.693500	0.197000
H241	H24	0.162000	0.650400	0.221900
