data_AKOHEO_clean_PM
_symmetry_space_group_name_H-M	'P1'
_cell_length_a	16.204500
_cell_length_b	11.868000
_cell_length_c	17.959100
_cell_angle_alpha	90.000000
_cell_angle_beta	103.644000
_cell_angle_gamma	90.000000
_symmetry_Int_Tables_number 1

loop_
_symmetry_equiv_pos_as_xyz
'x,y,z'

loop_
_atom_site_label
_atom_site_type_symbol
_atom_site_fract_x
_atom_site_fract_y
_atom_site_fract_z
O11	O1	0.259320	0.959700	0.158080
Mo11	Mo1	0.283410	0.858840	0.932570
Mo21	Mo2	0.284160	0.151740	0.962970
Mo31	Mo3	0.382560	0.733040	0.033420
Mo41	Mo4	0.520400	0.854320	0.195150
Mo51	Mo5	0.523410	0.070980	0.213170
Mo61	Mo6	0.388860	0.244510	0.078160
Fe11	Fe1	0.124050	0.997440	0.134320
P11	P1	0.438810	0.299440	0.262840
P21	P2	0.376910	0.663030	0.210430
P31	P3	0.327000	0.975460	0.114150
P41	P4	0.111000	0.991950	0.942060
O21	O2	0.260780	0.754500	0.008310
O31	O3	0.408250	0.138500	0.998960
O41	O4	0.407440	0.865400	0.975880
O51	O5	0.265990	0.226100	0.053650
O61	O6	0.470900	0.176500	0.278390
O71	O7	0.535560	0.976400	0.125130
O81	O8	0.158390	0.899600	0.908470
O91	O9	0.508420	0.745600	0.099710
O101	O10	0.022650	0.002300	0.882900
O111	O11	0.384390	0.868800	0.122970
O121	O12	0.156460	0.105900	0.939020
O131	O13	0.385630	0.077200	0.141910
O141	O14	0.288310	0.990300	0.026840
O151	O15	0.295060	0.019400	0.885380
O161	O16	0.482300	0.950000	0.267680
O171	O17	0.515010	0.378300	0.265860
O181	O18	0.378140	0.304300	0.182050
O191	O19	0.513850	0.209800	0.137310
O201	O20	0.391520	0.331800	0.322850
O211	O21	0.098300	0.959700	0.018580
O221	O22	0.461200	0.724700	0.240070
O231	O23	0.365700	0.637100	0.124220
O241	O24	0.300000	0.739600	0.219700
O251	O25	0.370200	0.556400	0.252810
O261	O26	0.121900	0.180400	0.105000
H11	H1	0.158700	0.193600	0.081700
O271	O27	0.240680	0.459700	0.341920
Mo71	Mo7	0.216590	0.358840	0.567430
Mo81	Mo8	0.215840	0.651740	0.537030
Mo91	Mo9	0.117440	0.233040	0.466580
Mo101	Mo10	0.979600	0.354320	0.304850
Mo111	Mo11	0.976590	0.570980	0.286830
Mo121	Mo12	0.111140	0.744510	0.421840
Fe21	Fe2	0.375950	0.497440	0.365680
P51	P5	0.061190	0.799440	0.237160
P61	P6	0.123090	0.163030	0.289570
P71	P7	0.173000	0.475460	0.385850
P81	P8	0.389000	0.491950	0.557940
O281	O28	0.239220	0.254500	0.491690
O291	O29	0.091750	0.638500	0.501040
O301	O30	0.092560	0.365400	0.524120
O311	O31	0.234010	0.726100	0.446350
O321	O32	0.029100	0.676500	0.221610
O331	O33	0.964440	0.476400	0.374870
O341	O34	0.341610	0.399600	0.591530
O351	O35	0.991580	0.245600	0.400290
O361	O36	0.477350	0.502300	0.617100
O371	O37	0.115610	0.368800	0.377030
O381	O38	0.343540	0.605900	0.560980
O391	O39	0.114370	0.577200	0.358090
O401	O40	0.211690	0.490300	0.473160
O411	O41	0.204940	0.519400	0.614620
O421	O42	0.017700	0.450000	0.232320
O431	O43	0.984990	0.878300	0.234140
O441	O44	0.121860	0.804300	0.317950
O451	O45	0.986150	0.709800	0.362690
O461	O46	0.108480	0.831800	0.177150
O471	O47	0.401700	0.459700	0.481420
O481	O48	0.038800	0.224700	0.259930
O491	O49	0.134300	0.137100	0.375780
O501	O50	0.200000	0.239600	0.280300
O511	O51	0.129800	0.056400	0.247190
O521	O52	0.378100	0.680400	0.395000
H21	H2	0.341300	0.693600	0.418300
O531	O53	0.740680	0.040300	0.841920
Mo131	Mo13	0.716590	0.141160	0.067430
Mo141	Mo14	0.715840	0.848260	0.037030
Mo151	Mo15	0.617440	0.266960	0.966580
Mo161	Mo16	0.479600	0.145680	0.804850
Mo171	Mo17	0.476590	0.929020	0.786830
Mo181	Mo18	0.611140	0.755490	0.921840
Fe31	Fe3	0.875950	0.002560	0.865680
P91	P9	0.561190	0.700560	0.737160
P101	P10	0.623090	0.336970	0.789570
P111	P11	0.673000	0.024540	0.885850
P121	P12	0.889000	0.008050	0.057940
O541	O54	0.739220	0.245500	0.991690
O551	O55	0.591750	0.861500	0.001040
O561	O56	0.592560	0.134600	0.024120
O571	O57	0.734010	0.773900	0.946350
O581	O58	0.529100	0.823500	0.721610
O591	O59	0.464440	0.023600	0.874870
O601	O60	0.841610	0.100400	0.091530
O611	O61	0.491580	0.254400	0.900290
O621	O62	0.977350	0.997700	0.117100
O631	O63	0.615610	0.131200	0.877030
O641	O64	0.843540	0.894100	0.060980
O651	O65	0.614370	0.922800	0.858090
O661	O66	0.711690	0.009700	0.973160
O671	O67	0.704940	0.980600	0.114620
O681	O68	0.517700	0.050000	0.732320
O691	O69	0.484990	0.621700	0.734140
O701	O70	0.621860	0.695700	0.817950
O711	O71	0.486150	0.790200	0.862690
O721	O72	0.608480	0.668200	0.677150
O731	O73	0.901700	0.040300	0.981420
O741	O74	0.538800	0.275300	0.759930
O751	O75	0.634300	0.362900	0.875780
O761	O76	0.700000	0.260400	0.780300
O771	O77	0.629800	0.443600	0.747190
O781	O78	0.878100	0.819600	0.895000
H31	H3	0.841300	0.806400	0.918300
O791	O79	0.759320	0.540300	0.658080
Mo191	Mo19	0.783410	0.641160	0.432570
Mo201	Mo20	0.784160	0.348260	0.462970
Mo211	Mo21	0.882560	0.766960	0.533420
Mo221	Mo22	0.020400	0.645680	0.695150
Mo231	Mo23	0.023410	0.429020	0.713170
Mo241	Mo24	0.888860	0.255490	0.578160
Fe41	Fe4	0.624050	0.502560	0.634320
P131	P13	0.938810	0.200560	0.762840
P141	P14	0.876910	0.836970	0.710430
P151	P15	0.827000	0.524540	0.614150
P161	P16	0.611000	0.508050	0.442060
O801	O80	0.760780	0.745500	0.508310
O811	O81	0.908250	0.361500	0.498960
O821	O82	0.907440	0.634600	0.475880
O831	O83	0.765990	0.273900	0.553650
O841	O84	0.970900	0.323500	0.778390
O851	O85	0.035560	0.523600	0.625130
O861	O86	0.658390	0.600400	0.408470
O871	O87	0.008420	0.754400	0.599710
O881	O88	0.522650	0.497700	0.382900
O891	O89	0.884390	0.631200	0.622970
O901	O90	0.656460	0.394100	0.439020
O911	O91	0.885630	0.422800	0.641910
O921	O92	0.788310	0.509700	0.526840
O931	O93	0.795060	0.480600	0.385380
O941	O94	0.982300	0.550000	0.767680
O951	O95	0.015010	0.121700	0.765860
O961	O96	0.878140	0.195700	0.682050
O971	O97	0.013850	0.290200	0.637310
O981	O98	0.891520	0.168200	0.822850
O991	O99	0.598300	0.540300	0.518580
O1001	O100	0.961200	0.775300	0.740070
O1011	O101	0.865700	0.862900	0.624220
O1021	O102	0.800000	0.760400	0.719700
O1031	O103	0.870200	0.943600	0.752810
O1041	O104	0.621900	0.319600	0.605000
H41	H4	0.658700	0.306400	0.581700
Fe51	Fe5	0.500000	0.000000	0.000000
Fe61	Fe6	0.000000	0.500000	0.500000
