data_ALALUU01_clean_PM
_symmetry_space_group_name_H-M	'P1'
_cell_length_a	10.641200
_cell_length_b	10.641200
_cell_length_c	11.015400
_cell_angle_alpha	78.614000
_cell_angle_beta	62.534700
_cell_angle_gamma	108.555000
_symmetry_Int_Tables_number 1

loop_
_symmetry_equiv_pos_as_xyz
'x,y,z'

loop_
_atom_site_label
_atom_site_type_symbol
_atom_site_fract_x
_atom_site_fract_y
_atom_site_fract_z
Pr11	Pr1	0.050280	0.863520	0.880080
Pr21	Pr2	0.743600	0.430360	0.619920
Pr31	Pr3	0.949720	0.136480	0.119920
Pr41	Pr4	0.256400	0.569640	0.380080
H11	H1	0.451000	0.886000	0.817000
H21	H2	0.607000	0.992000	0.649000
H31	H3	0.226000	0.885000	0.223000
H41	H4	0.703000	0.768000	0.683000
H51	H5	0.641000	0.756000	0.851000
H61	H6	0.108000	0.949000	0.277000
H71	H7	0.549000	0.114000	0.183000
H81	H8	0.393000	0.008000	0.351000
H91	H9	0.774000	0.115000	0.777000
H101	H10	0.297000	0.232000	0.317000
H111	H11	0.359000	0.244000	0.149000
H121	H12	0.892000	0.051000	0.723000
C11	C1	0.404200	0.849500	0.668300
C21	C2	0.488300	0.945900	0.719600
C31	C3	0.453000	0.069000	0.742000
C41	C4	0.100300	0.873900	0.124800
C51	C5	0.517800	0.572500	0.831700
C61	C6	0.665500	0.707900	0.780400
C71	C7	0.811000	0.695000	0.758000
C81	C8	0.998700	0.725100	0.375200
C91	C9	0.595800	0.150500	0.331700
C101	C10	0.511700	0.054100	0.280400
C111	C11	0.547000	0.931000	0.258000
C121	C12	0.899700	0.126100	0.875200
C131	C13	0.482200	0.427500	0.168300
C141	C14	0.334500	0.292100	0.219600
C151	C15	0.189000	0.305000	0.242000
C161	C16	0.001300	0.274900	0.624800
C171	C17	0.125100	0.875100	0.250000
C181	C18	0.874900	0.124900	0.750000
O11	O1	0.256670	0.806570	0.726300
O21	O2	0.567300	0.180600	0.714300
O31	O3	0.315700	0.056200	0.789900
O41	O4	0.041110	0.949150	0.091160
O51	O5	0.133700	0.792890	0.061010
O61	O6	0.485000	0.813000	0.572200
O71	O7	0.532870	0.482970	0.773700
O81	O8	0.894900	0.781600	0.785700
O91	O9	0.846100	0.605600	0.710100
O101	O10	0.040310	0.632270	0.408840
O111	O11	0.853900	0.694710	0.438990
O121	O12	0.385200	0.557200	0.927800
O131	O13	0.743330	0.193430	0.273700
O141	O14	0.432700	0.819400	0.285700
O151	O15	0.684300	0.943800	0.210100
O161	O16	0.958890	0.050850	0.908840
O171	O17	0.866300	0.207110	0.938990
O181	O18	0.515000	0.187000	0.427800
O191	O19	0.467130	0.517030	0.226300
O201	O20	0.105100	0.218400	0.214300
O211	O21	0.153900	0.394400	0.289900
O221	O22	0.959690	0.367730	0.591160
O231	O23	0.146100	0.305290	0.561010
O241	O24	0.614800	0.442800	0.072200
