data_ALANAD_clean_PM
_symmetry_space_group_name_H-M	'P1'
_cell_length_a	18.199000
_cell_length_b	20.125000
_cell_length_c	37.453700
_cell_angle_alpha	74.415100
_cell_angle_beta	75.939000
_cell_angle_gamma	90.000000
_symmetry_Int_Tables_number 1

loop_
_symmetry_equiv_pos_as_xyz
'x,y,z'

loop_
_atom_site_label
_atom_site_type_symbol
_atom_site_fract_x
_atom_site_fract_y
_atom_site_fract_z
Zn11	Zn1	0.090170	0.892670	0.763580
Zn21	Zn2	0.102620	0.037710	0.688740
Zn31	Zn3	0.646250	0.343750	0.763580
Zn41	Zn4	0.708640	0.273550	0.688740
Zn51	Zn5	0.853750	0.607330	0.236420
Zn61	Zn6	0.791360	0.462290	0.311260
Zn71	Zn7	0.409830	0.156250	0.236420
Zn81	Zn8	0.397380	0.226450	0.311260
Zn91	Zn9	0.909830	0.107330	0.236420
Zn101	Zn10	0.897380	0.962290	0.311260
Zn111	Zn11	0.353750	0.656250	0.236420
Zn121	Zn12	0.291360	0.726450	0.311260
Zn131	Zn13	0.146250	0.392670	0.763580
Zn141	Zn14	0.208640	0.537710	0.688740
Zn151	Zn15	0.590170	0.843750	0.763580
Zn161	Zn16	0.602620	0.773550	0.688740
H11	H1	0.107000	0.162200	0.759000
H21	H2	0.050600	0.000700	0.852800
H31	H3	0.082000	0.191800	0.862400
H41	H4	0.086100	0.909900	0.998000
H51	H5	0.342600	0.898600	0.742400
H61	H6	0.313600	0.978700	0.636800
H71	H7	0.514400	0.907900	0.650200
H81	H8	0.397700	0.926800	0.500000
H91	H9	0.634000	0.078800	0.759000
H101	H10	0.596600	0.146500	0.852800
H111	H11	0.555600	0.945800	0.862400
H121	H12	0.415900	0.092100	0.998000
H131	H13	0.415000	0.359000	0.742400
H141	H14	0.549600	0.384500	0.636800
H151	H15	0.335400	0.441900	0.650200
H161	H16	0.602300	0.573200	0.500000
H171	H17	0.866000	0.337800	0.241000
H181	H18	0.903400	0.499300	0.147200
H191	H19	0.944400	0.308200	0.137600
H201	H20	0.084100	0.590100	0.002000
H211	H21	0.085000	0.601400	0.257600
H221	H22	0.950400	0.521300	0.363200
H231	H23	0.164600	0.592100	0.349800
H241	H24	0.897700	0.573200	0.500000
H251	H25	0.393000	0.421200	0.241000
H261	H26	0.449400	0.353500	0.147200
H271	H27	0.418000	0.554200	0.137600
H281	H28	0.413900	0.407900	0.002000
H291	H29	0.157400	0.141000	0.257600
H301	H30	0.186400	0.115500	0.363200
H311	H31	0.985600	0.058100	0.349800
H321	H32	0.102300	0.926800	0.500000
H331	H33	0.893000	0.837800	0.241000
H341	H34	0.949400	0.999300	0.147200
H351	H35	0.918000	0.808200	0.137600
H361	H36	0.913900	0.090100	0.002000
H371	H37	0.657400	0.101400	0.257600
H381	H38	0.686400	0.021300	0.363200
H391	H39	0.485600	0.092100	0.349800
H401	H40	0.602300	0.073200	0.500000
H411	H41	0.366000	0.921200	0.241000
H421	H42	0.403400	0.853500	0.147200
H431	H43	0.444400	0.054200	0.137600
H441	H44	0.584100	0.907900	0.002000
H451	H45	0.585000	0.641000	0.257600
H461	H46	0.450400	0.615500	0.363200
H471	H47	0.664600	0.558100	0.349800
H481	H48	0.397700	0.426800	0.500000
H491	H49	0.134000	0.662200	0.759000
H501	H50	0.096600	0.500700	0.852800
H511	H51	0.055600	0.691800	0.862400
H521	H52	0.915900	0.409900	0.998000
H531	H53	0.915000	0.398600	0.742400
H541	H54	0.049600	0.478700	0.636800
H551	H55	0.835400	0.407900	0.650200
H561	H56	0.102300	0.426800	0.500000
H571	H57	0.607000	0.578800	0.759000
H581	H58	0.550600	0.646500	0.852800
H591	H59	0.582000	0.445800	0.862400
H601	H60	0.586100	0.592100	0.998000
H611	H61	0.842600	0.859000	0.742400
H621	H62	0.813600	0.884500	0.636800
H631	H63	0.014400	0.941900	0.650200
H641	H64	0.897700	0.073200	0.500000
C11	C1	0.096580	0.144380	0.785440
C21	C2	0.079770	0.073270	0.801660
C31	C3	0.078860	0.025060	0.776880
C41	C4	0.063190	0.047690	0.841220
C51	C5	0.065450	0.092050	0.863500
C61	C6	0.081840	0.162240	0.847120
C71	C7	0.098020	0.188120	0.807360
C81	C8	0.117900	0.263700	0.788000
C91	C9	0.070800	0.005600	0.925800
C101	C10	0.039700	0.000500	0.963200
C111	C11	0.050400	0.942900	0.998400
C121	C12	0.007700	0.049400	0.966600
C131	C13	0.996900	0.092800	0.928800
C141	C14	0.361840	0.911040	0.715920
C151	C15	0.316440	0.940140	0.692320
C161	C16	0.234950	0.954550	0.708300
C171	C17	0.344280	0.958080	0.652640
C181	C18	0.417390	0.944790	0.637220
C191	C19	0.464700	0.916100	0.660800
C201	C20	0.437100	0.900100	0.700000
C211	C21	0.486710	0.870910	0.725980
C221	C22	0.407050	0.933650	0.573900
C231	C23	0.451940	0.965040	0.533920
C241	C24	0.438030	0.955330	0.499940
C251	C25	0.510140	0.007840	0.533520
C261	C26	0.506470	0.006670	0.574260
C271	C27	0.617980	0.070180	0.785440
C281	C28	0.618570	0.125070	0.801660
C291	C29	0.644260	0.198060	0.776880
C301	C30	0.595590	0.111090	0.841220
C311	C31	0.571050	0.044450	0.863500
C321	C32	0.571040	0.990640	0.847120
C331	C33	0.594620	0.004520	0.807360
C341	C34	0.594100	0.948300	0.788000
C351	C35	0.503400	0.068600	0.925800
C361	C36	0.497100	0.036300	0.963200
C371	C37	0.451200	0.058700	0.998400
C381	C38	0.525700	0.984000	0.966600
C391	C39	0.574300	0.978400	0.928800
C401	C40	0.422240	0.373040	0.715920
C411	C41	0.491240	0.367540	0.692320
C421	C42	0.556750	0.337150	0.708300
C431	C43	0.503080	0.389280	0.652640
C441	C44	0.445390	0.417990	0.637220
C451	C45	0.374500	0.423100	0.660800
C461	C46	0.362900	0.399900	0.700000
C471	C47	0.287310	0.403110	0.725980
C481	C48	0.519050	0.492450	0.573900
C491	C49	0.514140	0.501040	0.533920
C501	C50	0.562030	0.544730	0.499940
C511	C51	0.456340	0.458640	0.533520
C521	C52	0.419270	0.419070	0.574260
C531	C53	0.882020	0.355620	0.214560
C541	C54	0.881430	0.426730	0.198340
C551	C55	0.855740	0.474940	0.223120
C561	C56	0.904410	0.452310	0.158780
C571	C57	0.928950	0.407950	0.136500
C581	C58	0.928960	0.337760	0.152880
C591	C59	0.905380	0.311880	0.192640
C601	C60	0.905900	0.236300	0.212000
C611	C61	0.996600	0.494400	0.074200
C621	C62	0.002900	0.499500	0.036800
C631	C63	0.048800	0.557100	0.001600
C641	C64	0.974300	0.450600	0.033400
C651	C65	0.925700	0.407200	0.071200
C661	C66	0.077760	0.588960	0.284080
C671	C67	0.008760	0.559860	0.307680
C681	C68	0.943250	0.545450	0.291700
C691	C69	0.996920	0.541920	0.347360
C701	C70	0.054610	0.555210	0.362780
C711	C71	0.125500	0.583900	0.339200
C721	C72	0.137100	0.599900	0.300000
C731	C73	0.212690	0.629090	0.274020
C741	C74	0.980950	0.566350	0.426100
C751	C75	0.985860	0.534960	0.466080
C761	C76	0.937970	0.544670	0.500060
C771	C77	0.043660	0.492160	0.466480
C781	C78	0.080730	0.493330	0.425740
C791	C79	0.403420	0.429820	0.214560
C801	C80	0.420230	0.374930	0.198340
C811	C81	0.421140	0.301940	0.223120
C821	C82	0.436810	0.388910	0.158780
C831	C83	0.434550	0.455550	0.136500
C841	C84	0.418160	0.509360	0.152880
C851	C85	0.401980	0.495480	0.192640
C861	C86	0.382100	0.551700	0.212000
C871	C87	0.429200	0.431400	0.074200
C881	C88	0.460300	0.463700	0.036800
C891	C89	0.449600	0.441300	0.001600
C901	C90	0.492300	0.516000	0.033400
C911	C91	0.503100	0.521600	0.071200
C921	C92	0.138160	0.126960	0.284080
C931	C93	0.183560	0.132460	0.307680
C941	C94	0.265050	0.162850	0.291700
C951	C95	0.155720	0.110720	0.347360
C961	C96	0.082610	0.082010	0.362780
C971	C97	0.035300	0.076900	0.339200
C981	C98	0.062900	0.100100	0.300000
C991	C99	0.013290	0.096890	0.274020
C1001	C100	0.092950	0.007550	0.426100
C1011	C101	0.048060	0.998960	0.466080
C1021	C102	0.061970	0.955270	0.500060
C1031	C103	0.989860	0.041360	0.466480
C1041	C104	0.993530	0.080930	0.425740
C1051	C105	0.903420	0.855620	0.214560
C1061	C106	0.920230	0.926730	0.198340
C1071	C107	0.921140	0.974940	0.223120
C1081	C108	0.936810	0.952310	0.158780
C1091	C109	0.934550	0.907950	0.136500
C1101	C110	0.918160	0.837760	0.152880
C1111	C111	0.901980	0.811880	0.192640
C1121	C112	0.882100	0.736300	0.212000
C1131	C113	0.929200	0.994400	0.074200
C1141	C114	0.960300	0.999500	0.036800
C1151	C115	0.949600	0.057100	0.001600
C1161	C116	0.992300	0.950600	0.033400
C1171	C117	0.003100	0.907200	0.071200
C1181	C118	0.638160	0.088960	0.284080
C1191	C119	0.683560	0.059860	0.307680
C1201	C120	0.765050	0.045450	0.291700
C1211	C121	0.655720	0.041920	0.347360
C1221	C122	0.582610	0.055210	0.362780
C1231	C123	0.535300	0.083900	0.339200
C1241	C124	0.562900	0.099900	0.300000
C1251	C125	0.513290	0.129090	0.274020
C1261	C126	0.592950	0.066350	0.426100
C1271	C127	0.548060	0.034960	0.466080
C1281	C128	0.561970	0.044670	0.500060
C1291	C129	0.489860	0.992160	0.466480
C1301	C130	0.493530	0.993330	0.425740
C1311	C131	0.382020	0.929820	0.214560
C1321	C132	0.381430	0.874930	0.198340
C1331	C133	0.355740	0.801940	0.223120
C1341	C134	0.404410	0.888910	0.158780
C1351	C135	0.428950	0.955550	0.136500
C1361	C136	0.428960	0.009360	0.152880
C1371	C137	0.405380	0.995480	0.192640
C1381	C138	0.405900	0.051700	0.212000
C1391	C139	0.496600	0.931400	0.074200
C1401	C140	0.502900	0.963700	0.036800
C1411	C141	0.548800	0.941300	0.001600
C1421	C142	0.474300	0.016000	0.033400
C1431	C143	0.425700	0.021600	0.071200
C1441	C144	0.577760	0.626960	0.284080
C1451	C145	0.508760	0.632460	0.307680
C1461	C146	0.443250	0.662850	0.291700
C1471	C147	0.496920	0.610720	0.347360
C1481	C148	0.554610	0.582010	0.362780
C1491	C149	0.625500	0.576900	0.339200
C1501	C150	0.637100	0.600100	0.300000
C1511	C151	0.712690	0.596890	0.274020
C1521	C152	0.480950	0.507550	0.426100
C1531	C153	0.485860	0.498960	0.466080
C1541	C154	0.437970	0.455270	0.500060
C1551	C155	0.543660	0.541360	0.466480
C1561	C156	0.580730	0.580930	0.425740
C1571	C157	0.117980	0.644380	0.785440
C1581	C158	0.118570	0.573270	0.801660
C1591	C159	0.144260	0.525060	0.776880
C1601	C160	0.095590	0.547690	0.841220
C1611	C161	0.071050	0.592050	0.863500
C1621	C162	0.071040	0.662240	0.847120
C1631	C163	0.094620	0.688120	0.807360
C1641	C164	0.094100	0.763700	0.788000
C1651	C165	0.003400	0.505600	0.925800
C1661	C166	0.997100	0.500500	0.963200
C1671	C167	0.951200	0.442900	0.998400
C1681	C168	0.025700	0.549400	0.966600
C1691	C169	0.074300	0.592800	0.928800
C1701	C170	0.922240	0.411040	0.715920
C1711	C171	0.991240	0.440140	0.692320
C1721	C172	0.056750	0.454550	0.708300
C1731	C173	0.003080	0.458080	0.652640
C1741	C174	0.945390	0.444790	0.637220
C1751	C175	0.874500	0.416100	0.660800
C1761	C176	0.862900	0.400100	0.700000
C1771	C177	0.787310	0.370910	0.725980
C1781	C178	0.019050	0.433650	0.573900
C1791	C179	0.014140	0.465040	0.533920
C1801	C180	0.062030	0.455330	0.499940
C1811	C181	0.956340	0.507840	0.533520
C1821	C182	0.919270	0.506670	0.574260
C1831	C183	0.596580	0.570180	0.785440
C1841	C184	0.579770	0.625070	0.801660
C1851	C185	0.578860	0.698060	0.776880
C1861	C186	0.563190	0.611090	0.841220
C1871	C187	0.565450	0.544450	0.863500
C1881	C188	0.581840	0.490640	0.847120
C1891	C189	0.598020	0.504520	0.807360
C1901	C190	0.617900	0.448300	0.788000
C1911	C191	0.570800	0.568600	0.925800
C1921	C192	0.539700	0.536300	0.963200
C1931	C193	0.550400	0.558700	0.998400
C1941	C194	0.507700	0.484000	0.966600
C1951	C195	0.496900	0.478400	0.928800
C1961	C196	0.861840	0.873040	0.715920
C1971	C197	0.816440	0.867540	0.692320
C1981	C198	0.734950	0.837150	0.708300
C1991	C199	0.844280	0.889280	0.652640
C2001	C200	0.917390	0.917990	0.637220
C2011	C201	0.964700	0.923100	0.660800
C2021	C202	0.937100	0.899900	0.700000
C2031	C203	0.986710	0.903110	0.725980
C2041	C204	0.907050	0.992450	0.573900
C2051	C205	0.951940	0.001040	0.533920
C2061	C206	0.938030	0.044730	0.499940
C2071	C207	0.010140	0.958640	0.533520
C2081	C208	0.006470	0.919070	0.574260
N11	N1	0.046980	0.065680	0.904240
N21	N2	0.444780	0.960380	0.596440
N31	N3	0.548780	0.030080	0.904240
N41	N4	0.458780	0.443180	0.596440
N51	N5	0.951220	0.434320	0.095760
N61	N6	0.041220	0.539620	0.403560
N71	N7	0.453020	0.469920	0.095760
N81	N8	0.055220	0.056820	0.403560
N91	N9	0.953020	0.934320	0.095760
N101	N10	0.555220	0.039620	0.403560
N111	N11	0.451220	0.969920	0.095760
N121	N12	0.541220	0.556820	0.403560
N131	N13	0.048780	0.565680	0.904240
N141	N14	0.958780	0.460380	0.596440
N151	N15	0.546980	0.530080	0.904240
N161	N16	0.944780	0.943180	0.596440
O11	O1	0.083170	0.053870	0.742260
O21	O2	0.072530	0.962070	0.793140
O31	O3	0.141830	0.283830	0.752940
O41	O4	0.109860	0.306090	0.808080
O51	O5	0.124600	0.973600	0.910800
O61	O6	0.962600	0.143300	0.919800
O71	O7	0.202740	0.915140	0.741320
O81	O8	0.207490	0.000790	0.687220
O91	O9	0.462830	0.862330	0.761140
O101	O10	0.555470	0.858620	0.711460
O111	O11	0.351830	0.894530	0.585540
O121	O12	0.548710	0.035510	0.585780
O131	O13	0.674570	0.203870	0.742260
O141	O14	0.634330	0.244790	0.793140
O151	O15	0.605230	0.963230	0.752940
O161	O16	0.582060	0.885830	0.808080
O171	O17	0.464600	0.115600	0.910800
O181	O18	0.617600	0.936900	0.919800
O191	O19	0.555940	0.343540	0.741320
O201	O20	0.605290	0.311990	0.687220
O211	O21	0.276030	0.376530	0.761140
O221	O22	0.233070	0.429920	0.711460
O231	O23	0.562630	0.519930	0.585540
O241	O24	0.365510	0.378710	0.585780
O251	O25	0.825430	0.446130	0.257740
O261	O26	0.865670	0.537930	0.206860
O271	O27	0.894770	0.216170	0.247060
O281	O28	0.917940	0.193910	0.191920
O291	O29	0.035400	0.526400	0.089200
O301	O30	0.882400	0.356700	0.080200
O311	O31	0.944060	0.584860	0.258680
O321	O32	0.894710	0.499210	0.312780
O331	O33	0.223970	0.637670	0.238860
O341	O34	0.266930	0.641380	0.288540
O351	O35	0.937370	0.605470	0.414460
O361	O36	0.134490	0.464490	0.414220
O371	O37	0.416830	0.296130	0.257740
O381	O38	0.427470	0.255210	0.206860
O391	O39	0.358170	0.536770	0.247060
O401	O40	0.390140	0.614170	0.191920
O411	O41	0.375400	0.384400	0.089200
O421	O42	0.537400	0.563100	0.080200
O431	O43	0.297260	0.156460	0.258680
O441	O44	0.292510	0.188010	0.312780
O451	O45	0.037170	0.123470	0.238860
O461	O46	0.944530	0.070080	0.288540
O471	O47	0.148170	0.980070	0.414460
O481	O48	0.951290	0.121290	0.414220
O491	O49	0.916830	0.946130	0.257740
O501	O50	0.927470	0.037930	0.206860
O511	O51	0.858170	0.716170	0.247060
O521	O52	0.890140	0.693910	0.191920
O531	O53	0.875400	0.026400	0.089200
O541	O54	0.037400	0.856700	0.080200
O551	O55	0.797260	0.084860	0.258680
O561	O56	0.792510	0.999210	0.312780
O571	O57	0.537170	0.137670	0.238860
O581	O58	0.444530	0.141380	0.288540
O591	O59	0.648170	0.105470	0.414460
O601	O60	0.451290	0.964490	0.414220
O611	O61	0.325430	0.796130	0.257740
O621	O62	0.365670	0.755210	0.206860
O631	O63	0.394770	0.036770	0.247060
O641	O64	0.417940	0.114170	0.191920
O651	O65	0.535400	0.884400	0.089200
O661	O66	0.382400	0.063100	0.080200
O671	O67	0.444060	0.656460	0.258680
O681	O68	0.394710	0.688010	0.312780
O691	O69	0.723970	0.623470	0.238860
O701	O70	0.766930	0.570080	0.288540
O711	O71	0.437370	0.480070	0.414460
O721	O72	0.634490	0.621290	0.414220
O731	O73	0.174570	0.553870	0.742260
O741	O74	0.134330	0.462070	0.793140
O751	O75	0.105230	0.783830	0.752940
O761	O76	0.082060	0.806090	0.808080
O771	O77	0.964600	0.473600	0.910800
O781	O78	0.117600	0.643300	0.919800
O791	O79	0.055940	0.415140	0.741320
O801	O80	0.105290	0.500790	0.687220
O811	O81	0.776030	0.362330	0.761140
O821	O82	0.733070	0.358620	0.711460
O831	O83	0.062630	0.394530	0.585540
O841	O84	0.865510	0.535510	0.585780
O851	O85	0.583170	0.703870	0.742260
O861	O86	0.572530	0.744790	0.793140
O871	O87	0.641830	0.463230	0.752940
O881	O88	0.609860	0.385830	0.808080
O891	O89	0.624600	0.615600	0.910800
O901	O90	0.462600	0.436900	0.919800
O911	O91	0.702740	0.843540	0.741320
O921	O92	0.707490	0.811990	0.687220
O931	O93	0.962830	0.876530	0.761140
O941	O94	0.055470	0.929920	0.711460
O951	O95	0.851830	0.019930	0.585540
O961	O96	0.048710	0.878710	0.585780
