data_ALATAK_clean_PM
_symmetry_space_group_name_H-M	'P1'
_cell_length_a	14.160000
_cell_length_b	7.271000
_cell_length_c	8.982000
_cell_angle_alpha	90.000000
_cell_angle_beta	108.851000
_cell_angle_gamma	90.000000
_symmetry_Int_Tables_number 1

loop_
_symmetry_equiv_pos_as_xyz
'x,y,z'

loop_
_atom_site_label
_atom_site_type_symbol
_atom_site_fract_x
_atom_site_fract_y
_atom_site_fract_z
O11	O1	0.327400	0.819700	0.956800
O21	O2	0.346970	0.180500	0.293500
C11	C1	0.411010	0.894500	0.976900
C21	C2	0.420770	0.105600	0.394500
O31	O3	0.827400	0.319700	0.956800
O41	O4	0.846970	0.680500	0.293500
C31	C3	0.911010	0.394500	0.976900
C41	C4	0.920770	0.605600	0.394500
O51	O5	0.672600	0.819700	0.043200
O61	O6	0.653030	0.180500	0.706500
C51	C5	0.588990	0.894500	0.023100
C61	C6	0.579230	0.105600	0.605500
O71	O7	0.172600	0.319700	0.043200
O81	O8	0.153030	0.680500	0.706500
C71	C7	0.088990	0.394500	0.023100
C81	C8	0.079230	0.605600	0.605500
O91	O9	0.672600	0.180300	0.043200
O101	O10	0.653030	0.819500	0.706500
C91	C9	0.588990	0.105500	0.023100
C101	C10	0.579230	0.894400	0.605500
O111	O11	0.172600	0.680300	0.043200
O121	O12	0.153030	0.319500	0.706500
C111	C11	0.088990	0.605500	0.023100
C121	C12	0.079230	0.394400	0.605500
O131	O13	0.327400	0.180300	0.956800
O141	O14	0.346970	0.819500	0.293500
C131	C13	0.411010	0.105500	0.976900
C141	C14	0.420770	0.894400	0.394500
O151	O15	0.827400	0.680300	0.956800
O161	O16	0.846970	0.319500	0.293500
C151	C15	0.911010	0.605500	0.976900
C161	C16	0.920770	0.394400	0.394500
Ca11	Ca1	0.227260	0.000000	0.087840
Ca21	Ca2	0.727260	0.500000	0.087840
Ca31	Ca3	0.772740	0.000000	0.912160
Ca41	Ca4	0.272740	0.500000	0.912160
C171	C17	0.500000	0.800100	0.000000
H11	H1	0.500000	0.651200	0.000000
C181	C18	0.000000	0.300100	0.000000
H21	H2	0.000000	0.151200	0.000000
C191	C19	0.500000	0.199900	0.000000
H31	H3	0.500000	0.348800	0.000000
C201	C20	0.000000	0.699900	0.000000
H41	H4	0.000000	0.848800	0.000000
C211	C21	0.500000	0.199300	0.500000
H51	H5	0.500000	0.348400	0.500000
C221	C22	0.000000	0.699300	0.500000
H61	H6	0.000000	0.848400	0.500000
C231	C23	0.500000	0.800700	0.500000
H71	H7	0.500000	0.651600	0.500000
C241	C24	0.000000	0.300700	0.500000
H81	H8	0.000000	0.151600	0.500000
