data_ALEJIM_clean_PM
_symmetry_space_group_name_H-M	'P1'
_cell_length_a	30.591900
_cell_length_b	30.591900
_cell_length_c	44.818100
_cell_angle_alpha	90.000000
_cell_angle_beta	90.000000
_cell_angle_gamma	90.000000
_symmetry_Int_Tables_number 1

loop_
_symmetry_equiv_pos_as_xyz
'x,y,z'

loop_
_atom_site_label
_atom_site_type_symbol
_atom_site_fract_x
_atom_site_fract_y
_atom_site_fract_z
Zn11	Zn1	0.095370	0.848300	0.628160
Zn21	Zn2	0.133490	0.789250	0.673980
O11	O1	0.111160	0.315930	0.531740
O21	O2	0.100380	0.245310	0.531620
O31	O3	0.163650	0.154850	0.610410
O41	O4	0.201370	0.186440	0.647310
O51	O5	0.295430	0.427840	0.809850
O61	O6	0.344490	0.453760	0.841580
O71	O7	0.374380	0.608990	0.844620
O81	O8	0.352510	0.651850	0.807310
O91	O9	0.109710	0.746750	0.643050
O101	O10	0.074300	0.791510	0.611960
O111	O11	0.987490	0.728490	0.531030
O121	O12	0.976210	0.657250	0.530720
O131	O13	0.168000	0.395900	0.599800
O141	O14	0.274400	0.485100	0.717510
O151	O15	0.150400	0.612400	0.629400
N11	N1	0.213900	0.343000	0.617930
H11	H1	0.237000	0.338400	0.629100
N21	N2	0.223900	0.412000	0.632300
H21	H2	0.247400	0.401400	0.641100
N31	N3	0.281700	0.553700	0.734090
H31	H3	0.276100	0.581100	0.729600
N41	N4	0.248100	0.542100	0.690970
H41	H4	0.245900	0.570800	0.691200
N51	N5	0.144300	0.544100	0.609100
H51	H5	0.133200	0.529000	0.594200
N61	N6	0.099900	0.598700	0.592300
H61	H6	0.094200	0.579600	0.578100
C11	C1	0.116700	0.278810	0.541580
C21	C2	0.179700	0.187500	0.623670
C31	C3	0.146500	0.273600	0.568220
C41	C4	0.151400	0.233200	0.581610
H71	H7	0.137300	0.208300	0.573400
C51	C5	0.177300	0.229200	0.607550
C61	C6	0.196300	0.264800	0.619480
H81	H8	0.211700	0.262600	0.637800
C71	C7	0.193100	0.307200	0.604230
C81	C8	0.167800	0.309800	0.578720
H91	H9	0.165200	0.336800	0.568400
C91	C9	0.319500	0.457200	0.820070
C101	C10	0.355900	0.615700	0.820920
C111	C11	0.320100	0.500300	0.804750
C121	C12	0.339500	0.536100	0.818370
H101	H10	0.353800	0.533100	0.837100
C131	C13	0.337700	0.577300	0.803840
C141	C14	0.320100	0.582200	0.776990
H111	H11	0.320700	0.609900	0.767500
C151	C15	0.300800	0.546700	0.762700
C161	C16	0.300600	0.505200	0.776800
H121	H12	0.287300	0.480900	0.767300
C171	C17	0.085100	0.754400	0.621180
C181	C18	0.993800	0.691200	0.540500
C191	C19	0.072900	0.716100	0.602490
C201	C20	0.042400	0.720900	0.579200
H131	H13	0.031300	0.749100	0.574400
C211	C21	0.028900	0.685400	0.563750
C221	C22	0.045700	0.644700	0.569800
H141	H14	0.036100	0.619900	0.558800
C231	C23	0.076700	0.640100	0.592100
C241	C24	0.090800	0.677100	0.608600
H151	H15	0.112400	0.674300	0.623700
C251	C25	0.199200	0.384300	0.614400
C261	C26	0.271000	0.524000	0.712800
C271	C27	0.130400	0.587600	0.613700
C281	C28	0.212900	0.457100	0.637240
C291	C29	0.236100	0.475700	0.661320
H161	H16	0.256600	0.459300	0.672600
C301	C30	0.227100	0.520300	0.667720
C311	C31	0.197700	0.545000	0.651850
H171	H17	0.192400	0.574800	0.656700
C321	C32	0.175500	0.524300	0.628000
C331	C33	0.181900	0.479500	0.619400
H181	H18	0.166700	0.466200	0.603300
Zn31	Zn3	0.595370	0.348300	0.128160
Zn41	Zn4	0.633490	0.289250	0.173980
O161	O16	0.611160	0.815930	0.031740
O171	O17	0.600380	0.745310	0.031620
O181	O18	0.663650	0.654850	0.110410
O191	O19	0.701370	0.686440	0.147310
O201	O20	0.795430	0.927840	0.309850
O211	O21	0.844490	0.953760	0.341580
O221	O22	0.874380	0.108990	0.344620
O231	O23	0.852510	0.151850	0.307310
O241	O24	0.609710	0.246750	0.143050
O251	O25	0.574300	0.291510	0.111960
O261	O26	0.487490	0.228490	0.031030
O271	O27	0.476210	0.157250	0.030720
O281	O28	0.668000	0.895900	0.099800
O291	O29	0.774400	0.985100	0.217510
O301	O30	0.650400	0.112400	0.129400
N71	N7	0.713900	0.843000	0.117930
H191	H19	0.737000	0.838400	0.129100
N81	N8	0.723900	0.912000	0.132300
H201	H20	0.747400	0.901400	0.141100
N91	N9	0.781700	0.053700	0.234090
H211	H21	0.776100	0.081100	0.229600
N101	N10	0.748100	0.042100	0.190970
H221	H22	0.745900	0.070800	0.191200
N111	N11	0.644300	0.044100	0.109100
H231	H23	0.633200	0.029000	0.094200
N121	N12	0.599900	0.098700	0.092300
H241	H24	0.594200	0.079600	0.078100
C341	C34	0.616700	0.778810	0.041580
C351	C35	0.679700	0.687500	0.123670
C361	C36	0.646500	0.773600	0.068220
C371	C37	0.651400	0.733200	0.081610
H251	H25	0.637300	0.708300	0.073400
C381	C38	0.677300	0.729200	0.107550
C391	C39	0.696300	0.764800	0.119480
H261	H26	0.711700	0.762600	0.137800
C401	C40	0.693100	0.807200	0.104230
C411	C41	0.667800	0.809800	0.078720
H271	H27	0.665200	0.836800	0.068400
C421	C42	0.819500	0.957200	0.320070
C431	C43	0.855900	0.115700	0.320920
C441	C44	0.820100	0.000300	0.304750
C451	C45	0.839500	0.036100	0.318370
H281	H28	0.853800	0.033100	0.337100
C461	C46	0.837700	0.077300	0.303840
C471	C47	0.820100	0.082200	0.276990
H291	H29	0.820700	0.109900	0.267500
C481	C48	0.800800	0.046700	0.262700
C491	C49	0.800600	0.005200	0.276800
H301	H30	0.787300	0.980900	0.267300
C501	C50	0.585100	0.254400	0.121180
C511	C51	0.493800	0.191200	0.040500
C521	C52	0.572900	0.216100	0.102490
C531	C53	0.542400	0.220900	0.079200
H311	H31	0.531300	0.249100	0.074400
C541	C54	0.528900	0.185400	0.063750
C551	C55	0.545700	0.144700	0.069800
H321	H32	0.536100	0.119900	0.058800
C561	C56	0.576700	0.140100	0.092100
C571	C57	0.590800	0.177100	0.108600
H331	H33	0.612400	0.174300	0.123700
C581	C58	0.699200	0.884300	0.114400
C591	C59	0.771000	0.024000	0.212800
C601	C60	0.630400	0.087600	0.113700
C611	C61	0.712900	0.957100	0.137240
C621	C62	0.736100	0.975700	0.161320
H341	H34	0.756600	0.959300	0.172600
C631	C63	0.727100	0.020300	0.167720
C641	C64	0.697700	0.045000	0.151850
H351	H35	0.692400	0.074800	0.156700
C651	C65	0.675500	0.024300	0.128000
C661	C66	0.681900	0.979500	0.119400
H361	H36	0.666700	0.966200	0.103300
Zn51	Zn5	0.904630	0.151700	0.628160
Zn61	Zn6	0.866510	0.210750	0.673980
O311	O31	0.888840	0.684070	0.531740
O321	O32	0.899620	0.754690	0.531620
O331	O33	0.836350	0.845150	0.610410
O341	O34	0.798630	0.813560	0.647310
O351	O35	0.704570	0.572160	0.809850
O361	O36	0.655510	0.546240	0.841580
O371	O37	0.625620	0.391010	0.844620
O381	O38	0.647490	0.348150	0.807310
O391	O39	0.890290	0.253250	0.643050
O401	O40	0.925700	0.208490	0.611960
O411	O41	0.012510	0.271510	0.531030
O421	O42	0.023790	0.342750	0.530720
O431	O43	0.832000	0.604100	0.599800
O441	O44	0.725600	0.514900	0.717510
O451	O45	0.849600	0.387600	0.629400
N131	N13	0.786100	0.657000	0.617930
H371	H37	0.763000	0.661600	0.629100
N141	N14	0.776100	0.588000	0.632300
H381	H38	0.752600	0.598600	0.641100
N151	N15	0.718300	0.446300	0.734090
H391	H39	0.723900	0.418900	0.729600
N161	N16	0.751900	0.457900	0.690970
H401	H40	0.754100	0.429200	0.691200
N171	N17	0.855700	0.455900	0.609100
H411	H41	0.866800	0.471000	0.594200
N181	N18	0.900100	0.401300	0.592300
H421	H42	0.905800	0.420400	0.578100
C671	C67	0.883300	0.721190	0.541580
C681	C68	0.820300	0.812500	0.623670
C691	C69	0.853500	0.726400	0.568220
C701	C70	0.848600	0.766800	0.581610
H431	H43	0.862700	0.791700	0.573400
C711	C71	0.822700	0.770800	0.607550
C721	C72	0.803700	0.735200	0.619480
H441	H44	0.788300	0.737400	0.637800
C731	C73	0.806900	0.692800	0.604230
C741	C74	0.832200	0.690200	0.578720
H451	H45	0.834800	0.663200	0.568400
C751	C75	0.680500	0.542800	0.820070
C761	C76	0.644100	0.384300	0.820920
C771	C77	0.679900	0.499700	0.804750
C781	C78	0.660500	0.463900	0.818370
H461	H46	0.646200	0.466900	0.837100
C791	C79	0.662300	0.422700	0.803840
C801	C80	0.679900	0.417800	0.776990
H471	H47	0.679300	0.390100	0.767500
C811	C81	0.699200	0.453300	0.762700
C821	C82	0.699400	0.494800	0.776800
H481	H48	0.712700	0.519100	0.767300
C831	C83	0.914900	0.245600	0.621180
C841	C84	0.006200	0.308800	0.540500
C851	C85	0.927100	0.283900	0.602490
C861	C86	0.957600	0.279100	0.579200
H491	H49	0.968700	0.250900	0.574400
C871	C87	0.971100	0.314600	0.563750
C881	C88	0.954300	0.355300	0.569800
H501	H50	0.963900	0.380100	0.558800
C891	C89	0.923300	0.359900	0.592100
C901	C90	0.909200	0.322900	0.608600
H511	H51	0.887600	0.325700	0.623700
C911	C91	0.800800	0.615700	0.614400
C921	C92	0.729000	0.476000	0.712800
C931	C93	0.869600	0.412400	0.613700
C941	C94	0.787100	0.542900	0.637240
C951	C95	0.763900	0.524300	0.661320
H521	H52	0.743400	0.540700	0.672600
C961	C96	0.772900	0.479700	0.667720
C971	C97	0.802300	0.455000	0.651850
H531	H53	0.807600	0.425200	0.656700
C981	C98	0.824500	0.475700	0.628000
C991	C99	0.818100	0.520500	0.619400
H541	H54	0.833300	0.533800	0.603300
Zn71	Zn7	0.404630	0.651700	0.128160
Zn81	Zn8	0.366510	0.710750	0.173980
O461	O46	0.388840	0.184070	0.031740
O471	O47	0.399620	0.254690	0.031620
O481	O48	0.336350	0.345150	0.110410
O491	O49	0.298630	0.313560	0.147310
O501	O50	0.204570	0.072160	0.309850
O511	O51	0.155510	0.046240	0.341580
O521	O52	0.125620	0.891010	0.344620
O531	O53	0.147490	0.848150	0.307310
O541	O54	0.390290	0.753250	0.143050
O551	O55	0.425700	0.708490	0.111960
O561	O56	0.512510	0.771510	0.031030
O571	O57	0.523790	0.842750	0.030720
O581	O58	0.332000	0.104100	0.099800
O591	O59	0.225600	0.014900	0.217510
O601	O60	0.349600	0.887600	0.129400
N191	N19	0.286100	0.157000	0.117930
H551	H55	0.263000	0.161600	0.129100
N201	N20	0.276100	0.088000	0.132300
H561	H56	0.252600	0.098600	0.141100
N211	N21	0.218300	0.946300	0.234090
H571	H57	0.223900	0.918900	0.229600
N221	N22	0.251900	0.957900	0.190970
H581	H58	0.254100	0.929200	0.191200
N231	N23	0.355700	0.955900	0.109100
H591	H59	0.366800	0.971000	0.094200
N241	N24	0.400100	0.901300	0.092300
H601	H60	0.405800	0.920400	0.078100
C1001	C100	0.383300	0.221190	0.041580
C1011	C101	0.320300	0.312500	0.123670
C1021	C102	0.353500	0.226400	0.068220
C1031	C103	0.348600	0.266800	0.081610
H611	H61	0.362700	0.291700	0.073400
C1041	C104	0.322700	0.270800	0.107550
C1051	C105	0.303700	0.235200	0.119480
H621	H62	0.288300	0.237400	0.137800
C1061	C106	0.306900	0.192800	0.104230
C1071	C107	0.332200	0.190200	0.078720
H631	H63	0.334800	0.163200	0.068400
C1081	C108	0.180500	0.042800	0.320070
C1091	C109	0.144100	0.884300	0.320920
C1101	C110	0.179900	0.999700	0.304750
C1111	C111	0.160500	0.963900	0.318370
H641	H64	0.146200	0.966900	0.337100
C1121	C112	0.162300	0.922700	0.303840
C1131	C113	0.179900	0.917800	0.276990
H651	H65	0.179300	0.890100	0.267500
C1141	C114	0.199200	0.953300	0.262700
C1151	C115	0.199400	0.994800	0.276800
H661	H66	0.212700	0.019100	0.267300
C1161	C116	0.414900	0.745600	0.121180
C1171	C117	0.506200	0.808800	0.040500
C1181	C118	0.427100	0.783900	0.102490
C1191	C119	0.457600	0.779100	0.079200
H671	H67	0.468700	0.750900	0.074400
C1201	C120	0.471100	0.814600	0.063750
C1211	C121	0.454300	0.855300	0.069800
H681	H68	0.463900	0.880100	0.058800
C1221	C122	0.423300	0.859900	0.092100
C1231	C123	0.409200	0.822900	0.108600
H691	H69	0.387600	0.825700	0.123700
C1241	C124	0.300800	0.115700	0.114400
C1251	C125	0.229000	0.976000	0.212800
C1261	C126	0.369600	0.912400	0.113700
C1271	C127	0.287100	0.042900	0.137240
C1281	C128	0.263900	0.024300	0.161320
H701	H70	0.243400	0.040700	0.172600
C1291	C129	0.272900	0.979700	0.167720
C1301	C130	0.302300	0.955000	0.151850
H711	H71	0.307600	0.925200	0.156700
C1311	C131	0.324500	0.975700	0.128000
C1321	C132	0.318100	0.020500	0.119400
H721	H72	0.333300	0.033800	0.103300
Zn91	Zn9	0.151700	0.095370	0.628160
Zn101	Zn10	0.210750	0.133490	0.673980
O611	O61	0.684070	0.111160	0.531740
O621	O62	0.754690	0.100380	0.531620
O631	O63	0.845150	0.163650	0.610410
O641	O64	0.813560	0.201370	0.647310
O651	O65	0.572160	0.295430	0.809850
O661	O66	0.546240	0.344490	0.841580
O671	O67	0.391010	0.374380	0.844620
O681	O68	0.348150	0.352510	0.807310
O691	O69	0.253250	0.109710	0.643050
O701	O70	0.208490	0.074300	0.611960
O711	O71	0.271510	0.987490	0.531030
O721	O72	0.342750	0.976210	0.530720
O731	O73	0.604100	0.168000	0.599800
O741	O74	0.514900	0.274400	0.717510
O751	O75	0.387600	0.150400	0.629400
N251	N25	0.657000	0.213900	0.617930
H731	H73	0.661600	0.237000	0.629100
N261	N26	0.588000	0.223900	0.632300
H741	H74	0.598600	0.247400	0.641100
N271	N27	0.446300	0.281700	0.734090
H751	H75	0.418900	0.276100	0.729600
N281	N28	0.457900	0.248100	0.690970
H761	H76	0.429200	0.245900	0.691200
N291	N29	0.455900	0.144300	0.609100
H771	H77	0.471000	0.133200	0.594200
N301	N30	0.401300	0.099900	0.592300
H781	H78	0.420400	0.094200	0.578100
C1331	C133	0.721190	0.116700	0.541580
C1341	C134	0.812500	0.179700	0.623670
C1351	C135	0.726400	0.146500	0.568220
C1361	C136	0.766800	0.151400	0.581610
H791	H79	0.791700	0.137300	0.573400
C1371	C137	0.770800	0.177300	0.607550
C1381	C138	0.735200	0.196300	0.619480
H801	H80	0.737400	0.211700	0.637800
C1391	C139	0.692800	0.193100	0.604230
C1401	C140	0.690200	0.167800	0.578720
H811	H81	0.663200	0.165200	0.568400
C1411	C141	0.542800	0.319500	0.820070
C1421	C142	0.384300	0.355900	0.820920
C1431	C143	0.499700	0.320100	0.804750
C1441	C144	0.463900	0.339500	0.818370
H821	H82	0.466900	0.353800	0.837100
C1451	C145	0.422700	0.337700	0.803840
C1461	C146	0.417800	0.320100	0.776990
H831	H83	0.390100	0.320700	0.767500
C1471	C147	0.453300	0.300800	0.762700
C1481	C148	0.494800	0.300600	0.776800
H841	H84	0.519100	0.287300	0.767300
C1491	C149	0.245600	0.085100	0.621180
C1501	C150	0.308800	0.993800	0.540500
C1511	C151	0.283900	0.072900	0.602490
C1521	C152	0.279100	0.042400	0.579200
H851	H85	0.250900	0.031300	0.574400
C1531	C153	0.314600	0.028900	0.563750
C1541	C154	0.355300	0.045700	0.569800
H861	H86	0.380100	0.036100	0.558800
C1551	C155	0.359900	0.076700	0.592100
C1561	C156	0.322900	0.090800	0.608600
H871	H87	0.325700	0.112400	0.623700
C1571	C157	0.615700	0.199200	0.614400
C1581	C158	0.476000	0.271000	0.712800
C1591	C159	0.412400	0.130400	0.613700
C1601	C160	0.542900	0.212900	0.637240
C1611	C161	0.524300	0.236100	0.661320
H881	H88	0.540700	0.256600	0.672600
C1621	C162	0.479700	0.227100	0.667720
C1631	C163	0.455000	0.197700	0.651850
H891	H89	0.425200	0.192400	0.656700
C1641	C164	0.475700	0.175500	0.628000
C1651	C165	0.520500	0.181900	0.619400
H901	H90	0.533800	0.166700	0.603300
Zn111	Zn11	0.651700	0.595370	0.128160
Zn121	Zn12	0.710750	0.633490	0.173980
O761	O76	0.184070	0.611160	0.031740
O771	O77	0.254690	0.600380	0.031620
O781	O78	0.345150	0.663650	0.110410
O791	O79	0.313560	0.701370	0.147310
O801	O80	0.072160	0.795430	0.309850
O811	O81	0.046240	0.844490	0.341580
O821	O82	0.891010	0.874380	0.344620
O831	O83	0.848150	0.852510	0.307310
O841	O84	0.753250	0.609710	0.143050
O851	O85	0.708490	0.574300	0.111960
O861	O86	0.771510	0.487490	0.031030
O871	O87	0.842750	0.476210	0.030720
O881	O88	0.104100	0.668000	0.099800
O891	O89	0.014900	0.774400	0.217510
O901	O90	0.887600	0.650400	0.129400
N311	N31	0.157000	0.713900	0.117930
H911	H91	0.161600	0.737000	0.129100
N321	N32	0.088000	0.723900	0.132300
H921	H92	0.098600	0.747400	0.141100
N331	N33	0.946300	0.781700	0.234090
H931	H93	0.918900	0.776100	0.229600
N341	N34	0.957900	0.748100	0.190970
H941	H94	0.929200	0.745900	0.191200
N351	N35	0.955900	0.644300	0.109100
H951	H95	0.971000	0.633200	0.094200
N361	N36	0.901300	0.599900	0.092300
H961	H96	0.920400	0.594200	0.078100
C1661	C166	0.221190	0.616700	0.041580
C1671	C167	0.312500	0.679700	0.123670
C1681	C168	0.226400	0.646500	0.068220
C1691	C169	0.266800	0.651400	0.081610
H971	H97	0.291700	0.637300	0.073400
C1701	C170	0.270800	0.677300	0.107550
C1711	C171	0.235200	0.696300	0.119480
H981	H98	0.237400	0.711700	0.137800
C1721	C172	0.192800	0.693100	0.104230
C1731	C173	0.190200	0.667800	0.078720
H991	H99	0.163200	0.665200	0.068400
C1741	C174	0.042800	0.819500	0.320070
C1751	C175	0.884300	0.855900	0.320920
C1761	C176	0.999700	0.820100	0.304750
C1771	C177	0.963900	0.839500	0.318370
H1001	H100	0.966900	0.853800	0.337100
C1781	C178	0.922700	0.837700	0.303840
C1791	C179	0.917800	0.820100	0.276990
H1011	H101	0.890100	0.820700	0.267500
C1801	C180	0.953300	0.800800	0.262700
C1811	C181	0.994800	0.800600	0.276800
H1021	H102	0.019100	0.787300	0.267300
C1821	C182	0.745600	0.585100	0.121180
C1831	C183	0.808800	0.493800	0.040500
C1841	C184	0.783900	0.572900	0.102490
C1851	C185	0.779100	0.542400	0.079200
H1031	H103	0.750900	0.531300	0.074400
C1861	C186	0.814600	0.528900	0.063750
C1871	C187	0.855300	0.545700	0.069800
H1041	H104	0.880100	0.536100	0.058800
C1881	C188	0.859900	0.576700	0.092100
C1891	C189	0.822900	0.590800	0.108600
H1051	H105	0.825700	0.612400	0.123700
C1901	C190	0.115700	0.699200	0.114400
C1911	C191	0.976000	0.771000	0.212800
C1921	C192	0.912400	0.630400	0.113700
C1931	C193	0.042900	0.712900	0.137240
C1941	C194	0.024300	0.736100	0.161320
H1061	H106	0.040700	0.756600	0.172600
C1951	C195	0.979700	0.727100	0.167720
C1961	C196	0.955000	0.697700	0.151850
H1071	H107	0.925200	0.692400	0.156700
C1971	C197	0.975700	0.675500	0.128000
C1981	C198	0.020500	0.681900	0.119400
H1081	H108	0.033800	0.666700	0.103300
Zn131	Zn13	0.848300	0.904630	0.628160
Zn141	Zn14	0.789250	0.866510	0.673980
O911	O91	0.315930	0.888840	0.531740
O921	O92	0.245310	0.899620	0.531620
O931	O93	0.154850	0.836350	0.610410
O941	O94	0.186440	0.798630	0.647310
O951	O95	0.427840	0.704570	0.809850
O961	O96	0.453760	0.655510	0.841580
O971	O97	0.608990	0.625620	0.844620
O981	O98	0.651850	0.647490	0.807310
O991	O99	0.746750	0.890290	0.643050
O1001	O100	0.791510	0.925700	0.611960
O1011	O101	0.728490	0.012510	0.531030
O1021	O102	0.657250	0.023790	0.530720
O1031	O103	0.395900	0.832000	0.599800
O1041	O104	0.485100	0.725600	0.717510
O1051	O105	0.612400	0.849600	0.629400
N371	N37	0.343000	0.786100	0.617930
H1091	H109	0.338400	0.763000	0.629100
N381	N38	0.412000	0.776100	0.632300
H1101	H110	0.401400	0.752600	0.641100
N391	N39	0.553700	0.718300	0.734090
H1111	H111	0.581100	0.723900	0.729600
N401	N40	0.542100	0.751900	0.690970
H1121	H112	0.570800	0.754100	0.691200
N411	N41	0.544100	0.855700	0.609100
H1131	H113	0.529000	0.866800	0.594200
N421	N42	0.598700	0.900100	0.592300
H1141	H114	0.579600	0.905800	0.578100
C1991	C199	0.278810	0.883300	0.541580
C2001	C200	0.187500	0.820300	0.623670
C2011	C201	0.273600	0.853500	0.568220
C2021	C202	0.233200	0.848600	0.581610
H1151	H115	0.208300	0.862700	0.573400
C2031	C203	0.229200	0.822700	0.607550
C2041	C204	0.264800	0.803700	0.619480
H1161	H116	0.262600	0.788300	0.637800
C2051	C205	0.307200	0.806900	0.604230
C2061	C206	0.309800	0.832200	0.578720
H1171	H117	0.336800	0.834800	0.568400
C2071	C207	0.457200	0.680500	0.820070
C2081	C208	0.615700	0.644100	0.820920
C2091	C209	0.500300	0.679900	0.804750
C2101	C210	0.536100	0.660500	0.818370
H1181	H118	0.533100	0.646200	0.837100
C2111	C211	0.577300	0.662300	0.803840
C2121	C212	0.582200	0.679900	0.776990
H1191	H119	0.609900	0.679300	0.767500
C2131	C213	0.546700	0.699200	0.762700
C2141	C214	0.505200	0.699400	0.776800
H1201	H120	0.480900	0.712700	0.767300
C2151	C215	0.754400	0.914900	0.621180
C2161	C216	0.691200	0.006200	0.540500
C2171	C217	0.716100	0.927100	0.602490
C2181	C218	0.720900	0.957600	0.579200
H1211	H121	0.749100	0.968700	0.574400
C2191	C219	0.685400	0.971100	0.563750
C2201	C220	0.644700	0.954300	0.569800
H1221	H122	0.619900	0.963900	0.558800
C2211	C221	0.640100	0.923300	0.592100
C2221	C222	0.677100	0.909200	0.608600
H1231	H123	0.674300	0.887600	0.623700
C2231	C223	0.384300	0.800800	0.614400
C2241	C224	0.524000	0.729000	0.712800
C2251	C225	0.587600	0.869600	0.613700
C2261	C226	0.457100	0.787100	0.637240
C2271	C227	0.475700	0.763900	0.661320
H1241	H124	0.459300	0.743400	0.672600
C2281	C228	0.520300	0.772900	0.667720
C2291	C229	0.545000	0.802300	0.651850
H1251	H125	0.574800	0.807600	0.656700
C2301	C230	0.524300	0.824500	0.628000
C2311	C231	0.479500	0.818100	0.619400
H1261	H126	0.466200	0.833300	0.603300
Zn151	Zn15	0.348300	0.404630	0.128160
Zn161	Zn16	0.289250	0.366510	0.173980
O1061	O106	0.815930	0.388840	0.031740
O1071	O107	0.745310	0.399620	0.031620
O1081	O108	0.654850	0.336350	0.110410
O1091	O109	0.686440	0.298630	0.147310
O1101	O110	0.927840	0.204570	0.309850
O1111	O111	0.953760	0.155510	0.341580
O1121	O112	0.108990	0.125620	0.344620
O1131	O113	0.151850	0.147490	0.307310
O1141	O114	0.246750	0.390290	0.143050
O1151	O115	0.291510	0.425700	0.111960
O1161	O116	0.228490	0.512510	0.031030
O1171	O117	0.157250	0.523790	0.030720
O1181	O118	0.895900	0.332000	0.099800
O1191	O119	0.985100	0.225600	0.217510
O1201	O120	0.112400	0.349600	0.129400
N431	N43	0.843000	0.286100	0.117930
H1271	H127	0.838400	0.263000	0.129100
N441	N44	0.912000	0.276100	0.132300
H1281	H128	0.901400	0.252600	0.141100
N451	N45	0.053700	0.218300	0.234090
H1291	H129	0.081100	0.223900	0.229600
N461	N46	0.042100	0.251900	0.190970
H1301	H130	0.070800	0.254100	0.191200
N471	N47	0.044100	0.355700	0.109100
H1311	H131	0.029000	0.366800	0.094200
N481	N48	0.098700	0.400100	0.092300
H1321	H132	0.079600	0.405800	0.078100
C2321	C232	0.778810	0.383300	0.041580
C2331	C233	0.687500	0.320300	0.123670
C2341	C234	0.773600	0.353500	0.068220
C2351	C235	0.733200	0.348600	0.081610
H1331	H133	0.708300	0.362700	0.073400
C2361	C236	0.729200	0.322700	0.107550
C2371	C237	0.764800	0.303700	0.119480
H1341	H134	0.762600	0.288300	0.137800
C2381	C238	0.807200	0.306900	0.104230
C2391	C239	0.809800	0.332200	0.078720
H1351	H135	0.836800	0.334800	0.068400
C2401	C240	0.957200	0.180500	0.320070
C2411	C241	0.115700	0.144100	0.320920
C2421	C242	0.000300	0.179900	0.304750
C2431	C243	0.036100	0.160500	0.318370
H1361	H136	0.033100	0.146200	0.337100
C2441	C244	0.077300	0.162300	0.303840
C2451	C245	0.082200	0.179900	0.276990
H1371	H137	0.109900	0.179300	0.267500
C2461	C246	0.046700	0.199200	0.262700
C2471	C247	0.005200	0.199400	0.276800
H1381	H138	0.980900	0.212700	0.267300
C2481	C248	0.254400	0.414900	0.121180
C2491	C249	0.191200	0.506200	0.040500
C2501	C250	0.216100	0.427100	0.102490
C2511	C251	0.220900	0.457600	0.079200
H1391	H139	0.249100	0.468700	0.074400
C2521	C252	0.185400	0.471100	0.063750
C2531	C253	0.144700	0.454300	0.069800
H1401	H140	0.119900	0.463900	0.058800
C2541	C254	0.140100	0.423300	0.092100
C2551	C255	0.177100	0.409200	0.108600
H1411	H141	0.174300	0.387600	0.123700
C2561	C256	0.884300	0.300800	0.114400
C2571	C257	0.024000	0.229000	0.212800
C2581	C258	0.087600	0.369600	0.113700
C2591	C259	0.957100	0.287100	0.137240
C2601	C260	0.975700	0.263900	0.161320
H1421	H142	0.959300	0.243400	0.172600
C2611	C261	0.020300	0.272900	0.167720
C2621	C262	0.045000	0.302300	0.151850
H1431	H143	0.074800	0.307600	0.156700
C2631	C263	0.024300	0.324500	0.128000
C2641	C264	0.979500	0.318100	0.119400
H1441	H144	0.966200	0.333300	0.103300
Zn171	Zn17	0.904630	0.151700	0.371840
Zn181	Zn18	0.866510	0.210750	0.326020
O1211	O121	0.888840	0.684070	0.468260
O1221	O122	0.899620	0.754690	0.468380
O1231	O123	0.836350	0.845150	0.389590
O1241	O124	0.798630	0.813560	0.352690
O1251	O125	0.704570	0.572160	0.190150
O1261	O126	0.655510	0.546240	0.158420
O1271	O127	0.625620	0.391010	0.155380
O1281	O128	0.647490	0.348150	0.192690
O1291	O129	0.890290	0.253250	0.356950
O1301	O130	0.925700	0.208490	0.388040
O1311	O131	0.012510	0.271510	0.468970
O1321	O132	0.023790	0.342750	0.469280
O1331	O133	0.832000	0.604100	0.400200
O1341	O134	0.725600	0.514900	0.282490
O1351	O135	0.849600	0.387600	0.370600
N491	N49	0.786100	0.657000	0.382070
H1451	H145	0.763000	0.661600	0.370900
N501	N50	0.776100	0.588000	0.367700
H1461	H146	0.752600	0.598600	0.358900
N511	N51	0.718300	0.446300	0.265910
H1471	H147	0.723900	0.418900	0.270400
N521	N52	0.751900	0.457900	0.309030
H1481	H148	0.754100	0.429200	0.308800
N531	N53	0.855700	0.455900	0.390900
H1491	H149	0.866800	0.471000	0.405800
N541	N54	0.900100	0.401300	0.407700
H1501	H150	0.905800	0.420400	0.421900
C2651	C265	0.883300	0.721190	0.458420
C2661	C266	0.820300	0.812500	0.376330
C2671	C267	0.853500	0.726400	0.431780
C2681	C268	0.848600	0.766800	0.418390
H1511	H151	0.862700	0.791700	0.426600
C2691	C269	0.822700	0.770800	0.392450
C2701	C270	0.803700	0.735200	0.380520
H1521	H152	0.788300	0.737400	0.362200
C2711	C271	0.806900	0.692800	0.395770
C2721	C272	0.832200	0.690200	0.421280
H1531	H153	0.834800	0.663200	0.431600
C2731	C273	0.680500	0.542800	0.179930
C2741	C274	0.644100	0.384300	0.179080
C2751	C275	0.679900	0.499700	0.195250
C2761	C276	0.660500	0.463900	0.181630
H1541	H154	0.646200	0.466900	0.162900
C2771	C277	0.662300	0.422700	0.196160
C2781	C278	0.679900	0.417800	0.223010
H1551	H155	0.679300	0.390100	0.232500
C2791	C279	0.699200	0.453300	0.237300
C2801	C280	0.699400	0.494800	0.223200
H1561	H156	0.712700	0.519100	0.232700
C2811	C281	0.914900	0.245600	0.378820
C2821	C282	0.006200	0.308800	0.459500
C2831	C283	0.927100	0.283900	0.397510
C2841	C284	0.957600	0.279100	0.420800
H1571	H157	0.968700	0.250900	0.425600
C2851	C285	0.971100	0.314600	0.436250
C2861	C286	0.954300	0.355300	0.430200
H1581	H158	0.963900	0.380100	0.441200
C2871	C287	0.923300	0.359900	0.407900
C2881	C288	0.909200	0.322900	0.391400
H1591	H159	0.887600	0.325700	0.376300
C2891	C289	0.800800	0.615700	0.385600
C2901	C290	0.729000	0.476000	0.287200
C2911	C291	0.869600	0.412400	0.386300
C2921	C292	0.787100	0.542900	0.362760
C2931	C293	0.763900	0.524300	0.338680
H1601	H160	0.743400	0.540700	0.327400
C2941	C294	0.772900	0.479700	0.332280
C2951	C295	0.802300	0.455000	0.348150
H1611	H161	0.807600	0.425200	0.343300
C2961	C296	0.824500	0.475700	0.372000
C2971	C297	0.818100	0.520500	0.380600
H1621	H162	0.833300	0.533800	0.396700
Zn191	Zn19	0.404630	0.651700	0.871840
Zn201	Zn20	0.366510	0.710750	0.826020
O1361	O136	0.388840	0.184070	0.968260
O1371	O137	0.399620	0.254690	0.968380
O1381	O138	0.336350	0.345150	0.889590
O1391	O139	0.298630	0.313560	0.852690
O1401	O140	0.204570	0.072160	0.690150
O1411	O141	0.155510	0.046240	0.658420
O1421	O142	0.125620	0.891010	0.655380
O1431	O143	0.147490	0.848150	0.692690
O1441	O144	0.390290	0.753250	0.856950
O1451	O145	0.425700	0.708490	0.888040
O1461	O146	0.512510	0.771510	0.968970
O1471	O147	0.523790	0.842750	0.969280
O1481	O148	0.332000	0.104100	0.900200
O1491	O149	0.225600	0.014900	0.782490
O1501	O150	0.349600	0.887600	0.870600
N551	N55	0.286100	0.157000	0.882070
H1631	H163	0.263000	0.161600	0.870900
N561	N56	0.276100	0.088000	0.867700
H1641	H164	0.252600	0.098600	0.858900
N571	N57	0.218300	0.946300	0.765910
H1651	H165	0.223900	0.918900	0.770400
N581	N58	0.251900	0.957900	0.809030
H1661	H166	0.254100	0.929200	0.808800
N591	N59	0.355700	0.955900	0.890900
H1671	H167	0.366800	0.971000	0.905800
N601	N60	0.400100	0.901300	0.907700
H1681	H168	0.405800	0.920400	0.921900
C2981	C298	0.383300	0.221190	0.958420
C2991	C299	0.320300	0.312500	0.876330
C3001	C300	0.353500	0.226400	0.931780
C3011	C301	0.348600	0.266800	0.918390
H1691	H169	0.362700	0.291700	0.926600
C3021	C302	0.322700	0.270800	0.892450
C3031	C303	0.303700	0.235200	0.880520
H1701	H170	0.288300	0.237400	0.862200
C3041	C304	0.306900	0.192800	0.895770
C3051	C305	0.332200	0.190200	0.921280
H1711	H171	0.334800	0.163200	0.931600
C3061	C306	0.180500	0.042800	0.679930
C3071	C307	0.144100	0.884300	0.679080
C3081	C308	0.179900	0.999700	0.695250
C3091	C309	0.160500	0.963900	0.681630
H1721	H172	0.146200	0.966900	0.662900
C3101	C310	0.162300	0.922700	0.696160
C3111	C311	0.179900	0.917800	0.723010
H1731	H173	0.179300	0.890100	0.732500
C3121	C312	0.199200	0.953300	0.737300
C3131	C313	0.199400	0.994800	0.723200
H1741	H174	0.212700	0.019100	0.732700
C3141	C314	0.414900	0.745600	0.878820
C3151	C315	0.506200	0.808800	0.959500
C3161	C316	0.427100	0.783900	0.897510
C3171	C317	0.457600	0.779100	0.920800
H1751	H175	0.468700	0.750900	0.925600
C3181	C318	0.471100	0.814600	0.936250
C3191	C319	0.454300	0.855300	0.930200
H1761	H176	0.463900	0.880100	0.941200
C3201	C320	0.423300	0.859900	0.907900
C3211	C321	0.409200	0.822900	0.891400
H1771	H177	0.387600	0.825700	0.876300
C3221	C322	0.300800	0.115700	0.885600
C3231	C323	0.229000	0.976000	0.787200
C3241	C324	0.369600	0.912400	0.886300
C3251	C325	0.287100	0.042900	0.862760
C3261	C326	0.263900	0.024300	0.838680
H1781	H178	0.243400	0.040700	0.827400
C3271	C327	0.272900	0.979700	0.832280
C3281	C328	0.302300	0.955000	0.848150
H1791	H179	0.307600	0.925200	0.843300
C3291	C329	0.324500	0.975700	0.872000
C3301	C330	0.318100	0.020500	0.880600
H1801	H180	0.333300	0.033800	0.896700
Zn211	Zn21	0.095370	0.848300	0.371840
Zn221	Zn22	0.133490	0.789250	0.326020
O1511	O151	0.111160	0.315930	0.468260
O1521	O152	0.100380	0.245310	0.468380
O1531	O153	0.163650	0.154850	0.389590
O1541	O154	0.201370	0.186440	0.352690
O1551	O155	0.295430	0.427840	0.190150
O1561	O156	0.344490	0.453760	0.158420
O1571	O157	0.374380	0.608990	0.155380
O1581	O158	0.352510	0.651850	0.192690
O1591	O159	0.109710	0.746750	0.356950
O1601	O160	0.074300	0.791510	0.388040
O1611	O161	0.987490	0.728490	0.468970
O1621	O162	0.976210	0.657250	0.469280
O1631	O163	0.168000	0.395900	0.400200
O1641	O164	0.274400	0.485100	0.282490
O1651	O165	0.150400	0.612400	0.370600
N611	N61	0.213900	0.343000	0.382070
H1811	H181	0.237000	0.338400	0.370900
N621	N62	0.223900	0.412000	0.367700
H1821	H182	0.247400	0.401400	0.358900
N631	N63	0.281700	0.553700	0.265910
H1831	H183	0.276100	0.581100	0.270400
N641	N64	0.248100	0.542100	0.309030
H1841	H184	0.245900	0.570800	0.308800
N651	N65	0.144300	0.544100	0.390900
H1851	H185	0.133200	0.529000	0.405800
N661	N66	0.099900	0.598700	0.407700
H1861	H186	0.094200	0.579600	0.421900
C3311	C331	0.116700	0.278810	0.458420
C3321	C332	0.179700	0.187500	0.376330
C3331	C333	0.146500	0.273600	0.431780
C3341	C334	0.151400	0.233200	0.418390
H1871	H187	0.137300	0.208300	0.426600
C3351	C335	0.177300	0.229200	0.392450
C3361	C336	0.196300	0.264800	0.380520
H1881	H188	0.211700	0.262600	0.362200
C3371	C337	0.193100	0.307200	0.395770
C3381	C338	0.167800	0.309800	0.421280
H1891	H189	0.165200	0.336800	0.431600
C3391	C339	0.319500	0.457200	0.179930
C3401	C340	0.355900	0.615700	0.179080
C3411	C341	0.320100	0.500300	0.195250
C3421	C342	0.339500	0.536100	0.181630
H1901	H190	0.353800	0.533100	0.162900
C3431	C343	0.337700	0.577300	0.196160
C3441	C344	0.320100	0.582200	0.223010
H1911	H191	0.320700	0.609900	0.232500
C3451	C345	0.300800	0.546700	0.237300
C3461	C346	0.300600	0.505200	0.223200
H1921	H192	0.287300	0.480900	0.232700
C3471	C347	0.085100	0.754400	0.378820
C3481	C348	0.993800	0.691200	0.459500
C3491	C349	0.072900	0.716100	0.397510
C3501	C350	0.042400	0.720900	0.420800
H1931	H193	0.031300	0.749100	0.425600
C3511	C351	0.028900	0.685400	0.436250
C3521	C352	0.045700	0.644700	0.430200
H1941	H194	0.036100	0.619900	0.441200
C3531	C353	0.076700	0.640100	0.407900
C3541	C354	0.090800	0.677100	0.391400
H1951	H195	0.112400	0.674300	0.376300
C3551	C355	0.199200	0.384300	0.385600
C3561	C356	0.271000	0.524000	0.287200
C3571	C357	0.130400	0.587600	0.386300
C3581	C358	0.212900	0.457100	0.362760
C3591	C359	0.236100	0.475700	0.338680
H1961	H196	0.256600	0.459300	0.327400
C3601	C360	0.227100	0.520300	0.332280
C3611	C361	0.197700	0.545000	0.348150
H1971	H197	0.192400	0.574800	0.343300
C3621	C362	0.175500	0.524300	0.372000
C3631	C363	0.181900	0.479500	0.380600
H1981	H198	0.166700	0.466200	0.396700
Zn231	Zn23	0.595370	0.348300	0.871840
Zn241	Zn24	0.633490	0.289250	0.826020
O1661	O166	0.611160	0.815930	0.968260
O1671	O167	0.600380	0.745310	0.968380
O1681	O168	0.663650	0.654850	0.889590
O1691	O169	0.701370	0.686440	0.852690
O1701	O170	0.795430	0.927840	0.690150
O1711	O171	0.844490	0.953760	0.658420
O1721	O172	0.874380	0.108990	0.655380
O1731	O173	0.852510	0.151850	0.692690
O1741	O174	0.609710	0.246750	0.856950
O1751	O175	0.574300	0.291510	0.888040
O1761	O176	0.487490	0.228490	0.968970
O1771	O177	0.476210	0.157250	0.969280
O1781	O178	0.668000	0.895900	0.900200
O1791	O179	0.774400	0.985100	0.782490
O1801	O180	0.650400	0.112400	0.870600
N671	N67	0.713900	0.843000	0.882070
H1991	H199	0.737000	0.838400	0.870900
N681	N68	0.723900	0.912000	0.867700
H2001	H200	0.747400	0.901400	0.858900
N691	N69	0.781700	0.053700	0.765910
H2011	H201	0.776100	0.081100	0.770400
N701	N70	0.748100	0.042100	0.809030
H2021	H202	0.745900	0.070800	0.808800
N711	N71	0.644300	0.044100	0.890900
H2031	H203	0.633200	0.029000	0.905800
N721	N72	0.599900	0.098700	0.907700
H2041	H204	0.594200	0.079600	0.921900
C3641	C364	0.616700	0.778810	0.958420
C3651	C365	0.679700	0.687500	0.876330
C3661	C366	0.646500	0.773600	0.931780
C3671	C367	0.651400	0.733200	0.918390
H2051	H205	0.637300	0.708300	0.926600
C3681	C368	0.677300	0.729200	0.892450
C3691	C369	0.696300	0.764800	0.880520
H2061	H206	0.711700	0.762600	0.862200
C3701	C370	0.693100	0.807200	0.895770
C3711	C371	0.667800	0.809800	0.921280
H2071	H207	0.665200	0.836800	0.931600
C3721	C372	0.819500	0.957200	0.679930
C3731	C373	0.855900	0.115700	0.679080
C3741	C374	0.820100	0.000300	0.695250
C3751	C375	0.839500	0.036100	0.681630
H2081	H208	0.853800	0.033100	0.662900
C3761	C376	0.837700	0.077300	0.696160
C3771	C377	0.820100	0.082200	0.723010
H2091	H209	0.820700	0.109900	0.732500
C3781	C378	0.800800	0.046700	0.737300
C3791	C379	0.800600	0.005200	0.723200
H2101	H210	0.787300	0.980900	0.732700
C3801	C380	0.585100	0.254400	0.878820
C3811	C381	0.493800	0.191200	0.959500
C3821	C382	0.572900	0.216100	0.897510
C3831	C383	0.542400	0.220900	0.920800
H2111	H211	0.531300	0.249100	0.925600
C3841	C384	0.528900	0.185400	0.936250
C3851	C385	0.545700	0.144700	0.930200
H2121	H212	0.536100	0.119900	0.941200
C3861	C386	0.576700	0.140100	0.907900
C3871	C387	0.590800	0.177100	0.891400
H2131	H213	0.612400	0.174300	0.876300
C3881	C388	0.699200	0.884300	0.885600
C3891	C389	0.771000	0.024000	0.787200
C3901	C390	0.630400	0.087600	0.886300
C3911	C391	0.712900	0.957100	0.862760
C3921	C392	0.736100	0.975700	0.838680
H2141	H214	0.756600	0.959300	0.827400
C3931	C393	0.727100	0.020300	0.832280
C3941	C394	0.697700	0.045000	0.848150
H2151	H215	0.692400	0.074800	0.843300
C3951	C395	0.675500	0.024300	0.872000
C3961	C396	0.681900	0.979500	0.880600
H2161	H216	0.666700	0.966200	0.896700
Zn251	Zn25	0.848300	0.904630	0.371840
Zn261	Zn26	0.789250	0.866510	0.326020
O1811	O181	0.315930	0.888840	0.468260
O1821	O182	0.245310	0.899620	0.468380
O1831	O183	0.154850	0.836350	0.389590
O1841	O184	0.186440	0.798630	0.352690
O1851	O185	0.427840	0.704570	0.190150
O1861	O186	0.453760	0.655510	0.158420
O1871	O187	0.608990	0.625620	0.155380
O1881	O188	0.651850	0.647490	0.192690
O1891	O189	0.746750	0.890290	0.356950
O1901	O190	0.791510	0.925700	0.388040
O1911	O191	0.728490	0.012510	0.468970
O1921	O192	0.657250	0.023790	0.469280
O1931	O193	0.395900	0.832000	0.400200
O1941	O194	0.485100	0.725600	0.282490
O1951	O195	0.612400	0.849600	0.370600
N731	N73	0.343000	0.786100	0.382070
H2171	H217	0.338400	0.763000	0.370900
N741	N74	0.412000	0.776100	0.367700
H2181	H218	0.401400	0.752600	0.358900
N751	N75	0.553700	0.718300	0.265910
H2191	H219	0.581100	0.723900	0.270400
N761	N76	0.542100	0.751900	0.309030
H2201	H220	0.570800	0.754100	0.308800
N771	N77	0.544100	0.855700	0.390900
H2211	H221	0.529000	0.866800	0.405800
N781	N78	0.598700	0.900100	0.407700
H2221	H222	0.579600	0.905800	0.421900
C3971	C397	0.278810	0.883300	0.458420
C3981	C398	0.187500	0.820300	0.376330
C3991	C399	0.273600	0.853500	0.431780
C4001	C400	0.233200	0.848600	0.418390
H2231	H223	0.208300	0.862700	0.426600
C4011	C401	0.229200	0.822700	0.392450
C4021	C402	0.264800	0.803700	0.380520
H2241	H224	0.262600	0.788300	0.362200
C4031	C403	0.307200	0.806900	0.395770
C4041	C404	0.309800	0.832200	0.421280
H2251	H225	0.336800	0.834800	0.431600
C4051	C405	0.457200	0.680500	0.179930
C4061	C406	0.615700	0.644100	0.179080
C4071	C407	0.500300	0.679900	0.195250
C4081	C408	0.536100	0.660500	0.181630
H2261	H226	0.533100	0.646200	0.162900
C4091	C409	0.577300	0.662300	0.196160
C4101	C410	0.582200	0.679900	0.223010
H2271	H227	0.609900	0.679300	0.232500
C4111	C411	0.546700	0.699200	0.237300
C4121	C412	0.505200	0.699400	0.223200
H2281	H228	0.480900	0.712700	0.232700
C4131	C413	0.754400	0.914900	0.378820
C4141	C414	0.691200	0.006200	0.459500
C4151	C415	0.716100	0.927100	0.397510
C4161	C416	0.720900	0.957600	0.420800
H2291	H229	0.749100	0.968700	0.425600
C4171	C417	0.685400	0.971100	0.436250
C4181	C418	0.644700	0.954300	0.430200
H2301	H230	0.619900	0.963900	0.441200
C4191	C419	0.640100	0.923300	0.407900
C4201	C420	0.677100	0.909200	0.391400
H2311	H231	0.674300	0.887600	0.376300
C4211	C421	0.384300	0.800800	0.385600
C4221	C422	0.524000	0.729000	0.287200
C4231	C423	0.587600	0.869600	0.386300
C4241	C424	0.457100	0.787100	0.362760
C4251	C425	0.475700	0.763900	0.338680
H2321	H232	0.459300	0.743400	0.327400
C4261	C426	0.520300	0.772900	0.332280
C4271	C427	0.545000	0.802300	0.348150
H2331	H233	0.574800	0.807600	0.343300
C4281	C428	0.524300	0.824500	0.372000
C4291	C429	0.479500	0.818100	0.380600
H2341	H234	0.466200	0.833300	0.396700
Zn271	Zn27	0.348300	0.404630	0.871840
Zn281	Zn28	0.289250	0.366510	0.826020
O1961	O196	0.815930	0.388840	0.968260
O1971	O197	0.745310	0.399620	0.968380
O1981	O198	0.654850	0.336350	0.889590
O1991	O199	0.686440	0.298630	0.852690
O2001	O200	0.927840	0.204570	0.690150
O2011	O201	0.953760	0.155510	0.658420
O2021	O202	0.108990	0.125620	0.655380
O2031	O203	0.151850	0.147490	0.692690
O2041	O204	0.246750	0.390290	0.856950
O2051	O205	0.291510	0.425700	0.888040
O2061	O206	0.228490	0.512510	0.968970
O2071	O207	0.157250	0.523790	0.969280
O2081	O208	0.895900	0.332000	0.900200
O2091	O209	0.985100	0.225600	0.782490
O2101	O210	0.112400	0.349600	0.870600
N791	N79	0.843000	0.286100	0.882070
H2351	H235	0.838400	0.263000	0.870900
N801	N80	0.912000	0.276100	0.867700
H2361	H236	0.901400	0.252600	0.858900
N811	N81	0.053700	0.218300	0.765910
H2371	H237	0.081100	0.223900	0.770400
N821	N82	0.042100	0.251900	0.809030
H2381	H238	0.070800	0.254100	0.808800
N831	N83	0.044100	0.355700	0.890900
H2391	H239	0.029000	0.366800	0.905800
N841	N84	0.098700	0.400100	0.907700
H2401	H240	0.079600	0.405800	0.921900
C4301	C430	0.778810	0.383300	0.958420
C4311	C431	0.687500	0.320300	0.876330
C4321	C432	0.773600	0.353500	0.931780
C4331	C433	0.733200	0.348600	0.918390
H2411	H241	0.708300	0.362700	0.926600
C4341	C434	0.729200	0.322700	0.892450
C4351	C435	0.764800	0.303700	0.880520
H2421	H242	0.762600	0.288300	0.862200
C4361	C436	0.807200	0.306900	0.895770
C4371	C437	0.809800	0.332200	0.921280
H2431	H243	0.836800	0.334800	0.931600
C4381	C438	0.957200	0.180500	0.679930
C4391	C439	0.115700	0.144100	0.679080
C4401	C440	0.000300	0.179900	0.695250
C4411	C441	0.036100	0.160500	0.681630
H2441	H244	0.033100	0.146200	0.662900
C4421	C442	0.077300	0.162300	0.696160
C4431	C443	0.082200	0.179900	0.723010
H2451	H245	0.109900	0.179300	0.732500
C4441	C444	0.046700	0.199200	0.737300
C4451	C445	0.005200	0.199400	0.723200
H2461	H246	0.980900	0.212700	0.732700
C4461	C446	0.254400	0.414900	0.878820
C4471	C447	0.191200	0.506200	0.959500
C4481	C448	0.216100	0.427100	0.897510
C4491	C449	0.220900	0.457600	0.920800
H2471	H247	0.249100	0.468700	0.925600
C4501	C450	0.185400	0.471100	0.936250
C4511	C451	0.144700	0.454300	0.930200
H2481	H248	0.119900	0.463900	0.941200
C4521	C452	0.140100	0.423300	0.907900
C4531	C453	0.177100	0.409200	0.891400
H2491	H249	0.174300	0.387600	0.876300
C4541	C454	0.884300	0.300800	0.885600
C4551	C455	0.024000	0.229000	0.787200
C4561	C456	0.087600	0.369600	0.886300
C4571	C457	0.957100	0.287100	0.862760
C4581	C458	0.975700	0.263900	0.838680
H2501	H250	0.959300	0.243400	0.827400
C4591	C459	0.020300	0.272900	0.832280
C4601	C460	0.045000	0.302300	0.848150
H2511	H251	0.074800	0.307600	0.843300
C4611	C461	0.024300	0.324500	0.872000
C4621	C462	0.979500	0.318100	0.880600
H2521	H252	0.966200	0.333300	0.896700
Zn291	Zn29	0.151700	0.095370	0.371840
Zn301	Zn30	0.210750	0.133490	0.326020
O2111	O211	0.684070	0.111160	0.468260
O2121	O212	0.754690	0.100380	0.468380
O2131	O213	0.845150	0.163650	0.389590
O2141	O214	0.813560	0.201370	0.352690
O2151	O215	0.572160	0.295430	0.190150
O2161	O216	0.546240	0.344490	0.158420
O2171	O217	0.391010	0.374380	0.155380
O2181	O218	0.348150	0.352510	0.192690
O2191	O219	0.253250	0.109710	0.356950
O2201	O220	0.208490	0.074300	0.388040
O2211	O221	0.271510	0.987490	0.468970
O2221	O222	0.342750	0.976210	0.469280
O2231	O223	0.604100	0.168000	0.400200
O2241	O224	0.514900	0.274400	0.282490
O2251	O225	0.387600	0.150400	0.370600
N851	N85	0.657000	0.213900	0.382070
H2531	H253	0.661600	0.237000	0.370900
N861	N86	0.588000	0.223900	0.367700
H2541	H254	0.598600	0.247400	0.358900
N871	N87	0.446300	0.281700	0.265910
H2551	H255	0.418900	0.276100	0.270400
N881	N88	0.457900	0.248100	0.309030
H2561	H256	0.429200	0.245900	0.308800
N891	N89	0.455900	0.144300	0.390900
H2571	H257	0.471000	0.133200	0.405800
N901	N90	0.401300	0.099900	0.407700
H2581	H258	0.420400	0.094200	0.421900
C4631	C463	0.721190	0.116700	0.458420
C4641	C464	0.812500	0.179700	0.376330
C4651	C465	0.726400	0.146500	0.431780
C4661	C466	0.766800	0.151400	0.418390
H2591	H259	0.791700	0.137300	0.426600
C4671	C467	0.770800	0.177300	0.392450
C4681	C468	0.735200	0.196300	0.380520
H2601	H260	0.737400	0.211700	0.362200
C4691	C469	0.692800	0.193100	0.395770
C4701	C470	0.690200	0.167800	0.421280
H2611	H261	0.663200	0.165200	0.431600
C4711	C471	0.542800	0.319500	0.179930
C4721	C472	0.384300	0.355900	0.179080
C4731	C473	0.499700	0.320100	0.195250
C4741	C474	0.463900	0.339500	0.181630
H2621	H262	0.466900	0.353800	0.162900
C4751	C475	0.422700	0.337700	0.196160
C4761	C476	0.417800	0.320100	0.223010
H2631	H263	0.390100	0.320700	0.232500
C4771	C477	0.453300	0.300800	0.237300
C4781	C478	0.494800	0.300600	0.223200
H2641	H264	0.519100	0.287300	0.232700
C4791	C479	0.245600	0.085100	0.378820
C4801	C480	0.308800	0.993800	0.459500
C4811	C481	0.283900	0.072900	0.397510
C4821	C482	0.279100	0.042400	0.420800
H2651	H265	0.250900	0.031300	0.425600
C4831	C483	0.314600	0.028900	0.436250
C4841	C484	0.355300	0.045700	0.430200
H2661	H266	0.380100	0.036100	0.441200
C4851	C485	0.359900	0.076700	0.407900
C4861	C486	0.322900	0.090800	0.391400
H2671	H267	0.325700	0.112400	0.376300
C4871	C487	0.615700	0.199200	0.385600
C4881	C488	0.476000	0.271000	0.287200
C4891	C489	0.412400	0.130400	0.386300
C4901	C490	0.542900	0.212900	0.362760
C4911	C491	0.524300	0.236100	0.338680
H2681	H268	0.540700	0.256600	0.327400
C4921	C492	0.479700	0.227100	0.332280
C4931	C493	0.455000	0.197700	0.348150
H2691	H269	0.425200	0.192400	0.343300
C4941	C494	0.475700	0.175500	0.372000
C4951	C495	0.520500	0.181900	0.380600
H2701	H270	0.533800	0.166700	0.396700
Zn311	Zn31	0.651700	0.595370	0.871840
Zn321	Zn32	0.710750	0.633490	0.826020
O2261	O226	0.184070	0.611160	0.968260
O2271	O227	0.254690	0.600380	0.968380
O2281	O228	0.345150	0.663650	0.889590
O2291	O229	0.313560	0.701370	0.852690
O2301	O230	0.072160	0.795430	0.690150
O2311	O231	0.046240	0.844490	0.658420
O2321	O232	0.891010	0.874380	0.655380
O2331	O233	0.848150	0.852510	0.692690
O2341	O234	0.753250	0.609710	0.856950
O2351	O235	0.708490	0.574300	0.888040
O2361	O236	0.771510	0.487490	0.968970
O2371	O237	0.842750	0.476210	0.969280
O2381	O238	0.104100	0.668000	0.900200
O2391	O239	0.014900	0.774400	0.782490
O2401	O240	0.887600	0.650400	0.870600
N911	N91	0.157000	0.713900	0.882070
H2711	H271	0.161600	0.737000	0.870900
N921	N92	0.088000	0.723900	0.867700
H2721	H272	0.098600	0.747400	0.858900
N931	N93	0.946300	0.781700	0.765910
H2731	H273	0.918900	0.776100	0.770400
N941	N94	0.957900	0.748100	0.809030
H2741	H274	0.929200	0.745900	0.808800
N951	N95	0.955900	0.644300	0.890900
H2751	H275	0.971000	0.633200	0.905800
N961	N96	0.901300	0.599900	0.907700
H2761	H276	0.920400	0.594200	0.921900
C4961	C496	0.221190	0.616700	0.958420
C4971	C497	0.312500	0.679700	0.876330
C4981	C498	0.226400	0.646500	0.931780
C4991	C499	0.266800	0.651400	0.918390
H2771	H277	0.291700	0.637300	0.926600
C5001	C500	0.270800	0.677300	0.892450
C5011	C501	0.235200	0.696300	0.880520
H2781	H278	0.237400	0.711700	0.862200
C5021	C502	0.192800	0.693100	0.895770
C5031	C503	0.190200	0.667800	0.921280
H2791	H279	0.163200	0.665200	0.931600
C5041	C504	0.042800	0.819500	0.679930
C5051	C505	0.884300	0.855900	0.679080
C5061	C506	0.999700	0.820100	0.695250
C5071	C507	0.963900	0.839500	0.681630
H2801	H280	0.966900	0.853800	0.662900
C5081	C508	0.922700	0.837700	0.696160
C5091	C509	0.917800	0.820100	0.723010
H2811	H281	0.890100	0.820700	0.732500
C5101	C510	0.953300	0.800800	0.737300
C5111	C511	0.994800	0.800600	0.723200
H2821	H282	0.019100	0.787300	0.732700
C5121	C512	0.745600	0.585100	0.878820
C5131	C513	0.808800	0.493800	0.959500
C5141	C514	0.783900	0.572900	0.897510
C5151	C515	0.779100	0.542400	0.920800
H2831	H283	0.750900	0.531300	0.925600
C5161	C516	0.814600	0.528900	0.936250
C5171	C517	0.855300	0.545700	0.930200
H2841	H284	0.880100	0.536100	0.941200
C5181	C518	0.859900	0.576700	0.907900
C5191	C519	0.822900	0.590800	0.891400
H2851	H285	0.825700	0.612400	0.876300
C5201	C520	0.115700	0.699200	0.885600
C5211	C521	0.976000	0.771000	0.787200
C5221	C522	0.912400	0.630400	0.886300
C5231	C523	0.042900	0.712900	0.862760
C5241	C524	0.024300	0.736100	0.838680
H2861	H286	0.040700	0.756600	0.827400
C5251	C525	0.979700	0.727100	0.832280
C5261	C526	0.955000	0.697700	0.848150
H2871	H287	0.925200	0.692400	0.843300
C5271	C527	0.975700	0.675500	0.872000
C5281	C528	0.020500	0.681900	0.880600
H2881	H288	0.033800	0.666700	0.896700
Zn331	Zn33	0.071620	0.341820	0.500000
Zn341	Zn34	0.053260	0.246330	0.500000
Zn351	Zn35	0.571620	0.841820	0.000000
Zn361	Zn36	0.553260	0.746330	0.000000
Zn371	Zn37	0.928380	0.658180	0.500000
Zn381	Zn38	0.946740	0.753670	0.500000
Zn391	Zn39	0.428380	0.158180	0.000000
Zn401	Zn40	0.446740	0.253670	0.000000
Zn411	Zn41	0.658180	0.071620	0.500000
Zn421	Zn42	0.753670	0.053260	0.500000
Zn431	Zn43	0.158180	0.571620	0.000000
Zn441	Zn44	0.253670	0.553260	0.000000
Zn451	Zn45	0.341820	0.928380	0.500000
Zn461	Zn46	0.246330	0.946740	0.500000
Zn471	Zn47	0.841820	0.428380	0.000000
Zn481	Zn48	0.746330	0.446740	0.000000
