data_ALEJAE_clean_PM
_symmetry_space_group_name_H-M	'P1'
_cell_length_a	24.418600
_cell_length_b	24.418600
_cell_length_c	55.475700
_cell_angle_alpha	90.000000
_cell_angle_beta	90.000000
_cell_angle_gamma	120.000000
_symmetry_Int_Tables_number 1

loop_
_symmetry_equiv_pos_as_xyz
'x,y,z'

loop_
_atom_site_label
_atom_site_type_symbol
_atom_site_fract_x
_atom_site_fract_y
_atom_site_fract_z
In11	In1	0.778490	0.729000	0.474780
O11	O1	0.763500	0.634500	0.474600
O21	O2	0.668400	0.568600	0.491320
O31	O3	0.755200	0.852800	0.499590
O41	O4	0.796900	0.822200	0.470210
O51	O5	0.977100	0.366200	0.205100
O61	O6	0.008600	0.299400	0.220460
O71	O7	0.789000	0.125800	0.443330
O81	O8	0.807100	0.410400	0.419000
O91	O9	0.891600	0.262000	0.333870
N11	N1	0.738700	0.371700	0.450670
H11	H1	0.716100	0.338000	0.458900
N21	N2	0.764800	0.306300	0.430470
H21	H2	0.743700	0.280900	0.442000
N31	N3	0.825200	0.068500	0.422920
H31	H3	0.838600	0.065900	0.408900
N41	N4	0.834700	0.157700	0.405240
H41	H4	0.854300	0.150300	0.394000
N51	N5	0.852300	0.319200	0.352140
H51	H5	0.847400	0.351400	0.350300
N61	N6	0.890900	0.343900	0.314080
H61	H6	0.881500	0.373400	0.315600
C11	C1	0.719200	0.581500	0.480910
C21	C2	0.727400	0.527100	0.473850
C31	C3	0.679400	0.467500	0.479220
H71	H7	0.645000	0.462400	0.488200
C41	C4	0.681500	0.413500	0.471180
H81	H8	0.649200	0.372600	0.474500
C51	C5	0.735900	0.425600	0.457780
C61	C6	0.784000	0.485400	0.452190
H91	H9	0.819300	0.491300	0.443700
C71	C7	0.778400	0.538600	0.459870
H101	H10	0.808400	0.579600	0.455500
C81	C8	0.773200	0.366400	0.432160
C91	C9	0.786000	0.281600	0.412740
C101	C10	0.795400	0.231800	0.419460
H111	H11	0.783100	0.213400	0.434600
C111	C11	0.823900	0.209900	0.402900
C121	C12	0.842800	0.236600	0.380200
H121	H12	0.861900	0.222300	0.369400
C131	C13	0.831600	0.287300	0.374140
C141	C14	0.804200	0.309700	0.390200
H131	H13	0.798100	0.343100	0.386000
C151	C15	0.813700	0.118200	0.425710
C161	C16	0.818600	0.022300	0.438980
C171	C17	0.788200	0.011600	0.460970
H141	H14	0.774500	0.038200	0.466900
C181	C18	0.779300	0.958100	0.473820
H151	H15	0.758900	0.949400	0.488700
C191	C19	0.798700	0.919100	0.465710
C201	C20	0.829300	0.929700	0.442730
H161	H16	0.840900	0.901400	0.436800
C211	C21	0.841400	0.983100	0.429360
H171	H17	0.863200	0.992700	0.414800
C221	C22	0.786400	0.862200	0.479780
C231	C23	0.879100	0.305400	0.333340
C241	C24	0.916900	0.340400	0.291880
C251	C25	0.944500	0.304900	0.287450
H181	H18	0.948400	0.281400	0.299900
C261	C26	0.966800	0.303200	0.264810
H191	H19	0.985700	0.278900	0.262100
C271	C27	0.961300	0.338000	0.245840
C281	C28	0.935200	0.374800	0.250100
H201	H20	0.933900	0.399800	0.237700
C291	C29	0.910200	0.376200	0.272900
H211	H21	0.890100	0.399500	0.275500
C301	C30	0.984900	0.335600	0.221180
In21	In2	0.271000	0.049490	0.808110
O101	O10	0.365500	0.129000	0.807930
O111	O11	0.431400	0.099800	0.824650
O121	O12	0.147200	0.902400	0.832920
O131	O13	0.177800	0.974700	0.803540
O141	O14	0.633800	0.610900	0.538430
O151	O15	0.700600	0.709200	0.553790
O161	O16	0.874200	0.663200	0.776660
O171	O17	0.589600	0.396700	0.752330
O181	O18	0.738000	0.629600	0.667200
N71	N7	0.628300	0.367000	0.784000
H221	H22	0.662000	0.378100	0.792230
N81	N8	0.693700	0.458500	0.763800
H231	H23	0.719100	0.462800	0.775330
N91	N9	0.931500	0.756700	0.756250
H241	H24	0.934100	0.772700	0.742230
N101	N10	0.842300	0.677000	0.738570
H251	H25	0.849700	0.704000	0.727330
N111	N11	0.680800	0.533100	0.685470
H261	H26	0.648600	0.496000	0.683630
N121	N12	0.656100	0.547000	0.647410
H271	H27	0.626600	0.508100	0.648930
C311	C31	0.418500	0.137700	0.814240
C321	C32	0.472900	0.200300	0.807180
C331	C33	0.532500	0.211900	0.812550
H281	H28	0.537600	0.182600	0.821530
C341	C34	0.586500	0.268000	0.804510
H291	H29	0.627400	0.276600	0.807830
C351	C35	0.574400	0.310300	0.791110
C361	C36	0.514600	0.298600	0.785520
H301	H30	0.508700	0.328000	0.777030
C371	C37	0.461400	0.239800	0.793200
H311	H31	0.420400	0.228800	0.788830
C381	C38	0.633600	0.406800	0.765490
C391	C39	0.718400	0.504400	0.746070
C401	C40	0.768200	0.563600	0.752790
H321	H32	0.786600	0.569700	0.767930
C411	C41	0.790100	0.614000	0.736230
C421	C42	0.763400	0.606200	0.713530
H331	H33	0.777700	0.639600	0.702730
C431	C43	0.712700	0.544300	0.707470
C441	C44	0.690300	0.494500	0.723530
H341	H34	0.656900	0.455000	0.719330
C451	C45	0.881800	0.695500	0.759040
C461	C46	0.977700	0.796300	0.772310
C471	C47	0.988400	0.776600	0.794300
H351	H35	0.961800	0.736300	0.800230
C481	C48	0.041900	0.821200	0.807150
H361	H36	0.050600	0.809500	0.822030
C491	C49	0.080900	0.879600	0.799040
C501	C50	0.070300	0.899600	0.776060
H371	H37	0.098600	0.939500	0.770130
C511	C51	0.016900	0.858300	0.762690
H381	H38	0.007300	0.870500	0.748130
C521	C52	0.137800	0.924200	0.813110
C531	C53	0.694600	0.573700	0.666670
C541	C54	0.659600	0.576500	0.625210
C551	C55	0.695100	0.639600	0.620780
H391	H39	0.718600	0.667000	0.633230
C561	C56	0.696800	0.663600	0.598140
H401	H40	0.721100	0.706800	0.595430
C571	C57	0.662000	0.623300	0.579170
C581	C58	0.625200	0.560400	0.583430
H411	H41	0.600200	0.534100	0.571030
C591	C59	0.623800	0.534000	0.606230
H421	H42	0.600500	0.490600	0.608830
C601	C60	0.664400	0.649300	0.554510
In31	In3	0.950510	0.221510	0.141450
O191	O19	0.871000	0.236500	0.141270
O201	O20	0.900200	0.331600	0.157990
O211	O21	0.097600	0.244800	0.166260
O221	O22	0.025300	0.203100	0.136880
O231	O23	0.389100	0.022900	0.871770
O241	O24	0.290800	0.991400	0.887130
O251	O25	0.336800	0.211000	0.110000
O261	O26	0.603300	0.192900	0.085670
O271	O27	0.370400	0.108400	0.000540
N131	N13	0.633000	0.261300	0.117340
H431	H43	0.621900	0.283900	0.125570
N141	N14	0.541500	0.235200	0.097140
H441	H44	0.537200	0.256300	0.108670
N151	N15	0.243300	0.174800	0.089590
H451	H45	0.227300	0.161400	0.075570
N161	N16	0.323000	0.165300	0.071910
H461	H46	0.296000	0.145700	0.060670
N171	N17	0.466900	0.147700	0.018810
H471	H47	0.504000	0.152600	0.016970
N181	N18	0.453000	0.109100	0.980750
H481	H48	0.491900	0.118500	0.982270
C611	C61	0.862300	0.280800	0.147580
C621	C62	0.799700	0.272600	0.140520
C631	C63	0.788100	0.320600	0.145890
H491	H49	0.817400	0.355000	0.154870
C641	C64	0.732000	0.318500	0.137850
H501	H50	0.723400	0.350800	0.141170
C651	C65	0.689700	0.264100	0.124450
C661	C66	0.701400	0.216000	0.118860
H511	H51	0.672000	0.180700	0.110370
C671	C67	0.760200	0.221600	0.126540
H521	H52	0.771200	0.191600	0.122170
C681	C68	0.593200	0.226800	0.098830
C691	C69	0.495600	0.214000	0.079410
C701	C70	0.436400	0.204600	0.086130
H531	H53	0.430300	0.216900	0.101270
C711	C71	0.386000	0.176100	0.069570
C721	C72	0.393800	0.157200	0.046870
H541	H54	0.360400	0.138100	0.036070
C731	C73	0.455700	0.168400	0.040810
C741	C74	0.505500	0.195800	0.056870
H551	H55	0.545000	0.201900	0.052670
C751	C75	0.304500	0.186300	0.092380
C761	C76	0.203700	0.181400	0.105650
C771	C77	0.223400	0.211800	0.127640
H561	H56	0.263700	0.225500	0.133570
C781	C78	0.178800	0.220700	0.140490
H571	H57	0.190500	0.241100	0.155370
C791	C79	0.120400	0.201300	0.132380
C801	C80	0.100400	0.170700	0.109400
H581	H58	0.060500	0.159100	0.103470
C811	C81	0.141700	0.158600	0.096030
H591	H59	0.129500	0.136800	0.081470
C821	C82	0.075800	0.213600	0.146450
C831	C83	0.426300	0.120900	0.000010
C841	C84	0.423500	0.083100	0.958550
C851	C85	0.360400	0.055500	0.954120
H601	H60	0.333000	0.051600	0.966570
C861	C86	0.336400	0.033200	0.931480
H611	H61	0.293200	0.014300	0.928770
C871	C87	0.376700	0.038700	0.912510
C881	C88	0.439600	0.064800	0.916770
H621	H62	0.465900	0.066100	0.904370
C891	C89	0.466000	0.089800	0.939570
H631	H63	0.509400	0.109900	0.942170
C901	C90	0.350700	0.015100	0.887850
In41	In4	0.729000	0.778490	0.525220
O281	O28	0.634500	0.763500	0.525400
O291	O29	0.568600	0.668400	0.508680
O301	O30	0.852800	0.755200	0.500410
O311	O31	0.822200	0.796900	0.529790
O321	O32	0.366200	0.977100	0.794900
O331	O33	0.299400	0.008600	0.779540
O341	O34	0.125800	0.789000	0.556670
O351	O35	0.410400	0.807100	0.581000
O361	O36	0.262000	0.891600	0.666130
N191	N19	0.371700	0.738700	0.549330
H641	H64	0.338000	0.716100	0.541100
N201	N20	0.306300	0.764800	0.569530
H651	H65	0.280900	0.743700	0.558000
N211	N21	0.068500	0.825200	0.577080
H661	H66	0.065900	0.838600	0.591100
N221	N22	0.157700	0.834700	0.594760
H671	H67	0.150300	0.854300	0.606000
N231	N23	0.319200	0.852300	0.647860
H681	H68	0.351400	0.847400	0.649700
N241	N24	0.343900	0.890900	0.685920
H691	H69	0.373400	0.881500	0.684400
C911	C91	0.581500	0.719200	0.519090
C921	C92	0.527100	0.727400	0.526150
C931	C93	0.467500	0.679400	0.520780
H701	H70	0.462400	0.645000	0.511800
C941	C94	0.413500	0.681500	0.528820
H711	H71	0.372600	0.649200	0.525500
C951	C95	0.425600	0.735900	0.542220
C961	C96	0.485400	0.784000	0.547810
H721	H72	0.491300	0.819300	0.556300
C971	C97	0.538600	0.778400	0.540130
H731	H73	0.579600	0.808400	0.544500
C981	C98	0.366400	0.773200	0.567840
C991	C99	0.281600	0.786000	0.587260
C1001	C100	0.231800	0.795400	0.580540
H741	H74	0.213400	0.783100	0.565400
C1011	C101	0.209900	0.823900	0.597100
C1021	C102	0.236600	0.842800	0.619800
H751	H75	0.222300	0.861900	0.630600
C1031	C103	0.287300	0.831600	0.625860
C1041	C104	0.309700	0.804200	0.609800
H761	H76	0.343100	0.798100	0.614000
C1051	C105	0.118200	0.813700	0.574290
C1061	C106	0.022300	0.818600	0.561020
C1071	C107	0.011600	0.788200	0.539030
H771	H77	0.038200	0.774500	0.533100
C1081	C108	0.958100	0.779300	0.526180
H781	H78	0.949400	0.758900	0.511300
C1091	C109	0.919100	0.798700	0.534290
C1101	C110	0.929700	0.829300	0.557270
H791	H79	0.901400	0.840900	0.563200
C1111	C111	0.983100	0.841400	0.570640
H801	H80	0.992700	0.863200	0.585200
C1121	C112	0.862200	0.786400	0.520220
C1131	C113	0.305400	0.879100	0.666660
C1141	C114	0.340400	0.916900	0.708120
C1151	C115	0.304900	0.944500	0.712550
H811	H81	0.281400	0.948400	0.700100
C1161	C116	0.303200	0.966800	0.735190
H821	H82	0.278900	0.985700	0.737900
C1171	C117	0.338000	0.961300	0.754160
C1181	C118	0.374800	0.935200	0.749900
H831	H83	0.399800	0.933900	0.762300
C1191	C119	0.376200	0.910200	0.727100
H841	H84	0.399500	0.890100	0.724500
C1201	C120	0.335600	0.984900	0.778820
In51	In5	0.049490	0.271000	0.191890
O371	O37	0.129000	0.365500	0.192070
O381	O38	0.099800	0.431400	0.175350
O391	O39	0.902400	0.147200	0.167080
O401	O40	0.974700	0.177800	0.196460
O411	O41	0.610900	0.633800	0.461570
O421	O42	0.709200	0.700600	0.446210
O431	O43	0.663200	0.874200	0.223340
O441	O44	0.396700	0.589600	0.247670
O451	O45	0.629600	0.738000	0.332800
N251	N25	0.367000	0.628300	0.216000
H851	H85	0.378100	0.662000	0.207770
N261	N26	0.458500	0.693700	0.236200
H861	H86	0.462800	0.719100	0.224670
N271	N27	0.756700	0.931500	0.243750
H871	H87	0.772700	0.934100	0.257770
N281	N28	0.677000	0.842300	0.261430
H881	H88	0.704000	0.849700	0.272670
N291	N29	0.533100	0.680800	0.314530
H891	H89	0.496000	0.648600	0.316370
N301	N30	0.547000	0.656100	0.352590
H901	H90	0.508100	0.626600	0.351070
C1211	C121	0.137700	0.418500	0.185760
C1221	C122	0.200300	0.472900	0.192820
C1231	C123	0.211900	0.532500	0.187450
H911	H91	0.182600	0.537600	0.178470
C1241	C124	0.268000	0.586500	0.195490
H921	H92	0.276600	0.627400	0.192170
C1251	C125	0.310300	0.574400	0.208890
C1261	C126	0.298600	0.514600	0.214480
H931	H93	0.328000	0.508700	0.222970
C1271	C127	0.239800	0.461400	0.206800
H941	H94	0.228800	0.420400	0.211170
C1281	C128	0.406800	0.633600	0.234510
C1291	C129	0.504400	0.718400	0.253930
C1301	C130	0.563600	0.768200	0.247210
H951	H95	0.569700	0.786600	0.232070
C1311	C131	0.614000	0.790100	0.263770
C1321	C132	0.606200	0.763400	0.286470
H961	H96	0.639600	0.777700	0.297270
C1331	C133	0.544300	0.712700	0.292530
C1341	C134	0.494500	0.690300	0.276470
H971	H97	0.455000	0.656900	0.280670
C1351	C135	0.695500	0.881800	0.240960
C1361	C136	0.796300	0.977700	0.227690
C1371	C137	0.776600	0.988400	0.205700
H981	H98	0.736300	0.961800	0.199770
C1381	C138	0.821200	0.041900	0.192850
H991	H99	0.809500	0.050600	0.177970
C1391	C139	0.879600	0.080900	0.200960
C1401	C140	0.899600	0.070300	0.223940
H1001	H100	0.939500	0.098600	0.229870
C1411	C141	0.858300	0.016900	0.237310
H1011	H101	0.870500	0.007300	0.251870
C1421	C142	0.924200	0.137800	0.186890
C1431	C143	0.573700	0.694600	0.333330
C1441	C144	0.576500	0.659600	0.374790
C1451	C145	0.639600	0.695100	0.379220
H1021	H102	0.667000	0.718600	0.366770
C1461	C146	0.663600	0.696800	0.401860
H1031	H103	0.706800	0.721100	0.404570
C1471	C147	0.623300	0.662000	0.420830
C1481	C148	0.560400	0.625200	0.416570
H1041	H104	0.534100	0.600200	0.428970
C1491	C149	0.534000	0.623800	0.393770
H1051	H105	0.490600	0.600500	0.391170
C1501	C150	0.649300	0.664400	0.445490
In61	In6	0.221510	0.950510	0.858550
O461	O46	0.236500	0.871000	0.858730
O471	O47	0.331600	0.900200	0.842010
O481	O48	0.244800	0.097600	0.833740
O491	O49	0.203100	0.025300	0.863120
O501	O50	0.022900	0.389100	0.128230
O511	O51	0.991400	0.290800	0.112870
O521	O52	0.211000	0.336800	0.890000
O531	O53	0.192900	0.603300	0.914330
O541	O54	0.108400	0.370400	0.999460
N311	N31	0.261300	0.633000	0.882660
H1061	H106	0.283900	0.621900	0.874430
N321	N32	0.235200	0.541500	0.902860
H1071	H107	0.256300	0.537200	0.891330
N331	N33	0.174800	0.243300	0.910410
H1081	H108	0.161400	0.227300	0.924430
N341	N34	0.165300	0.323000	0.928090
H1091	H109	0.145700	0.296000	0.939330
N351	N35	0.147700	0.466900	0.981190
H1101	H110	0.152600	0.504000	0.983030
N361	N36	0.109100	0.453000	0.019250
H1111	H111	0.118500	0.491900	0.017730
C1511	C151	0.280800	0.862300	0.852420
C1521	C152	0.272600	0.799700	0.859480
C1531	C153	0.320600	0.788100	0.854110
H1121	H112	0.355000	0.817400	0.845130
C1541	C154	0.318500	0.732000	0.862150
H1131	H113	0.350800	0.723400	0.858830
C1551	C155	0.264100	0.689700	0.875550
C1561	C156	0.216000	0.701400	0.881140
H1141	H114	0.180700	0.672000	0.889630
C1571	C157	0.221600	0.760200	0.873460
H1151	H115	0.191600	0.771200	0.877830
C1581	C158	0.226800	0.593200	0.901170
C1591	C159	0.214000	0.495600	0.920590
C1601	C160	0.204600	0.436400	0.913870
H1161	H116	0.216900	0.430300	0.898730
C1611	C161	0.176100	0.386000	0.930430
C1621	C162	0.157200	0.393800	0.953130
H1171	H117	0.138100	0.360400	0.963930
C1631	C163	0.168400	0.455700	0.959190
C1641	C164	0.195800	0.505500	0.943130
H1181	H118	0.201900	0.545000	0.947330
C1651	C165	0.186300	0.304500	0.907620
C1661	C166	0.181400	0.203700	0.894350
C1671	C167	0.211800	0.223400	0.872360
H1191	H119	0.225500	0.263700	0.866430
C1681	C168	0.220700	0.178800	0.859510
H1201	H120	0.241100	0.190500	0.844630
C1691	C169	0.201300	0.120400	0.867620
C1701	C170	0.170700	0.100400	0.890600
H1211	H121	0.159100	0.060500	0.896530
C1711	C171	0.158600	0.141700	0.903970
H1221	H122	0.136800	0.129500	0.918530
C1721	C172	0.213600	0.075800	0.853550
C1731	C173	0.120900	0.426300	0.999990
C1741	C174	0.083100	0.423500	0.041450
C1751	C175	0.055500	0.360400	0.045880
H1231	H123	0.051600	0.333000	0.033430
C1761	C176	0.033200	0.336400	0.068520
H1241	H124	0.014300	0.293200	0.071230
C1771	C177	0.038700	0.376700	0.087490
C1781	C178	0.064800	0.439600	0.083230
H1251	H125	0.066100	0.465900	0.095630
C1791	C179	0.089800	0.466000	0.060430
H1261	H126	0.109900	0.509400	0.057830
C1801	C180	0.015100	0.350700	0.112150
In71	In7	0.628360	0.628360	0.500000
O551	O55	0.715500	0.715500	0.500000
In81	In8	0.371640	0.000000	0.833330
O561	O56	0.284500	0.000000	0.833330
In91	In9	0.000000	0.371640	0.166670
O571	O57	0.000000	0.284500	0.166670
