data_ALEJEI_clean_PM
_symmetry_space_group_name_H-M	'P1'
_cell_length_a	30.463800
_cell_length_b	30.463800
_cell_length_c	44.277200
_cell_angle_alpha	90.000000
_cell_angle_beta	90.000000
_cell_angle_gamma	90.000000
_symmetry_Int_Tables_number 1

loop_
_symmetry_equiv_pos_as_xyz
'x,y,z'

loop_
_atom_site_label
_atom_site_type_symbol
_atom_site_fract_x
_atom_site_fract_y
_atom_site_fract_z
Cu11	Cu1	0.097640	0.844060	0.627880
Cu21	Cu2	0.131000	0.791930	0.669830
O11	O1	0.115030	0.319730	0.531310
O21	O2	0.100610	0.247710	0.530800
O31	O3	0.164740	0.154950	0.608700
O41	O4	0.204370	0.184620	0.646020
O51	O5	0.296420	0.427720	0.812280
O61	O6	0.344820	0.453760	0.846010
O71	O7	0.376120	0.609160	0.847830
O81	O8	0.352140	0.653130	0.810720
O91	O9	0.109660	0.745010	0.643190
O101	O10	0.076410	0.789570	0.610130
O111	O11	0.986140	0.728390	0.531000
O121	O12	0.971740	0.656230	0.530630
O131	O13	0.165500	0.392770	0.605700
O141	O14	0.273930	0.485170	0.720330
O151	O15	0.137200	0.608800	0.635570
N11	N1	0.218530	0.343360	0.617760
H11	H1	0.243900	0.339300	0.626900
N21	N2	0.224300	0.413530	0.632790
H21	H2	0.250800	0.405700	0.638500
N31	N3	0.276000	0.554920	0.739180
H31	H3	0.268000	0.582100	0.735400
N41	N4	0.242800	0.541800	0.694780
H41	H4	0.240800	0.570600	0.694300
N51	N5	0.135200	0.541600	0.614670
H51	H5	0.121500	0.524500	0.601700
N61	N6	0.088900	0.593700	0.597410
H61	H6	0.076600	0.572300	0.587100
C11	C1	0.119310	0.281560	0.541200
C21	C2	0.183360	0.186110	0.621510
C31	C3	0.149980	0.275020	0.566830
C41	C4	0.154700	0.233650	0.580180
H71	H7	0.140300	0.208700	0.571900
C51	C5	0.180890	0.229650	0.605910
C61	C6	0.202200	0.265540	0.617500
H81	H8	0.219900	0.262400	0.635000
C71	C7	0.198200	0.307040	0.603790
C81	C8	0.172710	0.311110	0.578080
H91	H9	0.170700	0.338600	0.568100
C91	C9	0.320260	0.457170	0.823570
C101	C10	0.357050	0.616730	0.823640
C111	C11	0.320770	0.501000	0.807970
C121	C12	0.340410	0.536170	0.821160
H101	H10	0.355800	0.532600	0.839600
C131	C13	0.338100	0.577250	0.807820
C141	C14	0.317200	0.582280	0.780540
H111	H11	0.316200	0.610300	0.771200
C151	C15	0.297700	0.547130	0.766860
C161	C16	0.298700	0.505830	0.780790
H121	H12	0.284400	0.481400	0.771700
C171	C17	0.086220	0.752570	0.620120
C181	C18	0.990920	0.689750	0.539940
C191	C19	0.070640	0.713970	0.602930
C201	C20	0.040950	0.719530	0.579370
H131	H13	0.032000	0.748300	0.573800
C211	C21	0.024580	0.683950	0.564200
C221	C22	0.039600	0.641250	0.571260
H141	H14	0.028100	0.616200	0.561200
C231	C23	0.071800	0.636900	0.593330
C241	C24	0.085600	0.672880	0.610120
H151	H15	0.105300	0.669000	0.626500
C251	C25	0.201100	0.383600	0.617800
C261	C26	0.266500	0.524400	0.717960
C271	C27	0.122400	0.583400	0.615900
C281	C28	0.211000	0.456400	0.640480
C291	C29	0.231900	0.476300	0.664120
H161	H16	0.253500	0.461000	0.675400
C301	C30	0.221200	0.518700	0.671250
C311	C31	0.192500	0.541200	0.654720
H171	H17	0.188400	0.571600	0.658600
C321	C32	0.169300	0.521800	0.632600
C331	C33	0.179900	0.479000	0.623050
H181	H18	0.166800	0.466100	0.605700
Cu31	Cu3	0.597640	0.344060	0.127880
Cu41	Cu4	0.631000	0.291930	0.169830
O161	O16	0.615030	0.819730	0.031310
O171	O17	0.600610	0.747710	0.030800
O181	O18	0.664740	0.654950	0.108700
O191	O19	0.704370	0.684620	0.146020
O201	O20	0.796420	0.927720	0.312280
O211	O21	0.844820	0.953760	0.346010
O221	O22	0.876120	0.109160	0.347830
O231	O23	0.852140	0.153130	0.310720
O241	O24	0.609660	0.245010	0.143190
O251	O25	0.576410	0.289570	0.110130
O261	O26	0.486140	0.228390	0.031000
O271	O27	0.471740	0.156230	0.030630
O281	O28	0.665500	0.892770	0.105700
O291	O29	0.773930	0.985170	0.220330
O301	O30	0.637200	0.108800	0.135570
N71	N7	0.718530	0.843360	0.117760
H191	H19	0.743900	0.839300	0.126900
N81	N8	0.724300	0.913530	0.132790
H201	H20	0.750800	0.905700	0.138500
N91	N9	0.776000	0.054920	0.239180
H211	H21	0.768000	0.082100	0.235400
N101	N10	0.742800	0.041800	0.194780
H221	H22	0.740800	0.070600	0.194300
N111	N11	0.635200	0.041600	0.114670
H231	H23	0.621500	0.024500	0.101700
N121	N12	0.588900	0.093700	0.097410
H241	H24	0.576600	0.072300	0.087100
C341	C34	0.619310	0.781560	0.041200
C351	C35	0.683360	0.686110	0.121510
C361	C36	0.649980	0.775020	0.066830
C371	C37	0.654700	0.733650	0.080180
H251	H25	0.640300	0.708700	0.071900
C381	C38	0.680890	0.729650	0.105910
C391	C39	0.702200	0.765540	0.117500
H261	H26	0.719900	0.762400	0.135000
C401	C40	0.698200	0.807040	0.103790
C411	C41	0.672710	0.811110	0.078080
H271	H27	0.670700	0.838600	0.068100
C421	C42	0.820260	0.957170	0.323570
C431	C43	0.857050	0.116730	0.323640
C441	C44	0.820770	0.001000	0.307970
C451	C45	0.840410	0.036170	0.321160
H281	H28	0.855800	0.032600	0.339600
C461	C46	0.838100	0.077250	0.307820
C471	C47	0.817200	0.082280	0.280540
H291	H29	0.816200	0.110300	0.271200
C481	C48	0.797700	0.047130	0.266860
C491	C49	0.798700	0.005830	0.280790
H301	H30	0.784400	0.981400	0.271700
C501	C50	0.586220	0.252570	0.120120
C511	C51	0.490920	0.189750	0.039940
C521	C52	0.570640	0.213970	0.102930
C531	C53	0.540950	0.219530	0.079370
H311	H31	0.532000	0.248300	0.073800
C541	C54	0.524580	0.183950	0.064200
C551	C55	0.539600	0.141250	0.071260
H321	H32	0.528100	0.116200	0.061200
C561	C56	0.571800	0.136900	0.093330
C571	C57	0.585600	0.172880	0.110120
H331	H33	0.605300	0.169000	0.126500
C581	C58	0.701100	0.883600	0.117800
C591	C59	0.766500	0.024400	0.217960
C601	C60	0.622400	0.083400	0.115900
C611	C61	0.711000	0.956400	0.140480
C621	C62	0.731900	0.976300	0.164120
H341	H34	0.753500	0.961000	0.175400
C631	C63	0.721200	0.018700	0.171250
C641	C64	0.692500	0.041200	0.154720
H351	H35	0.688400	0.071600	0.158600
C651	C65	0.669300	0.021800	0.132600
C661	C66	0.679900	0.979000	0.123050
H361	H36	0.666800	0.966100	0.105700
Cu51	Cu5	0.902360	0.155940	0.627880
Cu61	Cu6	0.869000	0.208070	0.669830
O311	O31	0.884970	0.680270	0.531310
O321	O32	0.899390	0.752290	0.530800
O331	O33	0.835260	0.845050	0.608700
O341	O34	0.795630	0.815380	0.646020
O351	O35	0.703580	0.572280	0.812280
O361	O36	0.655180	0.546240	0.846010
O371	O37	0.623880	0.390840	0.847830
O381	O38	0.647860	0.346870	0.810720
O391	O39	0.890340	0.254990	0.643190
O401	O40	0.923590	0.210430	0.610130
O411	O41	0.013860	0.271610	0.531000
O421	O42	0.028260	0.343770	0.530630
O431	O43	0.834500	0.607230	0.605700
O441	O44	0.726070	0.514830	0.720330
O451	O45	0.862800	0.391200	0.635570
N131	N13	0.781470	0.656640	0.617760
H371	H37	0.756100	0.660700	0.626900
N141	N14	0.775700	0.586470	0.632790
H381	H38	0.749200	0.594300	0.638500
N151	N15	0.724000	0.445080	0.739180
H391	H39	0.732000	0.417900	0.735400
N161	N16	0.757200	0.458200	0.694780
H401	H40	0.759200	0.429400	0.694300
N171	N17	0.864800	0.458400	0.614670
H411	H41	0.878500	0.475500	0.601700
N181	N18	0.911100	0.406300	0.597410
H421	H42	0.923400	0.427700	0.587100
C671	C67	0.880690	0.718440	0.541200
C681	C68	0.816640	0.813890	0.621510
C691	C69	0.850020	0.724980	0.566830
C701	C70	0.845300	0.766350	0.580180
H431	H43	0.859700	0.791300	0.571900
C711	C71	0.819110	0.770350	0.605910
C721	C72	0.797800	0.734460	0.617500
H441	H44	0.780100	0.737600	0.635000
C731	C73	0.801800	0.692960	0.603790
C741	C74	0.827290	0.688890	0.578080
H451	H45	0.829300	0.661400	0.568100
C751	C75	0.679740	0.542830	0.823570
C761	C76	0.642950	0.383270	0.823640
C771	C77	0.679230	0.499000	0.807970
C781	C78	0.659590	0.463830	0.821160
H461	H46	0.644200	0.467400	0.839600
C791	C79	0.661900	0.422750	0.807820
C801	C80	0.682800	0.417720	0.780540
H471	H47	0.683800	0.389700	0.771200
C811	C81	0.702300	0.452870	0.766860
C821	C82	0.701300	0.494170	0.780790
H481	H48	0.715600	0.518600	0.771700
C831	C83	0.913780	0.247430	0.620120
C841	C84	0.009080	0.310250	0.539940
C851	C85	0.929360	0.286030	0.602930
C861	C86	0.959050	0.280470	0.579370
H491	H49	0.968000	0.251700	0.573800
C871	C87	0.975420	0.316050	0.564200
C881	C88	0.960400	0.358750	0.571260
H501	H50	0.971900	0.383800	0.561200
C891	C89	0.928200	0.363100	0.593330
C901	C90	0.914400	0.327120	0.610120
H511	H51	0.894700	0.331000	0.626500
C911	C91	0.798900	0.616400	0.617800
C921	C92	0.733500	0.475600	0.717960
C931	C93	0.877600	0.416600	0.615900
C941	C94	0.789000	0.543600	0.640480
C951	C95	0.768100	0.523700	0.664120
H521	H52	0.746500	0.539000	0.675400
C961	C96	0.778800	0.481300	0.671250
C971	C97	0.807500	0.458800	0.654720
H531	H53	0.811600	0.428400	0.658600
C981	C98	0.830700	0.478200	0.632600
C991	C99	0.820100	0.521000	0.623050
H541	H54	0.833200	0.533900	0.605700
Cu71	Cu7	0.402360	0.655940	0.127880
Cu81	Cu8	0.369000	0.708070	0.169830
O461	O46	0.384970	0.180270	0.031310
O471	O47	0.399390	0.252290	0.030800
O481	O48	0.335260	0.345050	0.108700
O491	O49	0.295630	0.315380	0.146020
O501	O50	0.203580	0.072280	0.312280
O511	O51	0.155180	0.046240	0.346010
O521	O52	0.123880	0.890840	0.347830
O531	O53	0.147860	0.846870	0.310720
O541	O54	0.390340	0.754990	0.143190
O551	O55	0.423590	0.710430	0.110130
O561	O56	0.513860	0.771610	0.031000
O571	O57	0.528260	0.843770	0.030630
O581	O58	0.334500	0.107230	0.105700
O591	O59	0.226070	0.014830	0.220330
O601	O60	0.362800	0.891200	0.135570
N191	N19	0.281470	0.156640	0.117760
H551	H55	0.256100	0.160700	0.126900
N201	N20	0.275700	0.086470	0.132790
H561	H56	0.249200	0.094300	0.138500
N211	N21	0.224000	0.945080	0.239180
H571	H57	0.232000	0.917900	0.235400
N221	N22	0.257200	0.958200	0.194780
H581	H58	0.259200	0.929400	0.194300
N231	N23	0.364800	0.958400	0.114670
H591	H59	0.378500	0.975500	0.101700
N241	N24	0.411100	0.906300	0.097410
H601	H60	0.423400	0.927700	0.087100
C1001	C100	0.380690	0.218440	0.041200
C1011	C101	0.316640	0.313890	0.121510
C1021	C102	0.350020	0.224980	0.066830
C1031	C103	0.345300	0.266350	0.080180
H611	H61	0.359700	0.291300	0.071900
C1041	C104	0.319110	0.270350	0.105910
C1051	C105	0.297800	0.234460	0.117500
H621	H62	0.280100	0.237600	0.135000
C1061	C106	0.301800	0.192960	0.103790
C1071	C107	0.327290	0.188890	0.078080
H631	H63	0.329300	0.161400	0.068100
C1081	C108	0.179740	0.042830	0.323570
C1091	C109	0.142950	0.883270	0.323640
C1101	C110	0.179230	0.999000	0.307970
C1111	C111	0.159590	0.963830	0.321160
H641	H64	0.144200	0.967400	0.339600
C1121	C112	0.161900	0.922750	0.307820
C1131	C113	0.182800	0.917720	0.280540
H651	H65	0.183800	0.889700	0.271200
C1141	C114	0.202300	0.952870	0.266860
C1151	C115	0.201300	0.994170	0.280790
H661	H66	0.215600	0.018600	0.271700
C1161	C116	0.413780	0.747430	0.120120
C1171	C117	0.509080	0.810250	0.039940
C1181	C118	0.429360	0.786030	0.102930
C1191	C119	0.459050	0.780470	0.079370
H671	H67	0.468000	0.751700	0.073800
C1201	C120	0.475420	0.816050	0.064200
C1211	C121	0.460400	0.858750	0.071260
H681	H68	0.471900	0.883800	0.061200
C1221	C122	0.428200	0.863100	0.093330
C1231	C123	0.414400	0.827120	0.110120
H691	H69	0.394700	0.831000	0.126500
C1241	C124	0.298900	0.116400	0.117800
C1251	C125	0.233500	0.975600	0.217960
C1261	C126	0.377600	0.916600	0.115900
C1271	C127	0.289000	0.043600	0.140480
C1281	C128	0.268100	0.023700	0.164120
H701	H70	0.246500	0.039000	0.175400
C1291	C129	0.278800	0.981300	0.171250
C1301	C130	0.307500	0.958800	0.154720
H711	H71	0.311600	0.928400	0.158600
C1311	C131	0.330700	0.978200	0.132600
C1321	C132	0.320100	0.021000	0.123050
H721	H72	0.333200	0.033900	0.105700
Cu91	Cu9	0.155940	0.097640	0.627880
Cu101	Cu10	0.208070	0.131000	0.669830
O611	O61	0.680270	0.115030	0.531310
O621	O62	0.752290	0.100610	0.530800
O631	O63	0.845050	0.164740	0.608700
O641	O64	0.815380	0.204370	0.646020
O651	O65	0.572280	0.296420	0.812280
O661	O66	0.546240	0.344820	0.846010
O671	O67	0.390840	0.376120	0.847830
O681	O68	0.346870	0.352140	0.810720
O691	O69	0.254990	0.109660	0.643190
O701	O70	0.210430	0.076410	0.610130
O711	O71	0.271610	0.986140	0.531000
O721	O72	0.343770	0.971740	0.530630
O731	O73	0.607230	0.165500	0.605700
O741	O74	0.514830	0.273930	0.720330
O751	O75	0.391200	0.137200	0.635570
N251	N25	0.656640	0.218530	0.617760
H731	H73	0.660700	0.243900	0.626900
N261	N26	0.586470	0.224300	0.632790
H741	H74	0.594300	0.250800	0.638500
N271	N27	0.445080	0.276000	0.739180
H751	H75	0.417900	0.268000	0.735400
N281	N28	0.458200	0.242800	0.694780
H761	H76	0.429400	0.240800	0.694300
N291	N29	0.458400	0.135200	0.614670
H771	H77	0.475500	0.121500	0.601700
N301	N30	0.406300	0.088900	0.597410
H781	H78	0.427700	0.076600	0.587100
C1331	C133	0.718440	0.119310	0.541200
C1341	C134	0.813890	0.183360	0.621510
C1351	C135	0.724980	0.149980	0.566830
C1361	C136	0.766350	0.154700	0.580180
H791	H79	0.791300	0.140300	0.571900
C1371	C137	0.770350	0.180890	0.605910
C1381	C138	0.734460	0.202200	0.617500
H801	H80	0.737600	0.219900	0.635000
C1391	C139	0.692960	0.198200	0.603790
C1401	C140	0.688890	0.172710	0.578080
H811	H81	0.661400	0.170700	0.568100
C1411	C141	0.542830	0.320260	0.823570
C1421	C142	0.383270	0.357050	0.823640
C1431	C143	0.499000	0.320770	0.807970
C1441	C144	0.463830	0.340410	0.821160
H821	H82	0.467400	0.355800	0.839600
C1451	C145	0.422750	0.338100	0.807820
C1461	C146	0.417720	0.317200	0.780540
H831	H83	0.389700	0.316200	0.771200
C1471	C147	0.452870	0.297700	0.766860
C1481	C148	0.494170	0.298700	0.780790
H841	H84	0.518600	0.284400	0.771700
C1491	C149	0.247430	0.086220	0.620120
C1501	C150	0.310250	0.990920	0.539940
C1511	C151	0.286030	0.070640	0.602930
C1521	C152	0.280470	0.040950	0.579370
H851	H85	0.251700	0.032000	0.573800
C1531	C153	0.316050	0.024580	0.564200
C1541	C154	0.358750	0.039600	0.571260
H861	H86	0.383800	0.028100	0.561200
C1551	C155	0.363100	0.071800	0.593330
C1561	C156	0.327120	0.085600	0.610120
H871	H87	0.331000	0.105300	0.626500
C1571	C157	0.616400	0.201100	0.617800
C1581	C158	0.475600	0.266500	0.717960
C1591	C159	0.416600	0.122400	0.615900
C1601	C160	0.543600	0.211000	0.640480
C1611	C161	0.523700	0.231900	0.664120
H881	H88	0.539000	0.253500	0.675400
C1621	C162	0.481300	0.221200	0.671250
C1631	C163	0.458800	0.192500	0.654720
H891	H89	0.428400	0.188400	0.658600
C1641	C164	0.478200	0.169300	0.632600
C1651	C165	0.521000	0.179900	0.623050
H901	H90	0.533900	0.166800	0.605700
Cu111	Cu11	0.655940	0.597640	0.127880
Cu121	Cu12	0.708070	0.631000	0.169830
O761	O76	0.180270	0.615030	0.031310
O771	O77	0.252290	0.600610	0.030800
O781	O78	0.345050	0.664740	0.108700
O791	O79	0.315380	0.704370	0.146020
O801	O80	0.072280	0.796420	0.312280
O811	O81	0.046240	0.844820	0.346010
O821	O82	0.890840	0.876120	0.347830
O831	O83	0.846870	0.852140	0.310720
O841	O84	0.754990	0.609660	0.143190
O851	O85	0.710430	0.576410	0.110130
O861	O86	0.771610	0.486140	0.031000
O871	O87	0.843770	0.471740	0.030630
O881	O88	0.107230	0.665500	0.105700
O891	O89	0.014830	0.773930	0.220330
O901	O90	0.891200	0.637200	0.135570
N311	N31	0.156640	0.718530	0.117760
H911	H91	0.160700	0.743900	0.126900
N321	N32	0.086470	0.724300	0.132790
H921	H92	0.094300	0.750800	0.138500
N331	N33	0.945080	0.776000	0.239180
H931	H93	0.917900	0.768000	0.235400
N341	N34	0.958200	0.742800	0.194780
H941	H94	0.929400	0.740800	0.194300
N351	N35	0.958400	0.635200	0.114670
H951	H95	0.975500	0.621500	0.101700
N361	N36	0.906300	0.588900	0.097410
H961	H96	0.927700	0.576600	0.087100
C1661	C166	0.218440	0.619310	0.041200
C1671	C167	0.313890	0.683360	0.121510
C1681	C168	0.224980	0.649980	0.066830
C1691	C169	0.266350	0.654700	0.080180
H971	H97	0.291300	0.640300	0.071900
C1701	C170	0.270350	0.680890	0.105910
C1711	C171	0.234460	0.702200	0.117500
H981	H98	0.237600	0.719900	0.135000
C1721	C172	0.192960	0.698200	0.103790
C1731	C173	0.188890	0.672710	0.078080
H991	H99	0.161400	0.670700	0.068100
C1741	C174	0.042830	0.820260	0.323570
C1751	C175	0.883270	0.857050	0.323640
C1761	C176	0.999000	0.820770	0.307970
C1771	C177	0.963830	0.840410	0.321160
H1001	H100	0.967400	0.855800	0.339600
C1781	C178	0.922750	0.838100	0.307820
C1791	C179	0.917720	0.817200	0.280540
H1011	H101	0.889700	0.816200	0.271200
C1801	C180	0.952870	0.797700	0.266860
C1811	C181	0.994170	0.798700	0.280790
H1021	H102	0.018600	0.784400	0.271700
C1821	C182	0.747430	0.586220	0.120120
C1831	C183	0.810250	0.490920	0.039940
C1841	C184	0.786030	0.570640	0.102930
C1851	C185	0.780470	0.540950	0.079370
H1031	H103	0.751700	0.532000	0.073800
C1861	C186	0.816050	0.524580	0.064200
C1871	C187	0.858750	0.539600	0.071260
H1041	H104	0.883800	0.528100	0.061200
C1881	C188	0.863100	0.571800	0.093330
C1891	C189	0.827120	0.585600	0.110120
H1051	H105	0.831000	0.605300	0.126500
C1901	C190	0.116400	0.701100	0.117800
C1911	C191	0.975600	0.766500	0.217960
C1921	C192	0.916600	0.622400	0.115900
C1931	C193	0.043600	0.711000	0.140480
C1941	C194	0.023700	0.731900	0.164120
H1061	H106	0.039000	0.753500	0.175400
C1951	C195	0.981300	0.721200	0.171250
C1961	C196	0.958800	0.692500	0.154720
H1071	H107	0.928400	0.688400	0.158600
C1971	C197	0.978200	0.669300	0.132600
C1981	C198	0.021000	0.679900	0.123050
H1081	H108	0.033900	0.666800	0.105700
Cu131	Cu13	0.844060	0.902360	0.627880
Cu141	Cu14	0.791930	0.869000	0.669830
O911	O91	0.319730	0.884970	0.531310
O921	O92	0.247710	0.899390	0.530800
O931	O93	0.154950	0.835260	0.608700
O941	O94	0.184620	0.795630	0.646020
O951	O95	0.427720	0.703580	0.812280
O961	O96	0.453760	0.655180	0.846010
O971	O97	0.609160	0.623880	0.847830
O981	O98	0.653130	0.647860	0.810720
O991	O99	0.745010	0.890340	0.643190
O1001	O100	0.789570	0.923590	0.610130
O1011	O101	0.728390	0.013860	0.531000
O1021	O102	0.656230	0.028260	0.530630
O1031	O103	0.392770	0.834500	0.605700
O1041	O104	0.485170	0.726070	0.720330
O1051	O105	0.608800	0.862800	0.635570
N371	N37	0.343360	0.781470	0.617760
H1091	H109	0.339300	0.756100	0.626900
N381	N38	0.413530	0.775700	0.632790
H1101	H110	0.405700	0.749200	0.638500
N391	N39	0.554920	0.724000	0.739180
H1111	H111	0.582100	0.732000	0.735400
N401	N40	0.541800	0.757200	0.694780
H1121	H112	0.570600	0.759200	0.694300
N411	N41	0.541600	0.864800	0.614670
H1131	H113	0.524500	0.878500	0.601700
N421	N42	0.593700	0.911100	0.597410
H1141	H114	0.572300	0.923400	0.587100
C1991	C199	0.281560	0.880690	0.541200
C2001	C200	0.186110	0.816640	0.621510
C2011	C201	0.275020	0.850020	0.566830
C2021	C202	0.233650	0.845300	0.580180
H1151	H115	0.208700	0.859700	0.571900
C2031	C203	0.229650	0.819110	0.605910
C2041	C204	0.265540	0.797800	0.617500
H1161	H116	0.262400	0.780100	0.635000
C2051	C205	0.307040	0.801800	0.603790
C2061	C206	0.311110	0.827290	0.578080
H1171	H117	0.338600	0.829300	0.568100
C2071	C207	0.457170	0.679740	0.823570
C2081	C208	0.616730	0.642950	0.823640
C2091	C209	0.501000	0.679230	0.807970
C2101	C210	0.536170	0.659590	0.821160
H1181	H118	0.532600	0.644200	0.839600
C2111	C211	0.577250	0.661900	0.807820
C2121	C212	0.582280	0.682800	0.780540
H1191	H119	0.610300	0.683800	0.771200
C2131	C213	0.547130	0.702300	0.766860
C2141	C214	0.505830	0.701300	0.780790
H1201	H120	0.481400	0.715600	0.771700
C2151	C215	0.752570	0.913780	0.620120
C2161	C216	0.689750	0.009080	0.539940
C2171	C217	0.713970	0.929360	0.602930
C2181	C218	0.719530	0.959050	0.579370
H1211	H121	0.748300	0.968000	0.573800
C2191	C219	0.683950	0.975420	0.564200
C2201	C220	0.641250	0.960400	0.571260
H1221	H122	0.616200	0.971900	0.561200
C2211	C221	0.636900	0.928200	0.593330
C2221	C222	0.672880	0.914400	0.610120
H1231	H123	0.669000	0.894700	0.626500
C2231	C223	0.383600	0.798900	0.617800
C2241	C224	0.524400	0.733500	0.717960
C2251	C225	0.583400	0.877600	0.615900
C2261	C226	0.456400	0.789000	0.640480
C2271	C227	0.476300	0.768100	0.664120
H1241	H124	0.461000	0.746500	0.675400
C2281	C228	0.518700	0.778800	0.671250
C2291	C229	0.541200	0.807500	0.654720
H1251	H125	0.571600	0.811600	0.658600
C2301	C230	0.521800	0.830700	0.632600
C2311	C231	0.479000	0.820100	0.623050
H1261	H126	0.466100	0.833200	0.605700
Cu151	Cu15	0.344060	0.402360	0.127880
Cu161	Cu16	0.291930	0.369000	0.169830
O1061	O106	0.819730	0.384970	0.031310
O1071	O107	0.747710	0.399390	0.030800
O1081	O108	0.654950	0.335260	0.108700
O1091	O109	0.684620	0.295630	0.146020
O1101	O110	0.927720	0.203580	0.312280
O1111	O111	0.953760	0.155180	0.346010
O1121	O112	0.109160	0.123880	0.347830
O1131	O113	0.153130	0.147860	0.310720
O1141	O114	0.245010	0.390340	0.143190
O1151	O115	0.289570	0.423590	0.110130
O1161	O116	0.228390	0.513860	0.031000
O1171	O117	0.156230	0.528260	0.030630
O1181	O118	0.892770	0.334500	0.105700
O1191	O119	0.985170	0.226070	0.220330
O1201	O120	0.108800	0.362800	0.135570
N431	N43	0.843360	0.281470	0.117760
H1271	H127	0.839300	0.256100	0.126900
N441	N44	0.913530	0.275700	0.132790
H1281	H128	0.905700	0.249200	0.138500
N451	N45	0.054920	0.224000	0.239180
H1291	H129	0.082100	0.232000	0.235400
N461	N46	0.041800	0.257200	0.194780
H1301	H130	0.070600	0.259200	0.194300
N471	N47	0.041600	0.364800	0.114670
H1311	H131	0.024500	0.378500	0.101700
N481	N48	0.093700	0.411100	0.097410
H1321	H132	0.072300	0.423400	0.087100
C2321	C232	0.781560	0.380690	0.041200
C2331	C233	0.686110	0.316640	0.121510
C2341	C234	0.775020	0.350020	0.066830
C2351	C235	0.733650	0.345300	0.080180
H1331	H133	0.708700	0.359700	0.071900
C2361	C236	0.729650	0.319110	0.105910
C2371	C237	0.765540	0.297800	0.117500
H1341	H134	0.762400	0.280100	0.135000
C2381	C238	0.807040	0.301800	0.103790
C2391	C239	0.811110	0.327290	0.078080
H1351	H135	0.838600	0.329300	0.068100
C2401	C240	0.957170	0.179740	0.323570
C2411	C241	0.116730	0.142950	0.323640
C2421	C242	0.001000	0.179230	0.307970
C2431	C243	0.036170	0.159590	0.321160
H1361	H136	0.032600	0.144200	0.339600
C2441	C244	0.077250	0.161900	0.307820
C2451	C245	0.082280	0.182800	0.280540
H1371	H137	0.110300	0.183800	0.271200
C2461	C246	0.047130	0.202300	0.266860
C2471	C247	0.005830	0.201300	0.280790
H1381	H138	0.981400	0.215600	0.271700
C2481	C248	0.252570	0.413780	0.120120
C2491	C249	0.189750	0.509080	0.039940
C2501	C250	0.213970	0.429360	0.102930
C2511	C251	0.219530	0.459050	0.079370
H1391	H139	0.248300	0.468000	0.073800
C2521	C252	0.183950	0.475420	0.064200
C2531	C253	0.141250	0.460400	0.071260
H1401	H140	0.116200	0.471900	0.061200
C2541	C254	0.136900	0.428200	0.093330
C2551	C255	0.172880	0.414400	0.110120
H1411	H141	0.169000	0.394700	0.126500
C2561	C256	0.883600	0.298900	0.117800
C2571	C257	0.024400	0.233500	0.217960
C2581	C258	0.083400	0.377600	0.115900
C2591	C259	0.956400	0.289000	0.140480
C2601	C260	0.976300	0.268100	0.164120
H1421	H142	0.961000	0.246500	0.175400
C2611	C261	0.018700	0.278800	0.171250
C2621	C262	0.041200	0.307500	0.154720
H1431	H143	0.071600	0.311600	0.158600
C2631	C263	0.021800	0.330700	0.132600
C2641	C264	0.979000	0.320100	0.123050
H1441	H144	0.966100	0.333200	0.105700
Cu171	Cu17	0.902360	0.155940	0.372120
Cu181	Cu18	0.869000	0.208070	0.330170
O1211	O121	0.884970	0.680270	0.468690
O1221	O122	0.899390	0.752290	0.469200
O1231	O123	0.835260	0.845050	0.391300
O1241	O124	0.795630	0.815380	0.353980
O1251	O125	0.703580	0.572280	0.187720
O1261	O126	0.655180	0.546240	0.153990
O1271	O127	0.623880	0.390840	0.152170
O1281	O128	0.647860	0.346870	0.189280
O1291	O129	0.890340	0.254990	0.356810
O1301	O130	0.923590	0.210430	0.389870
O1311	O131	0.013860	0.271610	0.469000
O1321	O132	0.028260	0.343770	0.469370
O1331	O133	0.834500	0.607230	0.394300
O1341	O134	0.726070	0.514830	0.279670
O1351	O135	0.862800	0.391200	0.364430
N491	N49	0.781470	0.656640	0.382240
H1451	H145	0.756100	0.660700	0.373100
N501	N50	0.775700	0.586470	0.367210
H1461	H146	0.749200	0.594300	0.361500
N511	N51	0.724000	0.445080	0.260820
H1471	H147	0.732000	0.417900	0.264600
N521	N52	0.757200	0.458200	0.305220
H1481	H148	0.759200	0.429400	0.305700
N531	N53	0.864800	0.458400	0.385330
H1491	H149	0.878500	0.475500	0.398300
N541	N54	0.911100	0.406300	0.402590
H1501	H150	0.923400	0.427700	0.412900
C2651	C265	0.880690	0.718440	0.458800
C2661	C266	0.816640	0.813890	0.378490
C2671	C267	0.850020	0.724980	0.433170
C2681	C268	0.845300	0.766350	0.419820
H1511	H151	0.859700	0.791300	0.428100
C2691	C269	0.819110	0.770350	0.394090
C2701	C270	0.797800	0.734460	0.382500
H1521	H152	0.780100	0.737600	0.365000
C2711	C271	0.801800	0.692960	0.396210
C2721	C272	0.827290	0.688890	0.421920
H1531	H153	0.829300	0.661400	0.431900
C2731	C273	0.679740	0.542830	0.176430
C2741	C274	0.642950	0.383270	0.176360
C2751	C275	0.679230	0.499000	0.192030
C2761	C276	0.659590	0.463830	0.178840
H1541	H154	0.644200	0.467400	0.160400
C2771	C277	0.661900	0.422750	0.192180
C2781	C278	0.682800	0.417720	0.219460
H1551	H155	0.683800	0.389700	0.228800
C2791	C279	0.702300	0.452870	0.233140
C2801	C280	0.701300	0.494170	0.219210
H1561	H156	0.715600	0.518600	0.228300
C2811	C281	0.913780	0.247430	0.379880
C2821	C282	0.009080	0.310250	0.460060
C2831	C283	0.929360	0.286030	0.397070
C2841	C284	0.959050	0.280470	0.420630
H1571	H157	0.968000	0.251700	0.426200
C2851	C285	0.975420	0.316050	0.435800
C2861	C286	0.960400	0.358750	0.428740
H1581	H158	0.971900	0.383800	0.438800
C2871	C287	0.928200	0.363100	0.406670
C2881	C288	0.914400	0.327120	0.389880
H1591	H159	0.894700	0.331000	0.373500
C2891	C289	0.798900	0.616400	0.382200
C2901	C290	0.733500	0.475600	0.282040
C2911	C291	0.877600	0.416600	0.384100
C2921	C292	0.789000	0.543600	0.359520
C2931	C293	0.768100	0.523700	0.335880
H1601	H160	0.746500	0.539000	0.324600
C2941	C294	0.778800	0.481300	0.328750
C2951	C295	0.807500	0.458800	0.345280
H1611	H161	0.811600	0.428400	0.341400
C2961	C296	0.830700	0.478200	0.367400
C2971	C297	0.820100	0.521000	0.376950
H1621	H162	0.833200	0.533900	0.394300
Cu191	Cu19	0.402360	0.655940	0.872120
Cu201	Cu20	0.369000	0.708070	0.830170
O1361	O136	0.384970	0.180270	0.968690
O1371	O137	0.399390	0.252290	0.969200
O1381	O138	0.335260	0.345050	0.891300
O1391	O139	0.295630	0.315380	0.853980
O1401	O140	0.203580	0.072280	0.687720
O1411	O141	0.155180	0.046240	0.653990
O1421	O142	0.123880	0.890840	0.652170
O1431	O143	0.147860	0.846870	0.689280
O1441	O144	0.390340	0.754990	0.856810
O1451	O145	0.423590	0.710430	0.889870
O1461	O146	0.513860	0.771610	0.969000
O1471	O147	0.528260	0.843770	0.969370
O1481	O148	0.334500	0.107230	0.894300
O1491	O149	0.226070	0.014830	0.779670
O1501	O150	0.362800	0.891200	0.864430
N551	N55	0.281470	0.156640	0.882240
H1631	H163	0.256100	0.160700	0.873100
N561	N56	0.275700	0.086470	0.867210
H1641	H164	0.249200	0.094300	0.861500
N571	N57	0.224000	0.945080	0.760820
H1651	H165	0.232000	0.917900	0.764600
N581	N58	0.257200	0.958200	0.805220
H1661	H166	0.259200	0.929400	0.805700
N591	N59	0.364800	0.958400	0.885330
H1671	H167	0.378500	0.975500	0.898300
N601	N60	0.411100	0.906300	0.902590
H1681	H168	0.423400	0.927700	0.912900
C2981	C298	0.380690	0.218440	0.958800
C2991	C299	0.316640	0.313890	0.878490
C3001	C300	0.350020	0.224980	0.933170
C3011	C301	0.345300	0.266350	0.919820
H1691	H169	0.359700	0.291300	0.928100
C3021	C302	0.319110	0.270350	0.894090
C3031	C303	0.297800	0.234460	0.882500
H1701	H170	0.280100	0.237600	0.865000
C3041	C304	0.301800	0.192960	0.896210
C3051	C305	0.327290	0.188890	0.921920
H1711	H171	0.329300	0.161400	0.931900
C3061	C306	0.179740	0.042830	0.676430
C3071	C307	0.142950	0.883270	0.676360
C3081	C308	0.179230	0.999000	0.692030
C3091	C309	0.159590	0.963830	0.678840
H1721	H172	0.144200	0.967400	0.660400
C3101	C310	0.161900	0.922750	0.692180
C3111	C311	0.182800	0.917720	0.719460
H1731	H173	0.183800	0.889700	0.728800
C3121	C312	0.202300	0.952870	0.733140
C3131	C313	0.201300	0.994170	0.719210
H1741	H174	0.215600	0.018600	0.728300
C3141	C314	0.413780	0.747430	0.879880
C3151	C315	0.509080	0.810250	0.960060
C3161	C316	0.429360	0.786030	0.897070
C3171	C317	0.459050	0.780470	0.920630
H1751	H175	0.468000	0.751700	0.926200
C3181	C318	0.475420	0.816050	0.935800
C3191	C319	0.460400	0.858750	0.928740
H1761	H176	0.471900	0.883800	0.938800
C3201	C320	0.428200	0.863100	0.906670
C3211	C321	0.414400	0.827120	0.889880
H1771	H177	0.394700	0.831000	0.873500
C3221	C322	0.298900	0.116400	0.882200
C3231	C323	0.233500	0.975600	0.782040
C3241	C324	0.377600	0.916600	0.884100
C3251	C325	0.289000	0.043600	0.859520
C3261	C326	0.268100	0.023700	0.835880
H1781	H178	0.246500	0.039000	0.824600
C3271	C327	0.278800	0.981300	0.828750
C3281	C328	0.307500	0.958800	0.845280
H1791	H179	0.311600	0.928400	0.841400
C3291	C329	0.330700	0.978200	0.867400
C3301	C330	0.320100	0.021000	0.876950
H1801	H180	0.333200	0.033900	0.894300
Cu211	Cu21	0.097640	0.844060	0.372120
Cu221	Cu22	0.131000	0.791930	0.330170
O1511	O151	0.115030	0.319730	0.468690
O1521	O152	0.100610	0.247710	0.469200
O1531	O153	0.164740	0.154950	0.391300
O1541	O154	0.204370	0.184620	0.353980
O1551	O155	0.296420	0.427720	0.187720
O1561	O156	0.344820	0.453760	0.153990
O1571	O157	0.376120	0.609160	0.152170
O1581	O158	0.352140	0.653130	0.189280
O1591	O159	0.109660	0.745010	0.356810
O1601	O160	0.076410	0.789570	0.389870
O1611	O161	0.986140	0.728390	0.469000
O1621	O162	0.971740	0.656230	0.469370
O1631	O163	0.165500	0.392770	0.394300
O1641	O164	0.273930	0.485170	0.279670
O1651	O165	0.137200	0.608800	0.364430
N611	N61	0.218530	0.343360	0.382240
H1811	H181	0.243900	0.339300	0.373100
N621	N62	0.224300	0.413530	0.367210
H1821	H182	0.250800	0.405700	0.361500
N631	N63	0.276000	0.554920	0.260820
H1831	H183	0.268000	0.582100	0.264600
N641	N64	0.242800	0.541800	0.305220
H1841	H184	0.240800	0.570600	0.305700
N651	N65	0.135200	0.541600	0.385330
H1851	H185	0.121500	0.524500	0.398300
N661	N66	0.088900	0.593700	0.402590
H1861	H186	0.076600	0.572300	0.412900
C3311	C331	0.119310	0.281560	0.458800
C3321	C332	0.183360	0.186110	0.378490
C3331	C333	0.149980	0.275020	0.433170
C3341	C334	0.154700	0.233650	0.419820
H1871	H187	0.140300	0.208700	0.428100
C3351	C335	0.180890	0.229650	0.394090
C3361	C336	0.202200	0.265540	0.382500
H1881	H188	0.219900	0.262400	0.365000
C3371	C337	0.198200	0.307040	0.396210
C3381	C338	0.172710	0.311110	0.421920
H1891	H189	0.170700	0.338600	0.431900
C3391	C339	0.320260	0.457170	0.176430
C3401	C340	0.357050	0.616730	0.176360
C3411	C341	0.320770	0.501000	0.192030
C3421	C342	0.340410	0.536170	0.178840
H1901	H190	0.355800	0.532600	0.160400
C3431	C343	0.338100	0.577250	0.192180
C3441	C344	0.317200	0.582280	0.219460
H1911	H191	0.316200	0.610300	0.228800
C3451	C345	0.297700	0.547130	0.233140
C3461	C346	0.298700	0.505830	0.219210
H1921	H192	0.284400	0.481400	0.228300
C3471	C347	0.086220	0.752570	0.379880
C3481	C348	0.990920	0.689750	0.460060
C3491	C349	0.070640	0.713970	0.397070
C3501	C350	0.040950	0.719530	0.420630
H1931	H193	0.032000	0.748300	0.426200
C3511	C351	0.024580	0.683950	0.435800
C3521	C352	0.039600	0.641250	0.428740
H1941	H194	0.028100	0.616200	0.438800
C3531	C353	0.071800	0.636900	0.406670
C3541	C354	0.085600	0.672880	0.389880
H1951	H195	0.105300	0.669000	0.373500
C3551	C355	0.201100	0.383600	0.382200
C3561	C356	0.266500	0.524400	0.282040
C3571	C357	0.122400	0.583400	0.384100
C3581	C358	0.211000	0.456400	0.359520
C3591	C359	0.231900	0.476300	0.335880
H1961	H196	0.253500	0.461000	0.324600
C3601	C360	0.221200	0.518700	0.328750
C3611	C361	0.192500	0.541200	0.345280
H1971	H197	0.188400	0.571600	0.341400
C3621	C362	0.169300	0.521800	0.367400
C3631	C363	0.179900	0.479000	0.376950
H1981	H198	0.166800	0.466100	0.394300
Cu231	Cu23	0.597640	0.344060	0.872120
Cu241	Cu24	0.631000	0.291930	0.830170
O1661	O166	0.615030	0.819730	0.968690
O1671	O167	0.600610	0.747710	0.969200
O1681	O168	0.664740	0.654950	0.891300
O1691	O169	0.704370	0.684620	0.853980
O1701	O170	0.796420	0.927720	0.687720
O1711	O171	0.844820	0.953760	0.653990
O1721	O172	0.876120	0.109160	0.652170
O1731	O173	0.852140	0.153130	0.689280
O1741	O174	0.609660	0.245010	0.856810
O1751	O175	0.576410	0.289570	0.889870
O1761	O176	0.486140	0.228390	0.969000
O1771	O177	0.471740	0.156230	0.969370
O1781	O178	0.665500	0.892770	0.894300
O1791	O179	0.773930	0.985170	0.779670
O1801	O180	0.637200	0.108800	0.864430
N671	N67	0.718530	0.843360	0.882240
H1991	H199	0.743900	0.839300	0.873100
N681	N68	0.724300	0.913530	0.867210
H2001	H200	0.750800	0.905700	0.861500
N691	N69	0.776000	0.054920	0.760820
H2011	H201	0.768000	0.082100	0.764600
N701	N70	0.742800	0.041800	0.805220
H2021	H202	0.740800	0.070600	0.805700
N711	N71	0.635200	0.041600	0.885330
H2031	H203	0.621500	0.024500	0.898300
N721	N72	0.588900	0.093700	0.902590
H2041	H204	0.576600	0.072300	0.912900
C3641	C364	0.619310	0.781560	0.958800
C3651	C365	0.683360	0.686110	0.878490
C3661	C366	0.649980	0.775020	0.933170
C3671	C367	0.654700	0.733650	0.919820
H2051	H205	0.640300	0.708700	0.928100
C3681	C368	0.680890	0.729650	0.894090
C3691	C369	0.702200	0.765540	0.882500
H2061	H206	0.719900	0.762400	0.865000
C3701	C370	0.698200	0.807040	0.896210
C3711	C371	0.672710	0.811110	0.921920
H2071	H207	0.670700	0.838600	0.931900
C3721	C372	0.820260	0.957170	0.676430
C3731	C373	0.857050	0.116730	0.676360
C3741	C374	0.820770	0.001000	0.692030
C3751	C375	0.840410	0.036170	0.678840
H2081	H208	0.855800	0.032600	0.660400
C3761	C376	0.838100	0.077250	0.692180
C3771	C377	0.817200	0.082280	0.719460
H2091	H209	0.816200	0.110300	0.728800
C3781	C378	0.797700	0.047130	0.733140
C3791	C379	0.798700	0.005830	0.719210
H2101	H210	0.784400	0.981400	0.728300
C3801	C380	0.586220	0.252570	0.879880
C3811	C381	0.490920	0.189750	0.960060
C3821	C382	0.570640	0.213970	0.897070
C3831	C383	0.540950	0.219530	0.920630
H2111	H211	0.532000	0.248300	0.926200
C3841	C384	0.524580	0.183950	0.935800
C3851	C385	0.539600	0.141250	0.928740
H2121	H212	0.528100	0.116200	0.938800
C3861	C386	0.571800	0.136900	0.906670
C3871	C387	0.585600	0.172880	0.889880
H2131	H213	0.605300	0.169000	0.873500
C3881	C388	0.701100	0.883600	0.882200
C3891	C389	0.766500	0.024400	0.782040
C3901	C390	0.622400	0.083400	0.884100
C3911	C391	0.711000	0.956400	0.859520
C3921	C392	0.731900	0.976300	0.835880
H2141	H214	0.753500	0.961000	0.824600
C3931	C393	0.721200	0.018700	0.828750
C3941	C394	0.692500	0.041200	0.845280
H2151	H215	0.688400	0.071600	0.841400
C3951	C395	0.669300	0.021800	0.867400
C3961	C396	0.679900	0.979000	0.876950
H2161	H216	0.666800	0.966100	0.894300
Cu251	Cu25	0.844060	0.902360	0.372120
Cu261	Cu26	0.791930	0.869000	0.330170
O1811	O181	0.319730	0.884970	0.468690
O1821	O182	0.247710	0.899390	0.469200
O1831	O183	0.154950	0.835260	0.391300
O1841	O184	0.184620	0.795630	0.353980
O1851	O185	0.427720	0.703580	0.187720
O1861	O186	0.453760	0.655180	0.153990
O1871	O187	0.609160	0.623880	0.152170
O1881	O188	0.653130	0.647860	0.189280
O1891	O189	0.745010	0.890340	0.356810
O1901	O190	0.789570	0.923590	0.389870
O1911	O191	0.728390	0.013860	0.469000
O1921	O192	0.656230	0.028260	0.469370
O1931	O193	0.392770	0.834500	0.394300
O1941	O194	0.485170	0.726070	0.279670
O1951	O195	0.608800	0.862800	0.364430
N731	N73	0.343360	0.781470	0.382240
H2171	H217	0.339300	0.756100	0.373100
N741	N74	0.413530	0.775700	0.367210
H2181	H218	0.405700	0.749200	0.361500
N751	N75	0.554920	0.724000	0.260820
H2191	H219	0.582100	0.732000	0.264600
N761	N76	0.541800	0.757200	0.305220
H2201	H220	0.570600	0.759200	0.305700
N771	N77	0.541600	0.864800	0.385330
H2211	H221	0.524500	0.878500	0.398300
N781	N78	0.593700	0.911100	0.402590
H2221	H222	0.572300	0.923400	0.412900
C3971	C397	0.281560	0.880690	0.458800
C3981	C398	0.186110	0.816640	0.378490
C3991	C399	0.275020	0.850020	0.433170
C4001	C400	0.233650	0.845300	0.419820
H2231	H223	0.208700	0.859700	0.428100
C4011	C401	0.229650	0.819110	0.394090
C4021	C402	0.265540	0.797800	0.382500
H2241	H224	0.262400	0.780100	0.365000
C4031	C403	0.307040	0.801800	0.396210
C4041	C404	0.311110	0.827290	0.421920
H2251	H225	0.338600	0.829300	0.431900
C4051	C405	0.457170	0.679740	0.176430
C4061	C406	0.616730	0.642950	0.176360
C4071	C407	0.501000	0.679230	0.192030
C4081	C408	0.536170	0.659590	0.178840
H2261	H226	0.532600	0.644200	0.160400
C4091	C409	0.577250	0.661900	0.192180
C4101	C410	0.582280	0.682800	0.219460
H2271	H227	0.610300	0.683800	0.228800
C4111	C411	0.547130	0.702300	0.233140
C4121	C412	0.505830	0.701300	0.219210
H2281	H228	0.481400	0.715600	0.228300
C4131	C413	0.752570	0.913780	0.379880
C4141	C414	0.689750	0.009080	0.460060
C4151	C415	0.713970	0.929360	0.397070
C4161	C416	0.719530	0.959050	0.420630
H2291	H229	0.748300	0.968000	0.426200
C4171	C417	0.683950	0.975420	0.435800
C4181	C418	0.641250	0.960400	0.428740
H2301	H230	0.616200	0.971900	0.438800
C4191	C419	0.636900	0.928200	0.406670
C4201	C420	0.672880	0.914400	0.389880
H2311	H231	0.669000	0.894700	0.373500
C4211	C421	0.383600	0.798900	0.382200
C4221	C422	0.524400	0.733500	0.282040
C4231	C423	0.583400	0.877600	0.384100
C4241	C424	0.456400	0.789000	0.359520
C4251	C425	0.476300	0.768100	0.335880
H2321	H232	0.461000	0.746500	0.324600
C4261	C426	0.518700	0.778800	0.328750
C4271	C427	0.541200	0.807500	0.345280
H2331	H233	0.571600	0.811600	0.341400
C4281	C428	0.521800	0.830700	0.367400
C4291	C429	0.479000	0.820100	0.376950
H2341	H234	0.466100	0.833200	0.394300
Cu271	Cu27	0.344060	0.402360	0.872120
Cu281	Cu28	0.291930	0.369000	0.830170
O1961	O196	0.819730	0.384970	0.968690
O1971	O197	0.747710	0.399390	0.969200
O1981	O198	0.654950	0.335260	0.891300
O1991	O199	0.684620	0.295630	0.853980
O2001	O200	0.927720	0.203580	0.687720
O2011	O201	0.953760	0.155180	0.653990
O2021	O202	0.109160	0.123880	0.652170
O2031	O203	0.153130	0.147860	0.689280
O2041	O204	0.245010	0.390340	0.856810
O2051	O205	0.289570	0.423590	0.889870
O2061	O206	0.228390	0.513860	0.969000
O2071	O207	0.156230	0.528260	0.969370
O2081	O208	0.892770	0.334500	0.894300
O2091	O209	0.985170	0.226070	0.779670
O2101	O210	0.108800	0.362800	0.864430
N791	N79	0.843360	0.281470	0.882240
H2351	H235	0.839300	0.256100	0.873100
N801	N80	0.913530	0.275700	0.867210
H2361	H236	0.905700	0.249200	0.861500
N811	N81	0.054920	0.224000	0.760820
H2371	H237	0.082100	0.232000	0.764600
N821	N82	0.041800	0.257200	0.805220
H2381	H238	0.070600	0.259200	0.805700
N831	N83	0.041600	0.364800	0.885330
H2391	H239	0.024500	0.378500	0.898300
N841	N84	0.093700	0.411100	0.902590
H2401	H240	0.072300	0.423400	0.912900
C4301	C430	0.781560	0.380690	0.958800
C4311	C431	0.686110	0.316640	0.878490
C4321	C432	0.775020	0.350020	0.933170
C4331	C433	0.733650	0.345300	0.919820
H2411	H241	0.708700	0.359700	0.928100
C4341	C434	0.729650	0.319110	0.894090
C4351	C435	0.765540	0.297800	0.882500
H2421	H242	0.762400	0.280100	0.865000
C4361	C436	0.807040	0.301800	0.896210
C4371	C437	0.811110	0.327290	0.921920
H2431	H243	0.838600	0.329300	0.931900
C4381	C438	0.957170	0.179740	0.676430
C4391	C439	0.116730	0.142950	0.676360
C4401	C440	0.001000	0.179230	0.692030
C4411	C441	0.036170	0.159590	0.678840
H2441	H244	0.032600	0.144200	0.660400
C4421	C442	0.077250	0.161900	0.692180
C4431	C443	0.082280	0.182800	0.719460
H2451	H245	0.110300	0.183800	0.728800
C4441	C444	0.047130	0.202300	0.733140
C4451	C445	0.005830	0.201300	0.719210
H2461	H246	0.981400	0.215600	0.728300
C4461	C446	0.252570	0.413780	0.879880
C4471	C447	0.189750	0.509080	0.960060
C4481	C448	0.213970	0.429360	0.897070
C4491	C449	0.219530	0.459050	0.920630
H2471	H247	0.248300	0.468000	0.926200
C4501	C450	0.183950	0.475420	0.935800
C4511	C451	0.141250	0.460400	0.928740
H2481	H248	0.116200	0.471900	0.938800
C4521	C452	0.136900	0.428200	0.906670
C4531	C453	0.172880	0.414400	0.889880
H2491	H249	0.169000	0.394700	0.873500
C4541	C454	0.883600	0.298900	0.882200
C4551	C455	0.024400	0.233500	0.782040
C4561	C456	0.083400	0.377600	0.884100
C4571	C457	0.956400	0.289000	0.859520
C4581	C458	0.976300	0.268100	0.835880
H2501	H250	0.961000	0.246500	0.824600
C4591	C459	0.018700	0.278800	0.828750
C4601	C460	0.041200	0.307500	0.845280
H2511	H251	0.071600	0.311600	0.841400
C4611	C461	0.021800	0.330700	0.867400
C4621	C462	0.979000	0.320100	0.876950
H2521	H252	0.966100	0.333200	0.894300
Cu291	Cu29	0.155940	0.097640	0.372120
Cu301	Cu30	0.208070	0.131000	0.330170
O2111	O211	0.680270	0.115030	0.468690
O2121	O212	0.752290	0.100610	0.469200
O2131	O213	0.845050	0.164740	0.391300
O2141	O214	0.815380	0.204370	0.353980
O2151	O215	0.572280	0.296420	0.187720
O2161	O216	0.546240	0.344820	0.153990
O2171	O217	0.390840	0.376120	0.152170
O2181	O218	0.346870	0.352140	0.189280
O2191	O219	0.254990	0.109660	0.356810
O2201	O220	0.210430	0.076410	0.389870
O2211	O221	0.271610	0.986140	0.469000
O2221	O222	0.343770	0.971740	0.469370
O2231	O223	0.607230	0.165500	0.394300
O2241	O224	0.514830	0.273930	0.279670
O2251	O225	0.391200	0.137200	0.364430
N851	N85	0.656640	0.218530	0.382240
H2531	H253	0.660700	0.243900	0.373100
N861	N86	0.586470	0.224300	0.367210
H2541	H254	0.594300	0.250800	0.361500
N871	N87	0.445080	0.276000	0.260820
H2551	H255	0.417900	0.268000	0.264600
N881	N88	0.458200	0.242800	0.305220
H2561	H256	0.429400	0.240800	0.305700
N891	N89	0.458400	0.135200	0.385330
H2571	H257	0.475500	0.121500	0.398300
N901	N90	0.406300	0.088900	0.402590
H2581	H258	0.427700	0.076600	0.412900
C4631	C463	0.718440	0.119310	0.458800
C4641	C464	0.813890	0.183360	0.378490
C4651	C465	0.724980	0.149980	0.433170
C4661	C466	0.766350	0.154700	0.419820
H2591	H259	0.791300	0.140300	0.428100
C4671	C467	0.770350	0.180890	0.394090
C4681	C468	0.734460	0.202200	0.382500
H2601	H260	0.737600	0.219900	0.365000
C4691	C469	0.692960	0.198200	0.396210
C4701	C470	0.688890	0.172710	0.421920
H2611	H261	0.661400	0.170700	0.431900
C4711	C471	0.542830	0.320260	0.176430
C4721	C472	0.383270	0.357050	0.176360
C4731	C473	0.499000	0.320770	0.192030
C4741	C474	0.463830	0.340410	0.178840
H2621	H262	0.467400	0.355800	0.160400
C4751	C475	0.422750	0.338100	0.192180
C4761	C476	0.417720	0.317200	0.219460
H2631	H263	0.389700	0.316200	0.228800
C4771	C477	0.452870	0.297700	0.233140
C4781	C478	0.494170	0.298700	0.219210
H2641	H264	0.518600	0.284400	0.228300
C4791	C479	0.247430	0.086220	0.379880
C4801	C480	0.310250	0.990920	0.460060
C4811	C481	0.286030	0.070640	0.397070
C4821	C482	0.280470	0.040950	0.420630
H2651	H265	0.251700	0.032000	0.426200
C4831	C483	0.316050	0.024580	0.435800
C4841	C484	0.358750	0.039600	0.428740
H2661	H266	0.383800	0.028100	0.438800
C4851	C485	0.363100	0.071800	0.406670
C4861	C486	0.327120	0.085600	0.389880
H2671	H267	0.331000	0.105300	0.373500
C4871	C487	0.616400	0.201100	0.382200
C4881	C488	0.475600	0.266500	0.282040
C4891	C489	0.416600	0.122400	0.384100
C4901	C490	0.543600	0.211000	0.359520
C4911	C491	0.523700	0.231900	0.335880
H2681	H268	0.539000	0.253500	0.324600
C4921	C492	0.481300	0.221200	0.328750
C4931	C493	0.458800	0.192500	0.345280
H2691	H269	0.428400	0.188400	0.341400
C4941	C494	0.478200	0.169300	0.367400
C4951	C495	0.521000	0.179900	0.376950
H2701	H270	0.533900	0.166800	0.394300
Cu311	Cu31	0.655940	0.597640	0.872120
Cu321	Cu32	0.708070	0.631000	0.830170
O2261	O226	0.180270	0.615030	0.968690
O2271	O227	0.252290	0.600610	0.969200
O2281	O228	0.345050	0.664740	0.891300
O2291	O229	0.315380	0.704370	0.853980
O2301	O230	0.072280	0.796420	0.687720
O2311	O231	0.046240	0.844820	0.653990
O2321	O232	0.890840	0.876120	0.652170
O2331	O233	0.846870	0.852140	0.689280
O2341	O234	0.754990	0.609660	0.856810
O2351	O235	0.710430	0.576410	0.889870
O2361	O236	0.771610	0.486140	0.969000
O2371	O237	0.843770	0.471740	0.969370
O2381	O238	0.107230	0.665500	0.894300
O2391	O239	0.014830	0.773930	0.779670
O2401	O240	0.891200	0.637200	0.864430
N911	N91	0.156640	0.718530	0.882240
H2711	H271	0.160700	0.743900	0.873100
N921	N92	0.086470	0.724300	0.867210
H2721	H272	0.094300	0.750800	0.861500
N931	N93	0.945080	0.776000	0.760820
H2731	H273	0.917900	0.768000	0.764600
N941	N94	0.958200	0.742800	0.805220
H2741	H274	0.929400	0.740800	0.805700
N951	N95	0.958400	0.635200	0.885330
H2751	H275	0.975500	0.621500	0.898300
N961	N96	0.906300	0.588900	0.902590
H2761	H276	0.927700	0.576600	0.912900
C4961	C496	0.218440	0.619310	0.958800
C4971	C497	0.313890	0.683360	0.878490
C4981	C498	0.224980	0.649980	0.933170
C4991	C499	0.266350	0.654700	0.919820
H2771	H277	0.291300	0.640300	0.928100
C5001	C500	0.270350	0.680890	0.894090
C5011	C501	0.234460	0.702200	0.882500
H2781	H278	0.237600	0.719900	0.865000
C5021	C502	0.192960	0.698200	0.896210
C5031	C503	0.188890	0.672710	0.921920
H2791	H279	0.161400	0.670700	0.931900
C5041	C504	0.042830	0.820260	0.676430
C5051	C505	0.883270	0.857050	0.676360
C5061	C506	0.999000	0.820770	0.692030
C5071	C507	0.963830	0.840410	0.678840
H2801	H280	0.967400	0.855800	0.660400
C5081	C508	0.922750	0.838100	0.692180
C5091	C509	0.917720	0.817200	0.719460
H2811	H281	0.889700	0.816200	0.728800
C5101	C510	0.952870	0.797700	0.733140
C5111	C511	0.994170	0.798700	0.719210
H2821	H282	0.018600	0.784400	0.728300
C5121	C512	0.747430	0.586220	0.879880
C5131	C513	0.810250	0.490920	0.960060
C5141	C514	0.786030	0.570640	0.897070
C5151	C515	0.780470	0.540950	0.920630
H2831	H283	0.751700	0.532000	0.926200
C5161	C516	0.816050	0.524580	0.935800
C5171	C517	0.858750	0.539600	0.928740
H2841	H284	0.883800	0.528100	0.938800
C5181	C518	0.863100	0.571800	0.906670
C5191	C519	0.827120	0.585600	0.889880
H2851	H285	0.831000	0.605300	0.873500
C5201	C520	0.116400	0.701100	0.882200
C5211	C521	0.975600	0.766500	0.782040
C5221	C522	0.916600	0.622400	0.884100
C5231	C523	0.043600	0.711000	0.859520
C5241	C524	0.023700	0.731900	0.835880
H2861	H286	0.039000	0.753500	0.824600
C5251	C525	0.981300	0.721200	0.828750
C5261	C526	0.958800	0.692500	0.845280
H2871	H287	0.928400	0.688400	0.841400
C5271	C527	0.978200	0.669300	0.867400
C5281	C528	0.021000	0.679900	0.876950
H2881	H288	0.033900	0.666800	0.894300
Cu331	Cu33	0.073840	0.338190	0.500000
Cu341	Cu34	0.055740	0.253090	0.500000
Cu351	Cu35	0.573840	0.838190	0.000000
Cu361	Cu36	0.555740	0.753090	0.000000
Cu371	Cu37	0.926160	0.661810	0.500000
Cu381	Cu38	0.944260	0.746910	0.500000
Cu391	Cu39	0.426160	0.161810	0.000000
Cu401	Cu40	0.444260	0.246910	0.000000
Cu411	Cu41	0.661810	0.073840	0.500000
Cu421	Cu42	0.746910	0.055740	0.500000
Cu431	Cu43	0.161810	0.573840	0.000000
Cu441	Cu44	0.246910	0.555740	0.000000
Cu451	Cu45	0.338190	0.926160	0.500000
Cu461	Cu46	0.253090	0.944260	0.500000
Cu471	Cu47	0.838190	0.426160	0.000000
Cu481	Cu48	0.753090	0.444260	0.000000
