data_ALIFUY_clean_PM
_symmetry_space_group_name_H-M	'P1'
_cell_length_a	11.986900
_cell_length_b	17.717000
_cell_length_c	12.641400
_cell_angle_alpha	90.000000
_cell_angle_beta	103.650000
_cell_angle_gamma	90.000000
_symmetry_Int_Tables_number 1

loop_
_symmetry_equiv_pos_as_xyz
'x,y,z'

loop_
_atom_site_label
_atom_site_type_symbol
_atom_site_fract_x
_atom_site_fract_y
_atom_site_fract_z
Cd11	Cd1	0.766250	0.435240	0.955780
O11	O1	0.643500	0.524200	0.736600
O21	O2	0.589100	0.436800	0.840200
O31	O3	0.225000	0.946950	0.516400
O41	O4	0.367200	0.950610	0.434100
N11	N1	0.305800	0.549000	0.564500
N21	N2	0.863500	0.362100	0.857900
N31	N3	0.174900	0.142200	0.557900
C11	C1	0.416500	0.539200	0.616700
H11	H1	0.474300	0.557500	0.585800
C21	C2	0.445000	0.502600	0.714900
C31	C3	0.358100	0.479500	0.763400
H21	H2	0.376000	0.455000	0.830300
C41	C4	0.244800	0.493200	0.711800
H31	H3	0.186100	0.480200	0.745000
C51	C5	0.220600	0.526100	0.611000
H41	H4	0.144500	0.532900	0.573900
C61	C6	0.571200	0.487800	0.766300
C71	C7	0.277200	0.586700	0.456900
H51	H5	0.199100	0.574200	0.419500
H61	H6	0.327900	0.568300	0.413100
C81	C8	0.289200	0.672400	0.468400
C91	C9	0.239800	0.711900	0.538700
H71	H7	0.202300	0.685900	0.584100
C101	C10	0.245100	0.789500	0.543200
H81	H8	0.210500	0.815500	0.590900
C111	C11	0.301300	0.828700	0.477200
C121	C12	0.350800	0.790200	0.406800
H91	H9	0.388300	0.816400	0.361600
C131	C13	0.345600	0.711200	0.402100
H101	H10	0.380100	0.685100	0.354500
C141	C14	0.297700	0.914200	0.476200
C151	C15	0.858500	0.286100	0.857500
H111	H11	0.811400	0.262700	0.896600
C161	C16	0.919400	0.241200	0.802500
H121	H12	0.913900	0.188900	0.805300
C171	C17	0.989400	0.275100	0.742600
C181	C18	0.993000	0.353000	0.742600
H131	H13	0.038600	0.377800	0.703400
C191	C19	0.930500	0.393900	0.799400
H141	H14	0.934600	0.446300	0.797400
C201	C20	0.068800	0.123900	0.566600
H151	H15	0.034300	0.081400	0.529600
C211	C21	0.008800	0.163900	0.626100
H161	H16	0.936400	0.147400	0.630700
C221	C22	0.054400	0.229200	0.680500
C231	C23	0.164300	0.248800	0.671300
H171	H17	0.199500	0.291900	0.705900
C241	C24	0.220800	0.204800	0.611200
H181	H18	0.294400	0.218900	0.607100
Cd21	Cd2	0.266250	0.064760	0.455780
O51	O5	0.143500	0.975800	0.236600
O61	O6	0.089100	0.063200	0.340200
O71	O7	0.725000	0.553050	0.016400
O81	O8	0.867200	0.549390	0.934100
N41	N4	0.805800	0.951000	0.064500
N51	N5	0.363500	0.137900	0.357900
N61	N6	0.674900	0.357800	0.057900
C251	C25	0.916500	0.960800	0.116700
H191	H19	0.974300	0.942500	0.085800
C261	C26	0.945000	0.997400	0.214900
C271	C27	0.858100	0.020500	0.263400
H201	H20	0.876000	0.045000	0.330300
C281	C28	0.744800	0.006800	0.211800
H211	H21	0.686100	0.019800	0.245000
C291	C29	0.720600	0.973900	0.111000
H221	H22	0.644500	0.967100	0.073900
C301	C30	0.071200	0.012200	0.266300
C311	C31	0.777200	0.913300	0.956900
H231	H23	0.699100	0.925800	0.919500
H241	H24	0.827900	0.931700	0.913100
C321	C32	0.789200	0.827600	0.968400
C331	C33	0.739800	0.788100	0.038700
H251	H25	0.702300	0.814100	0.084100
C341	C34	0.745100	0.710500	0.043200
H261	H26	0.710500	0.684500	0.090900
C351	C35	0.801300	0.671300	0.977200
C361	C36	0.850800	0.709800	0.906800
H271	H27	0.888300	0.683600	0.861600
C371	C37	0.845600	0.788800	0.902100
H281	H28	0.880100	0.814900	0.854500
C381	C38	0.797700	0.585800	0.976200
C391	C39	0.358500	0.213900	0.357500
H291	H29	0.311400	0.237300	0.396600
C401	C40	0.419400	0.258800	0.302500
H301	H30	0.413900	0.311100	0.305300
C411	C41	0.489400	0.224900	0.242600
C421	C42	0.493000	0.147000	0.242600
H311	H31	0.538600	0.122200	0.203400
C431	C43	0.430500	0.106100	0.299400
H321	H32	0.434600	0.053700	0.297400
C441	C44	0.568800	0.376100	0.066600
H331	H33	0.534300	0.418600	0.029600
C451	C45	0.508800	0.336100	0.126100
H341	H34	0.436400	0.352600	0.130700
C461	C46	0.554400	0.270800	0.180500
C471	C47	0.664300	0.251200	0.171300
H351	H35	0.699500	0.208100	0.205900
C481	C48	0.720800	0.295200	0.111200
H361	H36	0.794400	0.281100	0.107100
Cd31	Cd3	0.733750	0.935240	0.544220
O91	O9	0.856500	0.024200	0.763400
O101	O10	0.910900	0.936800	0.659800
O111	O11	0.275000	0.446950	0.983600
O121	O12	0.132800	0.450610	0.065900
N71	N7	0.194200	0.049000	0.935500
N81	N8	0.636500	0.862100	0.642100
N91	N9	0.325100	0.642200	0.942100
C491	C49	0.083500	0.039200	0.883300
H371	H37	0.025700	0.057500	0.914200
C501	C50	0.055000	0.002600	0.785100
C511	C51	0.141900	0.979500	0.736600
H381	H38	0.124000	0.955000	0.669700
C521	C52	0.255200	0.993200	0.788200
H391	H39	0.313900	0.980200	0.755000
C531	C53	0.279400	0.026100	0.889000
H401	H40	0.355500	0.032900	0.926100
C541	C54	0.928800	0.987800	0.733700
C551	C55	0.222800	0.086700	0.043100
H411	H41	0.300900	0.074200	0.080500
H421	H42	0.172100	0.068300	0.086900
C561	C56	0.210800	0.172400	0.031600
C571	C57	0.260200	0.211900	0.961300
H431	H43	0.297700	0.185900	0.915900
C581	C58	0.254900	0.289500	0.956800
H441	H44	0.289500	0.315500	0.909100
C591	C59	0.198700	0.328700	0.022800
C601	C60	0.149200	0.290200	0.093200
H451	H45	0.111700	0.316400	0.138400
C611	C61	0.154400	0.211200	0.097900
H461	H46	0.119900	0.185100	0.145500
C621	C62	0.202300	0.414200	0.023800
C631	C63	0.641500	0.786100	0.642500
H471	H47	0.688600	0.762700	0.603400
C641	C64	0.580600	0.741200	0.697500
H481	H48	0.586100	0.688900	0.694700
C651	C65	0.510600	0.775100	0.757400
C661	C66	0.507000	0.853000	0.757400
H491	H49	0.461400	0.877800	0.796600
C671	C67	0.569500	0.893900	0.700600
H501	H50	0.565400	0.946300	0.702600
C681	C68	0.431200	0.623900	0.933400
H511	H51	0.465700	0.581400	0.970400
C691	C69	0.491200	0.663900	0.873900
H521	H52	0.563600	0.647400	0.869300
C701	C70	0.445600	0.729200	0.819500
C711	C71	0.335700	0.748800	0.828700
H531	H53	0.300500	0.791900	0.794100
C721	C72	0.279200	0.704800	0.888800
H541	H54	0.205600	0.718900	0.892900
Cd41	Cd4	0.233750	0.564760	0.044220
O131	O13	0.356500	0.475800	0.263400
O141	O14	0.410900	0.563200	0.159800
O151	O15	0.775000	0.053050	0.483600
O161	O16	0.632800	0.049390	0.565900
N101	N10	0.694200	0.451000	0.435500
N111	N11	0.136500	0.637900	0.142100
N121	N12	0.825100	0.857800	0.442100
C731	C73	0.583500	0.460800	0.383300
H551	H55	0.525700	0.442500	0.414200
C741	C74	0.555000	0.497400	0.285100
C751	C75	0.641900	0.520500	0.236600
H561	H56	0.624000	0.545000	0.169700
C761	C76	0.755200	0.506800	0.288200
H571	H57	0.813900	0.519800	0.255000
C771	C77	0.779400	0.473900	0.389000
H581	H58	0.855500	0.467100	0.426100
C781	C78	0.428800	0.512200	0.233700
C791	C79	0.722800	0.413300	0.543100
H591	H59	0.800900	0.425800	0.580500
H601	H60	0.672100	0.431700	0.586900
C801	C80	0.710800	0.327600	0.531600
C811	C81	0.760200	0.288100	0.461300
H611	H61	0.797700	0.314100	0.415900
C821	C82	0.754900	0.210500	0.456800
H621	H62	0.789500	0.184500	0.409100
C831	C83	0.698700	0.171300	0.522800
C841	C84	0.649200	0.209800	0.593200
H631	H63	0.611700	0.183600	0.638400
C851	C85	0.654400	0.288800	0.597900
H641	H64	0.619900	0.314900	0.645500
C861	C86	0.702300	0.085800	0.523800
C871	C87	0.141500	0.713900	0.142500
H651	H65	0.188600	0.737300	0.103400
C881	C88	0.080600	0.758800	0.197500
H661	H66	0.086100	0.811100	0.194700
C891	C89	0.010600	0.724900	0.257400
C901	C90	0.007000	0.647000	0.257400
H671	H67	0.961400	0.622200	0.296600
C911	C91	0.069500	0.606100	0.200600
H681	H68	0.065400	0.553700	0.202600
C921	C92	0.931200	0.876100	0.433400
H691	H69	0.965700	0.918600	0.470400
C931	C93	0.991200	0.836100	0.373900
H701	H70	0.063600	0.852600	0.369300
C941	C94	0.945600	0.770800	0.319500
C951	C95	0.835700	0.751200	0.328700
H711	H71	0.800500	0.708100	0.294100
C961	C96	0.779200	0.795200	0.388800
H721	H72	0.705600	0.781100	0.392900
