data_ALIXOJ_clean_PM
_symmetry_space_group_name_H-M	'P1'
_cell_length_a	10.247000
_cell_length_b	15.250000
_cell_length_c	20.946000
_cell_angle_alpha	90.000000
_cell_angle_beta	99.910000
_cell_angle_gamma	90.000000
_symmetry_Int_Tables_number 1

loop_
_symmetry_equiv_pos_as_xyz
'x,y,z'

loop_
_atom_site_label
_atom_site_type_symbol
_atom_site_fract_x
_atom_site_fract_y
_atom_site_fract_z
Ni11	Ni1	0.746730	0.738190	0.668730
Ni21	Ni2	0.797050	0.857090	0.814260
Ni31	Ni3	0.253270	0.238190	0.831270
Ni41	Ni4	0.202950	0.357090	0.685740
Ni51	Ni5	0.253270	0.261810	0.331270
Ni61	Ni6	0.202950	0.142910	0.185740
Ni71	Ni7	0.746730	0.761810	0.168730
Ni81	Ni8	0.797050	0.642910	0.314260
H11	H1	0.470800	0.920100	0.574000
H21	H2	0.263400	0.138500	0.589700
H31	H3	0.528500	0.054400	0.741500
H41	H4	0.233800	0.065100	0.487200
H51	H5	0.337900	0.994400	0.475100
H61	H6	0.167400	0.905100	0.408100
H71	H7	0.919600	0.761600	0.496300
H81	H8	0.142800	0.950900	0.594200
H91	H9	0.978200	0.777700	0.298900
H101	H10	0.954000	0.819000	0.729000
H111	H11	0.529200	0.420100	0.926000
H121	H12	0.736600	0.638500	0.910300
H131	H13	0.471500	0.554400	0.758500
H141	H14	0.766200	0.565100	0.012800
H151	H15	0.662100	0.494400	0.024900
H161	H16	0.832600	0.405100	0.091900
H171	H17	0.080400	0.261600	0.003700
H181	H18	0.857200	0.450900	0.905800
H191	H19	0.021800	0.277700	0.201100
H201	H20	0.046000	0.319000	0.771000
H211	H21	0.529200	0.079900	0.426000
H221	H22	0.736600	0.861500	0.410300
H231	H23	0.471500	0.945600	0.258500
H241	H24	0.766200	0.934900	0.512800
H251	H25	0.662100	0.005600	0.524900
H261	H26	0.832600	0.094900	0.591900
H271	H27	0.080400	0.238400	0.503700
H281	H28	0.857200	0.049100	0.405800
H291	H29	0.021800	0.222300	0.701100
H301	H30	0.046000	0.181000	0.271000
H311	H31	0.470800	0.579900	0.074000
H321	H32	0.263400	0.361500	0.089700
H331	H33	0.528500	0.445600	0.241500
H341	H34	0.233800	0.434900	0.987200
H351	H35	0.337900	0.505600	0.975100
H361	H36	0.167400	0.594900	0.908100
H371	H37	0.919600	0.738400	0.996300
H381	H38	0.142800	0.549100	0.094200
H391	H39	0.978200	0.722300	0.798900
H401	H40	0.954000	0.681000	0.229000
C11	C1	0.517000	0.978300	0.662000
C21	C2	0.450400	0.967700	0.598300
C31	C3	0.354000	0.027200	0.570700
C41	C4	0.326300	0.097500	0.607800
C51	C5	0.390100	0.108300	0.671300
C61	C6	0.486000	0.047800	0.698800
C71	C7	0.276900	0.011000	0.503700
C81	C8	0.171300	0.938700	0.502400
C91	C9	0.131200	0.892100	0.444800
C101	C10	0.035400	0.825300	0.442800
C111	C11	0.981700	0.806400	0.497400
C121	C12	0.020800	0.854600	0.554600
C131	C13	0.115900	0.919600	0.556100
C141	C14	0.618100	0.911400	0.691200
C151	C15	0.988500	0.776000	0.381300
C161	C16	0.955700	0.834700	0.612200
C171	C17	0.351400	0.184300	0.710500
C181	C18	0.483000	0.478300	0.838000
C191	C19	0.549600	0.467700	0.901700
C201	C20	0.646000	0.527200	0.929300
C211	C21	0.673700	0.597500	0.892200
C221	C22	0.609900	0.608300	0.828700
C231	C23	0.514000	0.547800	0.801200
C241	C24	0.723100	0.511000	0.996300
C251	C25	0.828700	0.438700	0.997600
C261	C26	0.868800	0.392100	0.055200
C271	C27	0.964600	0.325300	0.057200
C281	C28	0.018300	0.306400	0.002600
C291	C29	0.979200	0.354600	0.945400
C301	C30	0.884100	0.419600	0.943900
C311	C31	0.381900	0.411400	0.808800
C321	C32	0.011500	0.276000	0.118700
C331	C33	0.044300	0.334700	0.887800
C341	C34	0.648600	0.684300	0.789500
C351	C35	0.483000	0.021700	0.338000
C361	C36	0.549600	0.032300	0.401700
C371	C37	0.646000	0.972800	0.429300
C381	C38	0.673700	0.902500	0.392200
C391	C39	0.609900	0.891700	0.328700
C401	C40	0.514000	0.952200	0.301200
C411	C41	0.723100	0.989000	0.496300
C421	C42	0.828700	0.061300	0.497600
C431	C43	0.868800	0.107900	0.555200
C441	C44	0.964600	0.174700	0.557200
C451	C45	0.018300	0.193600	0.502600
C461	C46	0.979200	0.145400	0.445400
C471	C47	0.884100	0.080400	0.443900
C481	C48	0.381900	0.088600	0.308800
C491	C49	0.011500	0.224000	0.618700
C501	C50	0.044300	0.165300	0.387800
C511	C51	0.648600	0.815700	0.289500
C521	C52	0.517000	0.521700	0.162000
C531	C53	0.450400	0.532300	0.098300
C541	C54	0.354000	0.472800	0.070700
C551	C55	0.326300	0.402500	0.107800
C561	C56	0.390100	0.391700	0.171300
C571	C57	0.486000	0.452200	0.198800
C581	C58	0.276900	0.489000	0.003700
C591	C59	0.171300	0.561300	0.002400
C601	C60	0.131200	0.607900	0.944800
C611	C61	0.035400	0.674700	0.942800
C621	C62	0.981700	0.693600	0.997400
C631	C63	0.020800	0.645400	0.054600
C641	C64	0.115900	0.580400	0.056100
C651	C65	0.618100	0.588600	0.191200
C661	C66	0.988500	0.724000	0.881300
C671	C67	0.955700	0.665300	0.112200
C681	C68	0.351400	0.315700	0.210500
O11	O1	0.670400	0.925200	0.749800
O21	O2	0.635600	0.847000	0.656900
O31	O3	0.008000	0.809900	0.329300
O41	O4	0.930600	0.704000	0.386300
O51	O5	0.857800	0.784900	0.603200
O61	O6	0.007700	0.869100	0.665600
O71	O7	0.320700	0.252800	0.679100
O81	O8	0.352600	0.172000	0.769900
O91	O9	0.881300	0.792300	0.744400
O101	O10	0.329600	0.425200	0.750200
O111	O11	0.364400	0.347000	0.843100
O121	O12	0.992000	0.309900	0.170700
O131	O13	0.069400	0.204000	0.113700
O141	O14	0.142200	0.284900	0.896800
O151	O15	0.992300	0.369100	0.834400
O161	O16	0.679300	0.752800	0.820900
O171	O17	0.647400	0.672000	0.730100
O181	O18	0.118700	0.292300	0.755600
O191	O19	0.329600	0.074800	0.250200
O201	O20	0.364400	0.153000	0.343100
O211	O21	0.992000	0.190100	0.670700
O221	O22	0.069400	0.296000	0.613700
O231	O23	0.142200	0.215100	0.396800
O241	O24	0.992300	0.130900	0.334400
O251	O25	0.679300	0.747200	0.320900
O261	O26	0.647400	0.828000	0.230100
O271	O27	0.118700	0.207700	0.255600
O281	O28	0.670400	0.574800	0.249800
O291	O29	0.635600	0.653000	0.156900
O301	O30	0.008000	0.690100	0.829300
O311	O31	0.930600	0.796000	0.886300
O321	O32	0.857800	0.715100	0.103200
O331	O33	0.007700	0.630900	0.165600
O341	O34	0.320700	0.247200	0.179100
O351	O35	0.352600	0.328000	0.269900
O361	O36	0.881300	0.707700	0.244400
