data_ALIXAU_clean_h_PM
_symmetry_space_group_name_H-M	'P1'
_cell_length_a	15.754000
_cell_length_b	15.754000
_cell_length_c	15.754000
_cell_angle_alpha	90.000000
_cell_angle_beta	90.000000
_cell_angle_gamma	90.000000
_symmetry_Int_Tables_number 1

loop_
_symmetry_equiv_pos_as_xyz
'x,y,z'

loop_
_atom_site_label
_atom_site_type_symbol
_atom_site_fract_x
_atom_site_fract_y
_atom_site_fract_z
Cu11	Cu1	0.500000	0.250000	0.750000
Cu21	Cu2	0.000000	0.250000	0.750000
Cu31	Cu3	0.750000	0.500000	0.250000
Cu41	Cu4	0.750000	0.000000	0.250000
Cu51	Cu5	0.250000	0.750000	0.500000
Cu61	Cu6	0.250000	0.750000	0.000000
Cu71	Cu7	0.500000	0.750000	0.250000
Cu81	Cu8	0.000000	0.750000	0.250000
Cu91	Cu9	0.250000	0.500000	0.750000
Cu101	Cu10	0.250000	0.000000	0.750000
Cu111	Cu11	0.750000	0.250000	0.500000
Cu121	Cu12	0.750000	0.250000	0.000000
C11	C1	0.600100	0.103900	0.794200
C21	C2	0.899900	0.396100	0.794200
C31	C3	0.899900	0.103900	0.705800
C41	C4	0.600100	0.396100	0.705800
C51	C5	0.794200	0.600100	0.103900
C61	C6	0.794200	0.899900	0.396100
C71	C7	0.705800	0.899900	0.103900
C81	C8	0.705800	0.600100	0.396100
C91	C9	0.103900	0.794200	0.600100
C101	C10	0.396100	0.794200	0.899900
C111	C11	0.103900	0.705800	0.899900
C121	C12	0.396100	0.705800	0.600100
C131	C13	0.603900	0.100100	0.205800
C141	C14	0.896100	0.399900	0.205800
C151	C15	0.603900	0.399900	0.294200
C161	C16	0.896100	0.100100	0.294200
C171	C17	0.100100	0.294200	0.896100
C181	C18	0.399900	0.294200	0.603900
C191	C19	0.399900	0.205800	0.896100
C201	C20	0.100100	0.205800	0.603900
C211	C21	0.294200	0.603900	0.399900
C221	C22	0.294200	0.896100	0.100100
C231	C23	0.205800	0.603900	0.100100
C241	C24	0.205800	0.896100	0.399900
C251	C25	0.399900	0.896100	0.205800
C261	C26	0.100100	0.603900	0.205800
C271	C27	0.100100	0.896100	0.294200
C281	C28	0.399900	0.603900	0.294200
C291	C29	0.205800	0.399900	0.896100
C301	C30	0.205800	0.100100	0.603900
C311	C31	0.294200	0.100100	0.896100
C321	C32	0.294200	0.399900	0.603900
C331	C33	0.896100	0.205800	0.399900
C341	C34	0.603900	0.205800	0.100100
C351	C35	0.896100	0.294200	0.100100
C361	C36	0.603900	0.294200	0.399900
C371	C37	0.396100	0.899900	0.794200
C381	C38	0.103900	0.600100	0.794200
C391	C39	0.396100	0.600100	0.705800
C401	C40	0.103900	0.899900	0.705800
C411	C41	0.899900	0.705800	0.103900
C421	C42	0.600100	0.705800	0.396100
C431	C43	0.600100	0.794200	0.103900
C441	C44	0.899900	0.794200	0.396100
C451	C45	0.705800	0.396100	0.600100
C461	C46	0.705800	0.103900	0.899900
C471	C47	0.794200	0.396100	0.899900
C481	C48	0.794200	0.103900	0.600100
C491	C49	0.631000	0.224900	0.869000
C501	C50	0.655600	0.054000	0.844400
C511	C51	0.869000	0.275100	0.869000
C521	C52	0.844400	0.446000	0.844400
C531	C53	0.869000	0.224900	0.631000
C541	C54	0.844400	0.054000	0.655600
C551	C55	0.631000	0.275100	0.631000
C561	C56	0.655600	0.446000	0.655600
C571	C57	0.869000	0.631000	0.224900
C581	C58	0.844400	0.655600	0.054000
C591	C59	0.869000	0.869000	0.275100
C601	C60	0.844400	0.844400	0.446000
C611	C61	0.631000	0.869000	0.224900
C621	C62	0.655600	0.844400	0.054000
C631	C63	0.631000	0.631000	0.275100
C641	C64	0.655600	0.655600	0.446000
C651	C65	0.224900	0.869000	0.631000
C661	C66	0.054000	0.844400	0.655600
C671	C67	0.275100	0.869000	0.869000
C681	C68	0.446000	0.844400	0.844400
C691	C69	0.224900	0.631000	0.869000
C701	C70	0.054000	0.655600	0.844400
C711	C71	0.275100	0.631000	0.631000
C721	C72	0.446000	0.655600	0.655600
C731	C73	0.724900	0.131000	0.131000
C741	C74	0.554000	0.155600	0.155600
C751	C75	0.775100	0.369000	0.131000
C761	C76	0.946000	0.344400	0.155600
C771	C77	0.724900	0.369000	0.369000
C781	C78	0.554000	0.344400	0.344400
C791	C79	0.775100	0.131000	0.369000
C801	C80	0.946000	0.155600	0.344400
C811	C81	0.131000	0.369000	0.775100
C821	C82	0.155600	0.344400	0.946000
C831	C83	0.369000	0.369000	0.724900
C841	C84	0.344400	0.344400	0.554000
C851	C85	0.369000	0.131000	0.775100
C861	C86	0.344400	0.155600	0.946000
C871	C87	0.131000	0.131000	0.724900
C881	C88	0.155600	0.155600	0.554000
C891	C89	0.369000	0.724900	0.369000
C901	C90	0.344400	0.554000	0.344400
C911	C91	0.369000	0.775100	0.131000
C921	C92	0.344400	0.946000	0.155600
C931	C93	0.131000	0.724900	0.131000
C941	C94	0.155600	0.554000	0.155600
C951	C95	0.131000	0.775100	0.369000
C961	C96	0.155600	0.946000	0.344400
N11	N1	0.583100	0.180800	0.810800
N21	N2	0.916900	0.319200	0.810800
N31	N3	0.916900	0.180800	0.689200
N41	N4	0.583100	0.319200	0.689200
N51	N5	0.810800	0.583100	0.180800
N61	N6	0.810800	0.916900	0.319200
N71	N7	0.689200	0.916900	0.180800
N81	N8	0.689200	0.583100	0.319200
N91	N9	0.180800	0.810800	0.583100
N101	N10	0.319200	0.810800	0.916900
N111	N11	0.180800	0.689200	0.916900
N121	N12	0.319200	0.689200	0.583100
N131	N13	0.680800	0.083100	0.189200
N141	N14	0.819200	0.416900	0.189200
N151	N15	0.680800	0.416900	0.310800
N161	N16	0.819200	0.083100	0.310800
N171	N17	0.083100	0.310800	0.819200
N181	N18	0.416900	0.310800	0.680800
N191	N19	0.416900	0.189200	0.819200
N201	N20	0.083100	0.189200	0.680800
N211	N21	0.310800	0.680800	0.416900
N221	N22	0.310800	0.819200	0.083100
N231	N23	0.189200	0.680800	0.083100
N241	N24	0.189200	0.819200	0.416900
N251	N25	0.416900	0.819200	0.189200
N261	N26	0.083100	0.680800	0.189200
N271	N27	0.083100	0.819200	0.310800
N281	N28	0.416900	0.680800	0.310800
N291	N29	0.189200	0.416900	0.819200
N301	N30	0.189200	0.083100	0.680800
N311	N31	0.310800	0.083100	0.819200
N321	N32	0.310800	0.416900	0.680800
N331	N33	0.819200	0.189200	0.416900
N341	N34	0.680800	0.189200	0.083100
N351	N35	0.819200	0.310800	0.083100
N361	N36	0.680800	0.310800	0.416900
N371	N37	0.319200	0.916900	0.810800
N381	N38	0.180800	0.583100	0.810800
N391	N39	0.319200	0.583100	0.689200
N401	N40	0.180800	0.916900	0.689200
N411	N41	0.916900	0.689200	0.180800
N421	N42	0.583100	0.689200	0.319200
N431	N43	0.583100	0.810800	0.180800
N441	N44	0.916900	0.810800	0.319200
N451	N45	0.689200	0.319200	0.583100
N461	N46	0.689200	0.180800	0.916900
N471	N47	0.810800	0.319200	0.916900
N481	N48	0.810800	0.180800	0.583100
O11	O1	0.550000	0.079000	0.731000
O21	O2	0.950000	0.421000	0.731000
O31	O3	0.950000	0.079000	0.769000
O41	O4	0.550000	0.421000	0.769000
O51	O5	0.731000	0.550000	0.079000
O61	O6	0.731000	0.950000	0.421000
O71	O7	0.769000	0.950000	0.079000
O81	O8	0.769000	0.550000	0.421000
O91	O9	0.079000	0.731000	0.550000
O101	O10	0.421000	0.731000	0.950000
O111	O11	0.079000	0.769000	0.950000
O121	O12	0.579000	0.050000	0.269000
O131	O13	0.921000	0.450000	0.269000
O141	O14	0.579000	0.450000	0.231000
O151	O15	0.921000	0.050000	0.231000
O161	O16	0.050000	0.231000	0.921000
O171	O17	0.450000	0.231000	0.579000
O181	O18	0.450000	0.269000	0.921000
O191	O19	0.050000	0.269000	0.579000
O201	O20	0.231000	0.579000	0.450000
O211	O21	0.231000	0.921000	0.050000
O221	O22	0.269000	0.579000	0.050000
O231	O23	0.269000	0.921000	0.450000
O241	O24	0.450000	0.921000	0.269000
O251	O25	0.050000	0.579000	0.269000
O261	O26	0.050000	0.921000	0.231000
O271	O27	0.450000	0.579000	0.231000
O281	O28	0.269000	0.450000	0.921000
O291	O29	0.269000	0.050000	0.579000
O301	O30	0.231000	0.050000	0.921000
O311	O31	0.231000	0.450000	0.579000
O321	O32	0.921000	0.269000	0.450000
O331	O33	0.579000	0.269000	0.050000
O341	O34	0.921000	0.231000	0.050000
O351	O35	0.579000	0.231000	0.450000
O361	O36	0.421000	0.950000	0.731000
O371	O37	0.079000	0.550000	0.731000
O381	O38	0.421000	0.550000	0.769000
O391	O39	0.079000	0.950000	0.769000
O401	O40	0.950000	0.769000	0.079000
O411	O41	0.550000	0.769000	0.421000
O421	O42	0.550000	0.731000	0.079000
O431	O43	0.950000	0.731000	0.421000
O441	O44	0.769000	0.421000	0.550000
O451	O45	0.769000	0.079000	0.950000
O461	O46	0.731000	0.079000	0.550000
H11	H1	0.424840	0.764160	0.568410
H21	H2	0.621960	0.296290	0.876640
H31	H3	0.656030	0.982000	0.837180
H41	H4	0.878040	0.203710	0.876640
H51	H5	0.843970	0.518000	0.837180
H61	H6	0.878040	0.296290	0.623360
H71	H7	0.837180	0.982000	0.656030
H81	H8	0.621960	0.203710	0.623360
H91	H9	0.656030	0.518000	0.662820
H101	H10	0.876640	0.621960	0.296290
H111	H11	0.837180	0.656030	0.982000
H121	H12	0.876640	0.878040	0.203710
H131	H13	0.843970	0.837180	0.518000
H141	H14	0.623360	0.878040	0.296290
H151	H15	0.656030	0.837180	0.982000
H161	H16	0.623360	0.621960	0.203710
H171	H17	0.662820	0.656030	0.518000
H181	H18	0.296290	0.876640	0.621960
H191	H19	0.982000	0.837180	0.656030
H201	H20	0.203710	0.876640	0.878040
H211	H21	0.518000	0.843970	0.837180
H221	H22	0.296290	0.623360	0.878040
H231	H23	0.982000	0.656030	0.837180
H241	H24	0.203710	0.623360	0.621960
H251	H25	0.518000	0.662820	0.656030
H261	H26	0.796290	0.121960	0.123360
H271	H27	0.482000	0.162820	0.156030
H281	H28	0.703710	0.378040	0.123360
H291	H29	0.018000	0.337180	0.156030
H301	H30	0.796290	0.378040	0.376640
H311	H31	0.482000	0.343970	0.337180
H321	H32	0.703710	0.121960	0.376640
H331	H33	0.018000	0.156030	0.337180
H341	H34	0.121960	0.376640	0.703710
H351	H35	0.156030	0.337180	0.018000
H361	H36	0.378040	0.376640	0.796290
H371	H37	0.343970	0.337180	0.482000
H381	H38	0.378040	0.123360	0.703710
H391	H39	0.337180	0.156030	0.018000
H401	H40	0.121960	0.123360	0.796290
H411	H41	0.162820	0.156030	0.482000
H421	H42	0.376640	0.796290	0.378040
H431	H43	0.343970	0.482000	0.337180
H441	H44	0.376640	0.703710	0.121960
H451	H45	0.337180	0.018000	0.156030
H461	H46	0.123360	0.796290	0.121960
H471	H47	0.162820	0.482000	0.156030
H481	H48	0.123360	0.703710	0.378040
H491	H49	0.156030	0.018000	0.337180
