data_ALOLIY_clean_PM
_symmetry_space_group_name_H-M	'P1'
_cell_length_a	23.113000
_cell_length_b	7.395400
_cell_length_c	29.657000
_cell_angle_alpha	90.000000
_cell_angle_beta	93.037000
_cell_angle_gamma	90.000000
_symmetry_Int_Tables_number 1

loop_
_symmetry_equiv_pos_as_xyz
'x,y,z'

loop_
_atom_site_label
_atom_site_type_symbol
_atom_site_fract_x
_atom_site_fract_y
_atom_site_fract_z
Mn11	Mn1	0.975770	0.536030	0.356710
C11	C1	0.086700	0.474500	0.310200
C21	C2	0.149500	0.423100	0.310930
C31	C3	0.178400	0.377900	0.351270
H11	H1	0.159100	0.384800	0.377900
C41	C4	0.235400	0.322900	0.352710
C51	C5	0.264600	0.317100	0.312410
H21	H2	0.303200	0.280800	0.313100
C61	C6	0.236800	0.364400	0.271820
C71	C7	0.178900	0.414600	0.271340
H31	H3	0.159400	0.443000	0.244000
C81	C8	0.268700	0.364000	0.229350
C91	C9	0.241700	0.310600	0.188410
H41	H4	0.203600	0.269800	0.187700
C101	C10	0.270900	0.317000	0.148320
C111	C11	0.328000	0.380100	0.149760
H51	H5	0.347800	0.386200	0.123300
C121	C12	0.355500	0.434000	0.190640
C131	C13	0.325300	0.423700	0.229560
H61	H6	0.343800	0.458100	0.256800
C141	C14	0.240800	0.260600	0.104710
C151	C15	0.415300	0.510500	0.191810
C161	C16	0.264500	0.269900	0.397070
O11	O1	0.057620	0.463700	0.272590
O21	O2	0.065970	0.520300	0.346890
O31	O3	0.231890	0.255200	0.429850
O41	O4	0.317960	0.247700	0.400000
O51	O5	0.438840	0.546200	0.230210
O61	O6	0.439350	0.542600	0.155510
O71	O7	0.271340	0.237400	0.070940
O81	O8	0.187210	0.235700	0.103300
O91	O9	0.971320	0.257100	0.322060
H71	H7	0.999700	0.206100	0.333900
H81	H8	0.943200	0.192600	0.326200
Mn21	Mn2	0.475770	0.036030	0.356710
C171	C17	0.586700	0.974500	0.310200
C181	C18	0.649500	0.923100	0.310930
C191	C19	0.678400	0.877900	0.351270
H91	H9	0.659100	0.884800	0.377900
C201	C20	0.735400	0.822900	0.352710
C211	C21	0.764600	0.817100	0.312410
H101	H10	0.803200	0.780800	0.313100
C221	C22	0.736800	0.864400	0.271820
C231	C23	0.678900	0.914600	0.271340
H111	H11	0.659400	0.943000	0.244000
C241	C24	0.768700	0.864000	0.229350
C251	C25	0.741700	0.810600	0.188410
H121	H12	0.703600	0.769800	0.187700
C261	C26	0.770900	0.817000	0.148320
C271	C27	0.828000	0.880100	0.149760
H131	H13	0.847800	0.886200	0.123300
C281	C28	0.855500	0.934000	0.190640
C291	C29	0.825300	0.923700	0.229560
H141	H14	0.843800	0.958100	0.256800
C301	C30	0.740800	0.760600	0.104710
C311	C31	0.915300	0.010500	0.191810
C321	C32	0.764500	0.769900	0.397070
O101	O10	0.557620	0.963700	0.272590
O111	O11	0.565970	0.020300	0.346890
O121	O12	0.731890	0.755200	0.429850
O131	O13	0.817960	0.747700	0.400000
O141	O14	0.938840	0.046200	0.230210
O151	O15	0.939350	0.042600	0.155510
O161	O16	0.771340	0.737400	0.070940
O171	O17	0.687210	0.735700	0.103300
O181	O18	0.471320	0.757100	0.322060
H151	H15	0.499700	0.706100	0.333900
H161	H16	0.443200	0.692600	0.326200
Mn31	Mn3	0.024230	0.536030	0.143290
C331	C33	0.913300	0.474500	0.189800
C341	C34	0.850500	0.423100	0.189070
C351	C35	0.821600	0.377900	0.148730
H171	H17	0.840900	0.384800	0.122100
C361	C36	0.764600	0.322900	0.147290
C371	C37	0.735400	0.317100	0.187590
H181	H18	0.696800	0.280800	0.186900
C381	C38	0.763200	0.364400	0.228180
C391	C39	0.821100	0.414600	0.228660
H191	H19	0.840600	0.443000	0.256000
C401	C40	0.731300	0.364000	0.270650
C411	C41	0.758300	0.310600	0.311590
H201	H20	0.796400	0.269800	0.312300
C421	C42	0.729100	0.317000	0.351680
C431	C43	0.672000	0.380100	0.350240
H211	H21	0.652200	0.386200	0.376700
C441	C44	0.644500	0.434000	0.309360
C451	C45	0.674700	0.423700	0.270440
H221	H22	0.656200	0.458100	0.243200
C461	C46	0.759200	0.260600	0.395290
C471	C47	0.584700	0.510500	0.308190
C481	C48	0.735500	0.269900	0.102930
O191	O19	0.942380	0.463700	0.227410
O201	O20	0.934030	0.520300	0.153110
O211	O21	0.768110	0.255200	0.070150
O221	O22	0.682040	0.247700	0.100000
O231	O23	0.561160	0.546200	0.269790
O241	O24	0.560650	0.542600	0.344490
O251	O25	0.728660	0.237400	0.429060
O261	O26	0.812790	0.235700	0.396700
O271	O27	0.028680	0.257100	0.177940
H231	H23	0.000300	0.206100	0.166100
H241	H24	0.056800	0.192600	0.173800
Mn41	Mn4	0.524230	0.036030	0.143290
C491	C49	0.413300	0.974500	0.189800
C501	C50	0.350500	0.923100	0.189070
C511	C51	0.321600	0.877900	0.148730
H251	H25	0.340900	0.884800	0.122100
C521	C52	0.264600	0.822900	0.147290
C531	C53	0.235400	0.817100	0.187590
H261	H26	0.196800	0.780800	0.186900
C541	C54	0.263200	0.864400	0.228180
C551	C55	0.321100	0.914600	0.228660
H271	H27	0.340600	0.943000	0.256000
C561	C56	0.231300	0.864000	0.270650
C571	C57	0.258300	0.810600	0.311590
H281	H28	0.296400	0.769800	0.312300
C581	C58	0.229100	0.817000	0.351680
C591	C59	0.172000	0.880100	0.350240
H291	H29	0.152200	0.886200	0.376700
C601	C60	0.144500	0.934000	0.309360
C611	C61	0.174700	0.923700	0.270440
H301	H30	0.156200	0.958100	0.243200
C621	C62	0.259200	0.760600	0.395290
C631	C63	0.084700	0.010500	0.308190
C641	C64	0.235500	0.769900	0.102930
O281	O28	0.442380	0.963700	0.227410
O291	O29	0.434030	0.020300	0.153110
O301	O30	0.268110	0.755200	0.070150
O311	O31	0.182040	0.747700	0.100000
O321	O32	0.061160	0.046200	0.269790
O331	O33	0.060650	0.042600	0.344490
O341	O34	0.228660	0.737400	0.429060
O351	O35	0.312790	0.735700	0.396700
O361	O36	0.528680	0.757100	0.177940
H311	H31	0.500300	0.706100	0.166100
H321	H32	0.556800	0.692600	0.173800
Mn51	Mn5	0.024230	0.463970	0.643290
C651	C65	0.913300	0.525500	0.689800
C661	C66	0.850500	0.576900	0.689070
C671	C67	0.821600	0.622100	0.648730
H331	H33	0.840900	0.615200	0.622100
C681	C68	0.764600	0.677100	0.647290
C691	C69	0.735400	0.682900	0.687590
H341	H34	0.696800	0.719200	0.686900
C701	C70	0.763200	0.635600	0.728180
C711	C71	0.821100	0.585400	0.728660
H351	H35	0.840600	0.557000	0.756000
C721	C72	0.731300	0.636000	0.770650
C731	C73	0.758300	0.689400	0.811590
H361	H36	0.796400	0.730200	0.812300
C741	C74	0.729100	0.683000	0.851680
C751	C75	0.672000	0.619900	0.850240
H371	H37	0.652200	0.613800	0.876700
C761	C76	0.644500	0.566000	0.809360
C771	C77	0.674700	0.576300	0.770440
H381	H38	0.656200	0.541900	0.743200
C781	C78	0.759200	0.739400	0.895290
C791	C79	0.584700	0.489500	0.808190
C801	C80	0.735500	0.730100	0.602930
O371	O37	0.942380	0.536300	0.727410
O381	O38	0.934030	0.479700	0.653110
O391	O39	0.768110	0.744800	0.570150
O401	O40	0.682040	0.752300	0.600000
O411	O41	0.561160	0.453800	0.769790
O421	O42	0.560650	0.457400	0.844490
O431	O43	0.728660	0.762600	0.929060
O441	O44	0.812790	0.764300	0.896700
O451	O45	0.028680	0.742900	0.677940
H391	H39	0.000300	0.793900	0.666100
H401	H40	0.056800	0.807400	0.673800
Mn61	Mn6	0.524230	0.963970	0.643290
C811	C81	0.413300	0.025500	0.689800
C821	C82	0.350500	0.076900	0.689070
C831	C83	0.321600	0.122100	0.648730
H411	H41	0.340900	0.115200	0.622100
C841	C84	0.264600	0.177100	0.647290
C851	C85	0.235400	0.182900	0.687590
H421	H42	0.196800	0.219200	0.686900
C861	C86	0.263200	0.135600	0.728180
C871	C87	0.321100	0.085400	0.728660
H431	H43	0.340600	0.057000	0.756000
C881	C88	0.231300	0.136000	0.770650
C891	C89	0.258300	0.189400	0.811590
H441	H44	0.296400	0.230200	0.812300
C901	C90	0.229100	0.183000	0.851680
C911	C91	0.172000	0.119900	0.850240
H451	H45	0.152200	0.113800	0.876700
C921	C92	0.144500	0.066000	0.809360
C931	C93	0.174700	0.076300	0.770440
H461	H46	0.156200	0.041900	0.743200
C941	C94	0.259200	0.239400	0.895290
C951	C95	0.084700	0.989500	0.808190
C961	C96	0.235500	0.230100	0.602930
O461	O46	0.442380	0.036300	0.727410
O471	O47	0.434030	0.979700	0.653110
O481	O48	0.268110	0.244800	0.570150
O491	O49	0.182040	0.252300	0.600000
O501	O50	0.061160	0.953800	0.769790
O511	O51	0.060650	0.957400	0.844490
O521	O52	0.228660	0.262600	0.929060
O531	O53	0.312790	0.264300	0.896700
O541	O54	0.528680	0.242900	0.677940
H471	H47	0.500300	0.293900	0.666100
H481	H48	0.556800	0.307400	0.673800
Mn71	Mn7	0.975770	0.463970	0.856710
C971	C97	0.086700	0.525500	0.810200
C981	C98	0.149500	0.576900	0.810930
C991	C99	0.178400	0.622100	0.851270
H491	H49	0.159100	0.615200	0.877900
C1001	C100	0.235400	0.677100	0.852710
C1011	C101	0.264600	0.682900	0.812410
H501	H50	0.303200	0.719200	0.813100
C1021	C102	0.236800	0.635600	0.771820
C1031	C103	0.178900	0.585400	0.771340
H511	H51	0.159400	0.557000	0.744000
C1041	C104	0.268700	0.636000	0.729350
C1051	C105	0.241700	0.689400	0.688410
H521	H52	0.203600	0.730200	0.687700
C1061	C106	0.270900	0.683000	0.648320
C1071	C107	0.328000	0.619900	0.649760
H531	H53	0.347800	0.613800	0.623300
C1081	C108	0.355500	0.566000	0.690640
C1091	C109	0.325300	0.576300	0.729560
H541	H54	0.343800	0.541900	0.756800
C1101	C110	0.240800	0.739400	0.604710
C1111	C111	0.415300	0.489500	0.691810
C1121	C112	0.264500	0.730100	0.897070
O551	O55	0.057620	0.536300	0.772590
O561	O56	0.065970	0.479700	0.846890
O571	O57	0.231890	0.744800	0.929850
O581	O58	0.317960	0.752300	0.900000
O591	O59	0.438840	0.453800	0.730210
O601	O60	0.439350	0.457400	0.655510
O611	O61	0.271340	0.762600	0.570940
O621	O62	0.187210	0.764300	0.603300
O631	O63	0.971320	0.742900	0.822060
H551	H55	0.999700	0.793900	0.833900
H561	H56	0.943200	0.807400	0.826200
Mn81	Mn8	0.475770	0.963970	0.856710
C1131	C113	0.586700	0.025500	0.810200
C1141	C114	0.649500	0.076900	0.810930
C1151	C115	0.678400	0.122100	0.851270
H571	H57	0.659100	0.115200	0.877900
C1161	C116	0.735400	0.177100	0.852710
C1171	C117	0.764600	0.182900	0.812410
H581	H58	0.803200	0.219200	0.813100
C1181	C118	0.736800	0.135600	0.771820
C1191	C119	0.678900	0.085400	0.771340
H591	H59	0.659400	0.057000	0.744000
C1201	C120	0.768700	0.136000	0.729350
C1211	C121	0.741700	0.189400	0.688410
H601	H60	0.703600	0.230200	0.687700
C1221	C122	0.770900	0.183000	0.648320
C1231	C123	0.828000	0.119900	0.649760
H611	H61	0.847800	0.113800	0.623300
C1241	C124	0.855500	0.066000	0.690640
C1251	C125	0.825300	0.076300	0.729560
H621	H62	0.843800	0.041900	0.756800
C1261	C126	0.740800	0.239400	0.604710
C1271	C127	0.915300	0.989500	0.691810
C1281	C128	0.764500	0.230100	0.897070
O641	O64	0.557620	0.036300	0.772590
O651	O65	0.565970	0.979700	0.846890
O661	O66	0.731890	0.244800	0.929850
O671	O67	0.817960	0.252300	0.900000
O681	O68	0.938840	0.953800	0.730210
O691	O69	0.939350	0.957400	0.655510
O701	O70	0.771340	0.262600	0.570940
O711	O71	0.687210	0.264300	0.603300
O721	O72	0.471320	0.242900	0.822060
H631	H63	0.499700	0.293900	0.833900
H641	H64	0.443200	0.307400	0.826200
Mn91	Mn9	0.000000	0.249790	0.250000
Mn101	Mn10	0.500000	0.749790	0.250000
Mn111	Mn11	0.000000	0.750210	0.750000
Mn121	Mn12	0.500000	0.250210	0.750000
Mn131	Mn13	0.250000	0.250000	0.500000
Mn141	Mn14	0.750000	0.250000	0.000000
Mn151	Mn15	0.750000	0.750000	0.500000
Mn161	Mn16	0.250000	0.750000	0.000000
