data_ALOLOD_charged_PM
_symmetry_space_group_name_H-M	'P1'
_cell_length_a	27.234000
_cell_length_b	27.234000
_cell_length_c	32.870600
_cell_angle_alpha	90.000000
_cell_angle_beta	90.000000
_cell_angle_gamma	120.000000
_symmetry_Int_Tables_number 1

loop_
_symmetry_equiv_pos_as_xyz
'x,y,z'

loop_
_atom_site_label
_atom_site_type_symbol
_atom_site_fract_x
_atom_site_fract_y
_atom_site_fract_z
In11	In1	0.126180	0.943490	0.550600
In21	In2	0.385840	0.846070	0.627700
In31	In3	0.483310	0.206810	0.627600
In41	In4	0.873820	0.817310	0.050600
In51	In5	0.614160	0.460230	0.127700
In61	In6	0.516690	0.723500	0.127600
H11	H1	0.214900	0.241800	0.588900
H21	H2	0.701300	0.119900	0.650700
H31	H3	0.087900	0.635400	0.591200
H41	H4	0.868200	0.808500	0.196500
H51	H5	0.907900	0.838400	0.260700
H61	H6	0.059500	0.944000	0.212100
H71	H7	0.019800	0.918200	0.147500
H81	H8	0.065200	0.942300	0.272100
H91	H9	0.958100	0.894200	0.315600
H101	H10	0.951900	0.898900	0.384900
H111	H11	0.994200	0.915300	0.447600
H121	H12	0.147200	0.956400	0.405700
H131	H13	0.108600	0.952000	0.340900
H141	H14	0.175500	0.143600	0.575100
H151	H15	0.290100	0.096400	0.598900
H161	H16	0.332800	0.258100	0.617300
H171	H17	0.639100	0.157700	0.653700
H181	H18	0.476800	0.039300	0.633900
H191	H19	0.590100	0.990600	0.651300
H201	H20	0.585400	0.333200	0.232700
H211	H21	0.572000	0.303100	0.300700
H221	H22	0.639700	0.463300	0.341800
H231	H23	0.636900	0.491800	0.274500
H241	H24	0.639300	0.404400	0.383500
H251	H25	0.548000	0.295400	0.373700
H261	H26	0.515000	0.230300	0.414600
H271	H27	0.488600	0.192500	0.478800
H281	H28	0.584300	0.343500	0.530200
H291	H29	0.604700	0.383300	0.466200
H301	H30	0.185400	0.697700	0.607300
H311	H31	0.237900	0.861100	0.575200
H321	H32	0.076200	0.739900	0.557400
H331	H33	0.522500	0.710200	0.273600
H341	H34	0.487100	0.713800	0.340500
H351	H35	0.389500	0.780500	0.285700
H361	H36	0.421300	0.773000	0.227300
H371	H37	0.408500	0.791000	0.363000
H381	H38	0.447600	0.722100	0.390000
H391	H39	0.451300	0.725000	0.466400
H401	H40	0.440400	0.749500	0.531700
H411	H41	0.377500	0.842200	0.482800
H421	H42	0.394800	0.821200	0.417900
H431	H43	0.785100	0.026900	0.088900
H441	H44	0.298700	0.418600	0.150700
H451	H45	0.912100	0.547500	0.091200
H461	H46	0.131800	0.940300	0.696500
H471	H47	0.092100	0.930500	0.760700
H481	H48	0.940500	0.884500	0.712100
H491	H49	0.980200	0.898400	0.647500
H501	H50	0.934800	0.877100	0.772100
H511	H51	0.041900	0.936100	0.815600
H521	H52	0.048100	0.947000	0.884900
H531	H53	0.005800	0.921100	0.947600
H541	H54	0.852800	0.809200	0.905700
H551	H55	0.891400	0.843400	0.840900
H561	H56	0.824500	0.968100	0.075100
H571	H57	0.709900	0.806300	0.098900
H581	H58	0.667200	0.925300	0.117300
H591	H59	0.360900	0.518600	0.153700
H601	H60	0.523200	0.562500	0.133900
H611	H61	0.409900	0.400500	0.151300
H621	H62	0.414600	0.747800	0.732700
H631	H63	0.428000	0.731100	0.800700
H641	H64	0.360300	0.823600	0.841800
H651	H65	0.363100	0.854900	0.774500
H661	H66	0.360700	0.765100	0.883500
H671	H67	0.452000	0.747400	0.873700
H681	H68	0.485000	0.715300	0.914600
H691	H69	0.511400	0.703900	0.978800
H701	H70	0.415700	0.759200	0.030200
H711	H71	0.395300	0.778600	0.966200
H721	H72	0.814600	0.512300	0.107300
H731	H73	0.762100	0.623200	0.075200
H741	H74	0.923800	0.663700	0.057400
H751	H75	0.477500	0.187700	0.773600
H761	H76	0.512900	0.226700	0.840500
H771	H77	0.610500	0.391000	0.785700
H781	H78	0.578700	0.351700	0.727300
H791	H79	0.591500	0.382500	0.863000
H801	H80	0.552400	0.274500	0.890000
H811	H81	0.548700	0.273700	0.966400
H821	H82	0.559600	0.309100	0.031700
H831	H83	0.622500	0.464700	0.982800
H841	H84	0.605200	0.426400	0.917900
C11	C1	0.911300	0.842400	0.125100
C21	C2	0.940500	0.861700	0.165800
C31	C3	0.905900	0.836700	0.199500
C41	C4	0.929800	0.855500	0.237700
C51	C5	0.985400	0.899000	0.242600
C61	C6	0.020800	0.919400	0.208900
C71	C7	0.997300	0.902300	0.170400
C81	C8	0.026100	0.922300	0.275500
C91	C9	0.997300	0.910200	0.315400
C101	C10	0.026000	0.921400	0.354300
C111	C11	0.990300	0.911200	0.387600
C121	C12	0.017000	0.920800	0.425100
C131	C13	0.071100	0.937000	0.433100
C141	C14	0.109800	0.947200	0.401700
C151	C15	0.084400	0.941500	0.363200
C161	C16	0.092800	0.936100	0.475600
C171	C17	0.250700	0.203300	0.601400
C181	C18	0.211700	0.151800	0.582800
C191	C19	0.232000	0.112700	0.576700
C201	C20	0.282100	0.125600	0.595700
C211	C21	0.320000	0.176500	0.610100
C221	C22	0.306500	0.220800	0.610900
C231	C23	0.376800	0.188400	0.620400
C241	C24	0.189300	0.050400	0.565600
C251	C25	0.621400	0.075400	0.652500
C261	C26	0.610800	0.120100	0.649900
C271	C27	0.555200	0.105100	0.641200
C281	C28	0.514400	0.048300	0.636600
C291	C29	0.526000	0.004100	0.635800
C301	C30	0.580700	0.018600	0.647200
C311	C31	0.480800	0.946300	0.631600
C321	C32	0.537700	0.149200	0.635100
C331	C33	0.620300	0.437800	0.206300
C341	C34	0.617200	0.416300	0.249100
C351	C35	0.594600	0.358400	0.254300
C361	C36	0.586900	0.341400	0.294800
C371	C37	0.600700	0.379400	0.326800
C381	C38	0.625500	0.437400	0.320400
C391	C39	0.628100	0.454900	0.280300
C401	C40	0.609000	0.374000	0.369800
C411	C41	0.572400	0.325200	0.390500
C421	C42	0.565000	0.311600	0.433500
C431	C43	0.528500	0.253500	0.437400
C441	C44	0.512900	0.231400	0.476400
C451	C45	0.530700	0.262800	0.512100
C461	C46	0.568500	0.320700	0.507400
C471	C47	0.582600	0.344200	0.468700
C481	C48	0.510300	0.234700	0.550900
C491	C49	0.123500	0.711300	0.580500
C501	C50	0.177800	0.725300	0.597700
C511	C51	0.219200	0.784400	0.599100
C521	C52	0.208200	0.824500	0.579500
C531	C53	0.152000	0.809400	0.566200
C541	C54	0.112500	0.751500	0.566900
C551	C55	0.141800	0.854900	0.555900
C561	C56	0.278300	0.803300	0.612000
C571	C57	0.491300	0.734600	0.202200
C581	C58	0.472400	0.736100	0.243200
C591	C59	0.495800	0.721700	0.277100
C601	C60	0.475000	0.725900	0.318200
C611	C61	0.438500	0.747500	0.324900
C621	C62	0.414400	0.766600	0.283500
C631	C63	0.432500	0.761100	0.250200
C641	C64	0.423700	0.767100	0.362300
C651	C65	0.434200	0.747400	0.391900
C661	C66	0.423500	0.768700	0.434600
C671	C67	0.437300	0.749700	0.469700
C681	C68	0.431800	0.764500	0.509200
C691	C69	0.412700	0.802900	0.513100
C701	C70	0.394900	0.820500	0.479300
C711	C71	0.403100	0.806000	0.440400
C721	C72	0.402600	0.820400	0.554800
C731	C73	0.088700	0.931100	0.625100
C741	C74	0.059500	0.921200	0.665800
C751	C75	0.094100	0.930800	0.699500
C761	C76	0.070200	0.925700	0.737700
C771	C77	0.014600	0.913600	0.742600
C781	C78	0.979200	0.898600	0.708900
C791	C79	0.002700	0.905000	0.670400
C801	C80	0.973900	0.896200	0.775500
C811	C81	0.002700	0.912900	0.815400
C821	C82	0.974000	0.895400	0.854300
C831	C83	0.009700	0.920900	0.887600
C841	C84	0.983000	0.903800	0.925100
C851	C85	0.928900	0.865900	0.933100
C861	C86	0.890200	0.837400	0.901700
C871	C87	0.915600	0.857100	0.863200
C881	C88	0.907200	0.843300	0.975600
C891	C89	0.749300	0.952600	0.101400
C901	C90	0.788300	0.940100	0.082800
C911	C91	0.768000	0.880700	0.076700
C921	C92	0.717900	0.843500	0.095700
C931	C93	0.680000	0.856500	0.110100
C941	C94	0.693500	0.914300	0.110900
C951	C95	0.623200	0.811600	0.120400
C961	C96	0.810700	0.861100	0.065600
C971	C97	0.378600	0.454000	0.152500
C981	C98	0.389200	0.509300	0.149900
C991	C99	0.444800	0.549900	0.141200
C1001	C100	0.485600	0.533900	0.136600
C1011	C101	0.474000	0.478100	0.135800
C1021	C102	0.419300	0.437900	0.147200
C1031	C103	0.519200	0.465500	0.131600
C1041	C104	0.462300	0.611500	0.135100
C1051	C105	0.379700	0.817500	0.706300
C1061	C106	0.382800	0.799100	0.749100
C1071	C107	0.405400	0.763800	0.754300
C1081	C108	0.413100	0.754500	0.794800
C1091	C109	0.399300	0.778700	0.826800
C1101	C110	0.374500	0.811900	0.820400
C1111	C111	0.371900	0.826800	0.780300
C1121	C112	0.391000	0.765000	0.869800
C1131	C113	0.427600	0.752800	0.890500
C1141	C114	0.435000	0.746600	0.933500
C1151	C115	0.471500	0.725000	0.937400
C1161	C116	0.487100	0.718500	0.976400
C1171	C117	0.469300	0.732100	0.012100
C1181	C118	0.431500	0.752200	0.007400
C1191	C119	0.417400	0.761600	0.968700
C1201	C120	0.489700	0.724400	0.050900
C1211	C121	0.876500	0.587800	0.080500
C1221	C122	0.822200	0.547500	0.097700
C1231	C123	0.780800	0.565200	0.099100
C1241	C124	0.791800	0.616300	0.079500
C1251	C125	0.848000	0.657400	0.066200
C1261	C126	0.887500	0.639000	0.066900
C1271	C127	0.858200	0.713100	0.055900
C1281	C128	0.721700	0.525000	0.112000
C1291	C129	0.508700	0.243300	0.702200
C1301	C130	0.527600	0.263700	0.743200
C1311	C131	0.504200	0.225900	0.777100
C1321	C132	0.525000	0.250900	0.818200
C1331	C133	0.561500	0.309000	0.824900
C1341	C134	0.585600	0.352200	0.783500
C1351	C135	0.567500	0.328600	0.750200
C1361	C136	0.576300	0.343400	0.862300
C1371	C137	0.565800	0.313200	0.891900
C1381	C138	0.576500	0.345200	0.934600
C1391	C139	0.562700	0.312400	0.969700
C1401	C140	0.568200	0.332700	0.009200
C1411	C141	0.587300	0.390200	0.013100
C1421	C142	0.605100	0.425600	0.979300
C1431	C143	0.596900	0.402900	0.940400
C1441	C144	0.597400	0.417800	0.054800
O11	O1	0.060800	0.927400	0.506700
O21	O2	0.944900	0.867600	0.093100
O31	O3	0.087000	0.842900	0.551700
O41	O4	0.180500	0.903000	0.551700
O51	O5	0.210400	0.020900	0.558000
O61	O6	0.139000	0.034000	0.560000
O71	O7	0.865200	0.808100	0.116900
O81	O8	0.142600	0.953600	0.479800
O91	O9	0.484300	0.129200	0.627700
O101	O10	0.387000	0.147400	0.624500
O111	O11	0.568400	0.199400	0.631800
O121	O12	0.418000	0.240300	0.626100
O131	O13	0.484400	0.195800	0.554500
O141	O14	0.409500	0.795900	0.583800
O151	O15	0.430700	0.938800	0.632600
O161	O16	0.309500	0.855000	0.618500
O171	O17	0.489000	0.907500	0.628500
O181	O18	0.531900	0.274900	0.583500
O191	O19	0.602000	0.396300	0.175500
O201	O20	0.469900	0.746400	0.171600
O211	O21	0.525200	0.725200	0.194300
O221	O22	0.627000	0.476900	0.191500
O231	O23	0.296200	0.768400	0.616000
O241	O24	0.396300	0.859200	0.557600
O251	O25	0.238800	0.245600	0.605700
O261	O26	0.679100	0.092200	0.664100
O271	O27	0.083200	0.655100	0.574600
O281	O28	0.939200	0.866600	0.006700
O291	O29	0.055100	0.922700	0.593100
O301	O30	0.913000	0.755900	0.051700
O311	O31	0.819500	0.722500	0.051700
O321	O32	0.789600	0.810500	0.058000
O331	O33	0.861000	0.895000	0.060000
O341	O34	0.134800	0.942900	0.616900
O351	O35	0.857400	0.811000	0.979800
O361	O36	0.515700	0.644900	0.127700
O371	O37	0.613000	0.760400	0.124500
O381	O38	0.431600	0.631000	0.131800
O391	O39	0.582000	0.822300	0.126100
O401	O40	0.515600	0.711400	0.054500
O411	O41	0.590500	0.386400	0.083800
O421	O42	0.569300	0.508100	0.132600
O431	O43	0.690500	0.545500	0.118500
O441	O44	0.511000	0.418500	0.128500
O451	O45	0.468100	0.743000	0.083500
O461	O46	0.398000	0.794300	0.675500
O471	O47	0.530100	0.276500	0.671600
O481	O48	0.474800	0.200000	0.694300
O491	O49	0.373000	0.849900	0.691500
O501	O50	0.703800	0.472200	0.116000
O511	O51	0.603700	0.462900	0.057600
O521	O52	0.761200	0.006800	0.105700
O531	O53	0.320900	0.413100	0.164100
O541	O54	0.916800	0.571900	0.074600
In71	In7	0.817310	0.873820	0.550600
In81	In8	0.460230	0.614160	0.627700
In91	In9	0.723500	0.516690	0.627600
In101	In10	0.943490	0.126180	0.050600
In111	In11	0.846070	0.385840	0.127700
In121	In12	0.206810	0.483310	0.127600
H851	H85	0.026900	0.785100	0.588900
H861	H86	0.418600	0.298700	0.650700
H871	H87	0.547500	0.912100	0.591200
H881	H88	0.940300	0.131800	0.196500
H891	H89	0.930500	0.092100	0.260700
H901	H90	0.884500	0.940500	0.212100
H911	H91	0.898400	0.980200	0.147500
H921	H92	0.877100	0.934800	0.272100
H931	H93	0.936100	0.041900	0.315600
H941	H94	0.947000	0.048100	0.384900
H951	H95	0.921100	0.005800	0.447600
H961	H96	0.809200	0.852800	0.405700
H971	H97	0.843400	0.891400	0.340900
H981	H98	0.968100	0.824500	0.575100
H991	H99	0.806300	0.709900	0.598900
H1001	H100	0.925300	0.667200	0.617300
H1011	H101	0.518600	0.360900	0.653700
H1021	H102	0.562500	0.523200	0.633900
H1031	H103	0.400500	0.409900	0.651300
H1041	H104	0.747800	0.414600	0.232700
H1051	H105	0.731100	0.428000	0.300700
H1061	H106	0.823600	0.360300	0.341800
H1071	H107	0.854900	0.363100	0.274500
H1081	H108	0.765100	0.360700	0.383500
H1091	H109	0.747400	0.452000	0.373700
H1101	H110	0.715300	0.485000	0.414600
H1111	H111	0.703900	0.511400	0.478800
H1121	H112	0.759200	0.415700	0.530200
H1131	H113	0.778600	0.395300	0.466200
H1141	H114	0.512300	0.814600	0.607300
H1151	H115	0.623200	0.762100	0.575200
H1161	H116	0.663700	0.923800	0.557400
H1171	H117	0.187700	0.477500	0.273600
H1181	H118	0.226700	0.512900	0.340500
H1191	H119	0.391000	0.610500	0.285700
H1201	H120	0.351700	0.578700	0.227300
H1211	H121	0.382500	0.591500	0.363000
H1221	H122	0.274500	0.552400	0.390000
H1231	H123	0.273700	0.548700	0.466400
H1241	H124	0.309100	0.559600	0.531700
H1251	H125	0.464700	0.622500	0.482800
H1261	H126	0.426400	0.605200	0.417900
H1271	H127	0.241800	0.214900	0.088900
H1281	H128	0.119900	0.701300	0.150700
H1291	H129	0.635400	0.087900	0.091200
H1301	H130	0.808500	0.868200	0.696500
H1311	H131	0.838400	0.907900	0.760700
H1321	H132	0.944000	0.059500	0.712100
H1331	H133	0.918200	0.019800	0.647500
H1341	H134	0.942300	0.065200	0.772100
H1351	H135	0.894200	0.958100	0.815600
H1361	H136	0.898900	0.951900	0.884900
H1371	H137	0.915300	0.994200	0.947600
H1381	H138	0.956400	0.147200	0.905700
H1391	H139	0.952000	0.108600	0.840900
H1401	H140	0.143600	0.175500	0.075100
H1411	H141	0.096400	0.290100	0.098900
H1421	H142	0.258100	0.332800	0.117300
H1431	H143	0.157700	0.639100	0.153700
H1441	H144	0.039300	0.476800	0.133900
H1451	H145	0.990600	0.590100	0.151300
H1461	H146	0.333200	0.585400	0.732700
H1471	H147	0.303100	0.572000	0.800700
H1481	H148	0.463300	0.639700	0.841800
H1491	H149	0.491800	0.636900	0.774500
H1501	H150	0.404400	0.639300	0.883500
H1511	H151	0.295400	0.548000	0.873700
H1521	H152	0.230300	0.515000	0.914600
H1531	H153	0.192500	0.488600	0.978800
H1541	H154	0.343500	0.584300	0.030200
H1551	H155	0.383300	0.604700	0.966200
H1561	H156	0.697700	0.185400	0.107300
H1571	H157	0.861100	0.237900	0.075200
H1581	H158	0.739900	0.076200	0.057400
H1591	H159	0.710200	0.522500	0.773600
H1601	H160	0.713800	0.487100	0.840500
H1611	H161	0.780500	0.389500	0.785700
H1621	H162	0.773000	0.421300	0.727300
H1631	H163	0.791000	0.408500	0.863000
H1641	H164	0.722100	0.447600	0.890000
H1651	H165	0.725000	0.451300	0.966400
H1661	H166	0.749500	0.440400	0.031700
H1671	H167	0.842200	0.377500	0.982800
H1681	H168	0.821200	0.394800	0.917900
C1451	C145	0.931100	0.088700	0.125100
C1461	C146	0.921200	0.059500	0.165800
C1471	C147	0.930800	0.094100	0.199500
C1481	C148	0.925700	0.070200	0.237700
C1491	C149	0.913600	0.014600	0.242600
C1501	C150	0.898600	0.979200	0.208900
C1511	C151	0.905000	0.002700	0.170400
C1521	C152	0.896200	0.973900	0.275500
C1531	C153	0.912900	0.002700	0.315400
C1541	C154	0.895400	0.974000	0.354300
C1551	C155	0.920900	0.009700	0.387600
C1561	C156	0.903800	0.983000	0.425100
C1571	C157	0.865900	0.928900	0.433100
C1581	C158	0.837400	0.890200	0.401700
C1591	C159	0.857100	0.915600	0.363200
C1601	C160	0.843300	0.907200	0.475600
C1611	C161	0.952600	0.749300	0.601400
C1621	C162	0.940100	0.788300	0.582800
C1631	C163	0.880700	0.768000	0.576700
C1641	C164	0.843500	0.717900	0.595700
C1651	C165	0.856500	0.680000	0.610100
C1661	C166	0.914300	0.693500	0.610900
C1671	C167	0.811600	0.623200	0.620400
C1681	C168	0.861100	0.810700	0.565600
C1691	C169	0.454000	0.378600	0.652500
C1701	C170	0.509300	0.389200	0.649900
C1711	C171	0.549900	0.444800	0.641200
C1721	C172	0.533900	0.485600	0.636600
C1731	C173	0.478100	0.474000	0.635800
C1741	C174	0.437900	0.419300	0.647200
C1751	C175	0.465500	0.519200	0.631600
C1761	C176	0.611500	0.462300	0.635100
C1771	C177	0.817500	0.379700	0.206300
C1781	C178	0.799100	0.382800	0.249100
C1791	C179	0.763800	0.405400	0.254300
C1801	C180	0.754500	0.413100	0.294800
C1811	C181	0.778700	0.399300	0.326800
C1821	C182	0.811900	0.374500	0.320400
C1831	C183	0.826800	0.371900	0.280300
C1841	C184	0.765000	0.391000	0.369800
C1851	C185	0.752800	0.427600	0.390500
C1861	C186	0.746600	0.435000	0.433500
C1871	C187	0.725000	0.471500	0.437400
C1881	C188	0.718500	0.487100	0.476400
C1891	C189	0.732100	0.469300	0.512100
C1901	C190	0.752200	0.431500	0.507400
C1911	C191	0.761600	0.417400	0.468700
C1921	C192	0.724400	0.489700	0.550900
C1931	C193	0.587800	0.876500	0.580500
C1941	C194	0.547500	0.822200	0.597700
C1951	C195	0.565200	0.780800	0.599100
C1961	C196	0.616300	0.791800	0.579500
C1971	C197	0.657400	0.848000	0.566200
C1981	C198	0.639000	0.887500	0.566900
C1991	C199	0.713100	0.858200	0.555900
C2001	C200	0.525000	0.721700	0.612000
C2011	C201	0.243300	0.508700	0.202200
C2021	C202	0.263700	0.527600	0.243200
C2031	C203	0.225900	0.504200	0.277100
C2041	C204	0.250900	0.525000	0.318200
C2051	C205	0.309000	0.561500	0.324900
C2061	C206	0.352200	0.585600	0.283500
C2071	C207	0.328600	0.567500	0.250200
C2081	C208	0.343400	0.576300	0.362300
C2091	C209	0.313200	0.565800	0.391900
C2101	C210	0.345200	0.576500	0.434600
C2111	C211	0.312400	0.562700	0.469700
C2121	C212	0.332700	0.568200	0.509200
C2131	C213	0.390200	0.587300	0.513100
C2141	C214	0.425600	0.605100	0.479300
C2151	C215	0.402900	0.596900	0.440400
C2161	C216	0.417800	0.597400	0.554800
C2171	C217	0.842400	0.911300	0.625100
C2181	C218	0.861700	0.940500	0.665800
C2191	C219	0.836700	0.905900	0.699500
C2201	C220	0.855500	0.929800	0.737700
C2211	C221	0.899000	0.985400	0.742600
C2221	C222	0.919400	0.020800	0.708900
C2231	C223	0.902300	0.997300	0.670400
C2241	C224	0.922300	0.026100	0.775500
C2251	C225	0.910200	0.997300	0.815400
C2261	C226	0.921400	0.026000	0.854300
C2271	C227	0.911200	0.990300	0.887600
C2281	C228	0.920800	0.017000	0.925100
C2291	C229	0.937000	0.071100	0.933100
C2301	C230	0.947200	0.109800	0.901700
C2311	C231	0.941500	0.084400	0.863200
C2321	C232	0.936100	0.092800	0.975600
C2331	C233	0.203300	0.250700	0.101400
C2341	C234	0.151800	0.211700	0.082800
C2351	C235	0.112700	0.232000	0.076700
C2361	C236	0.125600	0.282100	0.095700
C2371	C237	0.176500	0.320000	0.110100
C2381	C238	0.220800	0.306500	0.110900
C2391	C239	0.188400	0.376800	0.120400
C2401	C240	0.050400	0.189300	0.065600
C2411	C241	0.075400	0.621400	0.152500
C2421	C242	0.120100	0.610800	0.149900
C2431	C243	0.105100	0.555200	0.141200
C2441	C244	0.048300	0.514400	0.136600
C2451	C245	0.004100	0.526000	0.135800
C2461	C246	0.018600	0.580700	0.147200
C2471	C247	0.946300	0.480800	0.131600
C2481	C248	0.149200	0.537700	0.135100
C2491	C249	0.437800	0.620300	0.706300
C2501	C250	0.416300	0.617200	0.749100
C2511	C251	0.358400	0.594600	0.754300
C2521	C252	0.341400	0.586900	0.794800
C2531	C253	0.379400	0.600700	0.826800
C2541	C254	0.437400	0.625500	0.820400
C2551	C255	0.454900	0.628100	0.780300
C2561	C256	0.374000	0.609000	0.869800
C2571	C257	0.325200	0.572400	0.890500
C2581	C258	0.311600	0.565000	0.933500
C2591	C259	0.253500	0.528500	0.937400
C2601	C260	0.231400	0.512900	0.976400
C2611	C261	0.262800	0.530700	0.012100
C2621	C262	0.320700	0.568500	0.007400
C2631	C263	0.344200	0.582600	0.968700
C2641	C264	0.234700	0.510300	0.050900
C2651	C265	0.711300	0.123500	0.080500
C2661	C266	0.725300	0.177800	0.097700
C2671	C267	0.784400	0.219200	0.099100
C2681	C268	0.824500	0.208200	0.079500
C2691	C269	0.809400	0.152000	0.066200
C2701	C270	0.751500	0.112500	0.066900
C2711	C271	0.854900	0.141800	0.055900
C2721	C272	0.803300	0.278300	0.112000
C2731	C273	0.734600	0.491300	0.702200
C2741	C274	0.736100	0.472400	0.743200
C2751	C275	0.721700	0.495800	0.777100
C2761	C276	0.725900	0.475000	0.818200
C2771	C277	0.747500	0.438500	0.824900
C2781	C278	0.766600	0.414400	0.783500
C2791	C279	0.761100	0.432500	0.750200
C2801	C280	0.767100	0.423700	0.862300
C2811	C281	0.747400	0.434200	0.891900
C2821	C282	0.768700	0.423500	0.934600
C2831	C283	0.749700	0.437300	0.969700
C2841	C284	0.764500	0.431800	0.009200
C2851	C285	0.802900	0.412700	0.013100
C2861	C286	0.820500	0.394900	0.979300
C2871	C287	0.806000	0.403100	0.940400
C2881	C288	0.820400	0.402600	0.054800
O551	O55	0.866600	0.939200	0.506700
O561	O56	0.922700	0.055100	0.093100
O571	O57	0.755900	0.913000	0.551700
O581	O58	0.722500	0.819500	0.551700
O591	O59	0.810500	0.789600	0.558000
O601	O60	0.895000	0.861000	0.560000
O611	O61	0.942900	0.134800	0.116900
O621	O62	0.811000	0.857400	0.479800
O631	O63	0.644900	0.515700	0.627700
O641	O64	0.760400	0.613000	0.624500
O651	O65	0.631000	0.431600	0.631800
O661	O66	0.822300	0.582000	0.626100
O671	O67	0.711400	0.515600	0.554500
O681	O68	0.386400	0.590500	0.583800
O691	O69	0.508100	0.569300	0.632600
O701	O70	0.545500	0.690500	0.618500
O711	O71	0.418500	0.511000	0.628500
O721	O72	0.743000	0.468100	0.583500
O731	O73	0.794300	0.398000	0.175500
O741	O74	0.276500	0.530100	0.171600
O751	O75	0.200000	0.474800	0.194300
O761	O76	0.849900	0.373000	0.191500
O771	O77	0.472200	0.703800	0.616000
O781	O78	0.462900	0.603700	0.557600
O791	O79	0.006800	0.761200	0.605700
O801	O80	0.413100	0.320900	0.664100
O811	O81	0.571900	0.916800	0.574600
O821	O82	0.927400	0.060800	0.006700
O831	O83	0.867600	0.944900	0.593100
O841	O84	0.842900	0.087000	0.051700
O851	O85	0.903000	0.180500	0.051700
O861	O86	0.020900	0.210400	0.058000
O871	O87	0.034000	0.139000	0.060000
O881	O88	0.808100	0.865200	0.616900
O891	O89	0.953600	0.142600	0.979800
O901	O90	0.129200	0.484300	0.127700
O911	O91	0.147400	0.387000	0.124500
O921	O92	0.199400	0.568400	0.131800
O931	O93	0.240300	0.418000	0.126100
O941	O94	0.195800	0.484400	0.054500
O951	O95	0.795900	0.409500	0.083800
O961	O96	0.938800	0.430700	0.132600
O971	O97	0.855000	0.309500	0.118500
O981	O98	0.907500	0.489000	0.128500
O991	O99	0.274900	0.531900	0.083500
O1001	O100	0.396300	0.602000	0.675500
O1011	O101	0.746400	0.469900	0.671600
O1021	O102	0.725200	0.525200	0.694300
O1031	O103	0.476900	0.627000	0.691500
O1041	O104	0.768400	0.296200	0.116000
O1051	O105	0.859200	0.396300	0.057600
O1061	O106	0.245600	0.238800	0.105700
O1071	O107	0.092200	0.679100	0.164100
O1081	O108	0.655100	0.083200	0.074600
In131	In13	0.056510	0.182690	0.550600
In141	In14	0.153930	0.539770	0.627700
In151	In15	0.793190	0.276500	0.627600
In161	In16	0.182690	0.056510	0.050600
In171	In17	0.539770	0.153930	0.127700
In181	In18	0.276500	0.793190	0.127600
H1691	H169	0.758200	0.973100	0.588900
H1701	H170	0.880100	0.581400	0.650700
H1711	H171	0.364600	0.452500	0.591200
H1721	H172	0.191500	0.059700	0.196500
H1731	H173	0.161600	0.069500	0.260700
H1741	H174	0.056000	0.115500	0.212100
H1751	H175	0.081800	0.101600	0.147500
H1761	H176	0.057700	0.122900	0.272100
H1771	H177	0.105800	0.063900	0.315600
H1781	H178	0.101100	0.053000	0.384900
H1791	H179	0.084700	0.078900	0.447600
H1801	H180	0.043600	0.190800	0.405700
H1811	H181	0.048000	0.156600	0.340900
H1821	H182	0.856400	0.031900	0.575100
H1831	H183	0.903600	0.193700	0.598900
H1841	H184	0.741900	0.074700	0.617300
H1851	H185	0.842300	0.481400	0.653700
H1861	H186	0.960700	0.437500	0.633900
H1871	H187	0.009400	0.599500	0.651300
H1881	H188	0.666800	0.252200	0.232700
H1891	H189	0.696900	0.268900	0.300700
H1901	H190	0.536700	0.176400	0.341800
H1911	H191	0.508200	0.145100	0.274500
H1921	H192	0.595600	0.234900	0.383500
H1931	H193	0.704600	0.252600	0.373700
H1941	H194	0.769700	0.284700	0.414600
H1951	H195	0.807500	0.296100	0.478800
H1961	H196	0.656500	0.240800	0.530200
H1971	H197	0.616700	0.221400	0.466200
H1981	H198	0.302300	0.487700	0.607300
H1991	H199	0.138900	0.376800	0.575200
H2001	H200	0.260100	0.336300	0.557400
H2011	H201	0.289800	0.812300	0.273600
H2021	H202	0.286200	0.773300	0.340500
H2031	H203	0.219500	0.609000	0.285700
H2041	H204	0.227000	0.648300	0.227300
H2051	H205	0.209000	0.617500	0.363000
H2061	H206	0.277900	0.725500	0.390000
H2071	H207	0.275000	0.726300	0.466400
H2081	H208	0.250500	0.690900	0.531700
H2091	H209	0.157800	0.535300	0.482800
H2101	H210	0.178800	0.573600	0.417900
H2111	H211	0.973100	0.758200	0.088900
H2121	H212	0.581400	0.880100	0.150700
H2131	H213	0.452500	0.364600	0.091200
H2141	H214	0.059700	0.191500	0.696500
H2151	H215	0.069500	0.161600	0.760700
H2161	H216	0.115500	0.056000	0.712100
H2171	H217	0.101600	0.081800	0.647500
H2181	H218	0.122900	0.057700	0.772100
H2191	H219	0.063900	0.105800	0.815600
H2201	H220	0.053000	0.101100	0.884900
H2211	H221	0.078900	0.084700	0.947600
H2221	H222	0.190800	0.043600	0.905700
H2231	H223	0.156600	0.048000	0.840900
H2241	H224	0.031900	0.856400	0.075100
H2251	H225	0.193700	0.903600	0.098900
H2261	H226	0.074700	0.741900	0.117300
H2271	H227	0.481400	0.842300	0.153700
H2281	H228	0.437500	0.960700	0.133900
H2291	H229	0.599500	0.009400	0.151300
H2301	H230	0.252200	0.666800	0.732700
H2311	H231	0.268900	0.696900	0.800700
H2321	H232	0.176400	0.536700	0.841800
H2331	H233	0.145100	0.508200	0.774500
H2341	H234	0.234900	0.595600	0.883500
H2351	H235	0.252600	0.704600	0.873700
H2361	H236	0.284700	0.769700	0.914600
H2371	H237	0.296100	0.807500	0.978800
H2381	H238	0.240800	0.656500	0.030200
H2391	H239	0.221400	0.616700	0.966200
H2401	H240	0.487700	0.302300	0.107300
H2411	H241	0.376800	0.138900	0.075200
H2421	H242	0.336300	0.260100	0.057400
H2431	H243	0.812300	0.289800	0.773600
H2441	H244	0.773300	0.286200	0.840500
H2451	H245	0.609000	0.219500	0.785700
H2461	H246	0.648300	0.227000	0.727300
H2471	H247	0.617500	0.209000	0.863000
H2481	H248	0.725500	0.277900	0.890000
H2491	H249	0.726300	0.275000	0.966400
H2501	H250	0.690900	0.250500	0.031700
H2511	H251	0.535300	0.157800	0.982800
H2521	H252	0.573600	0.178800	0.917900
C2891	C289	0.157600	0.068900	0.125100
C2901	C290	0.138300	0.078800	0.165800
C2911	C291	0.163300	0.069200	0.199500
C2921	C292	0.144500	0.074300	0.237700
C2931	C293	0.101000	0.086400	0.242600
C2941	C294	0.080600	0.101400	0.208900
C2951	C295	0.097700	0.095000	0.170400
C2961	C296	0.077700	0.103800	0.275500
C2971	C297	0.089800	0.087100	0.315400
C2981	C298	0.078600	0.104600	0.354300
C2991	C299	0.088800	0.079100	0.387600
C3001	C300	0.079200	0.096200	0.425100
C3011	C301	0.063000	0.134100	0.433100
C3021	C302	0.052800	0.162600	0.401700
C3031	C303	0.058500	0.142900	0.363200
C3041	C304	0.063900	0.156700	0.475600
C3051	C305	0.796700	0.047400	0.601400
C3061	C306	0.848200	0.059900	0.582800
C3071	C307	0.887300	0.119300	0.576700
C3081	C308	0.874400	0.156500	0.595700
C3091	C309	0.823500	0.143500	0.610100
C3101	C310	0.779200	0.085700	0.610900
C3111	C311	0.811600	0.188400	0.620400
C3121	C312	0.949600	0.138900	0.565600
C3131	C313	0.924600	0.546000	0.652500
C3141	C314	0.879900	0.490700	0.649900
C3151	C315	0.894900	0.450100	0.641200
C3161	C316	0.951700	0.466100	0.636600
C3171	C317	0.995900	0.521900	0.635800
C3181	C318	0.981400	0.562100	0.647200
C3191	C319	0.053700	0.534500	0.631600
C3201	C320	0.850800	0.388500	0.635100
C3211	C321	0.562200	0.182500	0.206300
C3221	C322	0.583700	0.200900	0.249100
C3231	C323	0.641600	0.236200	0.254300
C3241	C324	0.658600	0.245500	0.294800
C3251	C325	0.620600	0.221300	0.326800
C3261	C326	0.562600	0.188100	0.320400
C3271	C327	0.545100	0.173200	0.280300
C3281	C328	0.626000	0.235000	0.369800
C3291	C329	0.674800	0.247200	0.390500
C3301	C330	0.688400	0.253400	0.433500
C3311	C331	0.746500	0.275000	0.437400
C3321	C332	0.768600	0.281500	0.476400
C3331	C333	0.737200	0.267900	0.512100
C3341	C334	0.679300	0.247800	0.507400
C3351	C335	0.655800	0.238400	0.468700
C3361	C336	0.765300	0.275600	0.550900
C3371	C337	0.288700	0.412200	0.580500
C3381	C338	0.274700	0.452500	0.597700
C3391	C339	0.215600	0.434800	0.599100
C3401	C340	0.175500	0.383700	0.579500
C3411	C341	0.190600	0.342600	0.566200
C3421	C342	0.248500	0.361000	0.566900
C3431	C343	0.145100	0.286900	0.555900
C3441	C344	0.196700	0.475000	0.612000
C3451	C345	0.265400	0.756700	0.202200
C3461	C346	0.263900	0.736300	0.243200
C3471	C347	0.278300	0.774100	0.277100
C3481	C348	0.274100	0.749100	0.318200
C3491	C349	0.252500	0.691000	0.324900
C3501	C350	0.233400	0.647800	0.283500
C3511	C351	0.238900	0.671400	0.250200
C3521	C352	0.232900	0.656600	0.362300
C3531	C353	0.252600	0.686800	0.391900
C3541	C354	0.231300	0.654800	0.434600
C3551	C355	0.250300	0.687600	0.469700
C3561	C356	0.235500	0.667300	0.509200
C3571	C357	0.197100	0.609800	0.513100
C3581	C358	0.179500	0.574400	0.479300
C3591	C359	0.194000	0.597100	0.440400
C3601	C360	0.179600	0.582200	0.554800
C3611	C361	0.068900	0.157600	0.625100
C3621	C362	0.078800	0.138300	0.665800
C3631	C363	0.069200	0.163300	0.699500
C3641	C364	0.074300	0.144500	0.737700
C3651	C365	0.086400	0.101000	0.742600
C3661	C366	0.101400	0.080600	0.708900
C3671	C367	0.095000	0.097700	0.670400
C3681	C368	0.103800	0.077700	0.775500
C3691	C369	0.087100	0.089800	0.815400
C3701	C370	0.104600	0.078600	0.854300
C3711	C371	0.079100	0.088800	0.887600
C3721	C372	0.096200	0.079200	0.925100
C3731	C373	0.134100	0.063000	0.933100
C3741	C374	0.162600	0.052800	0.901700
C3751	C375	0.142900	0.058500	0.863200
C3761	C376	0.156700	0.063900	0.975600
C3771	C377	0.047400	0.796700	0.101400
C3781	C378	0.059900	0.848200	0.082800
C3791	C379	0.119300	0.887300	0.076700
C3801	C380	0.156500	0.874400	0.095700
C3811	C381	0.143500	0.823500	0.110100
C3821	C382	0.085700	0.779200	0.110900
C3831	C383	0.188400	0.811600	0.120400
C3841	C384	0.138900	0.949600	0.065600
C3851	C385	0.546000	0.924600	0.152500
C3861	C386	0.490700	0.879900	0.149900
C3871	C387	0.450100	0.894900	0.141200
C3881	C388	0.466100	0.951700	0.136600
C3891	C389	0.521900	0.995900	0.135800
C3901	C390	0.562100	0.981400	0.147200
C3911	C391	0.534500	0.053700	0.131600
C3921	C392	0.388500	0.850800	0.135100
C3931	C393	0.182500	0.562200	0.706300
C3941	C394	0.200900	0.583700	0.749100
C3951	C395	0.236200	0.641600	0.754300
C3961	C396	0.245500	0.658600	0.794800
C3971	C397	0.221300	0.620600	0.826800
C3981	C398	0.188100	0.562600	0.820400
C3991	C399	0.173200	0.545100	0.780300
C4001	C400	0.235000	0.626000	0.869800
C4011	C401	0.247200	0.674800	0.890500
C4021	C402	0.253400	0.688400	0.933500
C4031	C403	0.275000	0.746500	0.937400
C4041	C404	0.281500	0.768600	0.976400
C4051	C405	0.267900	0.737200	0.012100
C4061	C406	0.247800	0.679300	0.007400
C4071	C407	0.238400	0.655800	0.968700
C4081	C408	0.275600	0.765300	0.050900
C4091	C409	0.412200	0.288700	0.080500
C4101	C410	0.452500	0.274700	0.097700
C4111	C411	0.434800	0.215600	0.099100
C4121	C412	0.383700	0.175500	0.079500
C4131	C413	0.342600	0.190600	0.066200
C4141	C414	0.361000	0.248500	0.066900
C4151	C415	0.286900	0.145100	0.055900
C4161	C416	0.475000	0.196700	0.112000
C4171	C417	0.756700	0.265400	0.702200
C4181	C418	0.736300	0.263900	0.743200
C4191	C419	0.774100	0.278300	0.777100
C4201	C420	0.749100	0.274100	0.818200
C4211	C421	0.691000	0.252500	0.824900
C4221	C422	0.647800	0.233400	0.783500
C4231	C423	0.671400	0.238900	0.750200
C4241	C424	0.656600	0.232900	0.862300
C4251	C425	0.686800	0.252600	0.891900
C4261	C426	0.654800	0.231300	0.934600
C4271	C427	0.687600	0.250300	0.969700
C4281	C428	0.667300	0.235500	0.009200
C4291	C429	0.609800	0.197100	0.013100
C4301	C430	0.574400	0.179500	0.979300
C4311	C431	0.597100	0.194000	0.940400
C4321	C432	0.582200	0.179600	0.054800
O1091	O109	0.072600	0.133400	0.506700
O1101	O110	0.132400	0.077300	0.093100
O1111	O111	0.157100	0.244100	0.551700
O1121	O112	0.097000	0.277500	0.551700
O1131	O113	0.979100	0.189500	0.558000
O1141	O114	0.966000	0.105000	0.560000
O1151	O115	0.191900	0.057100	0.116900
O1161	O116	0.046400	0.189000	0.479800
O1171	O117	0.870800	0.355100	0.627700
O1181	O118	0.852600	0.239600	0.624500
O1191	O119	0.800600	0.369000	0.631800
O1201	O120	0.759700	0.177700	0.626100
O1211	O121	0.804200	0.288600	0.554500
O1221	O122	0.204100	0.613600	0.583800
O1231	O123	0.061200	0.491900	0.632600
O1241	O124	0.145000	0.454500	0.618500
O1251	O125	0.092500	0.581500	0.628500
O1261	O126	0.725100	0.257000	0.583500
O1271	O127	0.603700	0.205700	0.175500
O1281	O128	0.253600	0.723500	0.171600
O1291	O129	0.274800	0.800000	0.194300
O1301	O130	0.523100	0.150100	0.191500
O1311	O131	0.231600	0.527800	0.616000
O1321	O132	0.140800	0.537100	0.557600
O1331	O133	0.754400	0.993200	0.605700
O1341	O134	0.907800	0.586900	0.664100
O1351	O135	0.344900	0.428100	0.574600
O1361	O136	0.133400	0.072600	0.006700
O1371	O137	0.077300	0.132400	0.593100
O1381	O138	0.244100	0.157100	0.051700
O1391	O139	0.277500	0.097000	0.051700
O1401	O140	0.189500	0.979100	0.058000
O1411	O141	0.105000	0.966000	0.060000
O1421	O142	0.057100	0.191900	0.616900
O1431	O143	0.189000	0.046400	0.979800
O1441	O144	0.355100	0.870800	0.127700
O1451	O145	0.239600	0.852600	0.124500
O1461	O146	0.369000	0.800600	0.131800
O1471	O147	0.177700	0.759700	0.126100
O1481	O148	0.288600	0.804200	0.054500
O1491	O149	0.613600	0.204100	0.083800
O1501	O150	0.491900	0.061200	0.132600
O1511	O151	0.454500	0.145000	0.118500
O1521	O152	0.581500	0.092500	0.128500
O1531	O153	0.257000	0.725100	0.083500
O1541	O154	0.205700	0.603700	0.675500
O1551	O155	0.723500	0.253600	0.671600
O1561	O156	0.800000	0.274800	0.694300
O1571	O157	0.150100	0.523100	0.691500
O1581	O158	0.527800	0.231600	0.116000
O1591	O159	0.537100	0.140800	0.057600
O1601	O160	0.993200	0.754400	0.105700
O1611	O161	0.586900	0.907800	0.164100
O1621	O162	0.428100	0.344900	0.074600
H2531	H253	0.192700	0.339600	0.675000
H2541	H254	0.168000	0.277700	0.658300
H2551	H255	0.229500	0.324700	0.646400
H2561	H256	0.252800	0.237600	0.706100
H2571	H257	0.258300	0.263900	0.662800
H2581	H258	0.198800	0.217400	0.678900
C4331	C433	0.202000	0.311000	0.667700
C4341	C434	0.235000	0.249700	0.686400
N11	N1	0.225000	0.295400	0.704900
H2591	H259	0.423700	0.270600	0.291900
H2601	H260	0.470400	0.254000	0.284600
H2611	H261	0.408000	0.213400	0.270200
H2621	H262	0.488500	0.264800	0.184500
H2631	H263	0.452600	0.211700	0.212100
H2641	H264	0.512200	0.259600	0.226700
C4351	C435	0.437000	0.252000	0.273600
C4361	C436	0.479000	0.252100	0.212000
N21	N2	0.450900	0.282400	0.232300
H2651	H265	0.631600	0.028500	0.508800
H2661	H266	0.605500	0.010600	0.552500
H2671	H267	0.667300	0.023000	0.544100
H2681	H268	0.687100	0.132700	0.605200
H2691	H269	0.709300	0.090700	0.595900
H2701	H270	0.645500	0.067100	0.607500
C4371	C437	0.640000	0.034000	0.537000
C4381	C438	0.677600	0.096800	0.593500
N31	N3	0.663000	0.096000	0.548500
H2711	H271	0.776500	0.769000	0.302600
H2721	H272	0.784600	0.718000	0.315300
H2731	H273	0.833700	0.770600	0.293100
H2741	H274	0.914100	0.834400	0.352600
H2751	H275	0.891200	0.775700	0.330900
H2761	H276	0.891800	0.778900	0.378500
C4391	C439	0.803000	0.758000	0.312200
C4401	C440	0.887000	0.795000	0.354000
N41	N4	0.827000	0.787000	0.353000
H2771	H277	0.439000	0.863800	0.300000
H2781	H278	0.479500	0.903600	0.334200
H2791	H279	0.457400	0.928300	0.300300
H2801	H280	0.383300	0.935500	0.381000
H2811	H281	0.420000	0.967300	0.342800
H2821	H282	0.447300	0.952000	0.379100
C4411	C441	0.448000	0.896000	0.317000
C4421	C442	0.413000	0.939000	0.363000
N51	N5	0.396000	0.882000	0.343000
H2831	H283	0.146900	0.807300	0.675000
H2841	H284	0.109700	0.832000	0.658300
H2851	H285	0.095200	0.770500	0.646400
H2861	H286	0.984800	0.747200	0.706100
H2871	H287	0.005600	0.741700	0.662800
H2881	H288	0.018600	0.801200	0.678900
C4431	C443	0.109000	0.798000	0.667700
C4441	C444	0.014700	0.765000	0.686400
N61	N6	0.070400	0.775000	0.704900
H2891	H289	0.846900	0.576300	0.291900
H2901	H290	0.783600	0.529600	0.284600
H2911	H291	0.805400	0.592000	0.270200
H2921	H292	0.776300	0.511500	0.184500
H2931	H293	0.759100	0.547400	0.212100
H2941	H294	0.747400	0.487800	0.226700
C4451	C445	0.815000	0.563000	0.273600
C4461	C446	0.773100	0.521000	0.212000
N71	N7	0.831500	0.549100	0.232300
H2951	H295	0.396900	0.368400	0.508800
H2961	H296	0.405100	0.394500	0.552500
H2971	H297	0.355700	0.332700	0.544100
H2981	H298	0.445600	0.312900	0.605200
H2991	H299	0.381400	0.290700	0.595900
H3001	H300	0.421600	0.354500	0.607500
C4471	C447	0.394000	0.360000	0.537000
C4481	C448	0.419200	0.322400	0.593500
N81	N8	0.433000	0.337000	0.548500
H3011	H301	0.992500	0.223500	0.302600
H3021	H302	0.933400	0.215400	0.315300
H3031	H303	0.936900	0.166300	0.293100
H3041	H304	0.920300	0.085900	0.352600
H3051	H305	0.884500	0.108800	0.330900
H3061	H306	0.887100	0.108200	0.378500
C4491	C449	0.955000	0.197000	0.312200
C4501	C450	0.908000	0.113000	0.354000
N91	N9	0.960000	0.173000	0.353000
H3071	H307	0.424800	0.561000	0.300000
H3081	H308	0.424100	0.520500	0.334200
H3091	H309	0.470900	0.542600	0.300300
H3101	H310	0.552200	0.616700	0.381000
H3111	H311	0.547300	0.580000	0.342800
H3121	H312	0.504700	0.552700	0.379100
C4511	C451	0.448000	0.552000	0.317000
C4521	C452	0.526000	0.587000	0.363000
N101	N10	0.486000	0.604000	0.343000
H3131	H313	0.660400	0.853100	0.675000
H3141	H314	0.722300	0.890300	0.658300
H3151	H315	0.675300	0.904800	0.646400
H3161	H316	0.762400	0.015200	0.706100
H3171	H317	0.736100	0.994400	0.662800
H3181	H318	0.782600	0.981400	0.678900
C4531	C453	0.689000	0.891000	0.667700
C4541	C454	0.750300	0.985300	0.686400
N111	N11	0.704600	0.929600	0.704900
H3191	H319	0.729400	0.153100	0.291900
H3201	H320	0.746000	0.216400	0.284600
H3211	H321	0.786600	0.194600	0.270200
H3221	H322	0.735200	0.223700	0.184500
H3231	H323	0.788300	0.240900	0.212100
H3241	H324	0.740400	0.252600	0.226700
C4551	C455	0.748000	0.185000	0.273600
C4561	C456	0.747900	0.226900	0.212000
N121	N12	0.717600	0.168500	0.232300
H3251	H325	0.971500	0.603100	0.508800
H3261	H326	0.989400	0.594900	0.552500
H3271	H327	0.977000	0.644300	0.544100
H3281	H328	0.867300	0.554400	0.605200
H3291	H329	0.909300	0.618600	0.595900
H3301	H330	0.932900	0.578400	0.607500
C4571	C457	0.966000	0.606000	0.537000
C4581	C458	0.903200	0.580800	0.593500
N131	N13	0.904000	0.567000	0.548500
H3311	H331	0.231000	0.007500	0.302600
H3321	H332	0.282000	0.066600	0.315300
H3331	H333	0.229400	0.063100	0.293100
H3341	H334	0.165600	0.079700	0.352600
H3351	H335	0.224300	0.115500	0.330900
H3361	H336	0.221100	0.112900	0.378500
C4591	C459	0.242000	0.045000	0.312200
C4601	C460	0.205000	0.092000	0.354000
N141	N14	0.213000	0.040000	0.353000
H3371	H337	0.136200	0.575200	0.300000
H3381	H338	0.096400	0.575900	0.334200
H3391	H339	0.071700	0.529100	0.300300
H3401	H340	0.064500	0.447800	0.381000
H3411	H341	0.032700	0.452700	0.342800
H3421	H342	0.048000	0.495300	0.379100
C4611	C461	0.104000	0.552000	0.317000
C4621	C462	0.061000	0.474000	0.363000
N151	N15	0.118000	0.514000	0.343000
H3431	H343	0.853100	0.660400	0.175000
H3441	H344	0.890300	0.722300	0.158300
H3451	H345	0.904800	0.675300	0.146400
H3461	H346	0.015200	0.762400	0.206100
H3471	H347	0.994400	0.736100	0.162800
H3481	H348	0.981400	0.782600	0.178900
C4631	C463	0.891000	0.689000	0.167700
C4641	C464	0.985300	0.750300	0.186400
N161	N16	0.929600	0.704600	0.204900
H3491	H349	0.153100	0.729400	0.791900
H3501	H350	0.216400	0.746000	0.784600
H3511	H351	0.194600	0.786600	0.770200
H3521	H352	0.223700	0.735200	0.684500
H3531	H353	0.240900	0.788300	0.712100
H3541	H354	0.252600	0.740400	0.726700
C4651	C465	0.185000	0.748000	0.773600
C4661	C466	0.226900	0.747900	0.712000
N171	N17	0.168500	0.717600	0.732300
H3551	H355	0.603100	0.971500	0.008800
H3561	H356	0.594900	0.989400	0.052500
H3571	H357	0.644300	0.977000	0.044100
H3581	H358	0.554400	0.867300	0.105200
H3591	H359	0.618600	0.909300	0.095900
H3601	H360	0.578400	0.932900	0.107500
C4671	C467	0.606000	0.966000	0.037000
C4681	C468	0.580800	0.903200	0.093500
N181	N18	0.567000	0.904000	0.048500
H3611	H361	0.007500	0.231000	0.802600
H3621	H362	0.066600	0.282000	0.815300
H3631	H363	0.063100	0.229400	0.793100
H3641	H364	0.079700	0.165600	0.852600
H3651	H365	0.115500	0.224300	0.830900
H3661	H366	0.112900	0.221100	0.878500
C4691	C469	0.045000	0.242000	0.812200
C4701	C470	0.092000	0.205000	0.854000
N191	N19	0.040000	0.213000	0.853000
H3671	H367	0.575200	0.136200	0.800000
H3681	H368	0.575900	0.096400	0.834200
H3691	H369	0.529100	0.071700	0.800300
H3701	H370	0.447800	0.064500	0.881000
H3711	H371	0.452700	0.032700	0.842800
H3721	H372	0.495300	0.048000	0.879100
C4711	C471	0.552000	0.104000	0.817000
C4721	C472	0.474000	0.061000	0.863000
N201	N20	0.514000	0.118000	0.843000
H3731	H373	0.339600	0.192700	0.175000
H3741	H374	0.277700	0.168000	0.158300
H3751	H375	0.324700	0.229500	0.146400
H3761	H376	0.237600	0.252800	0.206100
H3771	H377	0.263900	0.258300	0.162800
H3781	H378	0.217400	0.198800	0.178900
C4731	C473	0.311000	0.202000	0.167700
C4741	C474	0.249700	0.235000	0.186400
N211	N21	0.295400	0.225000	0.204900
H3791	H379	0.270600	0.423700	0.791900
H3801	H380	0.254000	0.470400	0.784600
H3811	H381	0.213400	0.408000	0.770200
H3821	H382	0.264800	0.488500	0.684500
H3831	H383	0.211700	0.452600	0.712100
H3841	H384	0.259600	0.512200	0.726700
C4751	C475	0.252000	0.437000	0.773600
C4761	C476	0.252100	0.479000	0.712000
N221	N22	0.282400	0.450900	0.732300
H3851	H385	0.028500	0.631600	0.008800
H3861	H386	0.010600	0.605500	0.052500
H3871	H387	0.023000	0.667300	0.044100
H3881	H388	0.132700	0.687100	0.105200
H3891	H389	0.090700	0.709300	0.095900
H3901	H390	0.067100	0.645500	0.107500
C4771	C477	0.034000	0.640000	0.037000
C4781	C478	0.096800	0.677600	0.093500
N231	N23	0.096000	0.663000	0.048500
H3911	H391	0.769000	0.776500	0.802600
H3921	H392	0.718000	0.784600	0.815300
H3931	H393	0.770600	0.833700	0.793100
H3941	H394	0.834400	0.914100	0.852600
H3951	H395	0.775700	0.891200	0.830900
H3961	H396	0.778900	0.891800	0.878500
C4791	C479	0.758000	0.803000	0.812200
C4801	C480	0.795000	0.887000	0.854000
N241	N24	0.787000	0.827000	0.853000
H3971	H397	0.863800	0.439000	0.800000
H3981	H398	0.903600	0.479500	0.834200
H3991	H399	0.928300	0.457400	0.800300
H4001	H400	0.935500	0.383300	0.881000
H4011	H401	0.967300	0.420000	0.842800
H4021	H402	0.952000	0.447300	0.879100
C4811	C481	0.896000	0.448000	0.817000
C4821	C482	0.939000	0.413000	0.863000
N251	N25	0.882000	0.396000	0.843000
H4031	H403	0.807300	0.146900	0.175000
H4041	H404	0.832000	0.109700	0.158300
H4051	H405	0.770500	0.095200	0.146400
H4061	H406	0.747200	0.984800	0.206100
H4071	H407	0.741700	0.005600	0.162800
H4081	H408	0.801200	0.018600	0.178900
C4831	C483	0.798000	0.109000	0.167700
C4841	C484	0.765000	0.014700	0.186400
N261	N26	0.775000	0.070400	0.204900
H4091	H409	0.576300	0.846900	0.791900
H4101	H410	0.529600	0.783600	0.784600
H4111	H411	0.592000	0.805400	0.770200
H4121	H412	0.511500	0.776300	0.684500
H4131	H413	0.547400	0.759100	0.712100
H4141	H414	0.487800	0.747400	0.726700
C4851	C485	0.563000	0.815000	0.773600
C4861	C486	0.521000	0.773100	0.712000
N271	N27	0.549100	0.831500	0.732300
H4151	H415	0.368400	0.396900	0.008800
H4161	H416	0.394500	0.405100	0.052500
H4171	H417	0.332700	0.355700	0.044100
H4181	H418	0.312900	0.445600	0.105200
H4191	H419	0.290700	0.381400	0.095900
H4201	H420	0.354500	0.421600	0.107500
C4871	C487	0.360000	0.394000	0.037000
C4881	C488	0.322400	0.419200	0.093500
N281	N28	0.337000	0.433000	0.048500
H4211	H421	0.223500	0.992500	0.802600
H4221	H422	0.215400	0.933400	0.815300
H4231	H423	0.166300	0.936900	0.793100
H4241	H424	0.085900	0.920300	0.852600
H4251	H425	0.108800	0.884500	0.830900
H4261	H426	0.108200	0.887100	0.878500
C4891	C489	0.197000	0.955000	0.812200
C4901	C490	0.113000	0.908000	0.854000
N291	N29	0.173000	0.960000	0.853000
H4271	H427	0.561000	0.424800	0.800000
H4281	H428	0.520500	0.424100	0.834200
H4291	H429	0.542600	0.470900	0.800300
H4301	H430	0.616700	0.552200	0.881000
H4311	H431	0.580000	0.547300	0.842800
H4321	H432	0.552700	0.504700	0.879100
C4911	C491	0.552000	0.448000	0.817000
C4921	C492	0.587000	0.526000	0.863000
N301	N30	0.604000	0.486000	0.843000
