data_ALUJEX_clean_PM
_symmetry_space_group_name_H-M	'P1'
_cell_length_a	11.106800
_cell_length_b	17.772700
_cell_length_c	29.228000
_cell_angle_alpha	86.624000
_cell_angle_beta	79.689000
_cell_angle_gamma	73.275000
_symmetry_Int_Tables_number 1

loop_
_symmetry_equiv_pos_as_xyz
'x,y,z'

loop_
_atom_site_label
_atom_site_type_symbol
_atom_site_fract_x
_atom_site_fract_y
_atom_site_fract_z
La11	La1	0.244230	0.289040	0.620530
La21	La2	0.560550	0.390150	0.964870
La31	La3	0.116080	0.504700	0.690720
La41	La4	0.546280	0.110150	0.964150
La51	La5	0.107550	0.794700	0.710500
La61	La6	0.198430	0.013720	0.643350
La71	La7	0.755770	0.710960	0.379470
La81	La8	0.439450	0.609850	0.035130
La91	La9	0.883920	0.495300	0.309280
La101	La10	0.453720	0.889850	0.035850
La111	La11	0.892450	0.205300	0.289500
La121	La12	0.801570	0.986280	0.356650
H11	H1	0.989700	0.263700	0.950300
H21	H2	0.184300	0.208300	0.973900
H31	H3	0.050100	0.037700	0.040000
H41	H4	0.855800	0.092900	0.015900
H51	H5	0.498100	0.004100	0.694900
H61	H6	0.682800	0.946000	0.722500
H71	H7	0.855900	0.086300	0.642100
H81	H8	0.671100	0.145200	0.614200
H91	H9	0.690500	0.622900	0.706200
H101	H10	0.491000	0.680600	0.687200
H111	H11	0.596000	0.873700	0.644700
H121	H12	0.793300	0.817600	0.666800
H131	H13	0.254200	0.842300	0.829400
H141	H14	0.310200	0.860500	0.899800
H151	H15	0.410700	0.051300	0.847600
H161	H16	0.349200	0.035000	0.778600
H171	H17	0.038000	0.234300	0.421500
H181	H18	0.095100	0.255600	0.491000
H191	H19	0.966500	0.077500	0.549200
H201	H20	0.908500	0.057500	0.480800
H211	H21	0.618800	0.283300	0.642700
H221	H22	0.824100	0.266600	0.656000
H231	H23	0.743900	0.498300	0.671900
H241	H24	0.539000	0.513800	0.659800
H251	H25	0.599500	0.297800	0.130600
H261	H26	0.685200	0.501700	0.104300
H271	H27	0.651200	0.293200	0.203300
H281	H28	0.748500	0.493700	0.176200
H291	H29	0.426700	0.382400	0.834200
H301	H30	0.367800	0.392100	0.761900
H311	H31	0.259300	0.194400	0.789300
H321	H32	0.308900	0.190700	0.863000
H331	H33	0.029000	0.607900	0.531400
H341	H34	0.971600	0.616900	0.459000
H351	H35	0.056200	0.608500	0.016600
H361	H36	0.852800	0.621800	0.004700
H371	H37	0.023000	0.144400	0.694700
H381	H38	0.125800	0.123500	0.718300
H391	H39	0.411500	0.294200	0.012000
H401	H40	0.488700	0.237000	0.035900
H411	H41	0.010300	0.736300	0.049700
H421	H42	0.815700	0.791700	0.026100
H431	H43	0.949900	0.962300	0.960000
H441	H44	0.144200	0.907100	0.984100
H451	H45	0.501900	0.995900	0.305100
H461	H46	0.317200	0.054000	0.277500
H471	H47	0.144100	0.913700	0.357900
H481	H48	0.328900	0.854800	0.385800
H491	H49	0.309500	0.377100	0.293800
H501	H50	0.509000	0.319400	0.312800
H511	H51	0.404000	0.126300	0.355300
H521	H52	0.206700	0.182400	0.333200
H531	H53	0.745800	0.157700	0.170600
H541	H54	0.689800	0.139500	0.100200
H551	H55	0.589300	0.948700	0.152400
H561	H56	0.650800	0.965000	0.221400
H571	H57	0.962000	0.765700	0.578500
H581	H58	0.904900	0.744400	0.509000
H591	H59	0.033500	0.922500	0.450800
H601	H60	0.091500	0.942500	0.519200
H611	H61	0.381200	0.716700	0.357300
H621	H62	0.175900	0.733400	0.344000
H631	H63	0.256100	0.501700	0.328100
H641	H64	0.461000	0.486200	0.340200
H651	H65	0.400500	0.702200	0.869400
H661	H66	0.314800	0.498300	0.895700
H671	H67	0.348800	0.706800	0.796700
H681	H68	0.251500	0.506300	0.823800
H691	H69	0.573300	0.617600	0.165800
H701	H70	0.632200	0.607900	0.238100
H711	H71	0.740700	0.805600	0.210700
H721	H72	0.691100	0.809300	0.137000
H731	H73	0.971000	0.392100	0.468600
H741	H74	0.028400	0.383100	0.541000
H751	H75	0.943800	0.391500	0.983400
H761	H76	0.147200	0.378200	0.995300
H771	H77	0.977000	0.855600	0.305300
H781	H78	0.874200	0.876500	0.281700
H791	H79	0.588500	0.705800	0.988000
H801	H80	0.511300	0.763000	0.964100
C11	C1	0.905700	0.182100	0.979590
C21	C2	0.002600	0.217600	0.967900
C31	C3	0.118500	0.184800	0.982300
C41	C4	0.136800	0.116500	0.009400
C51	C5	0.038500	0.082900	0.021700
C61	C6	0.922200	0.115700	0.007100
C71	C7	0.784100	0.214300	0.960200
C81	C8	0.264200	0.079100	0.023800
C91	C9	0.565500	0.080000	0.651100
C101	C10	0.570400	0.020600	0.684000
C111	C11	0.680400	0.986200	0.700500
C121	C12	0.787800	0.009800	0.685100
C131	C13	0.783500	0.069700	0.652600
C141	C14	0.673600	0.104600	0.635900
C151	C15	0.445700	0.116500	0.630800
C161	C16	0.910700	0.968300	0.702300
C171	C17	0.670700	0.674200	0.694900
C181	C18	0.551700	0.708200	0.682800
C191	C19	0.523400	0.783400	0.664300
C201	C20	0.614000	0.823700	0.657900
C211	C21	0.732600	0.789900	0.671000
C221	C22	0.760100	0.715300	0.690250
C231	C23	0.393300	0.822400	0.652200
C241	C24	0.885600	0.682500	0.706680
C251	C25	0.284200	0.884900	0.833200
C261	C26	0.319000	0.895500	0.875300
C271	C27	0.366900	0.957900	0.881100
C281	C28	0.378200	0.009600	0.844400
C291	C29	0.341700	0.999600	0.802900
C301	C30	0.294200	0.937500	0.797330
C311	C31	0.406900	0.968400	0.926200
C321	C32	0.249600	0.928700	0.752900
C331	C33	0.024200	0.202500	0.447200
C341	C34	0.059000	0.215100	0.488800
C351	C35	0.039700	0.166800	0.527300
C361	C36	0.982000	0.108900	0.523500
C371	C37	0.947200	0.096900	0.482600
C381	C38	0.969000	0.142900	0.443900
C391	C39	0.086800	0.174900	0.570900
C401	C40	0.932600	0.126700	0.399200
C411	C41	0.644200	0.327000	0.648400
C421	C42	0.767600	0.316700	0.656300
C431	C43	0.805900	0.381000	0.664700
C441	C44	0.719300	0.454600	0.665900
C451	C45	0.596800	0.464000	0.658400
C461	C46	0.560000	0.399500	0.648800
C471	C47	0.427700	0.409100	0.638800
C481	C48	0.938400	0.372100	0.673400
C491	C49	0.627500	0.338000	0.140000
C501	C50	0.636000	0.399800	0.110140
C511	C51	0.680000	0.459300	0.124000
C521	C52	0.659500	0.334700	0.183300
C531	C53	0.601500	0.402600	0.062800
C541	C54	0.744600	0.389500	0.243600
C551	C55	0.716200	0.455000	0.167400
C561	C56	0.704700	0.393900	0.197400
C571	C57	0.413400	0.280600	0.902610
C581	C58	0.373300	0.286000	0.856110
C591	C59	0.391200	0.345200	0.825400
C601	C60	0.357600	0.350700	0.781800
C611	C61	0.308400	0.293700	0.767800
C621	C62	0.291400	0.233000	0.798400
C631	C63	0.322500	0.230500	0.842400
C641	C64	0.274400	0.296900	0.720400
C651	C65	0.017200	0.564200	0.518800
C661	C66	0.983100	0.569600	0.475400
C671	C67	0.033900	0.494500	0.544000
C681	C68	0.067600	0.490200	0.591500
C691	C69	0.033700	0.564300	0.010000
C701	C70	0.912100	0.572500	0.002600
C711	C71	0.255100	0.484500	0.017500
C721	C72	0.122700	0.492300	0.007920
C731	C73	0.094300	0.817900	0.020410
C741	C74	0.997400	0.782400	0.032100
C751	C75	0.881500	0.815200	0.017700
C761	C76	0.863200	0.883500	0.990600
C771	C77	0.961500	0.917100	0.978300
C781	C78	0.077800	0.884300	0.992900
C791	C79	0.215900	0.785700	0.039800
C801	C80	0.735800	0.920900	0.976200
C811	C81	0.434500	0.920000	0.348900
C821	C82	0.429600	0.979400	0.316000
C831	C83	0.319600	0.013800	0.299500
C841	C84	0.212200	0.990200	0.314900
C851	C85	0.216500	0.930300	0.347400
C861	C86	0.326400	0.895400	0.364100
C871	C87	0.554300	0.883500	0.369200
C881	C88	0.089300	0.031700	0.297700
C891	C89	0.329300	0.325800	0.305100
C901	C90	0.448300	0.291800	0.317200
C911	C91	0.476600	0.216600	0.335700
C921	C92	0.386000	0.176300	0.342100
C931	C93	0.267400	0.210100	0.329000
C941	C94	0.239900	0.284700	0.309750
C951	C95	0.606700	0.177600	0.347800
C961	C96	0.114400	0.317500	0.293320
C971	C97	0.715800	0.115100	0.166800
C981	C98	0.681000	0.104500	0.124700
C991	C99	0.633100	0.042100	0.118900
C1001	C100	0.621800	0.990400	0.155600
C1011	C101	0.658300	0.000400	0.197100
C1021	C102	0.705800	0.062500	0.202670
C1031	C103	0.593100	0.031600	0.073800
C1041	C104	0.750400	0.071300	0.247100
C1051	C105	0.975800	0.797500	0.552800
C1061	C106	0.941000	0.784900	0.511200
C1071	C107	0.960300	0.833200	0.472700
C1081	C108	0.018000	0.891100	0.476500
C1091	C109	0.052800	0.903100	0.517400
C1101	C110	0.031000	0.857100	0.556100
C1111	C111	0.913200	0.825100	0.429100
C1121	C112	0.067400	0.873300	0.600800
C1131	C113	0.355800	0.673000	0.351600
C1141	C114	0.232400	0.683300	0.343700
C1151	C115	0.194100	0.619000	0.335300
C1161	C116	0.280700	0.545400	0.334100
C1171	C117	0.403200	0.536000	0.341600
C1181	C118	0.440000	0.600500	0.351200
C1191	C119	0.572300	0.590900	0.361200
C1201	C120	0.061600	0.627900	0.326600
C1211	C121	0.372500	0.662000	0.860000
C1221	C122	0.364000	0.600200	0.889860
C1231	C123	0.320000	0.540700	0.876000
C1241	C124	0.340500	0.665300	0.816700
C1251	C125	0.398500	0.597400	0.937200
C1261	C126	0.255400	0.610500	0.756400
C1271	C127	0.283800	0.545000	0.832600
C1281	C128	0.295300	0.606100	0.802600
C1291	C129	0.586600	0.719400	0.097390
C1301	C130	0.626700	0.714000	0.143890
C1311	C131	0.608800	0.654800	0.174600
C1321	C132	0.642400	0.649300	0.218200
C1331	C133	0.691600	0.706300	0.232200
C1341	C134	0.708600	0.767000	0.201600
C1351	C135	0.677500	0.769500	0.157600
C1361	C136	0.725600	0.703100	0.279600
C1371	C137	0.982800	0.435800	0.481200
C1381	C138	0.016900	0.430400	0.524600
C1391	C139	0.966100	0.505500	0.456000
C1401	C140	0.932400	0.509800	0.408500
C1411	C141	0.966300	0.435700	0.990000
C1421	C142	0.087900	0.427500	0.997400
C1431	C143	0.744900	0.515500	0.982500
C1441	C144	0.877300	0.507700	0.992080
O11	O1	0.720100	0.167000	0.957990
O21	O2	0.755800	0.282300	0.945170
O31	O3	0.345200	0.116000	0.014910
O41	O4	0.279200	0.015100	0.044550
O51	O5	0.438400	0.177100	0.606700
O61	O6	0.360900	0.082700	0.639110
O71	O7	0.004500	0.994000	0.690290
O81	O8	0.913900	0.909100	0.728050
O91	O9	0.373300	0.890700	0.635970
O101	O10	0.312300	0.783700	0.659250
O111	O11	0.920900	0.610100	0.714250
O121	O12	0.944200	0.728200	0.714760
O131	O13	0.257700	0.979700	0.721450
O141	O14	0.449400	0.025100	0.929170
O151	O15	0.393800	0.919600	0.958030
O161	O16	0.885100	0.071500	0.399060
O171	O17	0.953200	0.170100	0.365330
O181	O18	0.071800	0.126900	0.602900
O191	O19	0.141000	0.227200	0.572680
O201	O20	0.344100	0.473300	0.649760
O211	O21	0.411100	0.354200	0.619070
O221	O22	0.022200	0.308800	0.663950
O231	O23	0.954500	0.431200	0.691010
O241	O24	0.626900	0.340200	0.041740
O251	O25	0.548100	0.468200	0.045850
O261	O26	0.745500	0.329000	0.268050
O271	O27	0.776000	0.446200	0.255970
O281	O28	0.455400	0.333600	0.913650
O291	O29	0.402100	0.222700	0.927890
O301	O30	0.289700	0.235000	0.700380
O311	O31	0.230900	0.363000	0.702010
O321	O32	0.035500	0.551000	0.614950
O331	O33	0.130700	0.425400	0.606340
O341	O34	0.337600	0.421500	0.007340
O351	O35	0.270500	0.541600	0.035440
O361	O36	0.208300	0.871700	0.749360
O371	O37	0.103900	0.131100	0.691590
O381	O38	0.477000	0.254600	0.008840
O391	O39	0.279900	0.833000	0.042010
O401	O40	0.244200	0.717700	0.054830
O411	O41	0.654800	0.884000	0.985090
O421	O42	0.720800	0.984900	0.955450
O431	O43	0.561600	0.822900	0.393300
O441	O44	0.639100	0.917300	0.360890
O451	O45	0.995500	0.006000	0.309710
O461	O46	0.086100	0.090900	0.271950
O471	O47	0.626700	0.109300	0.364030
O481	O48	0.687700	0.216300	0.340750
O491	O49	0.079100	0.389900	0.285750
O501	O50	0.055800	0.271800	0.285240
O511	O51	0.742300	0.020300	0.278550
O521	O52	0.550600	0.974900	0.070830
O531	O53	0.606200	0.080400	0.041970
O541	O54	0.114900	0.928500	0.600940
O551	O55	0.046800	0.829900	0.634670
O561	O56	0.928200	0.873100	0.397100
O571	O57	0.859000	0.772800	0.427320
O581	O58	0.655900	0.526700	0.350240
O591	O59	0.588900	0.645800	0.380930
O601	O60	0.977800	0.691200	0.336050
O611	O61	0.045500	0.568800	0.308990
O621	O62	0.373100	0.659800	0.958260
O631	O63	0.451900	0.531800	0.954150
O641	O64	0.254500	0.671000	0.731950
O651	O65	0.224000	0.553800	0.744030
O661	O66	0.544600	0.666400	0.086350
O671	O67	0.597900	0.777300	0.072110
O681	O68	0.710300	0.765000	0.299620
O691	O69	0.769100	0.637000	0.297990
O701	O70	0.964500	0.449000	0.385050
O711	O71	0.869300	0.574600	0.393660
O721	O72	0.662400	0.578500	0.992660
O731	O73	0.729500	0.458400	0.964560
O741	O74	0.791700	0.128300	0.250640
O751	O75	0.896100	0.868900	0.308410
O761	O76	0.523000	0.745400	0.991160
