data_ALUJUN_clean_PM
_symmetry_space_group_name_H-M	'P1'
_cell_length_a	8.613000
_cell_length_b	10.122000
_cell_length_c	11.095000
_cell_angle_alpha	65.205000
_cell_angle_beta	71.609000
_cell_angle_gamma	78.617000
_symmetry_Int_Tables_number 1

loop_
_symmetry_equiv_pos_as_xyz
'x,y,z'

loop_
_atom_site_label
_atom_site_type_symbol
_atom_site_fract_x
_atom_site_fract_y
_atom_site_fract_z
Y11	Y1	0.366880	0.063280	0.338690
Y21	Y2	0.633120	0.936720	0.661310
H11	H1	0.553800	0.722700	0.314000
H21	H2	0.494800	0.475200	0.718400
H31	H3	0.958400	0.151100	0.115800
H41	H4	0.781000	0.884300	0.013200
H51	H5	0.275800	0.448000	0.916100
H61	H6	0.865800	0.370800	0.229200
H71	H7	0.446200	0.277300	0.686000
H81	H8	0.505200	0.524800	0.281600
H91	H9	0.041600	0.848900	0.884200
H101	H10	0.219000	0.115700	0.986800
H111	H11	0.724200	0.552000	0.083900
H121	H12	0.134200	0.629200	0.770800
C11	C1	0.556900	0.745000	0.543700
C21	C2	0.528400	0.618800	0.519600
C31	C3	0.532200	0.634100	0.388000
C41	C4	0.496600	0.484400	0.631000
C51	C5	0.674100	0.045800	0.161000
C61	C6	0.843400	0.020800	0.078700
C71	C7	0.976700	0.089900	0.068600
C81	C8	0.867500	0.930200	0.008400
C91	C9	0.176900	0.270500	0.179800
C101	C10	0.083400	0.391300	0.088400
C111	C11	0.164400	0.469900	0.949000
C121	C12	0.919600	0.422000	0.138100
C131	C13	0.443100	0.255000	0.456300
C141	C14	0.471600	0.381200	0.480400
C151	C15	0.467800	0.365900	0.612000
C161	C16	0.503400	0.515600	0.369000
C171	C17	0.325900	0.954200	0.839000
C181	C18	0.156600	0.979200	0.921300
C191	C19	0.023300	0.910100	0.931400
C201	C20	0.132500	0.069800	0.991600
C211	C21	0.823100	0.729500	0.820200
C221	C22	0.916600	0.608700	0.911600
C231	C23	0.835600	0.530100	0.051000
C241	C24	0.080400	0.578000	0.861900
O11	O1	0.518400	0.872200	0.468400
O21	O2	0.622300	0.720300	0.638600
O31	O3	0.655400	0.122500	0.229700
O41	O4	0.552600	0.988500	0.164400
O51	O5	0.105000	0.196800	0.305800
O61	O6	0.326300	0.244900	0.126800
O71	O7	0.481600	0.127800	0.531600
O81	O8	0.377700	0.279700	0.361400
O91	O9	0.344600	0.877500	0.770300
O101	O10	0.447400	0.011500	0.835600
O111	O11	0.895000	0.803200	0.694200
O121	O12	0.673700	0.755100	0.873200
