data_ALUJOH_clean_PM
_symmetry_space_group_name_H-M	'P1'
_cell_length_a	11.143600
_cell_length_b	17.850000
_cell_length_c	29.340000
_cell_angle_alpha	86.638000
_cell_angle_beta	79.666000
_cell_angle_gamma	73.206000
_symmetry_Int_Tables_number 1

loop_
_symmetry_equiv_pos_as_xyz
'x,y,z'

loop_
_atom_site_label
_atom_site_type_symbol
_atom_site_fract_x
_atom_site_fract_y
_atom_site_fract_z
Nd11	Nd1	0.243870	0.289210	0.620660
Nd21	Nd2	0.560600	0.390160	0.964910
Nd31	Nd3	0.115860	0.504740	0.690820
Nd41	Nd4	0.546280	0.110160	0.964190
Nd51	Nd5	0.107350	0.794840	0.710460
Nd61	Nd6	0.198340	0.013810	0.643260
Nd71	Nd7	0.756130	0.710790	0.379340
Nd81	Nd8	0.439400	0.609840	0.035090
Nd91	Nd9	0.884140	0.495260	0.309190
Nd101	Nd10	0.453720	0.889840	0.035810
Nd111	Nd11	0.892650	0.205160	0.289540
Nd121	Nd12	0.801660	0.986190	0.356740
H11	H1	0.989400	0.263300	0.950900
H21	H2	0.184000	0.208500	0.973400
H31	H3	0.048400	0.039000	0.040500
H41	H4	0.856900	0.092500	0.015900
H51	H5	0.496600	0.005800	0.695700
H61	H6	0.681600	0.946000	0.722200
H71	H7	0.855100	0.087800	0.642700
H81	H8	0.670400	0.145000	0.614600
H91	H9	0.689400	0.624400	0.706700
H101	H10	0.493600	0.679400	0.686200
H111	H11	0.596600	0.873400	0.645000
H121	H12	0.790800	0.818700	0.667600
H131	H13	0.746600	0.156800	0.169900
H141	H14	0.688800	0.139100	0.100600
H151	H15	0.588400	0.949500	0.152700
H161	H16	0.650100	0.965900	0.221500
H171	H17	0.037700	0.234700	0.422000
H181	H18	0.096000	0.255500	0.490400
H191	H19	0.968400	0.077200	0.549200
H201	H20	0.907500	0.057900	0.481400
H211	H21	0.619200	0.282900	0.644400
H221	H22	0.824000	0.267800	0.656100
H231	H23	0.743200	0.497500	0.671500
H241	H24	0.540900	0.512800	0.658600
H251	H25	0.402400	0.701200	0.869400
H261	H26	0.313200	0.499000	0.895400
H271	H27	0.349700	0.706600	0.796600
H281	H28	0.254000	0.505900	0.823600
H291	H29	0.427200	0.381900	0.833900
H301	H30	0.364300	0.391700	0.762200
H311	H31	0.257600	0.195500	0.789700
H321	H32	0.310100	0.190800	0.862800
H331	H33	0.026100	0.607500	0.531700
H341	H34	0.972300	0.616500	0.459400
H351	H35	0.944200	0.391200	0.983500
H361	H36	0.146200	0.378600	0.995600
H371	H37	0.010600	0.736700	0.049100
H381	H38	0.816000	0.791500	0.026600
H391	H39	0.951600	0.961000	0.959500
H401	H40	0.143100	0.907500	0.984100
H411	H41	0.503400	0.994200	0.304300
H421	H42	0.318400	0.054000	0.277800
H431	H43	0.144900	0.912200	0.357300
H441	H44	0.329600	0.855000	0.385400
H451	H45	0.310600	0.375600	0.293300
H461	H46	0.506400	0.320600	0.313800
H471	H47	0.403400	0.126600	0.355000
H481	H48	0.209200	0.181300	0.332400
H491	H49	0.253400	0.843200	0.830100
H501	H50	0.311200	0.860900	0.899400
H511	H51	0.411600	0.050500	0.847300
H521	H52	0.349900	0.034100	0.778500
H531	H53	0.962300	0.765300	0.578000
H541	H54	0.904000	0.744500	0.509600
H551	H55	0.031600	0.922800	0.450800
H561	H56	0.092500	0.942100	0.518600
H571	H57	0.380800	0.717100	0.355600
H581	H58	0.176000	0.732200	0.343900
H591	H59	0.256800	0.502500	0.328500
H601	H60	0.459100	0.487200	0.341400
H611	H61	0.597600	0.298800	0.130600
H621	H62	0.686800	0.501000	0.104600
H631	H63	0.650300	0.293400	0.203400
H641	H64	0.746000	0.494100	0.176400
H651	H65	0.572800	0.618100	0.166100
H661	H66	0.635700	0.608300	0.237800
H671	H67	0.742400	0.804500	0.210300
H681	H68	0.689900	0.809200	0.137200
H691	H69	0.973900	0.392500	0.468300
H701	H70	0.027700	0.383500	0.540600
H711	H71	0.055800	0.608800	0.016500
H721	H72	0.853800	0.621400	0.004400
C11	C1	0.906400	0.182200	0.979400
C21	C2	0.002800	0.217100	0.968200
C31	C3	0.118500	0.185300	0.981900
C41	C4	0.136100	0.116300	0.009400
C51	C5	0.037400	0.083600	0.021800
C61	C6	0.922800	0.115400	0.007200
C71	C7	0.784100	0.214300	0.960000
C81	C8	0.265100	0.079800	0.023800
C91	C9	0.565700	0.080200	0.650700
C101	C10	0.569400	0.021200	0.684300
C111	C11	0.679300	0.986300	0.700500
C121	C12	0.786700	0.009500	0.685400
C131	C13	0.783400	0.070700	0.652800
C141	C14	0.673100	0.104500	0.636200
C151	C15	0.445300	0.116100	0.630900
C161	C16	0.911900	0.966500	0.702200
C171	C17	0.670100	0.675100	0.694800
C181	C18	0.553200	0.707500	0.682500
C191	C19	0.524300	0.783900	0.664100
C201	C20	0.614500	0.823500	0.658100
C211	C21	0.731200	0.790600	0.671200
C221	C22	0.759900	0.715400	0.690000
C231	C23	0.390300	0.822000	0.652600
C241	C24	0.885600	0.683100	0.706600
C251	C25	0.716200	0.114500	0.166300
C261	C26	0.680600	0.104000	0.124800
C271	C27	0.633600	0.042800	0.118600
C281	C28	0.621400	0.990900	0.155800
C291	C29	0.658200	0.000900	0.197200
C301	C30	0.706400	0.061700	0.202800
C311	C31	0.591700	0.032100	0.073800
C321	C32	0.749800	0.071700	0.247300
C331	C33	0.024100	0.203000	0.447600
C341	C34	0.059400	0.215400	0.488400
C351	C35	0.040000	0.167100	0.527100
C361	C36	0.982600	0.108700	0.523600
C371	C37	0.946500	0.097000	0.483000
C381	C38	0.967800	0.143200	0.444100
C391	C39	0.088800	0.175000	0.570900
C401	C40	0.931800	0.125900	0.399500
C411	C41	0.644600	0.326600	0.649200
C421	C42	0.766700	0.317500	0.656600
C431	C43	0.803900	0.381900	0.664800
C441	C44	0.719000	0.453800	0.665600
C451	C45	0.597900	0.463000	0.657800
C461	C46	0.559900	0.400000	0.649000
C471	C47	0.429500	0.410200	0.638600
C481	C48	0.938900	0.372600	0.673700
C491	C49	0.373400	0.661700	0.859900
C501	C50	0.362600	0.599400	0.889800
C511	C51	0.319300	0.541000	0.875800
C521	C52	0.341300	0.665300	0.816500
C531	C53	0.399100	0.597100	0.936800
C541	C54	0.253900	0.611400	0.755800
C551	C55	0.284900	0.544800	0.832700
C561	C56	0.296400	0.606800	0.802800
C571	C57	0.414500	0.280600	0.902600
C581	C58	0.373000	0.285700	0.856000
C591	C59	0.391100	0.345100	0.825300
C601	C60	0.355900	0.350100	0.781900
C611	C61	0.308400	0.293500	0.768100
C621	C62	0.290700	0.233500	0.798600
C631	C63	0.322800	0.230700	0.842400
C641	C64	0.273000	0.297200	0.720000
C651	C65	0.015800	0.563800	0.518900
C661	C66	0.983200	0.569400	0.475700
C671	C67	0.033400	0.494900	0.543700
C681	C68	0.070500	0.489500	0.590800
C691	C69	0.966800	0.435200	0.990000
C701	C70	0.087000	0.427600	0.997600
C711	C71	0.745200	0.515900	0.982100
C721	C72	0.878300	0.508100	0.991800
C731	C73	0.093600	0.817800	0.020600
C741	C74	0.997200	0.782900	0.031800
C751	C75	0.881500	0.814700	0.018100
C761	C76	0.863900	0.883700	0.990600
C771	C77	0.962600	0.916400	0.978200
C781	C78	0.077200	0.884600	0.992800
C791	C79	0.215900	0.785700	0.040000
C801	C80	0.734900	0.920200	0.976200
C811	C81	0.434300	0.919800	0.349300
C821	C82	0.430600	0.978800	0.315700
C831	C83	0.320700	0.013700	0.299500
C841	C84	0.213300	0.990500	0.314600
C851	C85	0.216600	0.929300	0.347200
C861	C86	0.326900	0.895500	0.363800
C871	C87	0.554700	0.883900	0.369100
C881	C88	0.088100	0.033500	0.297800
C891	C89	0.329900	0.324900	0.305200
C901	C90	0.446800	0.292500	0.317500
C911	C91	0.475700	0.216100	0.335900
C921	C92	0.385500	0.176500	0.341900
C931	C93	0.268800	0.209400	0.328800
C941	C94	0.240100	0.284600	0.310000
C951	C95	0.609700	0.178000	0.347400
C961	C96	0.114400	0.316900	0.293400
C971	C97	0.283800	0.885500	0.833700
C981	C98	0.319400	0.896000	0.875200
C991	C99	0.366400	0.957200	0.881400
C1001	C100	0.378600	0.009100	0.844200
C1011	C101	0.341800	0.999100	0.802800
C1021	C102	0.293600	0.938300	0.797200
C1031	C103	0.408300	0.967900	0.926200
C1041	C104	0.250200	0.928300	0.752700
C1051	C105	0.975900	0.797000	0.552400
C1061	C106	0.940600	0.784600	0.511600
C1071	C107	0.960000	0.832900	0.472900
C1081	C108	0.017400	0.891300	0.476400
C1091	C109	0.053500	0.903000	0.517000
C1101	C110	0.032200	0.856800	0.555900
C1111	C111	0.911200	0.825000	0.429100
C1121	C112	0.068200	0.874100	0.600500
C1131	C113	0.355400	0.673400	0.350800
C1141	C114	0.233300	0.682500	0.343400
C1151	C115	0.196100	0.618100	0.335200
C1161	C116	0.281000	0.546200	0.334400
C1171	C117	0.402100	0.537000	0.342200
C1181	C118	0.440100	0.600000	0.351000
C1191	C119	0.570500	0.589800	0.361400
C1201	C120	0.061100	0.627400	0.326300
C1211	C121	0.626600	0.338300	0.140100
C1221	C122	0.637400	0.400600	0.110200
C1231	C123	0.680700	0.459000	0.124200
C1241	C124	0.658700	0.334700	0.183500
C1251	C125	0.600900	0.402900	0.063200
C1261	C126	0.746100	0.388600	0.244200
C1271	C127	0.715100	0.455200	0.167300
C1281	C128	0.703600	0.393200	0.197200
C1291	C129	0.585500	0.719400	0.097400
C1301	C130	0.627000	0.714300	0.144000
C1311	C131	0.608900	0.654900	0.174700
C1321	C132	0.644100	0.649900	0.218100
C1331	C133	0.691600	0.706500	0.231900
C1341	C134	0.709300	0.766500	0.201400
C1351	C135	0.677200	0.769300	0.157600
C1361	C136	0.727000	0.702800	0.280000
C1371	C137	0.984200	0.436200	0.481100
C1381	C138	0.016800	0.430600	0.524300
C1391	C139	0.966600	0.505100	0.456300
C1401	C140	0.929500	0.510500	0.409200
C1411	C141	0.033200	0.564800	0.010000
C1421	C142	0.913000	0.572400	0.002400
C1431	C143	0.254800	0.484100	0.017900
C1441	C144	0.121700	0.491900	0.008200
O11	O1	0.720100	0.167200	0.957900
O21	O2	0.755600	0.283200	0.945200
O31	O3	0.346400	0.115500	0.014800
O41	O4	0.278900	0.014700	0.043700
O51	O5	0.438400	0.176700	0.606900
O61	O6	0.359900	0.083900	0.638900
O71	O7	0.005100	0.992700	0.690000
O81	O8	0.913900	0.909000	0.727000
O91	O9	0.374600	0.889800	0.636400
O101	O10	0.311800	0.785200	0.659600
O111	O11	0.920100	0.610900	0.714400
O121	O12	0.943600	0.728900	0.714800
O131	O13	0.742100	0.019600	0.277900
O141	O14	0.551100	0.974500	0.070800
O151	O15	0.604800	0.081200	0.042100
O161	O16	0.884900	0.071200	0.399500
O171	O17	0.953900	0.170300	0.365100
O181	O18	0.070700	0.127100	0.603100
O191	O19	0.141000	0.226700	0.572700
O201	O20	0.343400	0.474000	0.649700
O211	O21	0.412400	0.354300	0.619000
O221	O22	0.024200	0.308600	0.663300
O231	O23	0.954700	0.431600	0.690500
O241	O24	0.372000	0.659700	0.958400
O251	O25	0.452400	0.531700	0.953790
O261	O26	0.254800	0.671300	0.731900
O271	O27	0.224200	0.554800	0.744200
O281	O28	0.454900	0.333900	0.913700
O291	O29	0.402400	0.222100	0.927800
O301	O30	0.290700	0.234900	0.700100
O311	O31	0.230400	0.363000	0.701400
O321	O32	0.035200	0.551800	0.614100
O331	O33	0.130200	0.426000	0.606000
O341	O34	0.661600	0.579100	0.992800
O351	O35	0.730700	0.457600	0.964200
O361	O36	0.792000	0.128600	0.250500
O371	O37	0.279900	0.832800	0.042100
O381	O38	0.244400	0.716800	0.054800
O391	O39	0.653600	0.884500	0.985200
O401	O40	0.721100	0.985300	0.956300
O411	O41	0.561600	0.823300	0.393100
O421	O42	0.640100	0.916100	0.361100
O431	O43	0.994900	0.007300	0.310000
O441	O44	0.086100	0.091000	0.273000
O451	O45	0.625400	0.110200	0.363600
O461	O46	0.688200	0.214800	0.340400
O471	O47	0.079900	0.389100	0.285600
O481	O48	0.056400	0.271100	0.285200
O491	O49	0.257900	0.980400	0.722100
O501	O50	0.448900	0.025500	0.929200
O511	O51	0.395200	0.918800	0.957900
O521	O52	0.115100	0.928800	0.600500
O531	O53	0.046100	0.829700	0.634900
O541	O54	0.929300	0.872900	0.396900
O551	O55	0.859000	0.773300	0.427300
O561	O56	0.656600	0.526000	0.350300
O571	O57	0.587600	0.645700	0.381000
O581	O58	0.975800	0.691400	0.336700
O591	O59	0.045300	0.568400	0.309500
O601	O60	0.628000	0.340300	0.041600
O611	O61	0.547600	0.468300	0.046210
O621	O62	0.745200	0.328700	0.268100
O631	O63	0.775800	0.445200	0.255800
O641	O64	0.545100	0.666100	0.086300
O651	O65	0.597600	0.777900	0.072200
O661	O66	0.709300	0.765100	0.299900
O671	O67	0.769600	0.637000	0.298600
O681	O68	0.964800	0.448200	0.385900
O691	O69	0.869800	0.574000	0.394000
O701	O70	0.338400	0.420900	0.007200
O711	O71	0.269300	0.542400	0.035800
O721	O72	0.208000	0.871400	0.749500
