data_ALUJIB_clean_PM
_symmetry_space_group_name_H-M	'P1'
_cell_length_a	11.098700
_cell_length_b	17.768000
_cell_length_c	29.159000
_cell_angle_alpha	86.547000
_cell_angle_beta	79.811000
_cell_angle_gamma	73.123000
_symmetry_Int_Tables_number 1

loop_
_symmetry_equiv_pos_as_xyz
'x,y,z'

loop_
_atom_site_label
_atom_site_type_symbol
_atom_site_fract_x
_atom_site_fract_y
_atom_site_fract_z
Ce11	Ce1	0.242770	0.289120	0.620960
Ce21	Ce2	0.559970	0.390140	0.965330
Ce31	Ce3	0.115840	0.503810	0.690750
Ce41	Ce4	0.545860	0.109780	0.964320
Ce51	Ce5	0.107700	0.795020	0.710530
Ce61	Ce6	0.197850	0.013000	0.643300
Ce71	Ce7	0.757230	0.710880	0.379050
Ce81	Ce8	0.440030	0.609860	0.034670
Ce91	Ce9	0.884160	0.496190	0.309250
Ce101	Ce10	0.454140	0.890220	0.035680
Ce111	Ce11	0.892300	0.204980	0.289470
Ce121	Ce12	0.802150	0.987000	0.356700
H11	H1	0.986100	0.263800	0.950600
H21	H2	0.180500	0.209700	0.974100
H31	H3	0.052000	0.036500	0.040100
H41	H4	0.857500	0.091600	0.016300
H51	H5	0.497200	0.004700	0.695400
H61	H6	0.682800	0.946700	0.723100
H71	H7	0.854600	0.087600	0.641700
H81	H8	0.668500	0.146100	0.614300
H91	H9	0.691900	0.622000	0.706800
H101	H10	0.492900	0.680300	0.687600
H111	H11	0.592500	0.873700	0.644600
H121	H12	0.792300	0.817800	0.665500
H131	H13	0.253100	0.843000	0.830400
H141	H14	0.312700	0.860800	0.900000
H151	H15	0.410100	0.052300	0.847000
H161	H16	0.345100	0.035000	0.778300
H171	H17	0.033800	0.236500	0.421700
H181	H18	0.094200	0.255200	0.492000
H191	H19	0.967700	0.076400	0.549300
H201	H20	0.908700	0.057900	0.479800
H211	H21	0.619800	0.281600	0.644200
H221	H22	0.825100	0.266500	0.656700
H231	H23	0.741300	0.498600	0.671300
H241	H24	0.538600	0.511900	0.658900
H251	H25	0.596500	0.299400	0.131200
H261	H26	0.684700	0.502500	0.104800
H271	H27	0.654300	0.293300	0.204200
H281	H28	0.748200	0.494100	0.177000
H291	H29	0.428000	0.381300	0.834100
H301	H30	0.366900	0.392100	0.761600
H311	H31	0.258500	0.193700	0.790000
H321	H32	0.310200	0.190100	0.863800
H331	H33	0.028000	0.607500	0.533000
H341	H34	0.973300	0.618800	0.459200
H351	H35	0.054200	0.609700	0.016200
H361	H36	0.852000	0.622200	0.002900
H371	H37	0.409800	0.295200	0.013700
H381	H38	0.492000	0.239000	0.036700
H391	H39	0.013900	0.736200	0.049400
H401	H40	0.819500	0.790300	0.025900
H411	H41	0.948000	0.963500	0.959900
H421	H42	0.142500	0.908400	0.983700
H431	H43	0.502800	0.995300	0.304600
H441	H44	0.317200	0.053300	0.276900
H451	H45	0.145400	0.912400	0.358300
H461	H46	0.331500	0.853900	0.385700
H471	H47	0.308100	0.378000	0.293200
H481	H48	0.507100	0.319700	0.312400
H491	H49	0.407500	0.126300	0.355400
H501	H50	0.207700	0.182200	0.334500
H511	H51	0.746900	0.157000	0.169600
H521	H52	0.687300	0.139200	0.100000
H531	H53	0.589900	0.947700	0.153000
H541	H54	0.654900	0.965000	0.221700
H551	H55	0.966200	0.763500	0.578300
H561	H56	0.905800	0.744800	0.508000
H571	H57	0.032300	0.923600	0.450700
H581	H58	0.091300	0.942100	0.520200
H591	H59	0.380200	0.718400	0.355800
H601	H60	0.174900	0.733500	0.343300
H611	H61	0.258700	0.501400	0.328700
H621	H62	0.461400	0.488100	0.341100
H631	H63	0.403500	0.700600	0.868800
H641	H64	0.315300	0.497500	0.895200
H651	H65	0.345700	0.706700	0.795800
H661	H66	0.251800	0.505900	0.823000
H671	H67	0.572000	0.618700	0.165900
H681	H68	0.633100	0.607900	0.238400
H691	H69	0.741500	0.806300	0.210000
H701	H70	0.689800	0.809900	0.136200
H711	H71	0.972000	0.392500	0.467000
H721	H72	0.026700	0.381200	0.540800
H731	H73	0.945800	0.390300	0.983800
H741	H74	0.148000	0.377800	0.997100
H751	H75	0.590200	0.704800	0.986300
H761	H76	0.508000	0.761000	0.963300
C11	C1	0.902100	0.181900	0.980500
C21	C2	0.999600	0.217800	0.968400
C31	C3	0.115700	0.185600	0.982500
C41	C4	0.136400	0.117000	0.009500
C51	C5	0.039200	0.082100	0.022000
C61	C6	0.922900	0.115100	0.007500
C71	C7	0.780500	0.212800	0.960900
C81	C8	0.265200	0.079400	0.023300
C91	C9	0.563600	0.080000	0.651400
C101	C10	0.569400	0.021200	0.684300
C111	C11	0.680200	0.986600	0.700800
C121	C12	0.790200	0.010300	0.684600
C131	C13	0.782900	0.070400	0.652400
C141	C14	0.671900	0.105200	0.636000
C151	C15	0.443700	0.115200	0.631500
C161	C16	0.913300	0.968400	0.701900
C171	C17	0.672300	0.673300	0.695100
C181	C18	0.553600	0.707900	0.682900
C191	C19	0.523600	0.782000	0.663900
C201	C20	0.612200	0.823300	0.657500
C211	C21	0.732300	0.789700	0.670300
C221	C22	0.762700	0.715200	0.690000
C231	C23	0.390000	0.821400	0.652700
C241	C24	0.888500	0.680800	0.706600
C251	C25	0.284100	0.885300	0.833700
C261	C26	0.320100	0.895900	0.875500
C271	C27	0.367200	0.958500	0.880900
C281	C28	0.377800	0.010400	0.844100
C291	C29	0.339600	0.999400	0.802700
C301	C30	0.293900	0.937100	0.797200
C311	C31	0.406500	0.970600	0.926300
C321	C32	0.252300	0.926600	0.752200
C331	C33	0.021700	0.203800	0.447200
C341	C34	0.057500	0.215100	0.489500
C351	C35	0.038600	0.167100	0.527400
C361	C36	0.982200	0.108400	0.523800
C371	C37	0.947100	0.097300	0.482000
C381	C38	0.968000	0.143300	0.443900
C391	C39	0.088000	0.174800	0.571700
C401	C40	0.933100	0.127400	0.398800
C411	C41	0.644300	0.325600	0.649500
C421	C42	0.767300	0.316400	0.657000
C431	C43	0.803900	0.381800	0.665100
C441	C44	0.717700	0.454300	0.665800
C451	C45	0.596300	0.462000	0.658200
C461	C46	0.557600	0.399000	0.649900
C471	C47	0.427400	0.407000	0.639500
C481	C48	0.939600	0.371200	0.673500
C491	C49	0.626500	0.338900	0.140300
C501	C50	0.636400	0.399800	0.110400
C511	C51	0.680000	0.459900	0.124500
C521	C52	0.660600	0.335200	0.184200
C531	C53	0.601100	0.404000	0.063400
C541	C54	0.745200	0.390300	0.244500
C551	C55	0.716000	0.455500	0.168000
C561	C56	0.704100	0.394500	0.197900
C571	C57	0.412600	0.281100	0.903400
C581	C58	0.373600	0.285700	0.856700
C591	C59	0.391600	0.344500	0.825500
C601	C60	0.357200	0.350700	0.781700
C611	C61	0.307300	0.292700	0.768500
C621	C62	0.290800	0.232300	0.798900
C631	C63	0.323000	0.230000	0.843000
C641	C64	0.272600	0.296300	0.720900
C651	C65	0.016700	0.564300	0.519700
C661	C66	0.983900	0.571300	0.475500
C671	C67	0.032900	0.494300	0.544000
C681	C68	0.068100	0.489700	0.591600
C691	C69	0.032700	0.565200	0.009600
C701	C70	0.911200	0.572800	0.001800
C711	C71	0.255100	0.485700	0.017000
C721	C72	0.123700	0.492800	0.007700
C731	C73	0.097900	0.818100	0.019500
C741	C74	0.000400	0.782200	0.031600
C751	C75	0.884300	0.814400	0.017500
C761	C76	0.863600	0.883000	0.990500
C771	C77	0.960800	0.917900	0.978000
C781	C78	0.077100	0.884900	0.992500
C791	C79	0.219500	0.787200	0.039100
C801	C80	0.734800	0.920600	0.976700
C811	C81	0.436400	0.920000	0.348600
C821	C82	0.430600	0.978800	0.315700
C831	C83	0.319800	0.013400	0.299200
C841	C84	0.209800	0.989700	0.315400
C851	C85	0.217100	0.929600	0.347600
C861	C86	0.328100	0.894800	0.364000
C871	C87	0.556300	0.884800	0.368500
C881	C88	0.086700	0.031600	0.298100
C891	C89	0.327700	0.326700	0.304900
C901	C90	0.446400	0.292100	0.317100
C911	C91	0.476400	0.218000	0.336100
C921	C92	0.387800	0.176700	0.342500
C931	C93	0.267700	0.210300	0.329700
C941	C94	0.237300	0.284800	0.310000
C951	C95	0.610000	0.178600	0.347300
C961	C96	0.111500	0.319200	0.293400
C971	C97	0.715900	0.114700	0.166300
C981	C98	0.679900	0.104100	0.124500
C991	C99	0.632800	0.041500	0.119100
C1001	C100	0.622200	0.989600	0.155900
C1011	C101	0.660400	0.000600	0.197300
C1021	C102	0.706100	0.062900	0.202800
C1031	C103	0.593500	0.029400	0.073700
C1041	C104	0.747700	0.073400	0.247800
C1051	C105	0.978300	0.796200	0.552800
C1061	C106	0.942500	0.784900	0.510500
C1071	C107	0.961400	0.832900	0.472600
C1081	C108	0.017800	0.891600	0.476200
C1091	C109	0.052900	0.902700	0.518000
C1101	C110	0.032000	0.856700	0.556100
C1111	C111	0.912000	0.825200	0.428300
C1121	C112	0.066900	0.872600	0.601200
C1131	C113	0.355700	0.674400	0.350500
C1141	C114	0.232700	0.683600	0.343000
C1151	C115	0.196100	0.618200	0.334900
C1161	C116	0.282300	0.545700	0.334200
C1171	C117	0.403700	0.538000	0.341800
C1181	C118	0.442400	0.601000	0.350100
C1191	C119	0.572600	0.593000	0.360500
C1201	C120	0.060400	0.628800	0.326500
C1211	C121	0.373500	0.661100	0.859700
C1221	C122	0.363600	0.600200	0.889600
C1231	C123	0.320000	0.540100	0.875500
C1241	C124	0.339400	0.664800	0.815800
C1251	C125	0.398900	0.596000	0.936600
C1261	C126	0.254800	0.609700	0.755500
C1271	C127	0.284000	0.544500	0.832000
C1281	C128	0.295900	0.605500	0.802100
C1291	C129	0.587400	0.718900	0.096600
C1301	C130	0.626400	0.714300	0.143300
C1311	C131	0.608400	0.655500	0.174500
C1321	C132	0.642800	0.649300	0.218300
C1331	C133	0.692700	0.707300	0.231500
C1341	C134	0.709200	0.767700	0.201100
C1351	C135	0.677000	0.770000	0.157000
C1361	C136	0.727400	0.703700	0.279100
C1371	C137	0.983300	0.435700	0.480300
C1381	C138	0.016100	0.428700	0.524500
C1391	C139	0.967100	0.505700	0.456000
C1401	C140	0.931900	0.510300	0.408400
C1411	C141	0.967300	0.434800	0.990400
C1421	C142	0.088800	0.427200	0.998200
C1431	C143	0.744900	0.514300	0.983000
C1441	C144	0.876300	0.507200	0.992300
O11	O1	0.719100	0.164800	0.958200
O21	O2	0.750300	0.281400	0.946000
O31	O3	0.346800	0.117000	0.014400
O41	O4	0.281800	0.014900	0.044100
O51	O5	0.431300	0.176200	0.607200
O61	O6	0.359400	0.080600	0.639100
O71	O7	0.003500	0.995800	0.689800
O81	O8	0.916900	0.909300	0.727100
O91	O9	0.371000	0.889300	0.636000
O101	O10	0.311100	0.783100	0.659800
O111	O11	0.923200	0.610100	0.714190
O121	O12	0.946000	0.730000	0.713900
O131	O13	0.258800	0.976900	0.721000
O141	O14	0.447500	0.026700	0.929400
O151	O15	0.395000	0.921200	0.958300
O161	O16	0.887600	0.071000	0.398600
O171	O17	0.952700	0.170900	0.364900
O181	O18	0.072500	0.126300	0.603200
O191	O19	0.138200	0.227500	0.573400
O201	O20	0.343400	0.469800	0.650400
O211	O21	0.410700	0.351400	0.620100
O221	O22	0.024600	0.309200	0.664100
O231	O23	0.954200	0.432900	0.690400
O241	O24	0.627800	0.340700	0.041700
O251	O25	0.547300	0.468600	0.046200
O261	O26	0.747100	0.329900	0.268900
O271	O27	0.775500	0.446900	0.256500
O281	O28	0.453900	0.334700	0.914400
O291	O29	0.403600	0.222700	0.928700
O301	O30	0.289000	0.233700	0.700600
O311	O31	0.228700	0.362600	0.701770
O321	O32	0.032100	0.550400	0.615500
O331	O33	0.129700	0.424000	0.606620
O341	O34	0.339100	0.423100	0.007000
O351	O35	0.270100	0.544300	0.034500
O361	O36	0.210700	0.870000	0.749100
O371	O37	0.479200	0.255100	0.008400
O381	O38	0.280900	0.835200	0.041800
O391	O39	0.249700	0.718600	0.054000
O401	O40	0.653200	0.883000	0.985600
O411	O41	0.718200	0.985100	0.955900
O421	O42	0.568700	0.823800	0.392800
O431	O43	0.640600	0.919400	0.360900
O441	O44	0.996500	0.004200	0.310200
O451	O45	0.083100	0.090700	0.272900
O461	O46	0.629000	0.110700	0.364000
O471	O47	0.688900	0.216900	0.340200
O481	O48	0.076800	0.389900	0.285810
O491	O49	0.054000	0.270000	0.286100
O501	O50	0.741200	0.023100	0.279000
O511	O51	0.552500	0.973300	0.070600
O521	O52	0.605000	0.078800	0.041700
O531	O53	0.112400	0.929000	0.601400
O541	O54	0.047300	0.829100	0.635100
O551	O55	0.927500	0.873700	0.396800
O561	O56	0.861800	0.772500	0.426600
O571	O57	0.656600	0.530200	0.349600
O581	O58	0.589300	0.648600	0.379900
O591	O59	0.975400	0.690800	0.335900
O601	O60	0.045800	0.567100	0.309600
O611	O61	0.372200	0.659300	0.958300
O621	O62	0.452700	0.531400	0.953800
O631	O63	0.252900	0.670100	0.731100
O641	O64	0.224500	0.553100	0.743500
O651	O65	0.546100	0.665300	0.085600
O661	O66	0.596400	0.777300	0.071300
O671	O67	0.711000	0.766300	0.299400
O681	O68	0.771300	0.637400	0.298230
O691	O69	0.967900	0.449600	0.384500
O701	O70	0.870300	0.576000	0.393380
O711	O71	0.660900	0.576900	0.993000
O721	O72	0.729900	0.455700	0.965500
O731	O73	0.789300	0.130000	0.250900
O741	O74	0.520800	0.744900	0.991600
