data_ALUKOI_clean_PM
_symmetry_space_group_name_H-M	'P1'
_cell_length_a	16.108600
_cell_length_b	16.108600
_cell_length_c	27.963200
_cell_angle_alpha	79.979900
_cell_angle_beta	79.979900
_cell_angle_gamma	63.018800
_symmetry_Int_Tables_number 1

loop_
_symmetry_equiv_pos_as_xyz
'x,y,z'

loop_
_atom_site_label
_atom_site_type_symbol
_atom_site_fract_x
_atom_site_fract_y
_atom_site_fract_z
Sm11	Sm1	0.531250	0.066570	0.046100
Sm21	Sm2	0.933430	0.468750	0.453900
Sm31	Sm3	0.468750	0.933430	0.953900
Sm41	Sm4	0.066570	0.531250	0.546100
H11	H1	0.633200	0.065000	0.202800
H21	H2	0.707600	0.106200	0.253700
H31	H3	0.840600	0.195000	0.133700
H41	H4	0.759900	0.160100	0.085500
H51	H5	0.325700	0.827100	0.090000
H61	H6	0.261200	0.767600	0.158300
H71	H7	0.367600	0.865000	0.242400
H81	H8	0.429100	0.933700	0.170700
H91	H9	0.823300	0.789100	0.056100
H101	H10	0.949700	0.646500	0.042800
H111	H11	0.806400	0.588000	0.961100
H121	H12	0.682000	0.732200	0.968900
H131	H13	0.935000	0.366800	0.297200
H141	H14	0.893800	0.292400	0.246300
H151	H15	0.805000	0.159400	0.366300
H161	H16	0.839900	0.240100	0.414500
H171	H17	0.172900	0.674300	0.410000
H181	H18	0.232400	0.738800	0.341700
H191	H19	0.135000	0.632400	0.257600
H201	H20	0.066300	0.570900	0.329300
H211	H21	0.210900	0.176700	0.443900
H221	H22	0.353500	0.050300	0.457200
H231	H23	0.412000	0.193600	0.538900
H241	H24	0.267800	0.318000	0.531100
H251	H25	0.366800	0.935000	0.797200
H261	H26	0.292400	0.893800	0.746300
H271	H27	0.159400	0.805000	0.866300
H281	H28	0.240100	0.839900	0.914500
H291	H29	0.674300	0.172900	0.910000
H301	H30	0.738800	0.232400	0.841700
H311	H31	0.632400	0.135000	0.757600
H321	H32	0.570900	0.066300	0.829300
H331	H33	0.176700	0.210900	0.943900
H341	H34	0.050300	0.353500	0.957200
H351	H35	0.193600	0.412000	0.038900
H361	H36	0.318000	0.267800	0.031100
H371	H37	0.065000	0.633200	0.702800
H381	H38	0.106200	0.707600	0.753700
H391	H39	0.195000	0.840600	0.633700
H401	H40	0.160100	0.759900	0.585500
H411	H41	0.827100	0.325700	0.590000
H421	H42	0.767600	0.261200	0.658300
H431	H43	0.865000	0.367600	0.742400
H441	H44	0.933700	0.429100	0.670700
H451	H45	0.789100	0.823300	0.556100
H461	H46	0.646500	0.949700	0.542800
H471	H47	0.588000	0.806400	0.461100
H481	H48	0.732200	0.682000	0.468900
C11	C1	0.645290	0.077090	0.109710
C21	C2	0.705400	0.092200	0.138850
C31	C3	0.677930	0.086530	0.189650
C41	C4	0.719930	0.114530	0.219910
C51	C5	0.779600	0.154200	0.199120
C61	C6	0.799580	0.168980	0.147470
C71	C7	0.755810	0.143010	0.119080
C81	C8	0.421130	0.923930	0.076980
C91	C9	0.381470	0.887070	0.122690
C101	C10	0.332980	0.836780	0.120570
C111	C11	0.294810	0.800210	0.161130
C121	C12	0.307070	0.812270	0.204930
C131	C13	0.358390	0.859790	0.211400
C141	C14	0.396100	0.900100	0.168370
C151	C15	0.665370	0.870170	0.018990
C161	C16	0.740740	0.776740	0.012530
C171	C17	0.820670	0.750070	0.036030
C181	C18	0.895200	0.664600	0.028600
C191	C19	0.889550	0.602150	0.998600
C201	C20	0.810840	0.629040	0.979000
C211	C21	0.735370	0.714970	0.983950
C221	C22	0.922910	0.354710	0.390290
C231	C23	0.907800	0.294600	0.361150
C241	C24	0.913470	0.322070	0.310350
C251	C25	0.885470	0.280070	0.280090
C261	C26	0.845800	0.220400	0.300880
C271	C27	0.831020	0.200420	0.352530
C281	C28	0.856990	0.244190	0.380920
C291	C29	0.076070	0.578870	0.423020
C301	C30	0.112930	0.618530	0.377310
C311	C31	0.163220	0.667020	0.379430
C321	C32	0.199790	0.705190	0.338870
C331	C33	0.187730	0.692930	0.295070
C341	C34	0.140210	0.641610	0.288600
C351	C35	0.099900	0.603900	0.331630
C361	C36	0.129830	0.334630	0.481010
C371	C37	0.223260	0.259260	0.487470
C381	C38	0.249930	0.179330	0.463970
C391	C39	0.335400	0.104800	0.471400
C401	C40	0.397850	0.110450	0.501400
C411	C41	0.370960	0.189160	0.521000
C421	C42	0.285030	0.264630	0.516050
C431	C43	0.354710	0.922910	0.890290
C441	C44	0.294600	0.907800	0.861150
C451	C45	0.322070	0.913470	0.810350
C461	C46	0.280070	0.885470	0.780090
C471	C47	0.220400	0.845800	0.800880
C481	C48	0.200420	0.831020	0.852530
C491	C49	0.244190	0.856990	0.880920
C501	C50	0.578870	0.076070	0.923020
C511	C51	0.618530	0.112930	0.877310
C521	C52	0.667020	0.163220	0.879430
C531	C53	0.705190	0.199790	0.838870
C541	C54	0.692930	0.187730	0.795070
C551	C55	0.641610	0.140210	0.788600
C561	C56	0.603900	0.099900	0.831630
C571	C57	0.334630	0.129830	0.981010
C581	C58	0.259260	0.223260	0.987470
C591	C59	0.179330	0.249930	0.963970
C601	C60	0.104800	0.335400	0.971400
C611	C61	0.110450	0.397850	0.001400
C621	C62	0.189160	0.370960	0.021000
C631	C63	0.264630	0.285030	0.016050
C641	C64	0.077090	0.645290	0.609710
C651	C65	0.092200	0.705400	0.638850
C661	C66	0.086530	0.677930	0.689650
C671	C67	0.114530	0.719930	0.719910
C681	C68	0.154200	0.779600	0.699120
C691	C69	0.168980	0.799580	0.647470
C701	C70	0.143010	0.755810	0.619080
C711	C71	0.923930	0.421130	0.576980
C721	C72	0.887070	0.381470	0.622690
C731	C73	0.836780	0.332980	0.620570
C741	C74	0.800210	0.294810	0.661130
C751	C75	0.812270	0.307070	0.704930
C761	C76	0.859790	0.358390	0.711400
C771	C77	0.900100	0.396100	0.668370
C781	C78	0.870170	0.665370	0.518990
C791	C79	0.776740	0.740740	0.512530
C801	C80	0.750070	0.820670	0.536030
C811	C81	0.664600	0.895200	0.528600
C821	C82	0.602150	0.889550	0.498600
C831	C83	0.629040	0.810840	0.479000
C841	C84	0.714970	0.735370	0.483950
N11	N1	0.820010	0.191010	0.225200
N21	N2	0.275950	0.774350	0.249090
N31	N3	0.955780	0.515380	0.995020
N41	N4	0.808990	0.179990	0.274800
N51	N5	0.225650	0.724050	0.250910
N61	N6	0.484620	0.044220	0.504980
N71	N7	0.179990	0.808990	0.774800
N81	N8	0.724050	0.225650	0.750910
N91	N9	0.044220	0.484620	0.004980
N101	N10	0.191010	0.820010	0.725200
N111	N11	0.774350	0.275950	0.749090
N121	N12	0.515380	0.955780	0.495020
O11	O1	0.590470	0.042130	0.126010
O21	O2	0.656580	0.103540	0.063140
O31	O3	0.408140	0.914960	0.034980
O41	O4	0.469050	0.964010	0.086070
O51	O5	0.596990	0.896030	0.997140
O61	O6	0.675580	0.920660	0.046190
O71	O7	0.957870	0.409530	0.373990
O81	O8	0.896460	0.343420	0.436860
O91	O9	0.085040	0.591860	0.465020
O101	O10	0.035990	0.530950	0.413930
O111	O11	0.103970	0.403010	0.502860
O121	O12	0.079340	0.324420	0.453810
O131	O13	0.409530	0.957870	0.873990
O141	O14	0.343420	0.896460	0.936860
O151	O15	0.591860	0.085040	0.965020
O161	O16	0.530950	0.035990	0.913930
O171	O17	0.403010	0.103970	0.002860
O181	O18	0.324420	0.079340	0.953810
O191	O19	0.042130	0.590470	0.626010
O201	O20	0.103540	0.656580	0.563140
O211	O21	0.914960	0.408140	0.534980
O221	O22	0.964010	0.469050	0.586070
O231	O23	0.896030	0.596990	0.497140
O241	O24	0.920660	0.675580	0.546190
