data_ALUKAU_clean_PM
_symmetry_space_group_name_H-M	'P1'
_cell_length_a	8.522000
_cell_length_b	10.154000
_cell_length_c	11.067000
_cell_angle_alpha	64.726000
_cell_angle_beta	71.738000
_cell_angle_gamma	79.581000
_symmetry_Int_Tables_number 1

loop_
_symmetry_equiv_pos_as_xyz
'x,y,z'

loop_
_atom_site_label
_atom_site_type_symbol
_atom_site_fract_x
_atom_site_fract_y
_atom_site_fract_z
Dy11	Dy1	0.367830	0.061830	0.343490
Dy21	Dy2	0.632170	0.938170	0.656510
H11	H1	0.565000	0.721400	0.315100
H21	H2	0.490800	0.471700	0.720000
H31	H3	0.960700	0.147200	0.120300
H41	H4	0.779700	0.882600	0.017100
H51	H5	0.274000	0.439800	0.916900
H61	H6	0.864200	0.378100	0.230700
H71	H7	0.435000	0.278600	0.684900
H81	H8	0.509200	0.528300	0.280000
H91	H9	0.039300	0.852800	0.879700
H101	H10	0.220300	0.117400	0.982900
H111	H11	0.726000	0.560200	0.083100
H121	H12	0.135800	0.621900	0.769300
C11	C1	0.563700	0.740200	0.548900
C21	C2	0.530300	0.616200	0.521700
C31	C3	0.538200	0.632700	0.389500
C41	C4	0.493800	0.483100	0.631400
C51	C5	0.675200	0.041900	0.166100
C61	C6	0.844500	0.019900	0.080100
C71	C7	0.976700	0.088600	0.071400
C81	C8	0.868100	0.930100	0.009700
C91	C9	0.175100	0.269000	0.180200
C101	C10	0.082600	0.389000	0.089100
C111	C11	0.163100	0.463900	0.950500
C121	C12	0.919200	0.426500	0.138000
C131	C13	0.436300	0.259800	0.451100
C141	C14	0.469700	0.383800	0.478300
C151	C15	0.461800	0.367300	0.610500
C161	C16	0.506200	0.516900	0.368600
C171	C17	0.324800	0.958100	0.833900
C181	C18	0.155500	0.980100	0.919900
C191	C19	0.023300	0.911400	0.928600
C201	C20	0.131900	0.069900	0.990300
C211	C21	0.824900	0.731000	0.819800
C221	C22	0.917400	0.611000	0.910900
C231	C23	0.836900	0.536100	0.049500
C241	C24	0.080800	0.573500	0.862000
O11	O1	0.527000	0.869900	0.475600
O21	O2	0.628800	0.711200	0.643900
O31	O3	0.654700	0.121600	0.233000
O41	O4	0.556200	0.981800	0.170900
O51	O5	0.103200	0.198000	0.306600
O61	O6	0.324000	0.238100	0.130000
O71	O7	0.473000	0.130100	0.524400
O81	O8	0.371200	0.288800	0.356100
O91	O9	0.345300	0.878400	0.767000
O101	O10	0.443800	0.018200	0.829100
O111	O11	0.896800	0.802000	0.693400
O121	O12	0.676000	0.761900	0.870000
