data_ALUKIC_clean_PM
_symmetry_space_group_name_H-M	'P1'
_cell_length_a	16.103500
_cell_length_b	16.103500
_cell_length_c	28.128000
_cell_angle_alpha	79.390800
_cell_angle_beta	79.390800
_cell_angle_gamma	63.177200
_symmetry_Int_Tables_number 1

loop_
_symmetry_equiv_pos_as_xyz
'x,y,z'

loop_
_atom_site_label
_atom_site_type_symbol
_atom_site_fract_x
_atom_site_fract_y
_atom_site_fract_z
Ce11	Ce1	0.531220	0.066620	0.046100
Ce21	Ce2	0.933380	0.468780	0.453900
Ce31	Ce3	0.468780	0.933380	0.953900
Ce41	Ce4	0.066620	0.531220	0.546100
H11	H1	0.633800	0.064400	0.203400
H21	H2	0.706900	0.105700	0.253500
H31	H3	0.842200	0.193800	0.133500
H41	H4	0.760300	0.161100	0.085700
H51	H5	0.325300	0.827700	0.090000
H61	H6	0.262300	0.765700	0.159100
H71	H7	0.366200	0.866000	0.242200
H81	H8	0.430400	0.931400	0.170500
H91	H9	0.823900	0.788300	0.056000
H101	H10	0.949200	0.646400	0.042600
H111	H11	0.807500	0.588500	0.960900
H121	H12	0.682400	0.732200	0.968800
H131	H13	0.935600	0.366200	0.296600
H141	H14	0.894300	0.293100	0.246500
H151	H15	0.806200	0.157800	0.366500
H161	H16	0.838900	0.239700	0.414300
H171	H17	0.172300	0.674700	0.410000
H181	H18	0.234300	0.737700	0.340900
H191	H19	0.134000	0.633800	0.257800
H201	H20	0.068600	0.569600	0.329500
H211	H21	0.211700	0.176100	0.444000
H221	H22	0.353600	0.050800	0.457400
H231	H23	0.411500	0.192500	0.539100
H241	H24	0.267800	0.317600	0.531200
H251	H25	0.366200	0.935600	0.796600
H261	H26	0.293100	0.894300	0.746500
H271	H27	0.157800	0.806200	0.866500
H281	H28	0.239700	0.838900	0.914300
H291	H29	0.674700	0.172300	0.910000
H301	H30	0.737700	0.234300	0.840900
H311	H31	0.633800	0.134000	0.757800
H321	H32	0.569600	0.068600	0.829500
H331	H33	0.176100	0.211700	0.944000
H341	H34	0.050800	0.353600	0.957400
H351	H35	0.192500	0.411500	0.039100
H361	H36	0.317600	0.267800	0.031200
H371	H37	0.064400	0.633800	0.703400
H381	H38	0.105700	0.706900	0.753500
H391	H39	0.193800	0.842200	0.633500
H401	H40	0.161100	0.760300	0.585700
H411	H41	0.827700	0.325300	0.590000
H421	H42	0.765700	0.262300	0.659100
H431	H43	0.866000	0.366200	0.742200
H441	H44	0.931400	0.430400	0.670500
H451	H45	0.788300	0.823900	0.556000
H461	H46	0.646400	0.949200	0.542600
H471	H47	0.588500	0.807500	0.460900
H481	H48	0.732200	0.682400	0.468800
C11	C1	0.645370	0.076570	0.109960
C21	C2	0.704700	0.092900	0.138890
C31	C3	0.678190	0.086590	0.189930
C41	C4	0.719770	0.114370	0.219780
C51	C5	0.780000	0.154600	0.199050
C61	C6	0.800380	0.168580	0.147550
C71	C7	0.755860	0.143460	0.119170
C81	C8	0.421050	0.923850	0.076980
C91	C9	0.381400	0.886800	0.123060
C101	C10	0.332810	0.836610	0.120410
C111	C11	0.295320	0.799320	0.161290
C121	C12	0.307560	0.812760	0.204730
C131	C13	0.358060	0.860060	0.211310
C141	C14	0.396230	0.898830	0.168530
C151	C15	0.664900	0.870700	0.019120
C161	C16	0.740920	0.777320	0.012560
C171	C17	0.821120	0.749720	0.036030
C181	C18	0.894790	0.664590	0.028540
C191	C19	0.889580	0.602180	0.999110
C201	C20	0.811280	0.629280	0.979010
C211	C21	0.735620	0.715020	0.983790
C221	C22	0.923430	0.354630	0.390040
C231	C23	0.907100	0.295300	0.361110
C241	C24	0.913410	0.321810	0.310070
C251	C25	0.885630	0.280230	0.280220
C261	C26	0.845400	0.220000	0.300950
C271	C27	0.831420	0.199620	0.352450
C281	C28	0.856540	0.244140	0.380830
C291	C29	0.076150	0.578950	0.423020
C301	C30	0.113200	0.618600	0.376940
C311	C31	0.163390	0.667190	0.379590
C321	C32	0.200680	0.704680	0.338710
C331	C33	0.187240	0.692440	0.295270
C341	C34	0.139940	0.641940	0.288690
C351	C35	0.101170	0.603770	0.331470
C361	C36	0.129300	0.335100	0.480880
C371	C37	0.222680	0.259080	0.487440
C381	C38	0.250280	0.178880	0.463970
C391	C39	0.335410	0.105210	0.471460
C401	C40	0.397820	0.110420	0.500890
C411	C41	0.370720	0.188720	0.520990
C421	C42	0.284980	0.264380	0.516210
C431	C43	0.354630	0.923430	0.890040
C441	C44	0.295300	0.907100	0.861110
C451	C45	0.321810	0.913410	0.810070
C461	C46	0.280230	0.885630	0.780220
C471	C47	0.220000	0.845400	0.800950
C481	C48	0.199620	0.831420	0.852450
C491	C49	0.244140	0.856540	0.880830
C501	C50	0.578950	0.076150	0.923020
C511	C51	0.618600	0.113200	0.876940
C521	C52	0.667190	0.163390	0.879590
C531	C53	0.704680	0.200680	0.838710
C541	C54	0.692440	0.187240	0.795270
C551	C55	0.641940	0.139940	0.788690
C561	C56	0.603770	0.101170	0.831470
C571	C57	0.335100	0.129300	0.980880
C581	C58	0.259080	0.222680	0.987440
C591	C59	0.178880	0.250280	0.963970
C601	C60	0.105210	0.335410	0.971460
C611	C61	0.110420	0.397820	0.000890
C621	C62	0.188720	0.370720	0.020990
C631	C63	0.264380	0.284980	0.016210
C641	C64	0.076570	0.645370	0.609960
C651	C65	0.092900	0.704700	0.638890
C661	C66	0.086590	0.678190	0.689930
C671	C67	0.114370	0.719770	0.719780
C681	C68	0.154600	0.780000	0.699050
C691	C69	0.168580	0.800380	0.647550
C701	C70	0.143460	0.755860	0.619170
C711	C71	0.923850	0.421050	0.576980
C721	C72	0.886800	0.381400	0.623060
C731	C73	0.836610	0.332810	0.620410
C741	C74	0.799320	0.295320	0.661290
C751	C75	0.812760	0.307560	0.704730
C761	C76	0.860060	0.358060	0.711310
C771	C77	0.898830	0.396230	0.668530
C781	C78	0.870700	0.664900	0.519120
C791	C79	0.777320	0.740920	0.512560
C801	C80	0.749720	0.821120	0.536030
C811	C81	0.664590	0.894790	0.528540
C821	C82	0.602180	0.889580	0.499110
C831	C83	0.629280	0.811280	0.479010
C841	C84	0.715020	0.735620	0.483790
N11	N1	0.820030	0.190430	0.225090
N21	N2	0.275960	0.773960	0.249180
N31	N3	0.955580	0.515360	0.994740
N41	N4	0.809570	0.179970	0.274910
N51	N5	0.226040	0.724040	0.250820
N61	N6	0.484640	0.044420	0.505260
N71	N7	0.179970	0.809570	0.774910
N81	N8	0.724040	0.226040	0.750820
N91	N9	0.044420	0.484640	0.005260
N101	N10	0.190430	0.820030	0.725090
N111	N11	0.773960	0.275960	0.749180
N121	N12	0.515360	0.955580	0.494740
O11	O1	0.590680	0.041760	0.126030
O21	O2	0.656460	0.103620	0.063440
O31	O3	0.407550	0.915350	0.035190
O41	O4	0.469280	0.963520	0.086200
O51	O5	0.597060	0.896500	0.997140
O61	O6	0.674960	0.920640	0.046060
O71	O7	0.958240	0.409320	0.373970
O81	O8	0.896380	0.343540	0.436560
O91	O9	0.084650	0.592450	0.464810
O101	O10	0.036480	0.530720	0.413800
O111	O11	0.103500	0.402940	0.502860
O121	O12	0.079360	0.325040	0.453940
O131	O13	0.409320	0.958240	0.873970
O141	O14	0.343540	0.896380	0.936560
O151	O15	0.592450	0.084650	0.964810
O161	O16	0.530720	0.036480	0.913800
O171	O17	0.402940	0.103500	0.002860
O181	O18	0.325040	0.079360	0.953940
O191	O19	0.041760	0.590680	0.626030
O201	O20	0.103620	0.656460	0.563440
O211	O21	0.915350	0.407550	0.535190
O221	O22	0.963520	0.469280	0.586200
O231	O23	0.896500	0.597060	0.497140
O241	O24	0.920640	0.674960	0.546060
