data_AMILOY_clean_PM
_symmetry_space_group_name_H-M	'P1'
_cell_length_a	12.327400
_cell_length_b	24.747200
_cell_length_c	30.541300
_cell_angle_alpha	90.000000
_cell_angle_beta	90.000000
_cell_angle_gamma	98.232000
_symmetry_Int_Tables_number 1

loop_
_symmetry_equiv_pos_as_xyz
'x,y,z'

loop_
_atom_site_label
_atom_site_type_symbol
_atom_site_fract_x
_atom_site_fract_y
_atom_site_fract_z
Zn11	Zn1	0.424130	0.798670	0.734260
Zn21	Zn2	0.627600	0.751610	0.725610
Zn31	Zn3	0.217080	0.937880	0.852660
Zn41	Zn4	0.692850	0.918630	0.130370
Zn51	Zn5	0.075870	0.701330	0.234260
Zn61	Zn6	0.872400	0.748390	0.225610
Zn71	Zn7	0.282920	0.562120	0.352660
Zn81	Zn8	0.807150	0.581370	0.630370
Zn91	Zn9	0.575870	0.201330	0.265740
Zn101	Zn10	0.372400	0.248390	0.274390
Zn111	Zn11	0.782920	0.062120	0.147340
Zn121	Zn12	0.307150	0.081370	0.869630
Zn131	Zn13	0.924130	0.298670	0.765740
Zn141	Zn14	0.127600	0.251610	0.774390
Zn151	Zn15	0.717080	0.437880	0.647340
Zn161	Zn16	0.192850	0.418630	0.369630
H11	H1	0.290100	0.838300	0.807700
H21	H2	0.367700	0.890200	0.788200
H31	H3	0.176300	0.787500	0.706800
H41	H4	0.173500	0.776400	0.758500
H51	H5	0.370400	0.908600	0.709400
H61	H6	0.295400	0.868400	0.677000
H71	H7	0.092700	0.835700	0.806800
H81	H8	0.039900	0.886500	0.788000
H91	H9	0.157900	0.965300	0.757700
H101	H10	0.288100	0.966600	0.757800
H111	H11	0.104400	0.865700	0.677700
H121	H12	0.048300	0.905100	0.709400
H131	H13	0.672700	0.646600	0.690200
H141	H14	0.741800	0.690500	0.658700
H151	H15	0.779500	0.705700	0.789300
H161	H16	0.695100	0.656300	0.770000
H171	H17	0.868900	0.764900	0.689200
H181	H18	0.883400	0.771000	0.741200
H191	H19	0.760500	0.582100	0.732100
H201	H20	0.890100	0.581200	0.727500
H211	H21	0.999000	0.649700	0.678300
H221	H22	0.938700	0.692700	0.651800
H231	H23	0.015900	0.656700	0.756900
H241	H24	0.970500	0.705700	0.781800
H251	H25	0.474000	0.583500	0.752000
H261	H26	0.463100	0.484400	0.766400
H271	H27	0.360700	0.400000	0.774000
H281	H28	0.078400	0.464400	0.760500
H291	H29	0.091600	0.565400	0.747000
H301	H30	0.194300	0.649300	0.734300
H311	H31	0.720500	0.760000	0.860700
H321	H32	0.764000	0.775100	0.932700
H331	H33	0.718200	0.811000	0.005500
H341	H34	0.441100	0.873100	0.021900
H351	H35	0.384100	0.851400	0.950300
H361	H36	0.431100	0.815600	0.877000
H371	H37	0.572300	0.698400	0.591800
H381	H38	0.579600	0.638300	0.525600
H391	H39	0.516600	0.612200	0.457000
H401	H40	0.285600	0.711300	0.462400
H411	H41	0.273500	0.767500	0.529600
H421	H42	0.334900	0.795800	0.598400
H431	H43	0.925600	0.949900	0.846500
H441	H44	0.736400	0.903000	0.843500
H451	H45	0.548500	0.905100	0.846000
H461	H46	0.596200	0.068200	0.864300
H471	H47	0.789000	0.116200	0.871000
H481	H48	0.974900	0.113500	0.870700
H491	H49	0.209900	0.661700	0.307700
H501	H50	0.132300	0.609800	0.288200
H511	H51	0.323700	0.712500	0.206800
H521	H52	0.326500	0.723600	0.258500
H531	H53	0.129600	0.591400	0.209400
H541	H54	0.204600	0.631600	0.177000
H551	H55	0.407300	0.664300	0.306800
H561	H56	0.460100	0.613500	0.288000
H571	H57	0.342100	0.534700	0.257700
H581	H58	0.211900	0.533400	0.257800
H591	H59	0.395600	0.634300	0.177700
H601	H60	0.451700	0.594900	0.209400
H611	H61	0.827300	0.853400	0.190200
H621	H62	0.758200	0.809500	0.158700
H631	H63	0.720500	0.794300	0.289300
H641	H64	0.804900	0.843700	0.270000
H651	H65	0.631100	0.735100	0.189200
H661	H66	0.616600	0.729000	0.241200
H671	H67	0.739500	0.917900	0.232100
H681	H68	0.609900	0.918800	0.227500
H691	H69	0.501000	0.850300	0.178300
H701	H70	0.561300	0.807300	0.151800
H711	H71	0.484100	0.843300	0.256900
H721	H72	0.529500	0.794300	0.281800
H731	H73	0.026000	0.916500	0.252000
H741	H74	0.036900	0.015600	0.266400
H751	H75	0.139300	0.100000	0.274000
H761	H76	0.421600	0.035600	0.260500
H771	H77	0.408400	0.934600	0.247000
H781	H78	0.305700	0.850700	0.234300
H791	H79	0.779500	0.740000	0.360700
H801	H80	0.736000	0.724900	0.432700
H811	H81	0.781800	0.689000	0.505500
H821	H82	0.058900	0.626900	0.521900
H831	H83	0.115900	0.648600	0.450300
H841	H84	0.068900	0.684400	0.377000
H851	H85	0.927700	0.801600	0.091800
H861	H86	0.920400	0.861700	0.025600
H871	H87	0.983400	0.887800	0.957000
H881	H88	0.214400	0.788700	0.962400
H891	H89	0.226500	0.732500	0.029600
H901	H90	0.165100	0.704200	0.098400
H911	H91	0.574400	0.550100	0.346500
H921	H92	0.763600	0.597000	0.343500
H931	H93	0.951500	0.594900	0.346000
H941	H94	0.903800	0.431800	0.364300
H951	H95	0.711000	0.383800	0.371000
H961	H96	0.525100	0.386500	0.370700
H971	H97	0.709900	0.161700	0.192300
H981	H98	0.632300	0.109800	0.211800
H991	H99	0.823700	0.212500	0.293200
H1001	H100	0.826500	0.223600	0.241500
H1011	H101	0.629600	0.091400	0.290600
H1021	H102	0.704600	0.131600	0.323000
H1031	H103	0.907300	0.164300	0.193200
H1041	H104	0.960100	0.113500	0.212000
H1051	H105	0.842100	0.034700	0.242300
H1061	H106	0.711900	0.033400	0.242200
H1071	H107	0.895600	0.134300	0.322300
H1081	H108	0.951700	0.094900	0.290600
H1091	H109	0.327300	0.353400	0.309800
H1101	H110	0.258200	0.309500	0.341300
H1111	H111	0.220500	0.294300	0.210700
H1121	H112	0.304900	0.343700	0.230000
H1131	H113	0.131100	0.235100	0.310800
H1141	H114	0.116600	0.229000	0.258800
H1151	H115	0.239500	0.417900	0.267900
H1161	H116	0.109900	0.418800	0.272500
H1171	H117	0.001000	0.350300	0.321700
H1181	H118	0.061300	0.307300	0.348200
H1191	H119	0.984100	0.343300	0.243100
H1201	H120	0.029500	0.294300	0.218200
H1211	H121	0.526000	0.416500	0.248000
H1221	H122	0.536900	0.515600	0.233600
H1231	H123	0.639300	0.600000	0.226000
H1241	H124	0.921600	0.535600	0.239500
H1251	H125	0.908400	0.434600	0.253000
H1261	H126	0.805700	0.350700	0.265700
H1271	H127	0.279500	0.240000	0.139300
H1281	H128	0.236000	0.224900	0.067300
H1291	H129	0.281800	0.189000	0.994500
H1301	H130	0.558900	0.126900	0.978100
H1311	H131	0.615900	0.148600	0.049700
H1321	H132	0.568900	0.184400	0.123000
H1331	H133	0.427700	0.301600	0.408200
H1341	H134	0.420400	0.361700	0.474400
H1351	H135	0.483400	0.387800	0.543000
H1361	H136	0.714400	0.288700	0.537600
H1371	H137	0.726500	0.232500	0.470400
H1381	H138	0.665100	0.204200	0.401600
H1391	H139	0.074400	0.050100	0.153500
H1401	H140	0.263600	0.097000	0.156500
H1411	H141	0.451500	0.094900	0.154000
H1421	H142	0.403800	0.931800	0.135700
H1431	H143	0.211000	0.883800	0.129000
H1441	H144	0.025100	0.886500	0.129300
H1451	H145	0.790100	0.338300	0.692300
H1461	H146	0.867700	0.390200	0.711800
H1471	H147	0.676300	0.287500	0.793200
H1481	H148	0.673500	0.276400	0.741500
H1491	H149	0.870400	0.408600	0.790600
H1501	H150	0.795400	0.368400	0.823000
H1511	H151	0.592700	0.335700	0.693200
H1521	H152	0.539900	0.386500	0.712000
H1531	H153	0.657900	0.465300	0.742300
H1541	H154	0.788100	0.466600	0.742200
H1551	H155	0.604400	0.365700	0.822300
H1561	H156	0.548300	0.405100	0.790600
H1571	H157	0.172700	0.146600	0.809800
H1581	H158	0.241800	0.190500	0.841300
H1591	H159	0.279500	0.205700	0.710700
H1601	H160	0.195100	0.156300	0.730000
H1611	H161	0.368900	0.264900	0.810800
H1621	H162	0.383400	0.271000	0.758800
H1631	H163	0.260500	0.082100	0.767900
H1641	H164	0.390100	0.081200	0.772500
H1651	H165	0.499000	0.149700	0.821700
H1661	H166	0.438700	0.192700	0.848200
H1671	H167	0.515900	0.156700	0.743100
H1681	H168	0.470500	0.205700	0.718200
H1691	H169	0.974000	0.083500	0.748000
H1701	H170	0.963100	0.984400	0.733600
H1711	H171	0.860700	0.900000	0.726000
H1721	H172	0.578400	0.964400	0.739500
H1731	H173	0.591600	0.065400	0.753000
H1741	H174	0.694300	0.149300	0.765700
H1751	H175	0.220500	0.260000	0.639300
H1761	H176	0.264000	0.275100	0.567300
H1771	H177	0.218200	0.311000	0.494500
H1781	H178	0.941100	0.373100	0.478100
H1791	H179	0.884100	0.351400	0.549700
H1801	H180	0.931100	0.315600	0.623000
H1811	H181	0.072300	0.198400	0.908200
H1821	H182	0.079600	0.138300	0.974400
H1831	H183	0.016600	0.112200	0.043000
H1841	H184	0.785600	0.211300	0.037600
H1851	H185	0.773500	0.267500	0.970400
H1861	H186	0.834900	0.295800	0.901600
H1871	H187	0.425600	0.449900	0.653500
H1881	H188	0.236400	0.403000	0.656500
H1891	H189	0.048500	0.405100	0.654000
H1901	H190	0.096200	0.568200	0.635700
H1911	H191	0.289000	0.616200	0.629000
H1921	H192	0.474900	0.613500	0.629300
C11	C1	0.296000	0.866800	0.784700
C21	C2	0.181400	0.805300	0.735900
C31	C3	0.298900	0.884900	0.706500
C41	C4	0.100600	0.864600	0.784200
C51	C5	0.217200	0.942500	0.754700
C61	C6	0.108600	0.882700	0.707100
C71	C7	0.743900	0.670300	0.686600
C81	C8	0.766300	0.679500	0.764800
C91	C9	0.869800	0.744300	0.717000
C101	C10	0.832200	0.605200	0.727900
C111	C11	0.938900	0.672300	0.679600
C121	C12	0.956500	0.679700	0.757200
C131	C13	0.410500	0.680200	0.737800
C141	C14	0.344400	0.624800	0.744200
C151	C15	0.396200	0.579400	0.751400
C161	C16	0.336700	0.528400	0.757600
C171	C17	0.385500	0.481200	0.764800
C181	C18	0.325100	0.431200	0.769700
C191	C19	0.210000	0.425500	0.768300
C201	C20	0.156200	0.469000	0.761700
C211	C21	0.220000	0.522900	0.756200
C221	C22	0.169300	0.568900	0.747900
C231	C23	0.229700	0.618700	0.741100
C241	C24	0.143400	0.369300	0.772800
C251	C25	0.551300	0.781100	0.813600
C261	C26	0.571100	0.787200	0.861700
C271	C27	0.670600	0.774900	0.879300
C281	C28	0.696600	0.784000	0.921800
C291	C29	0.624500	0.806700	0.950300
C301	C30	0.651100	0.819500	0.993900
C311	C31	0.582500	0.843900	0.020300
C321	C32	0.487600	0.855700	0.003400
C331	C33	0.453400	0.843900	0.960300
C341	C34	0.525000	0.820400	0.932000
C351	C35	0.499500	0.808600	0.888300
C361	C36	0.621200	0.861100	0.065900
C371	C37	0.492700	0.765000	0.648200
C381	C38	0.458700	0.748500	0.601700
C391	C39	0.511600	0.712200	0.578900
C401	C40	0.476900	0.695300	0.537000
C411	C41	0.521700	0.654700	0.513100
C421	C42	0.483300	0.638700	0.472600
C431	C43	0.397000	0.660200	0.453900
C441	C44	0.346300	0.697600	0.475200
C451	C45	0.386100	0.716000	0.517700
C461	C46	0.334400	0.753400	0.541900
C471	C47	0.370000	0.770000	0.582800
C481	C48	0.342700	0.639400	0.409400
C491	C49	0.088200	0.031700	0.852700
C501	C50	0.966800	0.030200	0.856700
C511	C51	0.897400	0.983000	0.851800
C521	C52	0.777300	0.983100	0.854600
C531	C53	0.708700	0.936400	0.848400
C541	C54	0.598000	0.938000	0.849200
C551	C55	0.555700	0.989300	0.854900
C561	C56	0.624300	0.034700	0.860700
C571	C57	0.746200	0.034500	0.861600
C581	C58	0.816600	0.082600	0.866700
C591	C59	0.925100	0.081100	0.865600
C601	C60	0.436400	0.988900	0.851700
C611	C61	0.204000	0.633200	0.284700
C621	C62	0.318600	0.694700	0.235900
C631	C63	0.201100	0.615100	0.206500
C641	C64	0.399400	0.635400	0.284200
C651	C65	0.282800	0.557500	0.254700
C661	C66	0.391400	0.617300	0.207100
C671	C67	0.756100	0.829700	0.186600
C681	C68	0.733700	0.820500	0.264800
C691	C69	0.630200	0.755700	0.217000
C701	C70	0.667800	0.894800	0.227900
C711	C71	0.561100	0.827700	0.179600
C721	C72	0.543500	0.820300	0.257200
C731	C73	0.089500	0.819800	0.237800
C741	C74	0.155600	0.875200	0.244200
C751	C75	0.103800	0.920600	0.251400
C761	C76	0.163300	0.971600	0.257600
C771	C77	0.114500	0.018800	0.264800
C781	C78	0.174900	0.068800	0.269700
C791	C79	0.290000	0.074500	0.268300
C801	C80	0.343800	0.031000	0.261700
C811	C81	0.280000	0.977100	0.256200
C821	C82	0.330700	0.931100	0.247900
C831	C83	0.270300	0.881300	0.241100
C841	C84	0.356600	0.130700	0.272800
C851	C85	0.948700	0.718900	0.313600
C861	C86	0.928900	0.712800	0.361700
C871	C87	0.829400	0.725100	0.379300
C881	C88	0.803400	0.716000	0.421800
C891	C89	0.875500	0.693300	0.450300
C901	C90	0.848900	0.680500	0.493900
C911	C91	0.917500	0.656100	0.520300
C921	C92	0.012400	0.644300	0.503400
C931	C93	0.046600	0.656100	0.460300
C941	C94	0.975000	0.679600	0.432000
C951	C95	0.000500	0.691400	0.388300
C961	C96	0.878800	0.638900	0.565900
C971	C97	0.007300	0.735000	0.148200
C981	C98	0.041300	0.751500	0.101700
C991	C99	0.988400	0.787800	0.078900
C1001	C100	0.023100	0.804700	0.037000
C1011	C101	0.978300	0.845300	0.013100
C1021	C102	0.016700	0.861300	0.972600
C1031	C103	0.103000	0.839800	0.953900
C1041	C104	0.153700	0.802400	0.975200
C1051	C105	0.113900	0.784000	0.017700
C1061	C106	0.165600	0.746600	0.041900
C1071	C107	0.130000	0.730000	0.082800
C1081	C108	0.157300	0.860600	0.909400
C1091	C109	0.411800	0.468300	0.352700
C1101	C110	0.533200	0.469800	0.356700
C1111	C111	0.602600	0.517000	0.351800
C1121	C112	0.722700	0.516900	0.354600
C1131	C113	0.791300	0.563600	0.348400
C1141	C114	0.902000	0.562000	0.349200
C1151	C115	0.944300	0.510700	0.354900
C1161	C116	0.875700	0.465300	0.360700
C1171	C117	0.753800	0.465500	0.361600
C1181	C118	0.683400	0.417400	0.366700
C1191	C119	0.574900	0.418900	0.365600
C1201	C120	0.063600	0.511100	0.351700
C1211	C121	0.704000	0.133200	0.215300
C1221	C122	0.818600	0.194700	0.264100
C1231	C123	0.701100	0.115100	0.293500
C1241	C124	0.899400	0.135400	0.215800
C1251	C125	0.782800	0.057500	0.245300
C1261	C126	0.891400	0.117300	0.292900
C1271	C127	0.256100	0.329700	0.313400
C1281	C128	0.233700	0.320500	0.235200
C1291	C129	0.130200	0.255700	0.283000
C1301	C130	0.167800	0.394800	0.272100
C1311	C131	0.061100	0.327700	0.320400
C1321	C132	0.043500	0.320300	0.242800
C1331	C133	0.589500	0.319800	0.262200
C1341	C134	0.655600	0.375200	0.255800
C1351	C135	0.603800	0.420600	0.248600
C1361	C136	0.663300	0.471600	0.242400
C1371	C137	0.614500	0.518800	0.235200
C1381	C138	0.674900	0.568800	0.230300
C1391	C139	0.790000	0.574500	0.231700
C1401	C140	0.843800	0.531000	0.238300
C1411	C141	0.780000	0.477100	0.243800
C1421	C142	0.830700	0.431100	0.252100
C1431	C143	0.770300	0.381300	0.258900
C1441	C144	0.856600	0.630700	0.227200
C1451	C145	0.448700	0.218900	0.186400
C1461	C146	0.428900	0.212800	0.138300
C1471	C147	0.329400	0.225100	0.120700
C1481	C148	0.303400	0.216000	0.078200
C1491	C149	0.375500	0.193300	0.049700
C1501	C150	0.348900	0.180500	0.006100
C1511	C151	0.417500	0.156100	0.979700
C1521	C152	0.512400	0.144300	0.996600
C1531	C153	0.546600	0.156100	0.039700
C1541	C154	0.475000	0.179600	0.068000
C1551	C155	0.500500	0.191400	0.111700
C1561	C156	0.378800	0.138900	0.934100
C1571	C157	0.507300	0.235000	0.351800
C1581	C158	0.541300	0.251500	0.398300
C1591	C159	0.488400	0.287800	0.421100
C1601	C160	0.523100	0.304700	0.463000
C1611	C161	0.478300	0.345300	0.486900
C1621	C162	0.516700	0.361300	0.527400
C1631	C163	0.603000	0.339800	0.546100
C1641	C164	0.653700	0.302400	0.524800
C1651	C165	0.613900	0.284000	0.482300
C1661	C166	0.665600	0.246600	0.458100
C1671	C167	0.630000	0.230000	0.417200
C1681	C168	0.657300	0.360600	0.590600
C1691	C169	0.911800	0.968300	0.147300
C1701	C170	0.033200	0.969800	0.143300
C1711	C171	0.102600	0.017000	0.148200
C1721	C172	0.222700	0.016900	0.145400
C1731	C173	0.291300	0.063600	0.151600
C1741	C174	0.402000	0.062000	0.150800
C1751	C175	0.444300	0.010700	0.145100
C1761	C176	0.375700	0.965300	0.139300
C1771	C177	0.253800	0.965500	0.138400
C1781	C178	0.183400	0.917400	0.133300
C1791	C179	0.074900	0.918900	0.134400
C1801	C180	0.563600	0.011100	0.148300
C1811	C181	0.796000	0.366800	0.715300
C1821	C182	0.681400	0.305300	0.764100
C1831	C183	0.798900	0.384900	0.793500
C1841	C184	0.600600	0.364600	0.715800
C1851	C185	0.717200	0.442500	0.745300
C1861	C186	0.608600	0.382700	0.792900
C1871	C187	0.243900	0.170300	0.813400
C1881	C188	0.266300	0.179500	0.735200
C1891	C189	0.369800	0.244300	0.783000
C1901	C190	0.332200	0.105200	0.772100
C1911	C191	0.438900	0.172300	0.820400
C1921	C192	0.456500	0.179700	0.742800
C1931	C193	0.910500	0.180200	0.762200
C1941	C194	0.844400	0.124800	0.755800
C1951	C195	0.896200	0.079400	0.748600
C1961	C196	0.836700	0.028400	0.742400
C1971	C197	0.885500	0.981200	0.735200
C1981	C198	0.825100	0.931200	0.730300
C1991	C199	0.710000	0.925500	0.731700
C2001	C200	0.656200	0.969000	0.738300
C2011	C201	0.720000	0.022900	0.743800
C2021	C202	0.669300	0.068900	0.752100
C2031	C203	0.729700	0.118700	0.758900
C2041	C204	0.643400	0.869300	0.727200
C2051	C205	0.051300	0.281100	0.686400
C2061	C206	0.071100	0.287200	0.638300
C2071	C207	0.170600	0.274900	0.620700
C2081	C208	0.196600	0.284000	0.578200
C2091	C209	0.124500	0.306700	0.549700
C2101	C210	0.151100	0.319500	0.506100
C2111	C211	0.082500	0.343900	0.479700
C2121	C212	0.987600	0.355700	0.496600
C2131	C213	0.953400	0.343900	0.539700
C2141	C214	0.025000	0.320400	0.568000
C2151	C215	0.999500	0.308600	0.611700
C2161	C216	0.121200	0.361100	0.434100
C2171	C217	0.992700	0.265000	0.851800
C2181	C218	0.958700	0.248500	0.898300
C2191	C219	0.011600	0.212200	0.921100
C2201	C220	0.976900	0.195300	0.963000
C2211	C221	0.021700	0.154700	0.986900
C2221	C222	0.983300	0.138700	0.027400
C2231	C223	0.897000	0.160200	0.046100
C2241	C224	0.846300	0.197600	0.024800
C2251	C225	0.886100	0.216000	0.982300
C2261	C226	0.834400	0.253400	0.958100
C2271	C227	0.870000	0.270000	0.917200
C2281	C228	0.842700	0.139400	0.090600
C2291	C229	0.588200	0.531700	0.647300
C2301	C230	0.466800	0.530200	0.643300
C2311	C231	0.397400	0.483000	0.648200
C2321	C232	0.277300	0.483100	0.645400
C2331	C233	0.208700	0.436400	0.651600
C2341	C234	0.098000	0.438000	0.650800
C2351	C235	0.055700	0.489300	0.645100
C2361	C236	0.124300	0.534700	0.639300
C2371	C237	0.246200	0.534500	0.638400
C2381	C238	0.316600	0.582600	0.633300
C2391	C239	0.425100	0.581100	0.634400
C2401	C240	0.936400	0.488900	0.648300
N11	N1	0.291100	0.840300	0.740600
N21	N2	0.206600	0.900500	0.790400
N31	N3	0.092200	0.839200	0.740700
N41	N4	0.211300	0.917800	0.711200
N51	N5	0.760700	0.709600	0.723500
N61	N6	0.832700	0.636300	0.684900
N71	N7	0.852600	0.645500	0.763900
N81	N8	0.958500	0.710500	0.715600
N91	N9	0.208900	0.659700	0.240600
N101	N10	0.293400	0.599500	0.290400
N111	N11	0.407800	0.660800	0.240700
N121	N12	0.288700	0.582200	0.211200
N131	N13	0.739300	0.790400	0.223500
N141	N14	0.667300	0.863700	0.184900
N151	N15	0.647400	0.854500	0.263900
N161	N16	0.541500	0.789500	0.215600
N171	N17	0.708900	0.159700	0.259400
N181	N18	0.793400	0.099500	0.209600
N191	N19	0.907800	0.160800	0.259300
N201	N20	0.788700	0.082200	0.288800
N211	N21	0.239300	0.290400	0.276500
N221	N22	0.167300	0.363700	0.315100
N231	N23	0.147400	0.354500	0.236100
N241	N24	0.041500	0.289500	0.284400
N251	N25	0.791100	0.340300	0.759400
N261	N26	0.706600	0.400500	0.709600
N271	N27	0.592200	0.339200	0.759300
N281	N28	0.711300	0.417800	0.788800
N291	N29	0.260700	0.209600	0.776500
N301	N30	0.332700	0.136300	0.815100
N311	N31	0.352600	0.145500	0.736100
N321	N32	0.458500	0.210500	0.784400
O11	O1	0.513500	0.683700	0.738400
O21	O2	0.357000	0.719900	0.732400
O31	O3	0.041400	0.364900	0.765000
O41	O4	0.193000	0.331100	0.784000
O51	O5	0.628600	0.768000	0.790200
O61	O6	0.459200	0.788900	0.799250
O71	O7	0.559400	0.887100	0.087400
O81	O8	0.705100	0.846400	0.080600
O91	O9	0.574300	0.745800	0.663000
O101	O10	0.437100	0.795500	0.667700
O111	O11	0.278900	0.663200	0.391200
O121	O12	0.377500	0.596000	0.396900
O131	O13	0.145000	0.073500	0.867000
O141	O14	0.124700	0.992600	0.834000
O151	O15	0.376800	0.943700	0.858800
O161	O16	0.398400	0.031200	0.840800
O171	O17	0.986500	0.816300	0.238400
O181	O18	0.143000	0.780100	0.232400
O191	O19	0.458600	0.135100	0.265000
O201	O20	0.307000	0.168900	0.284000
O211	O21	0.871400	0.732000	0.290200
O221	O22	0.040800	0.711100	0.299250
O231	O23	0.940600	0.612900	0.587400
O241	O24	0.794900	0.653600	0.580600
O251	O25	0.925700	0.754200	0.163000
O261	O26	0.062900	0.704500	0.167700
O271	O27	0.221100	0.836800	0.891200
O281	O28	0.122500	0.904000	0.896900
O291	O29	0.355000	0.426500	0.367000
O301	O30	0.375300	0.507400	0.334000
O311	O31	0.123200	0.556300	0.358800
O321	O32	0.101600	0.468800	0.340800
O331	O33	0.486500	0.316300	0.261600
O341	O34	0.643000	0.280100	0.267600
O351	O35	0.958600	0.635100	0.235000
O361	O36	0.807000	0.668900	0.216000
O371	O37	0.371400	0.232000	0.209800
O381	O38	0.540800	0.211100	0.200750
O391	O39	0.440600	0.112900	0.912600
O401	O40	0.294900	0.153600	0.919400
O411	O41	0.425700	0.254200	0.337000
O421	O42	0.562900	0.204500	0.332300
O431	O43	0.721100	0.336800	0.608800
O441	O44	0.622500	0.404000	0.603100
O451	O45	0.855000	0.926500	0.133000
O461	O46	0.875300	0.007400	0.166000
O471	O47	0.623200	0.056300	0.141200
O481	O48	0.601600	0.968800	0.159200
O491	O49	0.013500	0.183700	0.761600
O501	O50	0.857000	0.219900	0.767600
O511	O51	0.541400	0.864900	0.735000
O521	O52	0.693000	0.831100	0.716000
O531	O53	0.128600	0.268000	0.709800
O541	O54	0.959200	0.288900	0.700750
O551	O55	0.059400	0.387100	0.412600
O561	O56	0.205100	0.346400	0.419400
O571	O57	0.074300	0.245800	0.837000
O581	O58	0.937100	0.295500	0.832300
O591	O59	0.778900	0.163200	0.108800
O601	O60	0.877500	0.096000	0.103100
O611	O61	0.645000	0.573500	0.633000
O621	O62	0.624700	0.492600	0.666000
O631	O63	0.876800	0.443700	0.641200
O641	O64	0.898400	0.531200	0.659200
