data_AMIMAL_clean_PM
_symmetry_space_group_name_H-M	'P1'
_cell_length_a	12.252700
_cell_length_b	24.718400
_cell_length_c	31.251500
_cell_angle_alpha	90.000000
_cell_angle_beta	90.000000
_cell_angle_gamma	97.023000
_symmetry_Int_Tables_number 1

loop_
_symmetry_equiv_pos_as_xyz
'x,y,z'

loop_
_atom_site_label
_atom_site_type_symbol
_atom_site_fract_x
_atom_site_fract_y
_atom_site_fract_z
Zn11	Zn1	0.589610	0.206530	0.259070
Zn21	Zn2	0.387900	0.253770	0.270890
Zn31	Zn3	0.701400	0.433850	0.638830
Zn41	Zn4	0.296960	0.081040	0.876160
Zn51	Zn5	0.910390	0.293470	0.759070
Zn61	Zn6	0.112100	0.246230	0.770890
Zn71	Zn7	0.798600	0.066150	0.138830
Zn81	Zn8	0.203040	0.418960	0.376160
Zn91	Zn9	0.410390	0.793470	0.740930
Zn101	Zn10	0.612100	0.746230	0.729110
Zn111	Zn11	0.298600	0.566150	0.361170
Zn121	Zn12	0.703040	0.918960	0.123840
Zn131	Zn13	0.089610	0.706530	0.240930
Zn141	Zn14	0.887900	0.753770	0.229110
Zn151	Zn15	0.201400	0.933850	0.861170
Zn161	Zn16	0.796960	0.581040	0.623840
H11	H1	0.653300	0.110500	0.209300
H21	H2	0.704900	0.162500	0.182200
H31	H3	0.818400	0.237700	0.217600
H41	H4	0.841600	0.235000	0.267900
H51	H5	0.763400	0.155300	0.309500
H61	H6	0.689900	0.105800	0.286300
H71	H7	0.981100	0.137400	0.187900
H81	H8	0.902000	0.178900	0.169600
H91	H9	0.773400	0.047400	0.238600
H101	H10	0.903000	0.057600	0.229800
H111	H11	0.957500	0.172100	0.295400
H121	H12	0.013600	0.132900	0.263600
H131	H13	0.273400	0.309300	0.343400
H141	H14	0.337600	0.355400	0.313600
H151	H15	0.309700	0.352500	0.236000
H161	H16	0.229200	0.303700	0.215000
H171	H17	0.132000	0.232500	0.261100
H181	H18	0.149100	0.235600	0.311900
H191	H19	0.106300	0.418400	0.283300
H201	H20	0.236400	0.420900	0.276700
H211	H21	0.075100	0.304700	0.352600
H221	H22	0.008700	0.348100	0.329100
H231	H23	0.034500	0.298500	0.225300
H241	H24	0.984500	0.344500	0.252600
H251	H25	0.541700	0.422100	0.231900
H261	H26	0.562600	0.521100	0.211600
H271	H27	0.669900	0.604900	0.208900
H281	H28	0.934600	0.537700	0.252400
H291	H29	0.915100	0.438800	0.270500
H301	H30	0.807300	0.355500	0.275700
H311	H31	0.263000	0.233800	0.141200
H321	H32	0.214100	0.212100	0.071400
H331	H33	0.263100	0.177800	0.999300
H341	H34	0.568400	0.135300	0.979200
H351	H35	0.618500	0.158900	0.048800
H361	H36	0.570900	0.194400	0.120200
H371	H37	0.440600	0.298000	0.400000
H381	H38	0.414000	0.353500	0.465000
H391	H39	0.472900	0.383800	0.532200
H401	H40	0.714600	0.285800	0.530700
H411	H41	0.743300	0.230900	0.464800
H421	H42	0.693100	0.205800	0.395800
H431	H43	0.415700	0.449700	0.652600
H441	H44	0.226000	0.399300	0.653500
H451	H45	0.037500	0.400800	0.651200
H461	H46	0.079900	0.564100	0.629300
H471	H47	0.270300	0.613000	0.623200
H481	H48	0.458400	0.612500	0.628800
H491	H49	0.846700	0.389500	0.709300
H501	H50	0.795100	0.337500	0.682200
H511	H51	0.681600	0.262300	0.717600
H521	H52	0.658400	0.265000	0.767900
H531	H53	0.736600	0.344700	0.809500
H541	H54	0.810100	0.394200	0.786300
H551	H55	0.518900	0.362600	0.687900
H561	H56	0.598000	0.321100	0.669600
H571	H57	0.726600	0.452600	0.738600
H581	H58	0.597000	0.442400	0.729800
H591	H59	0.542500	0.327900	0.795400
H601	H60	0.486400	0.367100	0.763600
H611	H61	0.226600	0.190700	0.843400
H621	H62	0.162400	0.144600	0.813600
H631	H63	0.190300	0.147500	0.736000
H641	H64	0.270800	0.196300	0.715000
H651	H65	0.368000	0.267500	0.761100
H661	H66	0.350900	0.264400	0.811900
H671	H67	0.393700	0.081600	0.783300
H681	H68	0.263600	0.079100	0.776700
H691	H69	0.424900	0.195300	0.852600
H701	H70	0.491300	0.151900	0.829100
H711	H71	0.465500	0.201500	0.725300
H721	H72	0.515500	0.155500	0.752600
H731	H73	0.958300	0.077900	0.731900
H741	H74	0.937400	0.978900	0.711600
H751	H75	0.830100	0.895100	0.708900
H761	H76	0.565400	0.962300	0.752400
H771	H77	0.584900	0.061200	0.770500
H781	H78	0.692700	0.144500	0.775700
H791	H79	0.237000	0.266200	0.641200
H801	H80	0.285900	0.287900	0.571400
H811	H81	0.236900	0.322200	0.499300
H821	H82	0.931600	0.364700	0.479200
H831	H83	0.881500	0.341100	0.548800
H841	H84	0.929100	0.305600	0.620200
H851	H85	0.059400	0.202000	0.900000
H861	H86	0.086000	0.146500	0.965000
H871	H87	0.027100	0.116200	0.032200
H881	H88	0.785400	0.214200	0.030700
H891	H89	0.756700	0.269100	0.964800
H901	H90	0.806900	0.294200	0.895800
H911	H91	0.084300	0.050300	0.152600
H921	H92	0.274000	0.100700	0.153500
H931	H93	0.462500	0.099200	0.151200
H941	H94	0.420100	0.935900	0.129300
H951	H95	0.229700	0.887000	0.123200
H961	H96	0.041600	0.887500	0.128800
H971	H97	0.346700	0.889500	0.790700
H981	H98	0.295100	0.837500	0.817800
H991	H99	0.181600	0.762300	0.782400
H1001	H100	0.158400	0.765000	0.732100
H1011	H101	0.236600	0.844700	0.690500
H1021	H102	0.310100	0.894200	0.713700
H1031	H103	0.018900	0.862600	0.812100
H1041	H104	0.098000	0.821100	0.830400
H1051	H105	0.226600	0.952600	0.761400
H1061	H106	0.097000	0.942400	0.770200
H1071	H107	0.042500	0.827900	0.704600
H1081	H108	0.986400	0.867100	0.736400
H1091	H109	0.726600	0.690700	0.656600
H1101	H110	0.662400	0.644600	0.686400
H1111	H111	0.690300	0.647500	0.764000
H1121	H112	0.770800	0.696300	0.785000
H1131	H113	0.868000	0.767500	0.738900
H1141	H114	0.850900	0.764400	0.688100
H1151	H115	0.893700	0.581600	0.716700
H1161	H116	0.763600	0.579100	0.723300
H1171	H117	0.924900	0.695300	0.647400
H1181	H118	0.991300	0.651900	0.670900
H1191	H119	0.965500	0.701500	0.774700
H1201	H120	0.015500	0.655500	0.747400
H1211	H121	0.458300	0.577900	0.768100
H1221	H122	0.437400	0.478900	0.788400
H1231	H123	0.330100	0.395100	0.791100
H1241	H124	0.065400	0.462300	0.747600
H1251	H125	0.084900	0.561200	0.729500
H1261	H126	0.192700	0.644500	0.724300
H1271	H127	0.737000	0.766200	0.858800
H1281	H128	0.785900	0.787900	0.928600
H1291	H129	0.736900	0.822200	0.000700
H1301	H130	0.431600	0.864700	0.020800
H1311	H131	0.381500	0.841100	0.951200
H1321	H132	0.429100	0.805600	0.879800
H1331	H133	0.559400	0.702000	0.600000
H1341	H134	0.586000	0.646500	0.535000
H1351	H135	0.527100	0.616200	0.467800
H1361	H136	0.285400	0.714200	0.469300
H1371	H137	0.256700	0.769100	0.535200
H1381	H138	0.306900	0.794200	0.604200
H1391	H139	0.584300	0.550300	0.347400
H1401	H140	0.774000	0.600700	0.346500
H1411	H141	0.962500	0.599200	0.348800
H1421	H142	0.920100	0.435900	0.370700
H1431	H143	0.729700	0.387000	0.376800
H1441	H144	0.541600	0.387500	0.371200
H1451	H145	0.153300	0.610500	0.290700
H1461	H146	0.204900	0.662500	0.317800
H1471	H147	0.318400	0.737700	0.282400
H1481	H148	0.341600	0.735000	0.232100
H1491	H149	0.263400	0.655300	0.190500
H1501	H150	0.189900	0.605800	0.213700
H1511	H151	0.481100	0.637400	0.312100
H1521	H152	0.402000	0.678900	0.330400
H1531	H153	0.273400	0.547400	0.261400
H1541	H154	0.403000	0.557600	0.270200
H1551	H155	0.457500	0.672100	0.204600
H1561	H156	0.513600	0.632900	0.236400
H1571	H157	0.773400	0.809300	0.156600
H1581	H158	0.837600	0.855400	0.186400
H1591	H159	0.809700	0.852500	0.264000
H1601	H160	0.729200	0.803700	0.285000
H1611	H161	0.632000	0.732500	0.238900
H1621	H162	0.649100	0.735600	0.188100
H1631	H163	0.606300	0.918400	0.216700
H1641	H164	0.736400	0.920900	0.223300
H1651	H165	0.575100	0.804700	0.147400
H1661	H166	0.508700	0.848100	0.170900
H1671	H167	0.534500	0.798500	0.274700
H1681	H168	0.484500	0.844500	0.247400
H1691	H169	0.041700	0.922100	0.268100
H1701	H170	0.062600	0.021100	0.288400
H1711	H171	0.169900	0.104900	0.291100
H1721	H172	0.434600	0.037700	0.247600
H1731	H173	0.415100	0.938800	0.229500
H1741	H174	0.307300	0.855500	0.224300
H1751	H175	0.763000	0.733800	0.358800
H1761	H176	0.714100	0.712100	0.428600
H1771	H177	0.763100	0.677800	0.500700
H1781	H178	0.068400	0.635300	0.520800
H1791	H179	0.118500	0.658900	0.451200
H1801	H180	0.070900	0.694400	0.379800
H1811	H181	0.940600	0.798000	0.100000
H1821	H182	0.914000	0.853500	0.035000
H1831	H183	0.972900	0.883800	0.967800
H1841	H184	0.214600	0.785800	0.969300
H1851	H185	0.243300	0.730900	0.035200
H1861	H186	0.193100	0.705800	0.104200
H1871	H187	0.915700	0.949700	0.847400
H1881	H188	0.726000	0.899300	0.846500
H1891	H189	0.537500	0.900800	0.848800
H1901	H190	0.579900	0.064100	0.870700
H1911	H191	0.770300	0.113000	0.876800
H1921	H192	0.958400	0.112500	0.871200
C11	C1	0.718180	0.138350	0.206500
C21	C2	0.830790	0.212930	0.241480
C31	C3	0.753850	0.134040	0.282680
C41	C4	0.913840	0.154560	0.193870
C51	C5	0.836900	0.075920	0.235160
C61	C6	0.946250	0.150380	0.268790
C71	C7	0.267780	0.331100	0.317080
C81	C8	0.240580	0.327850	0.240300
C91	C9	0.144650	0.257750	0.285670
C101	C10	0.167650	0.395970	0.280900
C111	C11	0.071360	0.326540	0.326230
C121	C12	0.047270	0.322940	0.250390
C131	C13	0.595500	0.326590	0.257690
C141	C14	0.663130	0.381200	0.253990
C151	C15	0.617350	0.425780	0.239470
C161	C16	0.682020	0.477550	0.235670
C171	C17	0.637200	0.524210	0.220520
C181	C18	0.701080	0.573750	0.218630
C191	C19	0.813410	0.579010	0.231130
C201	C20	0.859090	0.534170	0.244700
C211	C21	0.794930	0.482280	0.247420
C221	C22	0.839840	0.435810	0.262480
C231	C23	0.775910	0.386440	0.265660
C241	C24	0.880140	0.634500	0.230220
C251	C25	0.449960	0.225040	0.183880
C261	C26	0.422470	0.215100	0.137450
C271	C27	0.315050	0.220950	0.122380
C281	C28	0.286200	0.208150	0.081060
C291	C29	0.362770	0.188930	0.052300
C301	C30	0.334660	0.173940	0.009660
C311	C31	0.409300	0.153910	0.983080
C321	C32	0.516740	0.148670	0.997840
C331	C33	0.546510	0.162870	0.039060
C341	C34	0.470690	0.183420	0.067200
C351	C35	0.498710	0.197370	0.110180
C361	C36	0.374810	0.134060	0.939170
C371	C37	0.533300	0.237060	0.345180
C381	C38	0.562090	0.250660	0.390980
C391	C39	0.502700	0.285370	0.413110
C401	C40	0.533060	0.302400	0.455130
C411	C41	0.476170	0.340330	0.477660
C421	C42	0.510730	0.358030	0.517630
C431	C43	0.601960	0.338300	0.537330
C441	C44	0.655700	0.300230	0.516760
C451	C45	0.624560	0.282100	0.474920
C461	C46	0.682930	0.245170	0.451760
C471	C47	0.652930	0.230150	0.410940
C481	C48	0.645440	0.361020	0.579710
C491	C49	0.575460	0.530370	0.645640
C501	C50	0.453920	0.530280	0.641950
C511	C51	0.385330	0.482540	0.646830
C521	C52	0.269620	0.481470	0.643420
C531	C53	0.197120	0.432730	0.648940
C541	C54	0.085670	0.433620	0.647770
C551	C55	0.041960	0.483580	0.641390
C561	C56	0.110310	0.531210	0.634450
C571	C57	0.225990	0.531270	0.634990
C581	C58	0.299060	0.579910	0.629360
C591	C59	0.410350	0.579720	0.632680
C601	C60	0.920480	0.484800	0.643590
C611	C61	0.781820	0.361650	0.706500
C621	C62	0.669210	0.287070	0.741480
C631	C63	0.746150	0.365960	0.782680
C641	C64	0.586160	0.345440	0.693870
C651	C65	0.663100	0.424080	0.735160
C661	C66	0.553750	0.349620	0.768790
C671	C67	0.232220	0.168900	0.817080
C681	C68	0.259420	0.172150	0.740300
C691	C69	0.355350	0.242250	0.785670
C701	C70	0.332350	0.104030	0.780900
C711	C71	0.428640	0.173460	0.826230
C721	C72	0.452730	0.177060	0.750390
C731	C73	0.904500	0.173410	0.757690
C741	C74	0.836870	0.118800	0.753990
C751	C75	0.882650	0.074220	0.739470
C761	C76	0.817980	0.022450	0.735670
C771	C77	0.862800	0.975790	0.720520
C781	C78	0.798920	0.926250	0.718630
C791	C79	0.686590	0.920990	0.731130
C801	C80	0.640910	0.965830	0.744700
C811	C81	0.705070	0.017720	0.747420
C821	C82	0.660160	0.064190	0.762480
C831	C83	0.724090	0.113560	0.765660
C841	C84	0.619860	0.865500	0.730220
C851	C85	0.050040	0.274960	0.683880
C861	C86	0.077530	0.284900	0.637450
C871	C87	0.184950	0.279050	0.622380
C881	C88	0.213800	0.291850	0.581060
C891	C89	0.137230	0.311070	0.552300
C901	C90	0.165340	0.326060	0.509660
C911	C91	0.090700	0.346090	0.483080
C921	C92	0.983260	0.351330	0.497840
C931	C93	0.953490	0.337130	0.539060
C941	C94	0.029310	0.316580	0.567200
C951	C95	0.001290	0.302630	0.610180
C961	C96	0.125190	0.365940	0.439170
C971	C97	0.966700	0.262940	0.845180
C981	C98	0.937910	0.249340	0.890980
C991	C99	0.997300	0.214630	0.913110
C1001	C100	0.966940	0.197600	0.955130
C1011	C101	0.023830	0.159670	0.977660
C1021	C102	0.989270	0.141970	0.017630
C1031	C103	0.898040	0.161700	0.037330
C1041	C104	0.844300	0.199770	0.016760
C1051	C105	0.875440	0.217900	0.974920
C1061	C106	0.817070	0.254830	0.951760
C1071	C107	0.847070	0.269850	0.910940
C1081	C108	0.854560	0.138980	0.079710
C1091	C109	0.924540	0.969630	0.145640
C1101	C110	0.046080	0.969720	0.141950
C1111	C111	0.114670	0.017460	0.146830
C1121	C112	0.230380	0.018530	0.143420
C1131	C113	0.302880	0.067270	0.148940
C1141	C114	0.414330	0.066380	0.147770
C1151	C115	0.458040	0.016420	0.141390
C1161	C116	0.389690	0.968790	0.134450
C1171	C117	0.274010	0.968730	0.134990
C1181	C118	0.200940	0.920090	0.129360
C1191	C119	0.089650	0.920280	0.132680
C1201	C120	0.579520	0.015200	0.143590
C1211	C121	0.281820	0.861650	0.793500
C1221	C122	0.169210	0.787070	0.758520
C1231	C123	0.246150	0.865960	0.717320
C1241	C124	0.086160	0.845440	0.806130
C1251	C125	0.163100	0.924080	0.764840
C1261	C126	0.053750	0.849620	0.731210
C1271	C127	0.732220	0.668900	0.682920
C1281	C128	0.759420	0.672150	0.759700
C1291	C129	0.855350	0.742250	0.714330
C1301	C130	0.832350	0.604030	0.719100
C1311	C131	0.928640	0.673460	0.673770
C1321	C132	0.952730	0.677060	0.749610
C1331	C133	0.404500	0.673410	0.742310
C1341	C134	0.336870	0.618800	0.746010
C1351	C135	0.382650	0.574220	0.760530
C1361	C136	0.317980	0.522450	0.764330
C1371	C137	0.362800	0.475790	0.779480
C1381	C138	0.298920	0.426250	0.781370
C1391	C139	0.186590	0.420990	0.768870
C1401	C140	0.140910	0.465830	0.755300
C1411	C141	0.205070	0.517720	0.752580
C1421	C142	0.160160	0.564190	0.737520
C1431	C143	0.224090	0.613560	0.734340
C1441	C144	0.119860	0.365500	0.769780
C1451	C145	0.550040	0.774960	0.816120
C1461	C146	0.577530	0.784900	0.862550
C1471	C147	0.684950	0.779050	0.877620
C1481	C148	0.713800	0.791850	0.918940
C1491	C149	0.637230	0.811070	0.947700
C1501	C150	0.665340	0.826060	0.990340
C1511	C151	0.590700	0.846090	0.016920
C1521	C152	0.483260	0.851330	0.002160
C1531	C153	0.453490	0.837130	0.960940
C1541	C154	0.529310	0.816580	0.932800
C1551	C155	0.501290	0.802630	0.889820
C1561	C156	0.625190	0.865940	0.060830
C1571	C157	0.466700	0.762940	0.654820
C1581	C158	0.437910	0.749340	0.609020
C1591	C159	0.497300	0.714630	0.586890
C1601	C160	0.466940	0.697600	0.544870
C1611	C161	0.523830	0.659670	0.522340
C1621	C162	0.489270	0.641970	0.482370
C1631	C163	0.398040	0.661700	0.462670
C1641	C164	0.344300	0.699770	0.483240
C1651	C165	0.375440	0.717900	0.525080
C1661	C166	0.317070	0.754830	0.548240
C1671	C167	0.347070	0.769850	0.589060
C1681	C168	0.354560	0.638980	0.420290
C1691	C169	0.424540	0.469630	0.354360
C1701	C170	0.546080	0.469720	0.358050
C1711	C171	0.614670	0.517460	0.353170
C1721	C172	0.730380	0.518530	0.356580
C1731	C173	0.802880	0.567270	0.351060
C1741	C174	0.914330	0.566380	0.352230
C1751	C175	0.958040	0.516420	0.358610
C1761	C176	0.889690	0.468790	0.365550
C1771	C177	0.774010	0.468730	0.365010
C1781	C178	0.700940	0.420090	0.370640
C1791	C179	0.589650	0.420280	0.367320
C1801	C180	0.079520	0.515200	0.356410
C1811	C181	0.218180	0.638350	0.293500
C1821	C182	0.330790	0.712930	0.258520
C1831	C183	0.253850	0.634040	0.217320
C1841	C184	0.413840	0.654560	0.306130
C1851	C185	0.336900	0.575920	0.264840
C1861	C186	0.446250	0.650380	0.231210
C1871	C187	0.767780	0.831100	0.182920
C1881	C188	0.740580	0.827850	0.259700
C1891	C189	0.644650	0.757750	0.214330
C1901	C190	0.667650	0.895970	0.219100
C1911	C191	0.571360	0.826540	0.173770
C1921	C192	0.547270	0.822940	0.249610
C1931	C193	0.095500	0.826590	0.242310
C1941	C194	0.163130	0.881200	0.246010
C1951	C195	0.117350	0.925780	0.260530
C1961	C196	0.182020	0.977550	0.264330
C1971	C197	0.137200	0.024210	0.279480
C1981	C198	0.201080	0.073750	0.281370
C1991	C199	0.313410	0.079010	0.268870
C2001	C200	0.359090	0.034170	0.255300
C2011	C201	0.294930	0.982280	0.252580
C2021	C202	0.339840	0.935810	0.237520
C2031	C203	0.275910	0.886440	0.234340
C2041	C204	0.380140	0.134500	0.269780
C2051	C205	0.949960	0.725040	0.316120
C2061	C206	0.922470	0.715100	0.362550
C2071	C207	0.815050	0.720950	0.377620
C2081	C208	0.786200	0.708150	0.418940
C2091	C209	0.862770	0.688930	0.447700
C2101	C210	0.834660	0.673940	0.490340
C2111	C211	0.909300	0.653910	0.516920
C2121	C212	0.016740	0.648670	0.502160
C2131	C213	0.046510	0.662870	0.460940
C2141	C214	0.970690	0.683420	0.432800
C2151	C215	0.998710	0.697370	0.389820
C2161	C216	0.874810	0.634060	0.560830
C2171	C217	0.033300	0.737060	0.154820
C2181	C218	0.062090	0.750660	0.109020
C2191	C219	0.002700	0.785370	0.086890
C2201	C220	0.033060	0.802400	0.044870
C2211	C221	0.976170	0.840330	0.022340
C2221	C222	0.010730	0.858030	0.982370
C2231	C223	0.101960	0.838300	0.962670
C2241	C224	0.155700	0.800230	0.983240
C2251	C225	0.124560	0.782100	0.025080
C2261	C226	0.182930	0.745170	0.048240
C2271	C227	0.152930	0.730150	0.089060
C2281	C228	0.145440	0.861020	0.920290
C2291	C229	0.075460	0.030370	0.854360
C2301	C230	0.953920	0.030280	0.858050
C2311	C231	0.885330	0.982540	0.853170
C2321	C232	0.769620	0.981470	0.856580
C2331	C233	0.697120	0.932730	0.851060
C2341	C234	0.585670	0.933620	0.852230
C2351	C235	0.541960	0.983580	0.858610
C2361	C236	0.610310	0.031210	0.865550
C2371	C237	0.725990	0.031270	0.865010
C2381	C238	0.799060	0.079910	0.870640
C2391	C239	0.910350	0.079720	0.867320
C2401	C240	0.420480	0.984800	0.856410
N11	N1	0.731640	0.171180	0.246570
N21	N2	0.817260	0.110980	0.197400
N31	N3	0.852310	0.107700	0.274690
N41	N4	0.929670	0.186870	0.232950
N51	N5	0.251270	0.293770	0.279530
N61	N6	0.175720	0.364620	0.321640
N71	N7	0.149360	0.360120	0.243850
N81	N8	0.052320	0.289760	0.289430
N91	N9	0.768360	0.328820	0.746570
N101	N10	0.682740	0.389020	0.697400
N111	N11	0.647690	0.392300	0.774690
N121	N12	0.570330	0.313130	0.732950
N131	N13	0.248730	0.206230	0.779530
N141	N14	0.324280	0.135380	0.821640
N151	N15	0.350640	0.139880	0.743850
N161	N16	0.447680	0.210240	0.789430
N171	N17	0.268360	0.828820	0.753430
N181	N18	0.182740	0.889020	0.802600
N191	N19	0.147690	0.892300	0.725310
N201	N20	0.070330	0.813130	0.767050
N211	N21	0.748730	0.706230	0.720470
N221	N22	0.824280	0.635380	0.678360
N231	N23	0.850640	0.639880	0.756150
N241	N24	0.947680	0.710240	0.710570
N251	N25	0.231640	0.671180	0.253430
N261	N26	0.317260	0.610980	0.302600
N271	N27	0.352310	0.607700	0.225310
N281	N28	0.429670	0.686870	0.267050
N291	N29	0.751270	0.793770	0.220470
N301	N30	0.675720	0.864620	0.178360
N311	N31	0.649360	0.860120	0.256150
N321	N32	0.552320	0.789760	0.210570
O11	O1	0.492040	0.324030	0.256220
O21	O2	0.649170	0.286320	0.262210
O31	O3	0.980400	0.637650	0.240660
O41	O4	0.830070	0.673810	0.219570
O51	O5	0.373790	0.238550	0.207220
O61	O6	0.544840	0.218080	0.196390
O71	O7	0.439990	0.111710	0.916190
O81	O8	0.277700	0.137560	0.926710
O91	O9	0.453300	0.258230	0.329830
O101	O10	0.591530	0.206850	0.324940
O111	O11	0.718500	0.340440	0.599090
O121	O12	0.605000	0.403290	0.593210
O131	O13	0.634250	0.572740	0.633480
O141	O14	0.611670	0.488670	0.660930
O151	O15	0.860950	0.440160	0.636760
O161	O16	0.885220	0.528650	0.653780
O171	O17	0.007960	0.175970	0.756220
O181	O18	0.850830	0.213680	0.762210
O191	O19	0.519600	0.862350	0.740660
O201	O20	0.669930	0.826190	0.719570
O211	O21	0.126210	0.261450	0.707220
O221	O22	0.955160	0.281920	0.696390
O231	O23	0.060010	0.388290	0.416190
O241	O24	0.222300	0.362440	0.426710
O251	O25	0.046700	0.241770	0.829830
O261	O26	0.908470	0.293150	0.824940
O271	O27	0.781500	0.159560	0.099090
O281	O28	0.895000	0.096710	0.093210
O291	O29	0.865750	0.927260	0.133480
O301	O30	0.888330	0.011330	0.160930
O311	O31	0.639050	0.059840	0.136760
O321	O32	0.614780	0.971350	0.153780
O331	O33	0.507960	0.675970	0.743780
O341	O34	0.350830	0.713680	0.737790
O351	O35	0.019600	0.362350	0.759340
O361	O36	0.169930	0.326190	0.780430
O371	O37	0.626210	0.761450	0.792780
O381	O38	0.455160	0.781920	0.803610
O391	O39	0.560010	0.888290	0.083810
O401	O40	0.722300	0.862440	0.073290
O411	O41	0.546700	0.741770	0.670170
O421	O42	0.408470	0.793150	0.675060
O431	O43	0.281500	0.659560	0.400910
O441	O44	0.395000	0.596710	0.406790
O451	O45	0.365750	0.427260	0.366520
O461	O46	0.388330	0.511330	0.339070
O471	O47	0.139050	0.559840	0.363240
O481	O48	0.114780	0.471350	0.346220
O491	O49	0.992040	0.824030	0.243780
O501	O50	0.149170	0.786320	0.237790
O511	O51	0.480400	0.137650	0.259340
O521	O52	0.330070	0.173810	0.280430
O531	O53	0.873790	0.738550	0.292780
O541	O54	0.044840	0.718080	0.303610
O551	O55	0.939990	0.611710	0.583810
O561	O56	0.777700	0.637560	0.573290
O571	O57	0.953300	0.758230	0.170170
O581	O58	0.091530	0.706850	0.175060
O591	O59	0.218500	0.840440	0.900910
O601	O60	0.105000	0.903290	0.906790
O611	O61	0.134250	0.072740	0.866520
O621	O62	0.111670	0.988670	0.839070
O631	O63	0.360950	0.940160	0.863240
O641	O64	0.385220	0.028650	0.846220
