data_AMIXAW_clean_PM
_symmetry_space_group_name_H-M	'P1'
_cell_length_a	10.807400
_cell_length_b	13.202300
_cell_length_c	14.257100
_cell_angle_alpha	90.000000
_cell_angle_beta	90.000000
_cell_angle_gamma	90.402000
_symmetry_Int_Tables_number 1

loop_
_symmetry_equiv_pos_as_xyz
'x,y,z'

loop_
_atom_site_label
_atom_site_type_symbol
_atom_site_fract_x
_atom_site_fract_y
_atom_site_fract_z
Dy11	Dy1	0.755410	0.785860	0.782020
Dy21	Dy2	0.993730	0.867670	0.138220
Dy31	Dy3	0.744590	0.714140	0.282020
Dy41	Dy4	0.506270	0.632330	0.638220
Dy51	Dy5	0.244590	0.214140	0.217980
Dy61	Dy6	0.006270	0.132330	0.861780
Dy71	Dy7	0.255410	0.285860	0.717980
Dy81	Dy8	0.493730	0.367670	0.361780
H11	H1	0.561500	0.086500	0.866700
H21	H2	0.530700	0.066100	0.647600
H31	H3	0.623900	0.633900	0.045800
H41	H4	0.938500	0.413500	0.366700
H51	H5	0.969300	0.433900	0.147600
H61	H6	0.876100	0.866100	0.545800
H71	H7	0.438500	0.913500	0.133300
H81	H8	0.469300	0.933900	0.352400
H91	H9	0.376100	0.366100	0.954200
H101	H10	0.061500	0.586500	0.633300
H111	H11	0.030700	0.566100	0.852400
H121	H12	0.123900	0.133900	0.454200
C11	C1	0.543300	0.789100	0.453600
C21	C2	0.753400	0.993800	0.932500
C31	C3	0.623300	0.997500	0.971300
C41	C4	0.588000	0.943900	0.052000
C51	C5	0.596900	0.879100	0.652900
C61	C6	0.523100	0.897400	0.483200
C71	C7	0.680700	0.887600	0.111400
C81	C8	0.543300	0.936900	0.573000
C91	C9	0.536500	0.052000	0.920400
C101	C10	0.586700	0.654300	0.869900
C111	C11	0.518700	0.039300	0.587900
C121	C12	0.410900	0.479200	0.809800
C131	C13	0.574100	0.579900	0.027000
C141	C14	0.460500	0.492900	0.907400
C151	C15	0.535900	0.573700	0.933600
C161	C16	0.956700	0.710900	0.953600
C171	C17	0.746600	0.506200	0.432500
C181	C18	0.876700	0.502500	0.471300
C191	C19	0.912000	0.556100	0.552000
C201	C20	0.903100	0.620900	0.152900
C211	C21	0.976900	0.602600	0.983200
C221	C22	0.819300	0.612400	0.611400
C231	C23	0.956700	0.563100	0.073000
C241	C24	0.963500	0.448000	0.420400
C251	C25	0.913300	0.845700	0.369900
C261	C26	0.981300	0.460700	0.087900
C271	C27	0.089100	0.020800	0.309800
C281	C28	0.925900	0.920100	0.527000
C291	C29	0.039500	0.007100	0.407400
C301	C30	0.964100	0.926300	0.433600
C311	C31	0.456700	0.210900	0.546400
C321	C32	0.246600	0.006200	0.067500
C331	C33	0.376700	0.002500	0.028700
C341	C34	0.412000	0.056100	0.948000
C351	C35	0.403100	0.120900	0.347100
C361	C36	0.476900	0.102600	0.516800
C371	C37	0.319300	0.112400	0.888600
C381	C38	0.456700	0.063100	0.427000
C391	C39	0.463500	0.948000	0.079600
C401	C40	0.413300	0.345700	0.130100
C411	C41	0.481300	0.960700	0.412100
C421	C42	0.589100	0.520800	0.190200
C431	C43	0.425900	0.420100	0.973000
C441	C44	0.539500	0.507100	0.092600
C451	C45	0.464100	0.426300	0.066400
C461	C46	0.043300	0.289100	0.046400
C471	C47	0.253400	0.493800	0.567500
C481	C48	0.123300	0.497500	0.528700
C491	C49	0.088000	0.443900	0.448000
C501	C50	0.096900	0.379100	0.847100
C511	C51	0.023100	0.397400	0.016800
C521	C52	0.180700	0.387600	0.388600
C531	C53	0.043300	0.436900	0.927000
C541	C54	0.036500	0.552000	0.579600
C551	C55	0.086700	0.154300	0.630100
C561	C56	0.018700	0.539300	0.912100
C571	C57	0.910900	0.979200	0.690200
C581	C58	0.074100	0.079900	0.473000
C591	C59	0.960500	0.992900	0.592600
C601	C60	0.035900	0.073700	0.566400
O11	O1	0.787100	0.915000	0.891300
O21	O2	0.793300	0.905700	0.093600
O31	O3	0.634000	0.787700	0.640100
O41	O4	0.493800	0.717200	0.496700
O51	O5	0.642600	0.829100	0.175900
O61	O6	0.820700	0.072900	0.941200
O71	O7	0.613700	0.920400	0.730400
O81	O8	0.607400	0.740100	0.901800
O91	O9	0.393300	0.554900	0.759500
O101	O10	0.602900	0.778900	0.379200
O111	O11	0.391500	0.388300	0.788000
O121	O12	0.619900	0.633500	0.784900
O131	O13	0.712900	0.585000	0.391300
O141	O14	0.706700	0.594300	0.593600
O151	O15	0.866000	0.712300	0.140100
O161	O16	0.006200	0.782800	0.996700
O171	O17	0.857400	0.670900	0.675900
O181	O18	0.679300	0.427100	0.441200
O191	O19	0.886300	0.579600	0.230400
O201	O20	0.892600	0.759900	0.401800
O211	O21	0.106700	0.945100	0.259500
O221	O22	0.897100	0.721100	0.879200
O231	O23	0.108500	0.111700	0.288000
O241	O24	0.880100	0.866500	0.284900
O251	O25	0.212900	0.085000	0.108700
O261	O26	0.206700	0.094300	0.906400
O271	O27	0.366000	0.212300	0.359900
O281	O28	0.506200	0.282800	0.503300
O291	O29	0.357400	0.170900	0.824100
O301	O30	0.179300	0.927100	0.058800
O311	O31	0.386300	0.079600	0.269600
O321	O32	0.392600	0.259900	0.098200
O331	O33	0.606700	0.445100	0.240500
O341	O34	0.397100	0.221100	0.620800
O351	O35	0.608500	0.611700	0.212000
O361	O36	0.380100	0.366500	0.215100
O371	O37	0.287100	0.415000	0.608700
O381	O38	0.293300	0.405700	0.406400
O391	O39	0.134000	0.287700	0.859900
O401	O40	0.993800	0.217200	0.003300
O411	O41	0.142600	0.329100	0.324100
O421	O42	0.320700	0.572900	0.558800
O431	O43	0.113700	0.420400	0.769600
O441	O44	0.107400	0.240100	0.598200
O451	O45	0.893300	0.054900	0.740500
O461	O46	0.102900	0.278900	0.120800
O471	O47	0.891500	0.888300	0.712000
O481	O48	0.119900	0.133500	0.715100
