data_AMOYOR_clean_PM
_symmetry_space_group_name_H-M	'P1'
_cell_length_a	5.865300
_cell_length_b	12.853500
_cell_length_c	20.980000
_cell_angle_alpha	92.317200
_cell_angle_beta	90.000000
_cell_angle_gamma	103.189000
_symmetry_Int_Tables_number 1

loop_
_symmetry_equiv_pos_as_xyz
'x,y,z'

loop_
_atom_site_label
_atom_site_type_symbol
_atom_site_fract_x
_atom_site_fract_y
_atom_site_fract_z
Zn11	Zn1	0.717550	0.000000	0.750000
Zn21	Zn2	0.282450	0.000000	0.250000
H11	H1	0.646000	0.898000	0.618600
H21	H2	0.787500	0.780800	0.554100
H31	H3	0.263400	0.769200	0.691100
H41	H4	0.098200	0.882000	0.753700
H51	H5	0.071600	0.676600	0.529300
H61	H6	0.356400	0.644200	0.628200
H71	H7	0.197500	0.570800	0.462100
H81	H8	0.633000	0.536400	0.604600
H91	H9	0.631300	0.237400	0.583800
H101	H10	0.387900	0.178000	0.612700
H111	H11	0.174800	0.013000	0.560700
H121	H12	0.853700	0.122600	0.516600
H131	H13	0.748000	0.102000	0.881400
H141	H14	0.006700	0.219200	0.945900
H151	H15	0.494200	0.230800	0.808900
H161	H16	0.216200	0.118000	0.746300
H171	H17	0.395000	0.323400	0.970700
H181	H18	0.712200	0.355800	0.871800
H191	H19	0.626700	0.429200	0.037900
H201	H20	0.096600	0.463600	0.895400
H211	H21	0.393900	0.762600	0.916200
H221	H22	0.209900	0.822000	0.887300
H231	H23	0.161800	0.987000	0.939300
H241	H24	0.731100	0.877400	0.983400
H251	H25	0.354000	0.102000	0.381400
H261	H26	0.212500	0.219200	0.445900
H271	H27	0.736600	0.230800	0.308900
H281	H28	0.901800	0.118000	0.246300
H291	H29	0.928400	0.323400	0.470700
H301	H30	0.643600	0.355800	0.371800
H311	H31	0.802500	0.429200	0.537900
H321	H32	0.367000	0.463600	0.395400
H331	H33	0.368700	0.762600	0.416200
H341	H34	0.612100	0.822000	0.387300
H351	H35	0.825200	0.987000	0.439300
H361	H36	0.146300	0.877400	0.483400
H371	H37	0.252000	0.898000	0.118600
H381	H38	0.993300	0.780800	0.054100
H391	H39	0.505800	0.769200	0.191100
H401	H40	0.783800	0.882000	0.253700
H411	H41	0.605000	0.676600	0.029300
H421	H42	0.287800	0.644200	0.128200
H431	H43	0.373300	0.570800	0.962100
H441	H44	0.903400	0.536400	0.104600
H451	H45	0.606100	0.237400	0.083800
H461	H46	0.790100	0.178000	0.112700
H471	H47	0.838200	0.013000	0.060700
H481	H48	0.268900	0.122600	0.016600
C11	C1	0.770240	0.870280	0.633570
C21	C2	0.855430	0.800860	0.594700
C31	C3	0.041840	0.759480	0.614300
C41	C4	0.134980	0.793360	0.675600
C51	C5	0.036720	0.861640	0.712500
C61	C6	0.133450	0.687500	0.571000
C71	C7	0.298760	0.635720	0.586100
C81	C8	0.397180	0.565960	0.541100
C91	C9	0.319870	0.542340	0.477600
C101	C10	0.578590	0.521980	0.562200
C111	C11	0.671340	0.135280	0.654900
C121	C12	0.542610	0.169220	0.599200
C131	C13	0.306600	0.008000	0.536300
C141	C14	0.517950	0.082500	0.547080
C151	C15	0.710180	0.072960	0.510000
C161	C16	0.899960	0.129720	0.866430
C171	C17	0.054570	0.199140	0.905300
C181	C18	0.282360	0.240520	0.885700
C191	C19	0.341620	0.206640	0.824400
C201	C20	0.175080	0.138360	0.787500
C211	C21	0.445950	0.312500	0.929000
C221	C22	0.663040	0.364280	0.913900
C231	C23	0.831220	0.434040	0.958900
C241	C24	0.777530	0.457660	0.022400
C251	C25	0.056610	0.478020	0.937800
C261	C26	0.536060	0.864720	0.845100
C271	C27	0.373390	0.830780	0.900800
C281	C28	0.298600	0.992000	0.963700
C291	C29	0.435450	0.917500	0.952920
C301	C30	0.637220	0.927040	0.990000
C311	C31	0.229760	0.129720	0.366430
C321	C32	0.144570	0.199140	0.405300
C331	C33	0.958160	0.240520	0.385700
C341	C34	0.865020	0.206640	0.324400
C351	C35	0.963280	0.138360	0.287500
C361	C36	0.866550	0.312500	0.429000
C371	C37	0.701240	0.364280	0.413900
C381	C38	0.602820	0.434040	0.458900
C391	C39	0.680130	0.457660	0.522400
C401	C40	0.421410	0.478020	0.437800
C411	C41	0.328660	0.864720	0.345100
C421	C42	0.457390	0.830780	0.400800
C431	C43	0.693400	0.992000	0.463700
C441	C44	0.482050	0.917500	0.452920
C451	C45	0.289820	0.927040	0.490000
C461	C46	0.100040	0.870280	0.133570
C471	C47	0.945430	0.800860	0.094700
C481	C48	0.717640	0.759480	0.114300
C491	C49	0.658380	0.793360	0.175600
C501	C50	0.824920	0.861640	0.212500
C511	C51	0.554050	0.687500	0.071000
C521	C52	0.336960	0.635720	0.086100
C531	C53	0.168780	0.565960	0.041100
C541	C54	0.222470	0.542340	0.977600
C551	C55	0.943390	0.521980	0.062200
C561	C56	0.463940	0.135280	0.154900
C571	C57	0.626610	0.169220	0.099200
C581	C58	0.701400	0.008000	0.036300
C591	C59	0.564550	0.082500	0.047080
C601	C60	0.362780	0.072960	0.010000
N11	N1	0.856810	0.900820	0.692640
N21	N2	0.955990	0.099180	0.807360
N31	N3	0.143190	0.099180	0.307360
N41	N4	0.044010	0.900820	0.192640
O11	O1	0.546550	0.068300	0.691410
O21	O2	0.886410	0.165820	0.660500
O31	O3	0.478250	0.931700	0.808590
O41	O4	0.720590	0.834180	0.839500
O51	O5	0.453450	0.931700	0.308590
O61	O6	0.113590	0.834180	0.339500
O71	O7	0.521750	0.068300	0.191410
O81	O8	0.279410	0.165820	0.160500
