data_AMUFAR_clean_PM
_symmetry_space_group_name_H-M	'P1'
_cell_length_a	9.129100
_cell_length_b	9.588400
_cell_length_c	14.755400
_cell_angle_alpha	100.388000
_cell_angle_beta	99.270000
_cell_angle_gamma	114.467000
_symmetry_Int_Tables_number 1

loop_
_symmetry_equiv_pos_as_xyz
'x,y,z'

loop_
_atom_site_label
_atom_site_type_symbol
_atom_site_fract_x
_atom_site_fract_y
_atom_site_fract_z
O11	O1	0.347400	0.248200	0.268160
O21	O2	0.157000	0.089300	0.138450
C11	C1	0.217100	0.214500	0.207930
O31	O3	0.306900	0.465200	0.064970
O41	O4	0.099500	0.228970	0.984800
C21	C2	0.166500	0.352900	0.053060
C31	C3	0.079900	0.375000	0.131420
H11	H1	0.123600	0.490500	0.156200
O51	O5	0.712700	0.154000	0.946300
O61	O6	0.804130	0.030530	0.037630
C41	C4	0.795300	0.153600	0.023040
C51	C5	0.886400	0.306900	0.103180
H21	H2	0.856600	0.387600	0.085900
Co11	Co1	0.355130	0.032260	0.170610
C61	C6	0.660800	0.177300	0.188020
O71	O7	0.612500	0.065000	0.224860
C71	C7	0.843600	0.280900	0.198470
H31	H3	0.873200	0.386000	0.239900
C81	C8	0.961700	0.223900	0.244270
H41	H4	0.919100	0.110000	0.218200
H51	H5	0.977000	0.247500	0.312900
C91	C9	0.127500	0.316700	0.219830
H61	H6	0.198300	0.411100	0.273800
N11	N1	0.261700	0.897500	0.261470
O81	O8	0.555100	0.208100	0.141660
C101	C10	0.065100	0.601700	0.442890
C111	C11	0.132900	0.706300	0.381030
C121	C12	0.030800	0.715500	0.304800
H71	H7	0.915600	0.657500	0.292300
C131	C13	0.097400	0.809400	0.246960
H81	H8	0.025100	0.811600	0.195700
C141	C14	0.899700	0.544400	0.445900
H91	H9	0.830100	0.573600	0.409200
C151	C15	0.360900	0.890900	0.336100
H101	H10	0.475500	0.951500	0.347700
C161	C16	0.303300	0.799800	0.396800
H111	H11	0.378100	0.800900	0.448100
C171	C17	0.163700	0.554400	0.498400
H121	H12	0.275000	0.590200	0.497900
O91	O9	0.652600	0.751800	0.731840
O101	O10	0.843000	0.910700	0.861550
C181	C18	0.782900	0.785500	0.792070
O111	O11	0.693100	0.534800	0.935030
O121	O12	0.900500	0.771030	0.015200
C191	C19	0.833500	0.647100	0.946940
C201	C20	0.920100	0.625000	0.868580
H131	H13	0.876400	0.509500	0.843800
O131	O13	0.287300	0.846000	0.053700
O141	O14	0.195870	0.969470	0.962370
C211	C21	0.204700	0.846400	0.976960
C221	C22	0.113600	0.693100	0.896820
H141	H14	0.143400	0.612400	0.914100
Co21	Co2	0.644870	0.967740	0.829390
C231	C23	0.339200	0.822700	0.811980
O151	O15	0.387500	0.935000	0.775140
C241	C24	0.156400	0.719100	0.801530
H151	H15	0.126800	0.614000	0.760100
C251	C25	0.038300	0.776100	0.755730
H161	H16	0.080900	0.890000	0.781800
H171	H17	0.023000	0.752500	0.687100
C261	C26	0.872500	0.683300	0.780170
H181	H18	0.801700	0.588900	0.726200
N21	N2	0.738300	0.102500	0.738530
O161	O16	0.444900	0.791900	0.858340
C271	C27	0.934900	0.398300	0.557110
C281	C28	0.867100	0.293700	0.618970
C291	C29	0.969200	0.284500	0.695200
H191	H19	0.084400	0.342500	0.707700
C301	C30	0.902600	0.190600	0.753040
H201	H20	0.974900	0.188400	0.804300
C311	C31	0.100300	0.455600	0.554100
H211	H21	0.169900	0.426400	0.590800
C321	C32	0.639100	0.109100	0.663900
H221	H22	0.524500	0.048500	0.652300
C331	C33	0.696700	0.200200	0.603200
H231	H23	0.621900	0.199100	0.551900
C341	C34	0.836300	0.445600	0.501600
H241	H24	0.725000	0.409800	0.502100
Co31	Co3	0.000000	0.000000	0.000000
Co41	Co4	0.500000	0.500000	0.000000
