data_AMUFOF_clean_PM
_symmetry_space_group_name_H-M	'P1'
_cell_length_a	9.100400
_cell_length_b	9.397200
_cell_length_c	14.928700
_cell_angle_alpha	82.088000
_cell_angle_beta	85.458000
_cell_angle_gamma	65.335000
_symmetry_Int_Tables_number 1

loop_
_symmetry_equiv_pos_as_xyz
'x,y,z'

loop_
_atom_site_label
_atom_site_type_symbol
_atom_site_fract_x
_atom_site_fract_y
_atom_site_fract_z
C11	C1	0.614800	0.844300	0.196500
C21	C2	0.641500	0.657000	0.054340
C31	C3	0.284500	0.848500	0.024490
C41	C4	0.065800	0.878700	0.179750
C51	C5	0.242900	0.775300	0.191230
H11	H1	0.250600	0.681100	0.231700
C61	C6	0.339100	0.847300	0.233660
H21	H2	0.320000	0.843800	0.298600
H31	H3	0.309400	0.956000	0.208200
C71	C7	0.518500	0.744700	0.210890
H41	H4	0.563100	0.665100	0.262800
C81	C8	0.515500	0.656900	0.128980
H51	H5	0.547700	0.546200	0.153600
C91	C9	0.335500	0.717700	0.101950
H61	H6	0.314700	0.629400	0.087200
C101	C10	0.445300	0.269300	0.232440
H71	H7	0.386000	0.257800	0.188200
C111	C11	0.382700	0.362800	0.298950
H81	H8	0.274100	0.425900	0.309300
C121	C12	0.645700	0.243200	0.309870
H91	H9	0.750000	0.211300	0.330100
C131	C13	0.505500	0.425100	0.425700
C141	C14	0.640400	0.427500	0.454700
H101	H10	0.738400	0.379100	0.424100
C151	C15	0.365100	0.498200	0.469800
H111	H11	0.270400	0.499300	0.449800
Co11	Co1	0.765920	0.025570	0.161990
N11	N1	0.610800	0.193300	0.240160
N21	N2	0.511700	0.346500	0.348890
O11	O1	0.583380	0.954540	0.131010
O21	O2	0.721480	0.825700	0.249740
O31	O3	0.779310	0.548000	0.067800
O41	O4	0.607030	0.760760	0.988050
O51	O5	0.241200	0.824100	0.952380
O61	O6	0.285540	0.979340	0.036520
O71	O7	0.986500	0.840200	0.129340
O81	O8	0.993600	0.999200	0.219630
C161	C16	0.385200	0.155700	0.803500
C171	C17	0.358500	0.343000	0.945660
C181	C18	0.715500	0.151500	0.975510
C191	C19	0.934200	0.121300	0.820250
C201	C20	0.757100	0.224700	0.808770
H121	H12	0.749400	0.318900	0.768300
C211	C21	0.660900	0.152700	0.766340
H131	H13	0.680000	0.156200	0.701400
H141	H14	0.690600	0.044000	0.791800
C221	C22	0.481500	0.255300	0.789110
H151	H15	0.436900	0.334900	0.737200
C231	C23	0.484500	0.343100	0.871020
H161	H16	0.452300	0.453800	0.846400
C241	C24	0.664500	0.282300	0.898050
H171	H17	0.685300	0.370600	0.912800
C251	C25	0.554700	0.730700	0.767560
H181	H18	0.614000	0.742200	0.811800
C261	C26	0.617300	0.637200	0.701050
H191	H19	0.725900	0.574100	0.690700
C271	C27	0.354300	0.756800	0.690130
H201	H20	0.250000	0.788700	0.669900
C281	C28	0.494500	0.574900	0.574300
C291	C29	0.359600	0.572500	0.545300
H211	H21	0.261600	0.620900	0.575900
C301	C30	0.634900	0.501800	0.530200
H221	H22	0.729600	0.500700	0.550200
Co21	Co2	0.234080	0.974430	0.838010
N31	N3	0.389200	0.806700	0.759840
N41	N4	0.488300	0.653500	0.651110
O91	O9	0.416620	0.045460	0.868990
O101	O10	0.278520	0.174300	0.750260
O111	O11	0.220690	0.452000	0.932200
O121	O12	0.392970	0.239240	0.011950
O131	O13	0.758800	0.175900	0.047620
O141	O14	0.714460	0.020660	0.963480
O151	O15	0.013500	0.159800	0.870660
O161	O16	0.006400	0.000800	0.780370
Co31	Co3	0.500000	0.000000	0.000000
Co41	Co4	0.000000	0.500000	0.000000
