data_ANENIR_clean_PM
_symmetry_space_group_name_H-M	'P1'
_cell_length_a	9.779200
_cell_length_b	11.333100
_cell_length_c	15.924000
_cell_angle_alpha	71.042000
_cell_angle_beta	85.290000
_cell_angle_gamma	70.907000
_symmetry_Int_Tables_number 1

loop_
_symmetry_equiv_pos_as_xyz
'x,y,z'

loop_
_atom_site_label
_atom_site_type_symbol
_atom_site_fract_x
_atom_site_fract_y
_atom_site_fract_z
La11	La1	0.461040	0.094490	0.915940
La21	La2	0.901130	0.993160	0.937220
H11	H1	0.709000	0.728000	0.452000
H21	H2	0.544500	0.816100	0.576000
H31	H3	0.520500	0.889800	0.698900
H41	H4	0.933100	0.861000	0.697000
H51	H5	0.961600	0.784400	0.575800
H61	H6	0.662800	0.967100	0.398400
H71	H7	0.767900	0.981300	0.318600
H81	H8	0.672400	0.889700	0.331300
H91	H9	0.974000	0.580000	0.535000
H101	H10	0.663000	0.517700	0.508400
H111	H11	0.552000	0.383600	0.621100
H121	H12	0.840300	0.346700	0.801200
H131	H13	0.946400	0.480100	0.690900
H141	H14	0.995300	0.357500	0.478200
H151	H15	0.075900	0.432700	0.401000
H161	H16	0.089200	0.434600	0.498000
H171	H17	0.394000	0.554000	0.366000
H181	H18	0.649600	0.609600	0.338800
H191	H19	0.784000	0.710200	0.237400
H201	H20	0.534000	0.731600	0.044400
H211	H21	0.415600	0.607300	0.146600
H221	H22	0.208900	0.717400	0.269500
H231	H23	0.134600	0.665600	0.211700
H241	H24	0.106000	0.634700	0.313700
H251	H25	0.446000	0.330000	0.389000
H261	H26	0.764900	0.326300	0.262100
H271	H27	0.825400	0.245900	0.143600
H281	H28	0.428800	0.207000	0.155800
H291	H29	0.384200	0.271300	0.278100
H301	H30	0.733600	0.167300	0.434000
H311	H31	0.774900	0.227900	0.500000
H321	H32	0.624800	0.203900	0.506500
H331	H33	0.049000	0.147000	0.397000
H341	H34	0.972400	0.037600	0.572800
H351	H35	0.966500	0.068600	0.710200
H361	H36	0.343800	0.145100	0.661600
H371	H37	0.349700	0.114000	0.524200
H381	H38	0.025300	0.321400	0.325300
H391	H39	0.157300	0.315200	0.262000
H401	H40	0.066000	0.220800	0.271900
H411	H41	0.087000	0.942000	0.456000
H421	H42	0.405200	0.956200	0.311100
H431	H43	0.417200	0.957700	0.164900
H441	H44	0.994300	0.986200	0.170100
H451	H45	0.990300	0.007700	0.309500
H461	H46	0.246200	0.731700	0.484400
H471	H47	0.395700	0.720800	0.438200
H481	H48	0.387100	0.692400	0.541300
C11	C1	0.773400	0.740500	0.487500
C21	C2	0.759800	0.788300	0.564000
C31	C3	0.624300	0.822700	0.599900
C41	C4	0.610800	0.868000	0.673700
C51	C5	0.721200	0.880900	0.708800
C61	C6	0.855100	0.851000	0.673500
C71	C7	0.870800	0.804900	0.600600
C81	C8	0.703000	0.937300	0.786500
C91	C9	0.726000	0.921800	0.361500
C101	C10	0.878200	0.597000	0.512600
C111	C11	0.813600	0.507900	0.586900
C121	C12	0.699200	0.483500	0.566600
C131	C13	0.630500	0.403600	0.635000
C141	C14	0.684700	0.357000	0.722800
C151	C15	0.803000	0.381700	0.743200
C161	C16	0.868300	0.459600	0.676900
C171	C17	0.612900	0.270800	0.792400
C181	C18	0.026000	0.434200	0.455300
C191	C19	0.434400	0.514300	0.320600
C201	C20	0.517300	0.594600	0.252500
C211	C21	0.629100	0.630900	0.278700
C221	C22	0.705400	0.695000	0.218700
C231	C23	0.669600	0.738700	0.130100
C241	C24	0.559300	0.704500	0.104300
C251	C25	0.486800	0.631400	0.165700
C261	C26	0.741800	0.820400	0.062700
C271	C27	0.176900	0.646100	0.269000
C281	C28	0.516600	0.369100	0.356700
C291	C29	0.569400	0.304200	0.282400
C301	C30	0.699500	0.297600	0.241400
C311	C31	0.736600	0.249600	0.170400
C321	C32	0.635700	0.206200	0.139400
C331	C33	0.501200	0.224700	0.179200
C341	C34	0.472500	0.267300	0.250600
C351	C35	0.672000	0.152600	0.065000
C361	C36	0.697000	0.228600	0.466600
C371	C37	0.129800	0.082300	0.434800
C381	C38	0.161600	0.072700	0.534900
C391	C39	0.046800	0.059100	0.590600
C401	C40	0.043300	0.077700	0.672900
C411	C41	0.154600	0.109900	0.699500
C421	C42	0.269300	0.123500	0.643800
C431	C43	0.272900	0.104900	0.561500
C441	C44	0.150300	0.121800	0.790800
C451	C45	0.104000	0.264000	0.302500
C461	C46	0.180200	0.944000	0.433400
C471	C47	0.199800	0.954900	0.331900
C481	C48	0.324200	0.957600	0.283600
C491	C49	0.330800	0.962300	0.194900
C501	C50	0.205700	0.974000	0.151300
C511	C51	0.077700	0.982200	0.196600
C521	C52	0.079100	0.984000	0.283000
C531	C53	0.211900	0.963500	0.058400
C541	C54	0.338000	0.745300	0.485200
O11	O1	0.574900	0.973600	0.812600
O21	O2	0.810000	0.943700	0.815100
O31	O3	0.837700	0.814800	0.414700
O41	O4	0.487500	0.287400	0.781700
O51	O5	0.689400	0.186400	0.857100
O61	O6	0.892500	0.558600	0.437000
O71	O7	0.874700	0.811000	0.074900
O81	O8	0.678100	0.899500	0.989100
O91	O9	0.299600	0.525800	0.287100
O101	O10	0.795300	0.125000	0.037600
O111	O11	0.563900	0.134500	0.033000
O121	O12	0.636000	0.354200	0.407800
O131	O13	0.038700	0.116400	0.834500
O141	O14	0.257000	0.142900	0.816700
O151	O15	0.200900	0.164600	0.377000
O161	O16	0.322900	0.972200	0.014300
O171	O17	0.111100	0.946000	0.031300
O181	O18	0.315800	0.876200	0.473600
