data_ANUGIA_clean_PM
_symmetry_space_group_name_H-M	'P1'
_cell_length_a	17.583800
_cell_length_b	17.583800
_cell_length_c	17.583800
_cell_angle_alpha	96.829900
_cell_angle_beta	96.829900
_cell_angle_gamma	96.829900
_symmetry_Int_Tables_number 1

loop_
_symmetry_equiv_pos_as_xyz
'x,y,z'

loop_
_atom_site_label
_atom_site_type_symbol
_atom_site_fract_x
_atom_site_fract_y
_atom_site_fract_z
Cu11	Cu1	0.307170	0.904660	0.904660
Cu21	Cu2	0.904660	0.307170	0.904660
Cu31	Cu3	0.904660	0.904660	0.307170
Cu41	Cu4	0.851780	0.163170	0.851780
Cu51	Cu5	0.851780	0.851780	0.163170
Cu61	Cu6	0.163170	0.851780	0.851780
H11	H1	0.213100	0.488100	0.838400
H21	H2	0.183600	0.608600	0.830200
H31	H3	0.425400	0.567500	0.927100
H41	H4	0.395300	0.692000	0.927200
H51	H5	0.235300	0.386500	0.896500
H61	H6	0.147100	0.298000	0.888100
H71	H7	0.838400	0.213100	0.488100
H81	H8	0.830200	0.183600	0.608600
H91	H9	0.927100	0.425400	0.567500
H101	H10	0.927200	0.395300	0.692000
H111	H11	0.896500	0.235300	0.386500
H121	H12	0.888100	0.147100	0.298000
H131	H13	0.488100	0.838400	0.213100
H141	H14	0.608600	0.830200	0.183600
H151	H15	0.567500	0.927100	0.425400
H161	H16	0.692000	0.927200	0.395300
H171	H17	0.386500	0.896500	0.235300
H181	H18	0.298000	0.888100	0.147100
H191	H19	0.488100	0.213100	0.838400
H201	H20	0.608600	0.183600	0.830200
H211	H21	0.567500	0.425400	0.927100
H221	H22	0.692000	0.395300	0.927200
H231	H23	0.386500	0.235300	0.896500
H241	H24	0.298000	0.147100	0.888100
H251	H25	0.213100	0.838400	0.488100
H261	H26	0.183600	0.830200	0.608600
H271	H27	0.425400	0.927100	0.567500
H281	H28	0.395300	0.927200	0.692000
H291	H29	0.235300	0.896500	0.386500
H301	H30	0.147100	0.888100	0.298000
H311	H31	0.838400	0.488100	0.213100
H321	H32	0.830200	0.608600	0.183600
H331	H33	0.927100	0.567500	0.425400
H341	H34	0.927200	0.692000	0.395300
H351	H35	0.896500	0.386500	0.235300
H361	H36	0.888100	0.298000	0.147100
H371	H37	0.453850	0.453850	0.883600
H381	H38	0.070150	0.070150	0.873700
H391	H39	0.883600	0.453850	0.453850
H401	H40	0.873700	0.070150	0.070150
H411	H41	0.453850	0.883600	0.453850
H421	H42	0.070150	0.873700	0.070150
C11	C1	0.287300	0.664000	0.882900
C21	C2	0.251400	0.529500	0.857100
C31	C3	0.232300	0.601500	0.852800
C41	C4	0.323800	0.511700	0.887400
C51	C5	0.374800	0.574000	0.909700
C61	C6	0.356900	0.650600	0.908900
C71	C7	0.271000	0.746100	0.880700
C81	C8	0.014200	0.203500	0.880300
C91	C9	0.343000	0.432600	0.886700
C101	C10	0.284800	0.373900	0.892900
C111	C11	0.097800	0.191000	0.884200
C121	C12	0.157100	0.247200	0.888100
C131	C13	0.882900	0.287300	0.664000
C141	C14	0.857100	0.251400	0.529500
C151	C15	0.852800	0.232300	0.601500
C161	C16	0.887400	0.323800	0.511700
C171	C17	0.909700	0.374800	0.574000
C181	C18	0.908900	0.356900	0.650600
C191	C19	0.880700	0.271000	0.746100
C201	C20	0.880300	0.014200	0.203500
C211	C21	0.886700	0.343000	0.432600
C221	C22	0.892900	0.284800	0.373900
C231	C23	0.884200	0.097800	0.191000
C241	C24	0.888100	0.157100	0.247200
C251	C25	0.664000	0.882900	0.287300
C261	C26	0.529500	0.857100	0.251400
C271	C27	0.601500	0.852800	0.232300
C281	C28	0.511700	0.887400	0.323800
C291	C29	0.574000	0.909700	0.374800
C301	C30	0.650600	0.908900	0.356900
C311	C31	0.746100	0.880700	0.271000
C321	C32	0.203500	0.880300	0.014200
C331	C33	0.432600	0.886700	0.343000
C341	C34	0.373900	0.892900	0.284800
C351	C35	0.191000	0.884200	0.097800
C361	C36	0.247200	0.888100	0.157100
C371	C37	0.664000	0.287300	0.882900
C381	C38	0.529500	0.251400	0.857100
C391	C39	0.601500	0.232300	0.852800
C401	C40	0.511700	0.323800	0.887400
C411	C41	0.574000	0.374800	0.909700
C421	C42	0.650600	0.356900	0.908900
C431	C43	0.746100	0.271000	0.880700
C441	C44	0.203500	0.014200	0.880300
C451	C45	0.432600	0.343000	0.886700
C461	C46	0.373900	0.284800	0.892900
C471	C47	0.191000	0.097800	0.884200
C481	C48	0.247200	0.157100	0.888100
C491	C49	0.287300	0.882900	0.664000
C501	C50	0.251400	0.857100	0.529500
C511	C51	0.232300	0.852800	0.601500
C521	C52	0.323800	0.887400	0.511700
C531	C53	0.374800	0.909700	0.574000
C541	C54	0.356900	0.908900	0.650600
C551	C55	0.271000	0.880700	0.746100
C561	C56	0.014200	0.880300	0.203500
C571	C57	0.343000	0.886700	0.432600
C581	C58	0.284800	0.892900	0.373900
C591	C59	0.097800	0.884200	0.191000
C601	C60	0.157100	0.888100	0.247200
C611	C61	0.882900	0.664000	0.287300
C621	C62	0.857100	0.529500	0.251400
C631	C63	0.852800	0.601500	0.232300
C641	C64	0.887400	0.511700	0.323800
C651	C65	0.909700	0.574000	0.374800
C661	C66	0.908900	0.650600	0.356900
C671	C67	0.880700	0.746100	0.271000
C681	C68	0.880300	0.203500	0.014200
C691	C69	0.886700	0.432600	0.343000
C701	C70	0.892900	0.373900	0.284800
C711	C71	0.884200	0.191000	0.097800
C721	C72	0.888100	0.247200	0.157100
C731	C73	0.414250	0.414250	0.885400
C741	C74	0.296550	0.296550	0.894000
C751	C75	0.232350	0.232350	0.892200
C761	C76	0.110490	0.110500	0.879410
C771	C77	0.885400	0.414250	0.414250
C781	C78	0.894000	0.296550	0.296550
C791	C79	0.892200	0.232350	0.232350
C801	C80	0.879410	0.110490	0.110490
C811	C81	0.414250	0.885400	0.414250
C821	C82	0.296550	0.894000	0.296550
C831	C83	0.232350	0.892200	0.232350
C841	C84	0.110490	0.879410	0.110490
O11	O1	0.323300	0.799600	0.901200
O21	O2	0.959800	0.149100	0.857100
O31	O3	0.006280	0.273950	0.900720
O41	O4	0.198690	0.752450	0.856420
O51	O5	0.901200	0.323300	0.799600
O61	O6	0.857100	0.959800	0.149100
O71	O7	0.900720	0.006280	0.273950
O81	O8	0.856420	0.198690	0.752450
O91	O9	0.799600	0.901200	0.323300
O101	O10	0.149100	0.857100	0.959800
O111	O11	0.273950	0.900720	0.006280
O121	O12	0.752450	0.856420	0.198690
O131	O13	0.799600	0.323300	0.901200
O141	O14	0.149100	0.959800	0.857100
O151	O15	0.273950	0.006280	0.900720
O161	O16	0.752450	0.198690	0.856420
O171	O17	0.323300	0.901200	0.799600
O181	O18	0.959800	0.857100	0.149100
O191	O19	0.006280	0.900720	0.273950
O201	O20	0.198690	0.856420	0.752450
O211	O21	0.901200	0.799600	0.323300
O221	O22	0.857100	0.149100	0.959800
O231	O23	0.900720	0.273950	0.006280
O241	O24	0.856420	0.752450	0.198690
