data_ANUGEW_clean_PM
_symmetry_space_group_name_H-M	'P1'
_cell_length_a	24.605500
_cell_length_b	26.548900
_cell_length_c	26.548800
_cell_angle_alpha	77.599600
_cell_angle_beta	62.393100
_cell_angle_gamma	62.393100
_symmetry_Int_Tables_number 1

loop_
_symmetry_equiv_pos_as_xyz
'x,y,z'

loop_
_atom_site_label
_atom_site_type_symbol
_atom_site_fract_x
_atom_site_fract_y
_atom_site_fract_z
Cu11	Cu1	0.045650	0.492510	0.016590
Cu21	Cu2	0.445250	0.016590	0.492510
Cu31	Cu3	0.954350	0.983410	0.507490
Cu41	Cu4	0.554750	0.507490	0.983410
Cu51	Cu5	0.954350	0.507490	0.983410
Cu61	Cu6	0.554750	0.983410	0.507490
Cu71	Cu7	0.045650	0.016590	0.492510
Cu81	Cu8	0.445250	0.492510	0.016590
Cu91	Cu9	0.539810	0.460190	0.460190
Cu101	Cu10	0.460190	0.539810	0.539810
Cu111	Cu11	0.000000	0.960130	0.039870
Cu121	Cu12	0.000000	0.039870	0.960130
H11	H1	0.668500	0.536500	0.345100
H21	H2	0.825000	0.596800	0.274600
H31	H3	0.909600	0.564900	0.186900
H41	H4	0.789800	0.533400	0.149600
H51	H5	0.700900	0.567400	0.240800
H61	H6	0.043100	0.659200	0.985000
H71	H7	0.039500	0.748200	0.953800
H81	H8	0.904700	0.773100	0.893700
H91	H9	0.913600	0.681700	0.922100
H101	H10	0.973000	0.849100	0.967700
H111	H11	0.449900	0.345100	0.536500
H121	H12	0.303600	0.274600	0.596800
H131	H13	0.338600	0.186900	0.564900
H141	H14	0.527200	0.149600	0.533400
H151	H15	0.490900	0.240800	0.567400
H161	H16	0.312700	0.985000	0.659200
H171	H17	0.258500	0.953800	0.748200
H181	H18	0.428500	0.893700	0.773100
H191	H19	0.482600	0.922100	0.681700
H201	H20	0.210200	0.967700	0.849100
H211	H21	0.331500	0.654900	0.463500
H221	H22	0.175000	0.725400	0.403200
H231	H23	0.090400	0.813100	0.435100
H241	H24	0.210200	0.850400	0.466600
H251	H25	0.299100	0.759200	0.432600
H261	H26	0.956900	0.015000	0.340800
H271	H27	0.960500	0.046200	0.251800
H281	H28	0.095300	0.106300	0.226900
H291	H29	0.086400	0.077900	0.318300
H301	H30	0.027000	0.032300	0.150900
H311	H31	0.550100	0.463500	0.654900
H321	H32	0.696400	0.403200	0.725400
H331	H33	0.661400	0.435100	0.813100
H341	H34	0.472800	0.466600	0.850400
H351	H35	0.509100	0.432600	0.759200
H361	H36	0.687300	0.340800	0.015000
H371	H37	0.741500	0.251800	0.046200
H381	H38	0.571500	0.226900	0.106300
H391	H39	0.517400	0.318300	0.077900
H401	H40	0.789800	0.150900	0.032300
H411	H41	0.331500	0.463500	0.654900
H421	H42	0.175000	0.403200	0.725400
H431	H43	0.090400	0.435100	0.813100
H441	H44	0.210200	0.466600	0.850400
H451	H45	0.299100	0.432600	0.759200
H461	H46	0.956900	0.340800	0.015000
H471	H47	0.960500	0.251800	0.046200
H481	H48	0.095300	0.226900	0.106300
H491	H49	0.086400	0.318300	0.077900
H501	H50	0.027000	0.150900	0.032300
H511	H51	0.550100	0.654900	0.463500
H521	H52	0.696400	0.725400	0.403200
H531	H53	0.661400	0.813100	0.435100
H541	H54	0.472800	0.850400	0.466600
H551	H55	0.509100	0.759200	0.432600
H561	H56	0.687300	0.015000	0.340800
H571	H57	0.741500	0.046200	0.251800
H581	H58	0.571500	0.106300	0.226900
H591	H59	0.517400	0.077900	0.318300
H601	H60	0.789800	0.032300	0.150900
H611	H61	0.668500	0.345100	0.536500
H621	H62	0.825000	0.274600	0.596800
H631	H63	0.909600	0.186900	0.564900
H641	H64	0.789800	0.149600	0.533400
H651	H65	0.700900	0.240800	0.567400
H661	H66	0.043100	0.985000	0.659200
H671	H67	0.039500	0.953800	0.748200
H681	H68	0.904700	0.893700	0.773100
H691	H69	0.913600	0.922100	0.681700
H701	H70	0.973000	0.967700	0.849100
H711	H71	0.449900	0.536500	0.345100
H721	H72	0.303600	0.596800	0.274600
H731	H73	0.338600	0.564900	0.186900
H741	H74	0.527200	0.533400	0.149600
H751	H75	0.490900	0.567400	0.240800
H761	H76	0.312700	0.659200	0.985000
H771	H77	0.258500	0.748200	0.953800
H781	H78	0.428500	0.773100	0.893700
H791	H79	0.482600	0.681700	0.922100
H801	H80	0.210200	0.849100	0.967700
H811	H81	0.708000	0.676500	0.323500
H821	H82	0.292000	0.323500	0.676500
H831	H83	0.292000	0.676500	0.323500
H841	H84	0.708000	0.323500	0.676500
H851	H85	0.969100	0.824500	0.824500
H861	H86	0.381900	0.824500	0.824500
H871	H87	0.030900	0.175500	0.175500
H881	H88	0.618100	0.175500	0.175500
C11	C1	0.659580	0.570200	0.359640
C21	C2	0.701180	0.601230	0.326010
C31	C3	0.758400	0.581400	0.268800
C41	C4	0.817100	0.582800	0.250200
C51	C5	0.867300	0.565200	0.197400
C61	C6	0.856100	0.548200	0.159800
C71	C7	0.796700	0.546700	0.175300
C81	C8	0.743900	0.565500	0.230300
C91	C9	0.915300	0.527580	0.101020
C101	C10	0.987200	0.601800	0.974800
C111	C11	0.979900	0.661900	0.956100
C121	C12	0.016000	0.682100	0.965700
C131	C13	0.013500	0.735100	0.947700
C141	C14	0.972500	0.769350	0.920250
C151	C15	0.933600	0.749750	0.911250
C161	C16	0.938500	0.695700	0.928700
C171	C17	0.970400	0.827290	0.901910
C181	C18	0.973110	0.861350	0.931630
C191	C19	0.410580	0.359640	0.570200
C201	C20	0.371580	0.326010	0.601230
C211	C21	0.391400	0.268800	0.581400
C221	C22	0.349900	0.250200	0.582800
C231	C23	0.370100	0.197400	0.565200
C241	C24	0.435900	0.159800	0.548200
C251	C25	0.481300	0.175300	0.546700
C261	C26	0.460300	0.230300	0.565500
C271	C27	0.456100	0.101020	0.527580
C281	C28	0.436200	0.974800	0.601800
C291	C29	0.402100	0.956100	0.661900
C301	C30	0.336200	0.965700	0.682100
C311	C31	0.303700	0.947700	0.735100
C321	C32	0.337900	0.920250	0.769350
C331	C33	0.405400	0.911250	0.749750
C341	C34	0.437100	0.928700	0.695700
C351	C35	0.300400	0.901910	0.827290
C361	C36	0.233910	0.931630	0.861350
C371	C37	0.340420	0.640360	0.429800
C381	C38	0.298820	0.673990	0.398770
C391	C39	0.241600	0.731200	0.418600
C401	C40	0.182900	0.749800	0.417200
C411	C41	0.132700	0.802600	0.434800
C421	C42	0.143900	0.840200	0.451800
C431	C43	0.203300	0.824700	0.453300
C441	C44	0.256100	0.769700	0.434500
C451	C45	0.084700	0.898980	0.472420
C461	C46	0.012800	0.025200	0.398200
C471	C47	0.020100	0.043900	0.338100
C481	C48	0.984000	0.034300	0.317900
C491	C49	0.986500	0.052300	0.264900
C501	C50	0.027500	0.079750	0.230650
C511	C51	0.066400	0.088750	0.250250
C521	C52	0.061500	0.071300	0.304300
C531	C53	0.029600	0.098090	0.172710
C541	C54	0.026890	0.068370	0.138650
C551	C55	0.589420	0.429800	0.640360
C561	C56	0.628420	0.398770	0.673990
C571	C57	0.608600	0.418600	0.731200
C581	C58	0.650100	0.417200	0.749800
C591	C59	0.629900	0.434800	0.802600
C601	C60	0.564100	0.451800	0.840200
C611	C61	0.518700	0.453300	0.824700
C621	C62	0.539700	0.434500	0.769700
C631	C63	0.543900	0.472420	0.898980
C641	C64	0.563800	0.398200	0.025200
C651	C65	0.597900	0.338100	0.043900
C661	C66	0.663800	0.317900	0.034300
C671	C67	0.696300	0.264900	0.052300
C681	C68	0.662100	0.230650	0.079750
C691	C69	0.594600	0.250250	0.088750
C701	C70	0.562900	0.304300	0.071300
C711	C71	0.699600	0.172710	0.098090
C721	C72	0.766090	0.138650	0.068370
C731	C73	0.340420	0.429800	0.640360
C741	C74	0.298820	0.398770	0.673990
C751	C75	0.241600	0.418600	0.731200
C761	C76	0.182900	0.417200	0.749800
C771	C77	0.132700	0.434800	0.802600
C781	C78	0.143900	0.451800	0.840200
C791	C79	0.203300	0.453300	0.824700
C801	C80	0.256100	0.434500	0.769700
C811	C81	0.084700	0.472420	0.898980
C821	C82	0.012800	0.398200	0.025200
C831	C83	0.020100	0.338100	0.043900
C841	C84	0.984000	0.317900	0.034300
C851	C85	0.986500	0.264900	0.052300
C861	C86	0.027500	0.230650	0.079750
C871	C87	0.066400	0.250250	0.088750
C881	C88	0.061500	0.304300	0.071300
C891	C89	0.029600	0.172710	0.098090
C901	C90	0.026890	0.138650	0.068370
C911	C91	0.589420	0.640360	0.429800
C921	C92	0.628420	0.673990	0.398770
C931	C93	0.608600	0.731200	0.418600
C941	C94	0.650100	0.749800	0.417200
C951	C95	0.629900	0.802600	0.434800
C961	C96	0.564100	0.840200	0.451800
C971	C97	0.518700	0.824700	0.453300
C981	C98	0.539700	0.769700	0.434500
C991	C99	0.543900	0.898980	0.472420
C1001	C100	0.563800	0.025200	0.398200
C1011	C101	0.597900	0.043900	0.338100
C1021	C102	0.663800	0.034300	0.317900
C1031	C103	0.696300	0.052300	0.264900
C1041	C104	0.662100	0.079750	0.230650
C1051	C105	0.594600	0.088750	0.250250
C1061	C106	0.562900	0.071300	0.304300
C1071	C107	0.699600	0.098090	0.172710
C1081	C108	0.766090	0.068370	0.138650
C1091	C109	0.659580	0.359640	0.570200
C1101	C110	0.701180	0.326010	0.601230
C1111	C111	0.758400	0.268800	0.581400
C1121	C112	0.817100	0.250200	0.582800
C1131	C113	0.867300	0.197400	0.565200
C1141	C114	0.856100	0.159800	0.548200
C1151	C115	0.796700	0.175300	0.546700
C1161	C116	0.743900	0.230300	0.565500
C1171	C117	0.915300	0.101020	0.527580
C1181	C118	0.987200	0.974800	0.601800
C1191	C119	0.979900	0.956100	0.661900
C1201	C120	0.016000	0.965700	0.682100
C1211	C121	0.013500	0.947700	0.735100
C1221	C122	0.972500	0.920250	0.769350
C1231	C123	0.933600	0.911250	0.749750
C1241	C124	0.938500	0.928700	0.695700
C1251	C125	0.970400	0.901910	0.827290
C1261	C126	0.973110	0.931630	0.861350
C1271	C127	0.410580	0.570200	0.359640
C1281	C128	0.371580	0.601230	0.326010
C1291	C129	0.391400	0.581400	0.268800
C1301	C130	0.349900	0.582800	0.250200
C1311	C131	0.370100	0.565200	0.197400
C1321	C132	0.435900	0.548200	0.159800
C1331	C133	0.481300	0.546700	0.175300
C1341	C134	0.460300	0.565500	0.230300
C1351	C135	0.456100	0.527580	0.101020
C1361	C136	0.436200	0.601800	0.974800
C1371	C137	0.402100	0.661900	0.956100
C1381	C138	0.336200	0.682100	0.965700
C1391	C139	0.303700	0.735100	0.947700
C1401	C140	0.337900	0.769350	0.920250
C1411	C141	0.405400	0.749750	0.911250
C1421	C142	0.437100	0.695700	0.928700
C1431	C143	0.300400	0.827290	0.901910
C1441	C144	0.233910	0.861350	0.931630
C1451	C145	0.571000	0.554700	0.445300
C1461	C146	0.608900	0.589100	0.410900
C1471	C147	0.683700	0.654700	0.345300
C1481	C148	0.429000	0.445300	0.554700
C1491	C149	0.391100	0.410900	0.589100
C1501	C150	0.316300	0.345300	0.654700
C1511	C151	0.429000	0.554700	0.445300
C1521	C152	0.391100	0.589100	0.410900
C1531	C153	0.316300	0.654700	0.345300
C1541	C154	0.571000	0.445300	0.554700
C1551	C155	0.608900	0.410900	0.589100
C1561	C156	0.683700	0.345300	0.654700
C1571	C157	0.969800	0.846900	0.846900
C1581	C158	0.976000	0.911900	0.911900
C1591	C159	0.978500	0.947400	0.947400
C1601	C160	0.336400	0.846900	0.846900
C1611	C161	0.200200	0.911900	0.911900
C1621	C162	0.126700	0.947400	0.947400
C1631	C163	0.030200	0.153100	0.153100
C1641	C164	0.024000	0.088100	0.088100
C1651	C165	0.021500	0.052600	0.052600
C1661	C166	0.663600	0.153100	0.153100
C1671	C167	0.799800	0.088100	0.088100
C1681	C168	0.873300	0.052600	0.052600
O11	O1	0.589690	0.508430	0.423730
O21	O2	0.973040	0.517410	0.090510
O31	O3	0.029520	0.571210	0.992350
O41	O4	0.892880	0.528850	0.063590
O51	O5	0.951130	0.584970	0.966170
O61	O6	0.987750	0.923670	0.991830
O71	O7	0.478150	0.423730	0.508430
O81	O8	0.419040	0.090510	0.517410
O91	O9	0.406920	0.992350	0.571210
O101	O10	0.514680	0.063590	0.528850
O111	O11	0.497730	0.966170	0.584970
O121	O12	0.096750	0.991830	0.923670
O131	O13	0.410310	0.576270	0.491570
O141	O14	0.026960	0.909490	0.482590
O151	O15	0.970480	0.007650	0.428790
O161	O16	0.107120	0.936410	0.471150
O171	O17	0.048870	0.033830	0.415030
O181	O18	0.012250	0.008170	0.076330
O191	O19	0.521850	0.491570	0.576270
O201	O20	0.580960	0.482590	0.909490
O211	O21	0.593080	0.428790	0.007650
O221	O22	0.485320	0.471150	0.936410
O231	O23	0.502270	0.415030	0.033830
O241	O24	0.903250	0.076330	0.008170
O251	O25	0.410310	0.491570	0.576270
O261	O26	0.026960	0.482590	0.909490
O271	O27	0.970480	0.428790	0.007650
O281	O28	0.107120	0.471150	0.936410
O291	O29	0.048870	0.415030	0.033830
O301	O30	0.012250	0.076330	0.008170
O311	O31	0.521850	0.576270	0.491570
O321	O32	0.580960	0.909490	0.482590
O331	O33	0.593080	0.007650	0.428790
O341	O34	0.485320	0.936410	0.471150
O351	O35	0.502270	0.033830	0.415030
O361	O36	0.903250	0.008170	0.076330
O371	O37	0.589690	0.423730	0.508430
O381	O38	0.973040	0.090510	0.517410
O391	O39	0.029520	0.992350	0.571210
O401	O40	0.892880	0.063590	0.528850
O411	O41	0.951130	0.966170	0.584970
O421	O42	0.987750	0.991830	0.923670
O431	O43	0.478150	0.508430	0.423730
O441	O44	0.419040	0.517410	0.090510
O451	O45	0.406920	0.571210	0.992350
O461	O46	0.514680	0.528850	0.063590
O471	O47	0.497730	0.584970	0.966170
O481	O48	0.096750	0.923670	0.991830
