data_APAYUN_clean_PM
_symmetry_space_group_name_H-M	'P1'
_cell_length_a	33.690000
_cell_length_b	12.970000
_cell_length_c	14.771000
_cell_angle_alpha	90.000000
_cell_angle_beta	101.572000
_cell_angle_gamma	90.000000
_symmetry_Int_Tables_number 1

loop_
_symmetry_equiv_pos_as_xyz
'x,y,z'

loop_
_atom_site_label
_atom_site_type_symbol
_atom_site_fract_x
_atom_site_fract_y
_atom_site_fract_z
C11	C1	0.252560	0.437900	0.069200
C21	C2	0.280080	0.509200	0.134200
C31	C3	0.264200	0.564700	0.200000
H11	H1	0.237100	0.557100	0.203700
C41	C4	0.288930	0.630700	0.259300
C51	C5	0.329230	0.645100	0.251700
H21	H2	0.345500	0.690800	0.291300
C61	C6	0.345460	0.591600	0.185200
C71	C7	0.320310	0.521200	0.128300
H31	H3	0.330900	0.482100	0.085900
C81	C8	0.272470	0.688700	0.333700
C91	C9	0.387630	0.611300	0.171700
C101	C10	0.404640	0.709600	0.185700
H41	H4	0.390400	0.761100	0.209400
C111	C11	0.442500	0.732800	0.165200
H51	H5	0.452800	0.799400	0.174400
C121	C12	0.464790	0.657100	0.131100
C131	C13	0.448490	0.558800	0.121400
H61	H6	0.463400	0.505900	0.101800
C141	C14	0.410600	0.536700	0.140000
H71	H7	0.400500	0.470000	0.130800
C151	C15	0.503880	0.681900	0.102600
C161	C16	0.512600	0.782400	0.080100
H81	H8	0.494300	0.835000	0.084400
C171	C17	0.548340	0.804700	0.051200
H91	H9	0.554000	0.872800	0.038700
C181	C18	0.575730	0.728900	0.040300
C191	C19	0.567770	0.631600	0.065000
H101	H10	0.586200	0.579300	0.060600
C201	C20	0.532400	0.608100	0.097000
H111	H11	0.528200	0.540900	0.114900
C211	C21	0.613250	0.753400	0.003900
La11	La1	0.309130	0.199770	0.051110
O11	O1	0.267860	0.360500	0.036400
O21	O2	0.215210	0.458000	0.049300
O31	O3	0.235780	0.671300	0.336500
O41	O4	0.296020	0.750000	0.384300
O51	O5	0.623530	0.846500	0.997100
O61	O6	0.633140	0.679500	0.978700
C221	C22	0.752560	0.937900	0.069200
C231	C23	0.780080	0.009200	0.134200
C241	C24	0.764200	0.064700	0.200000
H121	H12	0.737100	0.057100	0.203700
C251	C25	0.788930	0.130700	0.259300
C261	C26	0.829230	0.145100	0.251700
H131	H13	0.845500	0.190800	0.291300
C271	C27	0.845460	0.091600	0.185200
C281	C28	0.820310	0.021200	0.128300
H141	H14	0.830900	0.982100	0.085900
C291	C29	0.772470	0.188700	0.333700
C301	C30	0.887630	0.111300	0.171700
C311	C31	0.904640	0.209600	0.185700
H151	H15	0.890400	0.261100	0.209400
C321	C32	0.942500	0.232800	0.165200
H161	H16	0.952800	0.299400	0.174400
C331	C33	0.964790	0.157100	0.131100
C341	C34	0.948490	0.058800	0.121400
H171	H17	0.963400	0.005900	0.101800
C351	C35	0.910600	0.036700	0.140000
H181	H18	0.900500	0.970000	0.130800
C361	C36	0.003880	0.181900	0.102600
C371	C37	0.012600	0.282400	0.080100
H191	H19	0.994300	0.335000	0.084400
C381	C38	0.048340	0.304700	0.051200
H201	H20	0.054000	0.372800	0.038700
C391	C39	0.075730	0.228900	0.040300
C401	C40	0.067770	0.131600	0.065000
H211	H21	0.086200	0.079300	0.060600
C411	C41	0.032400	0.108100	0.097000
H221	H22	0.028200	0.040900	0.114900
C421	C42	0.113250	0.253400	0.003900
La21	La2	0.809130	0.699770	0.051110
O71	O7	0.767860	0.860500	0.036400
O81	O8	0.715210	0.958000	0.049300
O91	O9	0.735780	0.171300	0.336500
O101	O10	0.796020	0.250000	0.384300
O111	O11	0.123530	0.346500	0.997100
O121	O12	0.133140	0.179500	0.978700
C431	C43	0.747440	0.437900	0.430800
C441	C44	0.719920	0.509200	0.365800
C451	C45	0.735800	0.564700	0.300000
H231	H23	0.762900	0.557100	0.296300
C461	C46	0.711070	0.630700	0.240700
C471	C47	0.670770	0.645100	0.248300
H241	H24	0.654500	0.690800	0.208700
C481	C48	0.654540	0.591600	0.314800
C491	C49	0.679690	0.521200	0.371700
H251	H25	0.669100	0.482100	0.414100
C501	C50	0.727530	0.688700	0.166300
C511	C51	0.612370	0.611300	0.328300
C521	C52	0.595360	0.709600	0.314300
H261	H26	0.609600	0.761100	0.290600
C531	C53	0.557500	0.732800	0.334800
H271	H27	0.547200	0.799400	0.325600
C541	C54	0.535210	0.657100	0.368900
C551	C55	0.551510	0.558800	0.378600
H281	H28	0.536600	0.505900	0.398200
C561	C56	0.589400	0.536700	0.360000
H291	H29	0.599500	0.470000	0.369200
C571	C57	0.496120	0.681900	0.397400
C581	C58	0.487400	0.782400	0.419900
H301	H30	0.505700	0.835000	0.415600
C591	C59	0.451660	0.804700	0.448800
H311	H31	0.446000	0.872800	0.461300
C601	C60	0.424270	0.728900	0.459700
C611	C61	0.432230	0.631600	0.435000
H321	H32	0.413800	0.579300	0.439400
C621	C62	0.467600	0.608100	0.403000
H331	H33	0.471800	0.540900	0.385100
C631	C63	0.386750	0.753400	0.496100
La31	La3	0.690870	0.199770	0.448890
O131	O13	0.732140	0.360500	0.463600
O141	O14	0.784790	0.458000	0.450700
O151	O15	0.764220	0.671300	0.163500
O161	O16	0.703980	0.750000	0.115700
O171	O17	0.376470	0.846500	0.502900
O181	O18	0.366860	0.679500	0.521300
C641	C64	0.247440	0.937900	0.430800
C651	C65	0.219920	0.009200	0.365800
C661	C66	0.235800	0.064700	0.300000
H341	H34	0.262900	0.057100	0.296300
C671	C67	0.211070	0.130700	0.240700
C681	C68	0.170770	0.145100	0.248300
H351	H35	0.154500	0.190800	0.208700
C691	C69	0.154540	0.091600	0.314800
C701	C70	0.179690	0.021200	0.371700
H361	H36	0.169100	0.982100	0.414100
C711	C71	0.227530	0.188700	0.166300
C721	C72	0.112370	0.111300	0.328300
C731	C73	0.095360	0.209600	0.314300
H371	H37	0.109600	0.261100	0.290600
C741	C74	0.057500	0.232800	0.334800
H381	H38	0.047200	0.299400	0.325600
C751	C75	0.035210	0.157100	0.368900
C761	C76	0.051510	0.058800	0.378600
H391	H39	0.036600	0.005900	0.398200
C771	C77	0.089400	0.036700	0.360000
H401	H40	0.099500	0.970000	0.369200
C781	C78	0.996120	0.181900	0.397400
C791	C79	0.987400	0.282400	0.419900
H411	H41	0.005700	0.335000	0.415600
C801	C80	0.951660	0.304700	0.448800
H421	H42	0.946000	0.372800	0.461300
C811	C81	0.924270	0.228900	0.459700
C821	C82	0.932230	0.131600	0.435000
H431	H43	0.913800	0.079300	0.439400
C831	C83	0.967600	0.108100	0.403000
H441	H44	0.971800	0.040900	0.385100
C841	C84	0.886750	0.253400	0.496100
La41	La4	0.190870	0.699770	0.448890
O191	O19	0.232140	0.860500	0.463600
O201	O20	0.284790	0.958000	0.450700
O211	O21	0.264220	0.171300	0.163500
O221	O22	0.203980	0.250000	0.115700
O231	O23	0.876470	0.346500	0.502900
O241	O24	0.866860	0.179500	0.521300
C851	C85	0.747440	0.562100	0.930800
C861	C86	0.719920	0.490800	0.865800
C871	C87	0.735800	0.435300	0.800000
H451	H45	0.762900	0.442900	0.796300
C881	C88	0.711070	0.369300	0.740700
C891	C89	0.670770	0.354900	0.748300
H461	H46	0.654500	0.309200	0.708700
C901	C90	0.654540	0.408400	0.814800
C911	C91	0.679690	0.478800	0.871700
H471	H47	0.669100	0.517900	0.914100
C921	C92	0.727530	0.311300	0.666300
C931	C93	0.612370	0.388700	0.828300
C941	C94	0.595360	0.290400	0.814300
H481	H48	0.609600	0.238900	0.790600
C951	C95	0.557500	0.267200	0.834800
H491	H49	0.547200	0.200600	0.825600
C961	C96	0.535210	0.342900	0.868900
C971	C97	0.551510	0.441200	0.878600
H501	H50	0.536600	0.494100	0.898200
C981	C98	0.589400	0.463300	0.860000
H511	H51	0.599500	0.530000	0.869200
C991	C99	0.496120	0.318100	0.897400
C1001	C100	0.487400	0.217600	0.919900
H521	H52	0.505700	0.165000	0.915600
C1011	C101	0.451660	0.195300	0.948800
H531	H53	0.446000	0.127200	0.961300
C1021	C102	0.424270	0.271100	0.959700
C1031	C103	0.432230	0.368400	0.935000
H541	H54	0.413800	0.420700	0.939400
C1041	C104	0.467600	0.391900	0.903000
H551	H55	0.471800	0.459100	0.885100
C1051	C105	0.386750	0.246600	0.996100
La51	La5	0.690870	0.800230	0.948890
O251	O25	0.732140	0.639500	0.963600
O261	O26	0.784790	0.542000	0.950700
O271	O27	0.764220	0.328700	0.663500
O281	O28	0.703980	0.250000	0.615700
O291	O29	0.376470	0.153500	0.002900
O301	O30	0.366860	0.320500	0.021300
C1061	C106	0.247440	0.062100	0.930800
C1071	C107	0.219920	0.990800	0.865800
C1081	C108	0.235800	0.935300	0.800000
H561	H56	0.262900	0.942900	0.796300
C1091	C109	0.211070	0.869300	0.740700
C1101	C110	0.170770	0.854900	0.748300
H571	H57	0.154500	0.809200	0.708700
C1111	C111	0.154540	0.908400	0.814800
C1121	C112	0.179690	0.978800	0.871700
H581	H58	0.169100	0.017900	0.914100
C1131	C113	0.227530	0.811300	0.666300
C1141	C114	0.112370	0.888700	0.828300
C1151	C115	0.095360	0.790400	0.814300
H591	H59	0.109600	0.738900	0.790600
C1161	C116	0.057500	0.767200	0.834800
H601	H60	0.047200	0.700600	0.825600
C1171	C117	0.035210	0.842900	0.868900
C1181	C118	0.051510	0.941200	0.878600
H611	H61	0.036600	0.994100	0.898200
C1191	C119	0.089400	0.963300	0.860000
H621	H62	0.099500	0.030000	0.869200
C1201	C120	0.996120	0.818100	0.897400
C1211	C121	0.987400	0.717600	0.919900
H631	H63	0.005700	0.665000	0.915600
C1221	C122	0.951660	0.695300	0.948800
H641	H64	0.946000	0.627200	0.961300
C1231	C123	0.924270	0.771100	0.959700
C1241	C124	0.932230	0.868400	0.935000
H651	H65	0.913800	0.920700	0.939400
C1251	C125	0.967600	0.891900	0.903000
H661	H66	0.971800	0.959100	0.885100
C1261	C126	0.886750	0.746600	0.996100
La61	La6	0.190870	0.300230	0.948890
O311	O31	0.232140	0.139500	0.963600
O321	O32	0.284790	0.042000	0.950700
O331	O33	0.264220	0.828700	0.663500
O341	O34	0.203980	0.750000	0.615700
O351	O35	0.876470	0.653500	0.002900
O361	O36	0.866860	0.820500	0.021300
C1271	C127	0.252560	0.562100	0.569200
C1281	C128	0.280080	0.490800	0.634200
C1291	C129	0.264200	0.435300	0.700000
H671	H67	0.237100	0.442900	0.703700
C1301	C130	0.288930	0.369300	0.759300
C1311	C131	0.329230	0.354900	0.751700
H681	H68	0.345500	0.309200	0.791300
C1321	C132	0.345460	0.408400	0.685200
C1331	C133	0.320310	0.478800	0.628300
H691	H69	0.330900	0.517900	0.585900
C1341	C134	0.272470	0.311300	0.833700
C1351	C135	0.387630	0.388700	0.671700
C1361	C136	0.404640	0.290400	0.685700
H701	H70	0.390400	0.238900	0.709400
C1371	C137	0.442500	0.267200	0.665200
H711	H71	0.452800	0.200600	0.674400
C1381	C138	0.464790	0.342900	0.631100
C1391	C139	0.448490	0.441200	0.621400
H721	H72	0.463400	0.494100	0.601800
C1401	C140	0.410600	0.463300	0.640000
H731	H73	0.400500	0.530000	0.630800
C1411	C141	0.503880	0.318100	0.602600
C1421	C142	0.512600	0.217600	0.580100
H741	H74	0.494300	0.165000	0.584400
C1431	C143	0.548340	0.195300	0.551200
H751	H75	0.554000	0.127200	0.538700
C1441	C144	0.575730	0.271100	0.540300
C1451	C145	0.567770	0.368400	0.565000
H761	H76	0.586200	0.420700	0.560600
C1461	C146	0.532400	0.391900	0.597000
H771	H77	0.528200	0.459100	0.614900
C1471	C147	0.613250	0.246600	0.503900
La71	La7	0.309130	0.800230	0.551110
O371	O37	0.267860	0.639500	0.536400
O381	O38	0.215210	0.542000	0.549300
O391	O39	0.235780	0.328700	0.836500
O401	O40	0.296020	0.250000	0.884300
O411	O41	0.623530	0.153500	0.497100
O421	O42	0.633140	0.320500	0.478700
C1481	C148	0.752560	0.062100	0.569200
C1491	C149	0.780080	0.990800	0.634200
C1501	C150	0.764200	0.935300	0.700000
H781	H78	0.737100	0.942900	0.703700
C1511	C151	0.788930	0.869300	0.759300
C1521	C152	0.829230	0.854900	0.751700
H791	H79	0.845500	0.809200	0.791300
C1531	C153	0.845460	0.908400	0.685200
C1541	C154	0.820310	0.978800	0.628300
H801	H80	0.830900	0.017900	0.585900
C1551	C155	0.772470	0.811300	0.833700
C1561	C156	0.887630	0.888700	0.671700
C1571	C157	0.904640	0.790400	0.685700
H811	H81	0.890400	0.738900	0.709400
C1581	C158	0.942500	0.767200	0.665200
H821	H82	0.952800	0.700600	0.674400
C1591	C159	0.964790	0.842900	0.631100
C1601	C160	0.948490	0.941200	0.621400
H831	H83	0.963400	0.994100	0.601800
C1611	C161	0.910600	0.963300	0.640000
H841	H84	0.900500	0.030000	0.630800
C1621	C162	0.003880	0.818100	0.602600
C1631	C163	0.012600	0.717600	0.580100
H851	H85	0.994300	0.665000	0.584400
C1641	C164	0.048340	0.695300	0.551200
H861	H86	0.054000	0.627200	0.538700
C1651	C165	0.075730	0.771100	0.540300
C1661	C166	0.067770	0.868400	0.565000
H871	H87	0.086200	0.920700	0.560600
C1671	C167	0.032400	0.891900	0.597000
H881	H88	0.028200	0.959100	0.614900
C1681	C168	0.113250	0.746600	0.503900
La81	La8	0.809130	0.300230	0.551110
O431	O43	0.767860	0.139500	0.536400
O441	O44	0.715210	0.042000	0.549300
O451	O45	0.735780	0.828700	0.836500
O461	O46	0.796020	0.750000	0.884300
O471	O47	0.123530	0.653500	0.497100
O481	O48	0.133140	0.820500	0.478700
