data_APAZIC_clean_PM
_symmetry_space_group_name_H-M	'P1'
_cell_length_a	13.999900
_cell_length_b	14.647000
_cell_length_c	42.040000
_cell_angle_alpha	90.000000
_cell_angle_beta	97.948000
_cell_angle_gamma	90.000000
_symmetry_Int_Tables_number 1

loop_
_symmetry_equiv_pos_as_xyz
'x,y,z'

loop_
_atom_site_label
_atom_site_type_symbol
_atom_site_fract_x
_atom_site_fract_y
_atom_site_fract_z
C11	C1	0.565300	0.668000	0.236010
C21	C2	0.481100	0.607700	0.222790
C31	C3	0.442400	0.543700	0.241770
H11	H1	0.466500	0.538700	0.263400
C41	C4	0.369000	0.488000	0.228690
C51	C5	0.328600	0.498100	0.196440
H21	H2	0.279200	0.459300	0.187800
C61	C6	0.361100	0.564500	0.177510
C71	C7	0.440500	0.616700	0.190670
H31	H3	0.467000	0.658500	0.177700
C81	C8	0.328400	0.417500	0.249470
C91	C9	0.316300	0.580100	0.143850
C101	C10	0.273100	0.509200	0.124610
H41	H4	0.272500	0.450200	0.132800
C111	C11	0.231200	0.526800	0.093410
H51	H5	0.204600	0.478100	0.081000
C121	C12	0.226900	0.612300	0.079750
C131	C13	0.270200	0.680800	0.098710
H61	H6	0.270300	0.739600	0.090300
C141	C14	0.314000	0.665900	0.130070
H71	H7	0.342300	0.714700	0.142000
C151	C15	0.179300	0.630600	0.046200
C161	C16	0.146100	0.558300	0.026270
H81	H8	0.154700	0.498500	0.033600
C171	C17	0.100100	0.575200	0.995380
H91	H9	0.077900	0.526800	0.982000
C181	C18	0.087300	0.664500	0.984410
C191	C19	0.120400	0.736800	0.004330
H101	H10	0.111800	0.796600	0.997000
C201	C20	0.166400	0.719900	0.035230
H111	H11	0.188600	0.768300	0.048600
C211	C21	0.033600	0.682500	0.950720
C221	C22	0.006800	0.612100	0.928640
H121	H12	0.023700	0.552200	0.934200
C231	C23	0.956300	0.629700	0.899130
H131	H13	0.938300	0.581800	0.885100
C241	C24	0.931800	0.718100	0.890010
C251	C25	0.964600	0.789400	0.910700
H141	H14	0.953800	0.849600	0.904200
C261	C26	0.012300	0.771000	0.940430
H151	H15	0.031300	0.819200	0.954300
C271	C27	0.870500	0.739500	0.858770
La11	La1	0.745690	0.787480	0.202480
O11	O1	0.593700	0.726700	0.217480
O21	O2	0.602000	0.655700	0.264150
O31	O3	0.340600	0.428700	0.279300
O41	O4	0.284300	0.349500	0.236450
O51	O5	0.825900	0.676400	0.842680
O61	O6	0.866900	0.819700	0.848440
C281	C28	0.065300	0.168000	0.736010
C291	C29	0.981100	0.107700	0.722790
C301	C30	0.942400	0.043700	0.741770
H161	H16	0.966500	0.038700	0.763400
C311	C31	0.869000	0.988000	0.728690
C321	C32	0.828600	0.998100	0.696440
H171	H17	0.779200	0.959300	0.687800
C331	C33	0.861100	0.064500	0.677510
C341	C34	0.940500	0.116700	0.690670
H181	H18	0.967000	0.158500	0.677700
C351	C35	0.828400	0.917500	0.749470
C361	C36	0.816300	0.080100	0.643850
C371	C37	0.773100	0.009200	0.624610
H191	H19	0.772500	0.950200	0.632800
C381	C38	0.731200	0.026800	0.593410
H201	H20	0.704600	0.978100	0.581000
C391	C39	0.726900	0.112300	0.579750
C401	C40	0.770200	0.180800	0.598710
H211	H21	0.770300	0.239600	0.590300
C411	C41	0.814000	0.165900	0.630070
H221	H22	0.842300	0.214700	0.642000
C421	C42	0.679300	0.130600	0.546200
C431	C43	0.646100	0.058300	0.526270
H231	H23	0.654700	0.998500	0.533600
C441	C44	0.600100	0.075200	0.495380
H241	H24	0.577900	0.026800	0.482000
C451	C45	0.587300	0.164500	0.484410
C461	C46	0.620400	0.236800	0.504330
H251	H25	0.611800	0.296600	0.497000
C471	C47	0.666400	0.219900	0.535230
H261	H26	0.688600	0.268300	0.548600
C481	C48	0.533600	0.182500	0.450720
C491	C49	0.506800	0.112100	0.428640
H271	H27	0.523700	0.052200	0.434200
C501	C50	0.456300	0.129700	0.399130
H281	H28	0.438300	0.081800	0.385100
C511	C51	0.431800	0.218100	0.390010
C521	C52	0.464600	0.289400	0.410700
H291	H29	0.453800	0.349600	0.404200
C531	C53	0.512300	0.271000	0.440430
H301	H30	0.531300	0.319200	0.454300
C541	C54	0.370500	0.239500	0.358770
La21	La2	0.245690	0.287480	0.702480
O71	O7	0.093700	0.226700	0.717480
O81	O8	0.102000	0.155700	0.764150
O91	O9	0.840600	0.928700	0.779300
O101	O10	0.784300	0.849500	0.736450
O111	O11	0.325900	0.176400	0.342680
O121	O12	0.366900	0.319700	0.348440
C551	C55	0.934700	0.668000	0.763990
C561	C56	0.018900	0.607700	0.777210
C571	C57	0.057600	0.543700	0.758230
H311	H31	0.033500	0.538700	0.736600
C581	C58	0.131000	0.488000	0.771310
C591	C59	0.171400	0.498100	0.803560
H321	H32	0.220800	0.459300	0.812200
C601	C60	0.138900	0.564500	0.822490
C611	C61	0.059500	0.616700	0.809330
H331	H33	0.033000	0.658500	0.822300
C621	C62	0.171600	0.417500	0.750530
C631	C63	0.183700	0.580100	0.856150
C641	C64	0.226900	0.509200	0.875390
H341	H34	0.227500	0.450200	0.867200
C651	C65	0.268800	0.526800	0.906590
H351	H35	0.295400	0.478100	0.919000
C661	C66	0.273100	0.612300	0.920250
C671	C67	0.229800	0.680800	0.901290
H361	H36	0.229700	0.739600	0.909700
C681	C68	0.186000	0.665900	0.869930
H371	H37	0.157700	0.714700	0.858000
C691	C69	0.320700	0.630600	0.953800
C701	C70	0.353900	0.558300	0.973730
H381	H38	0.345300	0.498500	0.966400
C711	C71	0.399900	0.575200	0.004620
H391	H39	0.422100	0.526800	0.018000
C721	C72	0.412700	0.664500	0.015590
C731	C73	0.379600	0.736800	0.995670
H401	H40	0.388200	0.796600	0.003000
C741	C74	0.333600	0.719900	0.964770
H411	H41	0.311400	0.768300	0.951400
C751	C75	0.466400	0.682500	0.049280
C761	C76	0.493200	0.612100	0.071360
H421	H42	0.476300	0.552200	0.065800
C771	C77	0.543700	0.629700	0.100870
H431	H43	0.561700	0.581800	0.114900
C781	C78	0.568200	0.718100	0.109990
C791	C79	0.535400	0.789400	0.089300
H441	H44	0.546200	0.849600	0.095800
C801	C80	0.487700	0.771000	0.059570
H451	H45	0.468700	0.819200	0.045700
C811	C81	0.629500	0.739500	0.141230
La31	La3	0.754310	0.787480	0.797520
O131	O13	0.906300	0.726700	0.782520
O141	O14	0.898000	0.655700	0.735850
O151	O15	0.159400	0.428700	0.720700
O161	O16	0.215700	0.349500	0.763550
O171	O17	0.674100	0.676400	0.157320
O181	O18	0.633100	0.819700	0.151560
C821	C82	0.434700	0.168000	0.263990
C831	C83	0.518900	0.107700	0.277210
C841	C84	0.557600	0.043700	0.258230
H461	H46	0.533500	0.038700	0.236600
C851	C85	0.631000	0.988000	0.271310
C861	C86	0.671400	0.998100	0.303560
H471	H47	0.720800	0.959300	0.312200
C871	C87	0.638900	0.064500	0.322490
C881	C88	0.559500	0.116700	0.309330
H481	H48	0.533000	0.158500	0.322300
C891	C89	0.671600	0.917500	0.250530
C901	C90	0.683700	0.080100	0.356150
C911	C91	0.726900	0.009200	0.375390
H491	H49	0.727500	0.950200	0.367200
C921	C92	0.768800	0.026800	0.406590
H501	H50	0.795400	0.978100	0.419000
C931	C93	0.773100	0.112300	0.420250
C941	C94	0.729800	0.180800	0.401290
H511	H51	0.729700	0.239600	0.409700
C951	C95	0.686000	0.165900	0.369930
H521	H52	0.657700	0.214700	0.358000
C961	C96	0.820700	0.130600	0.453800
C971	C97	0.853900	0.058300	0.473730
H531	H53	0.845300	0.998500	0.466400
C981	C98	0.899900	0.075200	0.504620
H541	H54	0.922100	0.026800	0.518000
C991	C99	0.912700	0.164500	0.515590
C1001	C100	0.879600	0.236800	0.495670
H551	H55	0.888200	0.296600	0.503000
C1011	C101	0.833600	0.219900	0.464770
H561	H56	0.811400	0.268300	0.451400
C1021	C102	0.966400	0.182500	0.549280
C1031	C103	0.993200	0.112100	0.571360
H571	H57	0.976300	0.052200	0.565800
C1041	C104	0.043700	0.129700	0.600870
H581	H58	0.061700	0.081800	0.614900
C1051	C105	0.068200	0.218100	0.609990
C1061	C106	0.035400	0.289400	0.589300
H591	H59	0.046200	0.349600	0.595800
C1071	C107	0.987700	0.271000	0.559570
H601	H60	0.968700	0.319200	0.545700
C1081	C108	0.129500	0.239500	0.641230
La41	La4	0.254310	0.287480	0.297520
O191	O19	0.406300	0.226700	0.282520
O201	O20	0.398000	0.155700	0.235850
O211	O21	0.659400	0.928700	0.220700
O221	O22	0.715700	0.849500	0.263550
O231	O23	0.174100	0.176400	0.657320
O241	O24	0.133100	0.319700	0.651560
C1091	C109	0.434700	0.332000	0.763990
C1101	C110	0.518900	0.392300	0.777210
C1111	C111	0.557600	0.456300	0.758230
H611	H61	0.533500	0.461300	0.736600
C1121	C112	0.631000	0.512000	0.771310
C1131	C113	0.671400	0.501900	0.803560
H621	H62	0.720800	0.540700	0.812200
C1141	C114	0.638900	0.435500	0.822490
C1151	C115	0.559500	0.383300	0.809330
H631	H63	0.533000	0.341500	0.822300
C1161	C116	0.671600	0.582500	0.750530
C1171	C117	0.683700	0.419900	0.856150
C1181	C118	0.726900	0.490800	0.875390
H641	H64	0.727500	0.549800	0.867200
C1191	C119	0.768800	0.473200	0.906590
H651	H65	0.795400	0.521900	0.919000
C1201	C120	0.773100	0.387700	0.920250
C1211	C121	0.729800	0.319200	0.901290
H661	H66	0.729700	0.260400	0.909700
C1221	C122	0.686000	0.334100	0.869930
H671	H67	0.657700	0.285300	0.858000
C1231	C123	0.820700	0.369400	0.953800
C1241	C124	0.853900	0.441700	0.973730
H681	H68	0.845300	0.501500	0.966400
C1251	C125	0.899900	0.424800	0.004620
H691	H69	0.922100	0.473200	0.018000
C1261	C126	0.912700	0.335500	0.015590
C1271	C127	0.879600	0.263200	0.995670
H701	H70	0.888200	0.203400	0.003000
C1281	C128	0.833600	0.280100	0.964770
H711	H71	0.811400	0.231700	0.951400
C1291	C129	0.966400	0.317500	0.049280
C1301	C130	0.993200	0.387900	0.071360
H721	H72	0.976300	0.447800	0.065800
C1311	C131	0.043700	0.370300	0.100870
H731	H73	0.061700	0.418200	0.114900
C1321	C132	0.068200	0.281900	0.109990
C1331	C133	0.035400	0.210600	0.089300
H741	H74	0.046200	0.150400	0.095800
C1341	C134	0.987700	0.229000	0.059570
H751	H75	0.968700	0.180800	0.045700
C1351	C135	0.129500	0.260500	0.141230
La51	La5	0.254310	0.212520	0.797520
O251	O25	0.406300	0.273300	0.782520
O261	O26	0.398000	0.344300	0.735850
O271	O27	0.659400	0.571300	0.720700
O281	O28	0.715700	0.650500	0.763550
O291	O29	0.174100	0.323600	0.157320
O301	O30	0.133100	0.180300	0.151560
C1361	C136	0.934700	0.832000	0.263990
C1371	C137	0.018900	0.892300	0.277210
C1381	C138	0.057600	0.956300	0.258230
H761	H76	0.033500	0.961300	0.236600
C1391	C139	0.131000	0.012000	0.271310
C1401	C140	0.171400	0.001900	0.303560
H771	H77	0.220800	0.040700	0.312200
C1411	C141	0.138900	0.935500	0.322490
C1421	C142	0.059500	0.883300	0.309330
H781	H78	0.033000	0.841500	0.322300
C1431	C143	0.171600	0.082500	0.250530
C1441	C144	0.183700	0.919900	0.356150
C1451	C145	0.226900	0.990800	0.375390
H791	H79	0.227500	0.049800	0.367200
C1461	C146	0.268800	0.973200	0.406590
H801	H80	0.295400	0.021900	0.419000
C1471	C147	0.273100	0.887700	0.420250
C1481	C148	0.229800	0.819200	0.401290
H811	H81	0.229700	0.760400	0.409700
C1491	C149	0.186000	0.834100	0.369930
H821	H82	0.157700	0.785300	0.358000
C1501	C150	0.320700	0.869400	0.453800
C1511	C151	0.353900	0.941700	0.473730
H831	H83	0.345300	0.001500	0.466400
C1521	C152	0.399900	0.924800	0.504620
H841	H84	0.422100	0.973200	0.518000
C1531	C153	0.412700	0.835500	0.515590
C1541	C154	0.379600	0.763200	0.495670
H851	H85	0.388200	0.703400	0.503000
C1551	C155	0.333600	0.780100	0.464770
H861	H86	0.311400	0.731700	0.451400
C1561	C156	0.466400	0.817500	0.549280
C1571	C157	0.493200	0.887900	0.571360
H871	H87	0.476300	0.947800	0.565800
C1581	C158	0.543700	0.870300	0.600870
H881	H88	0.561700	0.918200	0.614900
C1591	C159	0.568200	0.781900	0.609990
C1601	C160	0.535400	0.710600	0.589300
H891	H89	0.546200	0.650400	0.595800
C1611	C161	0.487700	0.729000	0.559570
H901	H90	0.468700	0.680800	0.545700
C1621	C162	0.629500	0.760500	0.641230
La61	La6	0.754310	0.712520	0.297520
O311	O31	0.906300	0.773300	0.282520
O321	O32	0.898000	0.844300	0.235850
O331	O33	0.159400	0.071300	0.220700
O341	O34	0.215700	0.150500	0.263550
O351	O35	0.674100	0.823600	0.657320
O361	O36	0.633100	0.680300	0.651560
C1631	C163	0.065300	0.332000	0.236010
C1641	C164	0.981100	0.392300	0.222790
C1651	C165	0.942400	0.456300	0.241770
H911	H91	0.966500	0.461300	0.263400
C1661	C166	0.869000	0.512000	0.228690
C1671	C167	0.828600	0.501900	0.196440
H921	H92	0.779200	0.540700	0.187800
C1681	C168	0.861100	0.435500	0.177510
C1691	C169	0.940500	0.383300	0.190670
H931	H93	0.967000	0.341500	0.177700
C1701	C170	0.828400	0.582500	0.249470
C1711	C171	0.816300	0.419900	0.143850
C1721	C172	0.773100	0.490800	0.124610
H941	H94	0.772500	0.549800	0.132800
C1731	C173	0.731200	0.473200	0.093410
H951	H95	0.704600	0.521900	0.081000
C1741	C174	0.726900	0.387700	0.079750
C1751	C175	0.770200	0.319200	0.098710
H961	H96	0.770300	0.260400	0.090300
C1761	C176	0.814000	0.334100	0.130070
H971	H97	0.842300	0.285300	0.142000
C1771	C177	0.679300	0.369400	0.046200
C1781	C178	0.646100	0.441700	0.026270
H981	H98	0.654700	0.501500	0.033600
C1791	C179	0.600100	0.424800	0.995380
H991	H99	0.577900	0.473200	0.982000
C1801	C180	0.587300	0.335500	0.984410
C1811	C181	0.620400	0.263200	0.004330
H1001	H100	0.611800	0.203400	0.997000
C1821	C182	0.666400	0.280100	0.035230
H1011	H101	0.688600	0.231700	0.048600
C1831	C183	0.533600	0.317500	0.950720
C1841	C184	0.506800	0.387900	0.928640
H1021	H102	0.523700	0.447800	0.934200
C1851	C185	0.456300	0.370300	0.899130
H1031	H103	0.438300	0.418200	0.885100
C1861	C186	0.431800	0.281900	0.890010
C1871	C187	0.464600	0.210600	0.910700
H1041	H104	0.453800	0.150400	0.904200
C1881	C188	0.512300	0.229000	0.940430
H1051	H105	0.531300	0.180800	0.954300
C1891	C189	0.370500	0.260500	0.858770
La71	La7	0.245690	0.212520	0.202480
O371	O37	0.093700	0.273300	0.217480
O381	O38	0.102000	0.344300	0.264150
O391	O39	0.840600	0.571300	0.279300
O401	O40	0.784300	0.650500	0.236450
O411	O41	0.325900	0.323600	0.842680
O421	O42	0.366900	0.180300	0.848440
C1901	C190	0.565300	0.832000	0.736010
C1911	C191	0.481100	0.892300	0.722790
C1921	C192	0.442400	0.956300	0.741770
H1061	H106	0.466500	0.961300	0.763400
C1931	C193	0.369000	0.012000	0.728690
C1941	C194	0.328600	0.001900	0.696440
H1071	H107	0.279200	0.040700	0.687800
C1951	C195	0.361100	0.935500	0.677510
C1961	C196	0.440500	0.883300	0.690670
H1081	H108	0.467000	0.841500	0.677700
C1971	C197	0.328400	0.082500	0.749470
C1981	C198	0.316300	0.919900	0.643850
C1991	C199	0.273100	0.990800	0.624610
H1091	H109	0.272500	0.049800	0.632800
C2001	C200	0.231200	0.973200	0.593410
H1101	H110	0.204600	0.021900	0.581000
C2011	C201	0.226900	0.887700	0.579750
C2021	C202	0.270200	0.819200	0.598710
H1111	H111	0.270300	0.760400	0.590300
C2031	C203	0.314000	0.834100	0.630070
H1121	H112	0.342300	0.785300	0.642000
C2041	C204	0.179300	0.869400	0.546200
C2051	C205	0.146100	0.941700	0.526270
H1131	H113	0.154700	0.001500	0.533600
C2061	C206	0.100100	0.924800	0.495380
H1141	H114	0.077900	0.973200	0.482000
C2071	C207	0.087300	0.835500	0.484410
C2081	C208	0.120400	0.763200	0.504330
H1151	H115	0.111800	0.703400	0.497000
C2091	C209	0.166400	0.780100	0.535230
H1161	H116	0.188600	0.731700	0.548600
C2101	C210	0.033600	0.817500	0.450720
C2111	C211	0.006800	0.887900	0.428640
H1171	H117	0.023700	0.947800	0.434200
C2121	C212	0.956300	0.870300	0.399130
H1181	H118	0.938300	0.918200	0.385100
C2131	C213	0.931800	0.781900	0.390010
C2141	C214	0.964600	0.710600	0.410700
H1191	H119	0.953800	0.650400	0.404200
C2151	C215	0.012300	0.729000	0.440430
H1201	H120	0.031300	0.680800	0.454300
C2161	C216	0.870500	0.760500	0.358770
La81	La8	0.745690	0.712520	0.702480
O431	O43	0.593700	0.773300	0.717480
O441	O44	0.602000	0.844300	0.764150
O451	O45	0.340600	0.071300	0.779300
O461	O46	0.284300	0.150500	0.736450
O471	O47	0.825900	0.823600	0.342680
O481	O48	0.866900	0.680300	0.348440
