data_APEBEE_clean_PM
_symmetry_space_group_name_H-M	'P1'
_cell_length_a	8.562000
_cell_length_b	8.839000
_cell_length_c	16.904000
_cell_angle_alpha	82.238000
_cell_angle_beta	89.592000
_cell_angle_gamma	78.252000
_symmetry_Int_Tables_number 1

loop_
_symmetry_equiv_pos_as_xyz
'x,y,z'

loop_
_atom_site_label
_atom_site_type_symbol
_atom_site_fract_x
_atom_site_fract_y
_atom_site_fract_z
N11	N1	0.504800	0.466400	0.224000
N21	N2	0.134700	0.924600	0.154500
B11	B1	0.174800	0.765700	0.122800
N31	N3	0.022600	0.698500	0.117600
N41	N4	0.994200	0.147900	0.187300
N51	N5	0.246600	0.780000	0.039000
N61	N6	0.846800	0.545200	0.143400
N71	N7	0.319700	0.718100	0.918900
C11	C1	0.984600	0.575400	0.163300
H11	H1	0.049500	0.516800	0.205100
C21	C2	0.294500	0.629300	0.263000
H21	H2	0.219300	0.681900	0.295000
N81	N8	0.296900	0.653800	0.180600
C31	C3	0.228700	0.694000	0.980800
H31	H3	0.159400	0.624900	0.984000
C41	C4	0.239400	0.001000	0.187000
H41	H4	0.349100	0.966400	0.193900
C51	C5	0.897100	0.750300	0.063400
H51	H5	0.886800	0.834300	0.022900
C61	C6	0.421000	0.515100	0.288700
H61	H6	0.447200	0.475700	0.341900
C71	C7	0.425900	0.550400	0.161300
H71	H7	0.455600	0.539800	0.109000
C81	C8	0.359400	0.864700	0.011400
H81	H8	0.398600	0.935200	0.038000
C91	C9	0.151200	0.136200	0.207200
H91	H9	0.191700	0.209600	0.230900
C101	C10	0.989800	0.020300	0.156500
H101	H10	0.896400	0.997700	0.137800
C111	C11	0.402500	0.825800	0.938400
H111	H11	0.477000	0.866100	0.906200
C121	C12	0.792200	0.656200	0.080200
H121	H12	0.696400	0.665600	0.052600
Cd11	Cd1	0.758540	0.323940	0.212710
O11	O1	0.711100	0.333500	0.398200
O21	O2	0.702700	0.435600	0.533100
H131	H13	0.663100	0.413300	0.493400
C131	C13	0.839600	0.374200	0.381100
C141	C14	0.923300	0.437500	0.443100
C151	C15	0.927300	0.528800	0.571000
H141	H14	0.877900	0.548300	0.618800
C161	C16	0.849300	0.466500	0.515600
O31	O3	0.903900	0.367600	0.314100
N91	N9	0.495200	0.533600	0.776000
N101	N10	0.865300	0.075400	0.845500
B21	B2	0.825200	0.234300	0.877200
N111	N11	0.977400	0.301500	0.882400
N121	N12	0.005800	0.852100	0.812700
N131	N13	0.753400	0.220000	0.961000
N141	N14	0.153200	0.454800	0.856600
N151	N15	0.680300	0.281900	0.081100
C171	C17	0.015400	0.424600	0.836700
H151	H15	0.950500	0.483200	0.794900
C181	C18	0.705500	0.370700	0.737000
H161	H16	0.780700	0.318100	0.705000
N161	N16	0.703100	0.346200	0.819400
C191	C19	0.771300	0.306000	0.019200
H171	H17	0.840600	0.375100	0.016000
C201	C20	0.760600	0.999000	0.813000
H181	H18	0.650900	0.033600	0.806100
C211	C21	0.102900	0.249700	0.936600
H191	H19	0.113200	0.165700	0.977100
C221	C22	0.579000	0.484900	0.711300
H201	H20	0.552800	0.524300	0.658100
C231	C23	0.574100	0.449600	0.838700
H211	H21	0.544400	0.460200	0.891000
C241	C24	0.640600	0.135300	0.988600
H221	H22	0.601400	0.064800	0.962000
C251	C25	0.848800	0.863800	0.792800
H231	H23	0.808300	0.790400	0.769100
C261	C26	0.010200	0.979700	0.843500
H241	H24	0.103600	0.002300	0.862200
C271	C27	0.597500	0.174200	0.061600
H251	H25	0.523000	0.133900	0.093800
C281	C28	0.207800	0.343800	0.919800
H261	H26	0.303600	0.334400	0.947400
Cd21	Cd2	0.241460	0.676060	0.787290
O41	O4	0.288900	0.666500	0.601800
O51	O5	0.297300	0.564400	0.466900
H271	H27	0.336900	0.586700	0.506600
C291	C29	0.160400	0.625800	0.618900
C301	C30	0.076700	0.562500	0.556900
C311	C31	0.072700	0.471200	0.429000
H281	H28	0.122100	0.451700	0.381200
C321	C32	0.150700	0.533500	0.484400
O61	O6	0.096100	0.632400	0.685900
