data_APEBED_clean_PM
_symmetry_space_group_name_H-M	'P1'
_cell_length_a	10.215100
_cell_length_b	13.117000
_cell_length_c	14.136000
_cell_angle_alpha	90.000000
_cell_angle_beta	90.000000
_cell_angle_gamma	90.000000
_symmetry_Int_Tables_number 1

loop_
_symmetry_equiv_pos_as_xyz
'x,y,z'

loop_
_atom_site_label
_atom_site_type_symbol
_atom_site_fract_x
_atom_site_fract_y
_atom_site_fract_z
Zn11	Zn1	0.114090	0.930770	0.285640
Zn21	Zn2	0.092060	0.233570	0.279640
Zn31	Zn3	0.385910	0.069230	0.785640
Zn41	Zn4	0.407940	0.766430	0.779640
Zn51	Zn5	0.885910	0.430770	0.214360
Zn61	Zn6	0.907940	0.733570	0.220360
Zn71	Zn7	0.614090	0.569230	0.714360
Zn81	Zn8	0.592060	0.266430	0.720360
H11	H1	0.523600	0.954900	0.300600
H21	H2	0.750000	0.010400	0.291500
H31	H3	0.673500	0.782900	0.450700
H41	H4	0.518000	0.863700	0.553600
H51	H5	0.976400	0.045100	0.800600
H61	H6	0.750000	0.989600	0.791500
H71	H7	0.826500	0.217100	0.950700
H81	H8	0.982000	0.136300	0.053600
H91	H9	0.476400	0.454900	0.199400
H101	H10	0.250000	0.510400	0.208500
H111	H11	0.326500	0.282900	0.049300
H121	H12	0.482000	0.363700	0.946400
H131	H13	0.023600	0.545100	0.699400
H141	H14	0.250000	0.489600	0.708500
H151	H15	0.173500	0.717100	0.549300
H161	H16	0.018000	0.636300	0.446400
C11	C1	0.463100	0.095100	0.261900
C21	C2	0.548600	0.020500	0.283700
C31	C3	0.679100	0.052500	0.278000
C41	C4	0.691400	0.150900	0.250900
C51	C5	0.318100	0.093100	0.266100
C61	C6	0.810900	0.212600	0.243800
C71	C7	0.795100	0.904400	0.461300
C81	C8	0.686300	0.847100	0.477100
C91	C9	0.597100	0.893400	0.536300
C101	C10	0.635900	0.986500	0.566700
C111	C11	0.904500	0.884300	0.396800
C121	C12	0.572000	0.057000	0.634300
C131	C13	0.036900	0.904900	0.761900
C141	C14	0.951400	0.979500	0.783700
C151	C15	0.820900	0.947500	0.778000
C161	C16	0.808600	0.849100	0.750900
C171	C17	0.181900	0.906900	0.766100
C181	C18	0.689100	0.787400	0.743800
C191	C19	0.704900	0.095600	0.961300
C201	C20	0.813700	0.152900	0.977100
C211	C21	0.902900	0.106600	0.036300
C221	C22	0.864100	0.013500	0.066700
C231	C23	0.595500	0.115700	0.896800
C241	C24	0.928000	0.943000	0.134300
C251	C25	0.536900	0.595100	0.238100
C261	C26	0.451400	0.520500	0.216300
C271	C27	0.320900	0.552500	0.222000
C281	C28	0.308600	0.650900	0.249100
C291	C29	0.681900	0.593100	0.233900
C301	C30	0.189100	0.712600	0.256200
C311	C31	0.204900	0.404400	0.038700
C321	C32	0.313700	0.347100	0.022900
C331	C33	0.402900	0.393400	0.963700
C341	C34	0.364100	0.486500	0.933300
C351	C35	0.095500	0.384300	0.103200
C361	C36	0.428000	0.557000	0.865700
C371	C37	0.963100	0.404900	0.738100
C381	C38	0.048600	0.479500	0.716300
C391	C39	0.179100	0.447500	0.722000
C401	C40	0.191400	0.349100	0.749100
C411	C41	0.818100	0.406900	0.733900
C421	C42	0.310900	0.287400	0.756200
C431	C43	0.295100	0.595600	0.538700
C441	C44	0.186300	0.652900	0.522900
C451	C45	0.097100	0.606600	0.463700
C461	C46	0.135900	0.513500	0.433300
C471	C47	0.404500	0.615700	0.603200
C481	C48	0.072000	0.443000	0.365700
S11	S1	0.541480	0.206390	0.231300
S21	S2	0.786310	0.017230	0.522150
S31	S3	0.958520	0.793610	0.731300
S41	S4	0.713690	0.982770	0.022150
S51	S5	0.458520	0.706390	0.268700
S61	S6	0.213690	0.517230	0.977850
S71	S7	0.041480	0.293610	0.768700
S81	S8	0.286310	0.482770	0.477850
O11	O1	0.270400	0.010800	0.296900
O21	O2	0.794400	0.302500	0.213900
O31	O3	0.989000	0.954400	0.386400
O41	O4	0.462900	0.030400	0.665500
O51	O5	0.258100	0.170600	0.242400
O61	O6	0.909500	0.800500	0.355800
O71	O7	0.632100	0.137200	0.655800
O81	O8	0.917000	0.174300	0.269400
O91	O9	0.229600	0.989200	0.796900
O101	O10	0.705600	0.697500	0.713900
O111	O11	0.511000	0.045600	0.886400
O121	O12	0.037100	0.969600	0.165500
O131	O13	0.241900	0.829400	0.742400
O141	O14	0.590500	0.199500	0.855800
O151	O15	0.867900	0.862800	0.155800
O161	O16	0.583000	0.825700	0.769400
O171	O17	0.729600	0.510800	0.203100
O181	O18	0.205600	0.802500	0.286100
O191	O19	0.011000	0.454400	0.113600
O201	O20	0.537100	0.530400	0.834500
O211	O21	0.741900	0.670600	0.257600
O221	O22	0.090500	0.300500	0.144200
O231	O23	0.367900	0.637200	0.844200
O241	O24	0.083000	0.674300	0.230600
O251	O25	0.770400	0.489200	0.703100
O261	O26	0.294400	0.197500	0.786100
O271	O27	0.489000	0.545600	0.613600
O281	O28	0.962900	0.469600	0.334500
O291	O29	0.758100	0.329400	0.757600
O301	O30	0.409500	0.699500	0.644200
O311	O31	0.132100	0.362800	0.344200
O321	O32	0.417000	0.325700	0.730600
