data_AQETIA_clean_PM
_symmetry_space_group_name_H-M	'P1'
_cell_length_a	10.605200
_cell_length_b	14.386900
_cell_length_c	15.575100
_cell_angle_alpha	90.000000
_cell_angle_beta	90.000000
_cell_angle_gamma	108.285000
_symmetry_Int_Tables_number 1

loop_
_symmetry_equiv_pos_as_xyz
'x,y,z'

loop_
_atom_site_label
_atom_site_type_symbol
_atom_site_fract_x
_atom_site_fract_y
_atom_site_fract_z
Mn11	Mn1	0.586650	0.016780	0.224440
Mn21	Mn2	0.892800	0.697190	0.948650
Mn31	Mn3	0.413350	0.483220	0.724440
Mn41	Mn4	0.107200	0.802810	0.448650
Mn51	Mn5	0.413350	0.983220	0.775560
Mn61	Mn6	0.107200	0.302810	0.051350
Mn71	Mn7	0.586650	0.516780	0.275560
Mn81	Mn8	0.892800	0.197190	0.551350
Nb11	Nb1	0.603950	0.304890	0.978720
Nb21	Nb2	0.396050	0.195110	0.478720
Nb31	Nb3	0.396050	0.695110	0.021280
Nb41	Nb4	0.603950	0.804890	0.521280
H11	H1	0.901600	0.840700	0.106400
H21	H2	0.044000	0.968300	0.182700
H31	H3	0.289300	0.003700	0.986500
H41	H4	0.244600	0.054100	0.119900
H51	H5	0.098400	0.659300	0.606400
H61	H6	0.956000	0.531700	0.682700
H71	H7	0.710700	0.496300	0.486500
H81	H8	0.755400	0.445900	0.619900
H91	H9	0.098400	0.159300	0.893600
H101	H10	0.956000	0.031700	0.817300
H111	H11	0.710700	0.996300	0.013500
H121	H12	0.755400	0.945900	0.880100
H131	H13	0.901600	0.340700	0.393600
H141	H14	0.044000	0.468300	0.317300
H151	H15	0.289300	0.503700	0.513500
H161	H16	0.244600	0.554100	0.380100
C11	C1	0.716090	0.460650	0.942370
C21	C2	0.491830	0.166480	0.911460
C31	C3	0.814220	0.328020	0.021680
C41	C4	0.488450	0.351680	0.875670
C51	C5	0.621530	0.388490	0.103050
C61	C6	0.395840	0.275240	0.029110
C71	C7	0.586860	0.184510	0.075530
C81	C8	0.720720	0.286650	0.862490
C91	C9	0.982900	0.875240	0.082080
C101	C10	0.067200	0.951950	0.128490
C111	C11	0.208200	0.971040	0.011990
C121	C12	0.183700	0.001710	0.092260
C131	C13	0.283910	0.039350	0.442370
C141	C14	0.508170	0.333520	0.411460
C151	C15	0.185780	0.171980	0.521680
C161	C16	0.511550	0.148320	0.375670
C171	C17	0.378470	0.111510	0.603050
C181	C18	0.604160	0.224760	0.529110
C191	C19	0.413140	0.315490	0.575530
C201	C20	0.279280	0.213350	0.362490
C211	C21	0.017100	0.624760	0.582080
C221	C22	0.932800	0.548050	0.628490
C231	C23	0.791800	0.528960	0.511990
C241	C24	0.816300	0.498290	0.592260
C251	C25	0.283910	0.539350	0.057630
C261	C26	0.508170	0.833520	0.088540
C271	C27	0.185780	0.671980	0.978320
C281	C28	0.511550	0.648320	0.124330
C291	C29	0.378470	0.611510	0.896950
C301	C30	0.604160	0.724760	0.970890
C311	C31	0.413140	0.815490	0.924470
C321	C32	0.279280	0.713350	0.137510
C331	C33	0.017100	0.124760	0.917920
C341	C34	0.932800	0.048050	0.871510
C351	C35	0.791800	0.028960	0.988010
C361	C36	0.816300	0.998290	0.907740
C371	C37	0.716090	0.960650	0.557630
C381	C38	0.491830	0.666480	0.588540
C391	C39	0.814220	0.828020	0.478320
C401	C40	0.488450	0.851680	0.624330
C411	C41	0.621530	0.888490	0.396950
C421	C42	0.395840	0.775240	0.470890
C431	C43	0.586860	0.684510	0.424470
C441	C44	0.720720	0.786650	0.637510
C451	C45	0.982900	0.375240	0.417920
C461	C46	0.067200	0.451950	0.371510
C471	C47	0.208200	0.471040	0.488010
C481	C48	0.183700	0.501710	0.407740
N11	N1	0.774490	0.539310	0.921790
N21	N2	0.630960	0.430550	0.166640
N31	N3	0.576230	0.123670	0.124970
N41	N4	0.440780	0.098630	0.870690
N51	N5	0.922360	0.340110	0.040770
N61	N6	0.429840	0.377460	0.824200
N71	N7	0.011580	0.848450	0.005470
N81	N8	0.289870	0.264520	0.051870
N91	N9	0.782110	0.276940	0.804850
N101	N10	0.125570	0.899110	0.968730
N111	N11	0.225510	0.960690	0.421790
N121	N12	0.369040	0.069450	0.666640
N131	N13	0.423770	0.376330	0.624970
N141	N14	0.559220	0.401370	0.370690
N151	N15	0.077640	0.159890	0.540770
N161	N16	0.570160	0.122540	0.324200
N171	N17	0.988420	0.651550	0.505470
N181	N18	0.710130	0.235480	0.551870
N191	N19	0.217890	0.223060	0.304850
N201	N20	0.874430	0.600890	0.468730
N211	N21	0.225510	0.460690	0.078210
N221	N22	0.369040	0.569450	0.833360
N231	N23	0.423770	0.876330	0.875030
N241	N24	0.559220	0.901370	0.129310
N251	N25	0.077640	0.659890	0.959230
N261	N26	0.570160	0.622540	0.175800
N271	N27	0.988420	0.151550	0.994530
N281	N28	0.710130	0.735480	0.948130
N291	N29	0.217890	0.723060	0.195150
N301	N30	0.874430	0.100890	0.031270
N311	N31	0.774490	0.039310	0.578210
N321	N32	0.630960	0.930550	0.333360
N331	N33	0.576230	0.623670	0.375030
N341	N34	0.440780	0.598630	0.629310
N351	N35	0.922360	0.840110	0.459230
N361	N36	0.429840	0.877460	0.675800
N371	N37	0.011580	0.348450	0.494530
N381	N38	0.289870	0.764520	0.448130
N391	N39	0.782110	0.776940	0.695150
N401	N40	0.125570	0.399110	0.531270
