data_AQIQAU_clean_PM
_symmetry_space_group_name_H-M	'P1'
_cell_length_a	26.865000
_cell_length_b	12.937000
_cell_length_c	23.858000
_cell_angle_alpha	90.000000
_cell_angle_beta	109.571000
_cell_angle_gamma	90.000000
_symmetry_Int_Tables_number 1

loop_
_symmetry_equiv_pos_as_xyz
'x,y,z'

loop_
_atom_site_label
_atom_site_type_symbol
_atom_site_fract_x
_atom_site_fract_y
_atom_site_fract_z
C11	C1	0.115500	0.153600	0.778300
N11	N1	0.740380	0.520200	0.757300
C21	C2	0.767700	0.603500	0.784900
H11	H1	0.749600	0.665700	0.782600
C31	C3	0.767000	0.431700	0.761300
H21	H2	0.748800	0.373500	0.742300
Cd11	Cd1	0.152250	0.967530	0.206710
N21	N2	0.016080	0.500100	0.908600
C41	C4	0.015550	0.645500	0.970500
C51	C5	0.986280	0.570800	0.923600
C61	C6	0.906050	0.505000	0.851700
C71	C7	0.931440	0.575100	0.896500
H31	H3	0.911900	0.624600	0.908300
C81	C8	0.102300	0.855300	0.107600
C91	C9	0.009700	0.253700	0.835700
H41	H4	0.978100	0.230400	0.839200
C101	C10	0.066800	0.622200	0.006900
H51	H5	0.082300	0.560400	0.001700
C111	C11	0.993700	0.740100	0.978200
H61	H6	0.959800	0.757300	0.953700
C121	C12	0.937440	0.431200	0.837700
H71	H7	0.922300	0.381800	0.808600
C131	C13	0.095000	0.690500	0.050900
H81	H8	0.129000	0.673800	0.075300
C141	C14	0.991640	0.431600	0.867400
C151	C15	0.848520	0.510000	0.820700
C161	C16	0.072600	0.783300	0.058700
C171	C17	0.820100	0.601300	0.816000
H91	H9	0.837200	0.661100	0.834200
C181	C18	0.820110	0.423000	0.792300
H101	H10	0.837100	0.359700	0.794400
C191	C19	0.021700	0.808300	0.021500
H111	H11	0.006700	0.871200	0.026100
C201	C20	0.086600	0.220700	0.809000
C211	C21	0.074200	0.387100	0.846800
H121	H12	0.086300	0.453600	0.858700
C221	C22	0.026090	0.354700	0.850700
C231	C23	0.103800	0.320600	0.825400
H131	H13	0.135600	0.343000	0.822100
C241	C24	0.040400	0.188000	0.815700
H141	H14	0.029600	0.120000	0.806500
O11	O1	0.145780	0.828200	0.142100
O21	O2	0.081540	0.941800	0.112400
O31	O3	0.156350	0.185900	0.772300
O41	O4	0.095100	0.069900	0.756800
C251	C25	0.615500	0.653600	0.778300
N31	N3	0.240380	0.020200	0.757300
C261	C26	0.267700	0.103500	0.784900
H151	H15	0.249600	0.165700	0.782600
C271	C27	0.267000	0.931700	0.761300
H161	H16	0.248800	0.873500	0.742300
Cd21	Cd2	0.652250	0.467530	0.206710
N41	N4	0.516080	0.000100	0.908600
C281	C28	0.515550	0.145500	0.970500
C291	C29	0.486280	0.070800	0.923600
C301	C30	0.406050	0.005000	0.851700
C311	C31	0.431440	0.075100	0.896500
H171	H17	0.411900	0.124600	0.908300
C321	C32	0.602300	0.355300	0.107600
C331	C33	0.509700	0.753700	0.835700
H181	H18	0.478100	0.730400	0.839200
C341	C34	0.566800	0.122200	0.006900
H191	H19	0.582300	0.060400	0.001700
C351	C35	0.493700	0.240100	0.978200
H201	H20	0.459800	0.257300	0.953700
C361	C36	0.437440	0.931200	0.837700
H211	H21	0.422300	0.881800	0.808600
C371	C37	0.595000	0.190500	0.050900
H221	H22	0.629000	0.173800	0.075300
C381	C38	0.491640	0.931600	0.867400
C391	C39	0.348520	0.010000	0.820700
C401	C40	0.572600	0.283300	0.058700
C411	C41	0.320100	0.101300	0.816000
H231	H23	0.337200	0.161100	0.834200
C421	C42	0.320110	0.923000	0.792300
H241	H24	0.337100	0.859700	0.794400
C431	C43	0.521700	0.308300	0.021500
H251	H25	0.506700	0.371200	0.026100
C441	C44	0.586600	0.720700	0.809000
C451	C45	0.574200	0.887100	0.846800
H261	H26	0.586300	0.953600	0.858700
C461	C46	0.526090	0.854700	0.850700
C471	C47	0.603800	0.820600	0.825400
H271	H27	0.635600	0.843000	0.822100
C481	C48	0.540400	0.688000	0.815700
H281	H28	0.529600	0.620000	0.806500
O51	O5	0.645780	0.328200	0.142100
O61	O6	0.581540	0.441800	0.112400
O71	O7	0.656350	0.685900	0.772300
O81	O8	0.595100	0.569900	0.756800
C491	C49	0.115500	0.846400	0.278300
N51	N5	0.740380	0.479800	0.257300
C501	C50	0.767700	0.396500	0.284900
H291	H29	0.749600	0.334300	0.282600
C511	C51	0.767000	0.568300	0.261300
H301	H30	0.748800	0.626500	0.242300
Cd31	Cd3	0.152250	0.032470	0.706710
N61	N6	0.016080	0.499900	0.408600
C521	C52	0.015550	0.354500	0.470500
C531	C53	0.986280	0.429200	0.423600
C541	C54	0.906050	0.495000	0.351700
C551	C55	0.931440	0.424900	0.396500
H311	H31	0.911900	0.375400	0.408300
C561	C56	0.102300	0.144700	0.607600
C571	C57	0.009700	0.746300	0.335700
H321	H32	0.978100	0.769600	0.339200
C581	C58	0.066800	0.377800	0.506900
H331	H33	0.082300	0.439600	0.501700
C591	C59	0.993700	0.259900	0.478200
H341	H34	0.959800	0.242700	0.453700
C601	C60	0.937440	0.568800	0.337700
H351	H35	0.922300	0.618200	0.308600
C611	C61	0.095000	0.309500	0.550900
H361	H36	0.129000	0.326200	0.575300
C621	C62	0.991640	0.568400	0.367400
C631	C63	0.848520	0.490000	0.320700
C641	C64	0.072600	0.216700	0.558700
C651	C65	0.820100	0.398700	0.316000
H371	H37	0.837200	0.338900	0.334200
C661	C66	0.820110	0.577000	0.292300
H381	H38	0.837100	0.640300	0.294400
C671	C67	0.021700	0.191700	0.521500
H391	H39	0.006700	0.128800	0.526100
C681	C68	0.086600	0.779300	0.309000
C691	C69	0.074200	0.612900	0.346800
H401	H40	0.086300	0.546400	0.358700
C701	C70	0.026090	0.645300	0.350700
C711	C71	0.103800	0.679400	0.325400
H411	H41	0.135600	0.657000	0.322100
C721	C72	0.040400	0.812000	0.315700
H421	H42	0.029600	0.880000	0.306500
O91	O9	0.145780	0.171800	0.642100
O101	O10	0.081540	0.058200	0.612400
O111	O11	0.156350	0.814100	0.272300
O121	O12	0.095100	0.930100	0.256800
C731	C73	0.615500	0.346400	0.278300
N71	N7	0.240380	0.979800	0.257300
C741	C74	0.267700	0.896500	0.284900
H431	H43	0.249600	0.834300	0.282600
C751	C75	0.267000	0.068300	0.261300
H441	H44	0.248800	0.126500	0.242300
Cd41	Cd4	0.652250	0.532470	0.706710
N81	N8	0.516080	0.999900	0.408600
C761	C76	0.515550	0.854500	0.470500
C771	C77	0.486280	0.929200	0.423600
C781	C78	0.406050	0.995000	0.351700
C791	C79	0.431440	0.924900	0.396500
H451	H45	0.411900	0.875400	0.408300
C801	C80	0.602300	0.644700	0.607600
C811	C81	0.509700	0.246300	0.335700
H461	H46	0.478100	0.269600	0.339200
C821	C82	0.566800	0.877800	0.506900
H471	H47	0.582300	0.939600	0.501700
C831	C83	0.493700	0.759900	0.478200
H481	H48	0.459800	0.742700	0.453700
C841	C84	0.437440	0.068800	0.337700
H491	H49	0.422300	0.118200	0.308600
C851	C85	0.595000	0.809500	0.550900
H501	H50	0.629000	0.826200	0.575300
C861	C86	0.491640	0.068400	0.367400
C871	C87	0.348520	0.990000	0.320700
C881	C88	0.572600	0.716700	0.558700
C891	C89	0.320100	0.898700	0.316000
H511	H51	0.337200	0.838900	0.334200
C901	C90	0.320110	0.077000	0.292300
H521	H52	0.337100	0.140300	0.294400
C911	C91	0.521700	0.691700	0.521500
H531	H53	0.506700	0.628800	0.526100
C921	C92	0.586600	0.279300	0.309000
C931	C93	0.574200	0.112900	0.346800
H541	H54	0.586300	0.046400	0.358700
C941	C94	0.526090	0.145300	0.350700
C951	C95	0.603800	0.179400	0.325400
H551	H55	0.635600	0.157000	0.322100
C961	C96	0.540400	0.312000	0.315700
H561	H56	0.529600	0.380000	0.306500
O131	O13	0.645780	0.671800	0.642100
O141	O14	0.581540	0.558200	0.612400
O151	O15	0.656350	0.314100	0.272300
O161	O16	0.595100	0.430100	0.256800
C971	C97	0.884500	0.153600	0.721700
N91	N9	0.259620	0.520200	0.742700
C981	C98	0.232300	0.603500	0.715100
H571	H57	0.250400	0.665700	0.717400
C991	C99	0.233000	0.431700	0.738700
H581	H58	0.251200	0.373500	0.757700
Cd51	Cd5	0.847750	0.967530	0.293290
N101	N10	0.983920	0.500100	0.591400
C1001	C100	0.984450	0.645500	0.529500
C1011	C101	0.013720	0.570800	0.576400
C1021	C102	0.093950	0.505000	0.648300
C1031	C103	0.068560	0.575100	0.603500
H591	H59	0.088100	0.624600	0.591700
C1041	C104	0.897700	0.855300	0.392400
C1051	C105	0.990300	0.253700	0.664300
H601	H60	0.021900	0.230400	0.660800
C1061	C106	0.933200	0.622200	0.493100
H611	H61	0.917700	0.560400	0.498300
C1071	C107	0.006300	0.740100	0.521800
H621	H62	0.040200	0.757300	0.546300
C1081	C108	0.062560	0.431200	0.662300
H631	H63	0.077700	0.381800	0.691400
C1091	C109	0.905000	0.690500	0.449100
H641	H64	0.871000	0.673800	0.424700
C1101	C110	0.008360	0.431600	0.632600
C1111	C111	0.151480	0.510000	0.679300
C1121	C112	0.927400	0.783300	0.441300
C1131	C113	0.179900	0.601300	0.684000
H651	H65	0.162800	0.661100	0.665800
C1141	C114	0.179890	0.423000	0.707700
H661	H66	0.162900	0.359700	0.705600
C1151	C115	0.978300	0.808300	0.478500
H671	H67	0.993300	0.871200	0.473900
C1161	C116	0.913400	0.220700	0.691000
C1171	C117	0.925800	0.387100	0.653200
H681	H68	0.913700	0.453600	0.641300
C1181	C118	0.973910	0.354700	0.649300
C1191	C119	0.896200	0.320600	0.674600
H691	H69	0.864400	0.343000	0.677900
C1201	C120	0.959600	0.188000	0.684300
H701	H70	0.970400	0.120000	0.693500
O171	O17	0.854220	0.828200	0.357900
O181	O18	0.918460	0.941800	0.387600
O191	O19	0.843650	0.185900	0.727700
O201	O20	0.904900	0.069900	0.743200
C1211	C121	0.384500	0.653600	0.721700
N111	N11	0.759620	0.020200	0.742700
C1221	C122	0.732300	0.103500	0.715100
H711	H71	0.750400	0.165700	0.717400
C1231	C123	0.733000	0.931700	0.738700
H721	H72	0.751200	0.873500	0.757700
Cd61	Cd6	0.347750	0.467530	0.293290
N121	N12	0.483920	0.000100	0.591400
C1241	C124	0.484450	0.145500	0.529500
C1251	C125	0.513720	0.070800	0.576400
C1261	C126	0.593950	0.005000	0.648300
C1271	C127	0.568560	0.075100	0.603500
H731	H73	0.588100	0.124600	0.591700
C1281	C128	0.397700	0.355300	0.392400
C1291	C129	0.490300	0.753700	0.664300
H741	H74	0.521900	0.730400	0.660800
C1301	C130	0.433200	0.122200	0.493100
H751	H75	0.417700	0.060400	0.498300
C1311	C131	0.506300	0.240100	0.521800
H761	H76	0.540200	0.257300	0.546300
C1321	C132	0.562560	0.931200	0.662300
H771	H77	0.577700	0.881800	0.691400
C1331	C133	0.405000	0.190500	0.449100
H781	H78	0.371000	0.173800	0.424700
C1341	C134	0.508360	0.931600	0.632600
C1351	C135	0.651480	0.010000	0.679300
C1361	C136	0.427400	0.283300	0.441300
C1371	C137	0.679900	0.101300	0.684000
H791	H79	0.662800	0.161100	0.665800
C1381	C138	0.679890	0.923000	0.707700
H801	H80	0.662900	0.859700	0.705600
C1391	C139	0.478300	0.308300	0.478500
H811	H81	0.493300	0.371200	0.473900
C1401	C140	0.413400	0.720700	0.691000
C1411	C141	0.425800	0.887100	0.653200
H821	H82	0.413700	0.953600	0.641300
C1421	C142	0.473910	0.854700	0.649300
C1431	C143	0.396200	0.820600	0.674600
H831	H83	0.364400	0.843000	0.677900
C1441	C144	0.459600	0.688000	0.684300
H841	H84	0.470400	0.620000	0.693500
O211	O21	0.354220	0.328200	0.357900
O221	O22	0.418460	0.441800	0.387600
O231	O23	0.343650	0.685900	0.727700
O241	O24	0.404900	0.569900	0.743200
C1451	C145	0.884500	0.846400	0.221700
N131	N13	0.259620	0.479800	0.242700
C1461	C146	0.232300	0.396500	0.215100
H851	H85	0.250400	0.334300	0.217400
C1471	C147	0.233000	0.568300	0.238700
H861	H86	0.251200	0.626500	0.257700
Cd71	Cd7	0.847750	0.032470	0.793290
N141	N14	0.983920	0.499900	0.091400
C1481	C148	0.984450	0.354500	0.029500
C1491	C149	0.013720	0.429200	0.076400
C1501	C150	0.093950	0.495000	0.148300
C1511	C151	0.068560	0.424900	0.103500
H871	H87	0.088100	0.375400	0.091700
C1521	C152	0.897700	0.144700	0.892400
C1531	C153	0.990300	0.746300	0.164300
H881	H88	0.021900	0.769600	0.160800
C1541	C154	0.933200	0.377800	0.993100
H891	H89	0.917700	0.439600	0.998300
C1551	C155	0.006300	0.259900	0.021800
H901	H90	0.040200	0.242700	0.046300
C1561	C156	0.062560	0.568800	0.162300
H911	H91	0.077700	0.618200	0.191400
C1571	C157	0.905000	0.309500	0.949100
H921	H92	0.871000	0.326200	0.924700
C1581	C158	0.008360	0.568400	0.132600
C1591	C159	0.151480	0.490000	0.179300
C1601	C160	0.927400	0.216700	0.941300
C1611	C161	0.179900	0.398700	0.184000
H931	H93	0.162800	0.338900	0.165800
C1621	C162	0.179890	0.577000	0.207700
H941	H94	0.162900	0.640300	0.205600
C1631	C163	0.978300	0.191700	0.978500
H951	H95	0.993300	0.128800	0.973900
C1641	C164	0.913400	0.779300	0.191000
C1651	C165	0.925800	0.612900	0.153200
H961	H96	0.913700	0.546400	0.141300
C1661	C166	0.973910	0.645300	0.149300
C1671	C167	0.896200	0.679400	0.174600
H971	H97	0.864400	0.657000	0.177900
C1681	C168	0.959600	0.812000	0.184300
H981	H98	0.970400	0.880000	0.193500
O251	O25	0.854220	0.171800	0.857900
O261	O26	0.918460	0.058200	0.887600
O271	O27	0.843650	0.814100	0.227700
O281	O28	0.904900	0.930100	0.243200
C1691	C169	0.384500	0.346400	0.221700
N151	N15	0.759620	0.979800	0.242700
C1701	C170	0.732300	0.896500	0.215100
H991	H99	0.750400	0.834300	0.217400
C1711	C171	0.733000	0.068300	0.238700
H1001	H100	0.751200	0.126500	0.257700
Cd81	Cd8	0.347750	0.532470	0.793290
N161	N16	0.483920	0.999900	0.091400
C1721	C172	0.484450	0.854500	0.029500
C1731	C173	0.513720	0.929200	0.076400
C1741	C174	0.593950	0.995000	0.148300
C1751	C175	0.568560	0.924900	0.103500
H1011	H101	0.588100	0.875400	0.091700
C1761	C176	0.397700	0.644700	0.892400
C1771	C177	0.490300	0.246300	0.164300
H1021	H102	0.521900	0.269600	0.160800
C1781	C178	0.433200	0.877800	0.993100
H1031	H103	0.417700	0.939600	0.998300
C1791	C179	0.506300	0.759900	0.021800
H1041	H104	0.540200	0.742700	0.046300
C1801	C180	0.562560	0.068800	0.162300
H1051	H105	0.577700	0.118200	0.191400
C1811	C181	0.405000	0.809500	0.949100
H1061	H106	0.371000	0.826200	0.924700
C1821	C182	0.508360	0.068400	0.132600
C1831	C183	0.651480	0.990000	0.179300
C1841	C184	0.427400	0.716700	0.941300
C1851	C185	0.679900	0.898700	0.184000
H1071	H107	0.662800	0.838900	0.165800
C1861	C186	0.679890	0.077000	0.207700
H1081	H108	0.662900	0.140300	0.205600
C1871	C187	0.478300	0.691700	0.978500
H1091	H109	0.493300	0.628800	0.973900
C1881	C188	0.413400	0.279300	0.191000
C1891	C189	0.425800	0.112900	0.153200
H1101	H110	0.413700	0.046400	0.141300
C1901	C190	0.473910	0.145300	0.149300
C1911	C191	0.396200	0.179400	0.174600
H1111	H111	0.364400	0.157000	0.177900
C1921	C192	0.459600	0.312000	0.184300
H1121	H112	0.470400	0.380000	0.193500
O291	O29	0.354220	0.671800	0.857900
O301	O30	0.418460	0.558200	0.887600
O311	O31	0.343650	0.314100	0.227700
O321	O32	0.404900	0.430100	0.243200
