data_AQIXUV_clean_PM
_symmetry_space_group_name_H-M	'P1'
_cell_length_a	13.709000
_cell_length_b	17.722000
_cell_length_c	23.810000
_cell_angle_alpha	70.746000
_cell_angle_beta	77.493000
_cell_angle_gamma	88.400000
_symmetry_Int_Tables_number 1

loop_
_symmetry_equiv_pos_as_xyz
'x,y,z'

loop_
_atom_site_label
_atom_site_type_symbol
_atom_site_fract_x
_atom_site_fract_y
_atom_site_fract_z
Ni11	Ni1	0.592790	0.849750	0.267760
O11	O1	0.991070	0.876730	0.025380
O21	O2	0.614500	0.960330	0.203330
O31	O3	0.440100	0.868850	0.266640
O41	O4	0.593000	0.799480	0.199920
N11	N1	0.156100	0.993160	0.001610
O51	O5	0.645100	0.303460	0.008300
N21	N2	0.560000	0.736340	0.333150
O61	O6	0.448300	0.885680	0.168360
O71	O7	0.977100	0.862050	0.937390
O81	O8	0.996700	0.499190	0.089770
O91	O9	0.780700	0.974530	0.174240
O101	O10	0.653600	0.663800	0.977030
N31	N3	0.573900	0.902530	0.335550
O111	O11	0.147900	0.150490	0.211400
C11	C1	0.223000	0.051700	0.969010
H11	H1	0.200900	0.098000	0.943700
C21	C2	0.993000	0.745630	0.019300
O121	O12	0.736200	0.743300	0.201400
C31	C3	0.189500	0.926800	0.036200
H21	H2	0.144200	0.883900	0.059000
C41	C4	0.986100	0.835220	0.993520
C51	C5	0.359800	0.981900	0.005850
C61	C6	0.998000	0.697300	0.983630
H31	H3	0.997600	0.720500	0.942500
C71	C7	0.681100	0.079600	0.127030
C81	C8	0.663100	0.230100	0.046700
C91	C9	0.695000	0.999100	0.170930
C101	C10	0.995900	0.710700	0.081110
H41	H4	0.995900	0.742300	0.105500
C111	C11	0.412800	0.902800	0.219060
O131	O13	0.704800	0.225900	0.276320
C121	C12	0.000500	0.581000	0.068820
C131	C13	0.607700	0.714100	0.378100
H51	H5	0.659500	0.747100	0.377900
C141	C14	0.654700	0.736800	0.125800
C151	C15	0.765200	0.130900	0.094580
H61	H6	0.828800	0.114400	0.099400
C161	C16	0.464000	0.971900	0.011040
H71	H7	0.481000	0.920800	0.032000
C171	C17	0.588900	0.104500	0.118530
H81	H8	0.532800	0.070700	0.140000
C181	C18	0.753400	0.206200	0.055300
H91	H9	0.809200	0.240600	0.034500
C191	C19	0.322100	0.049600	0.969640
H101	H10	0.364700	0.093700	0.945700
C201	C20	0.577400	0.180200	0.077900
H111	H11	0.514500	0.196900	0.071900
C211	C21	0.998900	0.627600	0.105190
H121	H12	0.999800	0.603500	0.146200
C221	C22	0.043600	0.322300	0.158300
C231	C23	0.610200	0.559900	0.942900
C241	C24	0.566300	0.730200	0.110150
H131	H13	0.508200	0.743300	0.132800
C251	C25	0.662100	0.762300	0.178400
C261	C26	0.729700	0.358100	0.974500
H141	H14	0.773100	0.337000	0.945900
H151	H15	0.768000	0.366400	0.002000
C271	C27	0.288000	0.918700	0.039940
H161	H16	0.307600	0.871300	0.065100
C281	C28	0.984600	0.459000	0.153900
H171	H17	0.928700	0.479700	0.176300
H181	H18	0.044600	0.467100	0.167000
C291	C29	0.965200	0.370500	0.165320
C301	C30	0.213000	0.090500	0.208000
C311	C31	0.571800	0.614700	0.978800
H191	H19	0.521100	0.647800	0.961300
H201	H20	0.541900	0.583400	0.020700
C321	C32	0.003500	0.615800	0.007700
H211	H21	0.009300	0.584400	0.982700
C331	C33	0.649800	0.688600	0.025300
C341	C34	0.742200	0.224400	0.215700
H221	H22	0.703100	0.257400	0.188100
H231	H23	0.739500	0.170200	0.214800
C351	C35	0.688300	0.436000	0.941000
C361	C36	0.342300	0.967300	0.214230
C371	C37	0.599300	0.574700	0.884700
C381	C38	0.109500	0.188400	0.156900
H241	H24	0.085400	0.148000	0.143300
H251	H25	0.162200	0.221100	0.124400
C391	C39	0.240400	0.053000	0.262700
H261	H26	0.215100	0.068200	0.296700
C401	C40	0.626200	0.520600	0.854000
C411	C41	0.024800	0.240100	0.172210
C421	C42	0.849300	0.257300	0.197600
C431	C43	0.307700	0.990900	0.265580
H271	H27	0.329100	0.965700	0.301400
C441	C44	0.490500	0.686400	0.332700
H281	H28	0.459800	0.700600	0.299700
C451	C45	0.658100	0.490100	0.971900
C461	C46	0.493600	0.885200	0.381400
H291	H29	0.445300	0.849200	0.381700
C471	C47	0.581600	0.641200	0.426700
H301	H30	0.612800	0.628900	0.459300
C481	C48	0.513200	0.590000	0.426400
C491	C49	0.552300	0.967600	0.429000
C501	C50	0.672200	0.449500	0.882900
C511	C51	0.246500	0.068400	0.157900
H311	H31	0.225600	0.094400	0.122000
C521	C52	0.554600	0.653800	0.851800
H321	H32	0.562600	0.692800	0.870700
H331	H33	0.484800	0.644500	0.854700
H341	H34	0.588800	0.673200	0.809700
C531	C53	0.482000	0.514400	0.475500
H351	H35	0.431600	0.483700	0.471600
C541	C54	0.740500	0.724000	0.089400
H361	H36	0.801800	0.732800	0.097500
C551	C55	0.779200	0.394100	0.184800
H371	H37	0.778000	0.415500	0.217100
H381	H38	0.717900	0.363800	0.192700
H391	H39	0.786500	0.437200	0.146800
C561	C56	0.312500	0.006100	0.160600
H401	H40	0.336100	0.991000	0.126300
C571	C57	0.927900	0.207600	0.195050
C581	C58	0.559100	0.704200	0.060400
H411	H41	0.497700	0.697800	0.051500
C591	C59	0.867800	0.339400	0.181400
C601	C60	0.738600	0.698000	0.040300
H421	H42	0.798100	0.687100	0.017600
C611	C61	0.476800	0.915800	0.427300
H431	H43	0.417600	0.903300	0.457000
C621	C62	0.677100	0.477800	0.033700
H441	H44	0.715400	0.523000	0.032500
H451	H45	0.713500	0.430200	0.045900
H461	H46	0.614400	0.472100	0.062500
C631	C63	0.644500	0.951600	0.337800
H471	H47	0.702900	0.963300	0.307500
C641	C64	0.461000	0.613500	0.379000
H481	H48	0.408700	0.581500	0.378600
C651	C65	0.542900	0.171000	0.277400
H491	H49	0.562700	0.169200	0.237900
C661	C66	0.151700	0.355700	0.138800
H501	H50	0.154900	0.409900	0.111700
H511	H51	0.192700	0.323700	0.118100
H521	H52	0.175600	0.354300	0.174100
C671	C67	0.909700	0.117300	0.215900
H531	H53	0.920200	0.100000	0.181000
H541	H54	0.842100	0.103200	0.238900
H551	H55	0.955200	0.091800	0.241100
C681	C68	0.576600	0.211400	0.359100
H561	H56	0.619800	0.235000	0.374400
C691	C69	0.634100	0.985800	0.383800
H571	H57	0.683800	0.021000	0.382900
C701	C70	0.703600	0.386800	0.852600
H581	H58	0.775200	0.386100	0.842900
H591	H59	0.678900	0.399400	0.816000
H601	H60	0.676400	0.335100	0.880000
C711	C71	0.450700	0.143600	0.311300
H611	H61	0.409600	0.117000	0.296800
C721	C72	0.541900	0.004500	0.477400
H621	H62	0.595700	0.035600	0.477000
C731	C73	0.606700	0.201500	0.302300
C741	C74	0.477200	0.184200	0.393100
H631	H63	0.455900	0.187200	0.432100
C751	C75	0.415100	0.154600	0.368700
O141	O14	0.267700	0.065300	0.393500
H641	H64	0.227000	0.037600	0.423400
O151	O15	0.294400	0.136500	0.458500
C761	C76	0.321600	0.112800	0.410100
O161	O16	0.523900	0.496400	0.796600
C771	C77	0.618600	0.534100	0.791900
H651	H65	0.673200	0.510300	0.771200
H661	H66	0.620200	0.590900	0.769600
C781	C78	0.400400	0.484300	0.745900
H671	H67	0.367600	0.445800	0.781900
C791	C79	0.355900	0.509600	0.696000
H681	H68	0.293400	0.488000	0.698500
C801	C80	0.404900	0.567200	0.642300
C811	C81	0.498300	0.599400	0.638600
H691	H69	0.531100	0.637900	0.602600
C821	C82	0.542800	0.574100	0.688500
H701	H70	0.605300	0.595700	0.685900
C831	C83	0.493800	0.516500	0.742200
O171	O17	0.284200	0.558300	0.592300
O181	O18	0.417600	0.673000	0.542200
H711	H71	0.422600	0.708600	0.556400
C841	C84	0.358500	0.608100	0.587200
Ni21	Ni2	0.407210	0.150250	0.732240
O191	O19	0.008930	0.123270	0.974620
O201	O20	0.385500	0.039670	0.796670
O211	O21	0.559900	0.131150	0.733360
O221	O22	0.407000	0.200520	0.800080
N41	N4	0.843900	0.006840	0.998390
O231	O23	0.354900	0.696540	0.991700
N51	N5	0.440000	0.263660	0.666850
O241	O24	0.551700	0.114320	0.831640
O251	O25	0.022900	0.137950	0.062610
O261	O26	0.003300	0.500810	0.910230
O271	O27	0.219300	0.025470	0.825760
O281	O28	0.346400	0.336200	0.022970
N61	N6	0.426100	0.097470	0.664450
O291	O29	0.852100	0.849510	0.788600
C851	C85	0.777000	0.948300	0.030990
H721	H72	0.799100	0.902000	0.056300
C861	C86	0.007000	0.254370	0.980700
O301	O30	0.263800	0.256700	0.798600
C871	C87	0.810500	0.073200	0.963800
H731	H73	0.855800	0.116100	0.941000
C881	C88	0.013900	0.164780	0.006480
C891	C89	0.640200	0.018100	0.994150
C901	C90	0.002000	0.302700	0.016370
H741	H74	0.002400	0.279500	0.057500
C911	C91	0.318900	0.920400	0.872970
C921	C92	0.336900	0.769900	0.953300
C931	C93	0.305000	0.000900	0.829070
C941	C94	0.004100	0.289300	0.918890
H751	H75	0.004100	0.257700	0.894500
C951	C95	0.587200	0.097200	0.780940
O311	O31	0.295200	0.774100	0.723680
C961	C96	0.999500	0.419000	0.931180
C971	C97	0.392300	0.285900	0.621900
H761	H76	0.340500	0.252900	0.622100
C981	C98	0.345300	0.263200	0.874200
C991	C99	0.234800	0.869100	0.905420
H771	H77	0.171200	0.885600	0.900600
C1001	C100	0.536000	0.028100	0.988960
H781	H78	0.519000	0.079200	0.968000
C1011	C101	0.411100	0.895500	0.881470
H791	H79	0.467200	0.929300	0.860000
C1021	C102	0.246600	0.793800	0.944700
H801	H80	0.190800	0.759400	0.965500
C1031	C103	0.677900	0.950400	0.030360
H811	H81	0.635300	0.906300	0.054300
C1041	C104	0.422600	0.819800	0.922100
H821	H82	0.485500	0.803100	0.928100
C1051	C105	0.001100	0.372400	0.894810
H831	H83	0.000200	0.396500	0.853800
C1061	C106	0.956400	0.677700	0.841700
C1071	C107	0.389800	0.440100	0.057100
C1081	C108	0.433700	0.269800	0.889850
H841	H84	0.491800	0.256700	0.867200
C1091	C109	0.337900	0.237700	0.821600
C1101	C110	0.270300	0.641900	0.025500
H851	H85	0.226900	0.663000	0.054100
H861	H86	0.232000	0.633600	0.998000
C1111	C111	0.712000	0.081300	0.960060
H871	H87	0.692400	0.128700	0.934900
C1121	C112	0.015400	0.541000	0.846100
H881	H88	0.071300	0.520300	0.823700
H891	H89	0.955400	0.532900	0.833000
C1131	C113	0.034800	0.629500	0.834680
C1141	C114	0.787000	0.909500	0.792000
C1151	C115	0.428200	0.385300	0.021200
H901	H90	0.478900	0.352200	0.038700
H911	H91	0.458100	0.416600	0.979300
C1161	C116	0.996500	0.384200	0.992300
H921	H92	0.990700	0.415600	0.017300
C1171	C117	0.350200	0.311400	0.974700
C1181	C118	0.257800	0.775600	0.784300
H931	H93	0.296900	0.742600	0.811900
H941	H94	0.260500	0.829800	0.785200
C1191	C119	0.311700	0.564000	0.059000
C1201	C120	0.657700	0.032700	0.785770
C1211	C121	0.400700	0.425300	0.115300
C1221	C122	0.890500	0.811600	0.843100
H951	H95	0.914600	0.852000	0.856700
H961	H96	0.837800	0.778900	0.875600
C1231	C123	0.759600	0.947000	0.737300
H971	H97	0.784900	0.931800	0.703300
C1241	C124	0.373800	0.479400	0.146000
C1251	C125	0.975200	0.759900	0.827790
C1261	C126	0.150700	0.742700	0.802400
C1271	C127	0.692300	0.009100	0.734420
H981	H98	0.670900	0.034300	0.698600
C1281	C128	0.509500	0.313600	0.667300
H991	H99	0.540200	0.299400	0.700300
C1291	C129	0.341900	0.509900	0.028100
C1301	C130	0.506400	0.114800	0.618600
H1001	H100	0.554700	0.150800	0.618300
C1311	C131	0.418400	0.358800	0.573300
H1011	H101	0.387200	0.371100	0.540700
C1321	C132	0.486800	0.410000	0.573600
C1331	C133	0.447700	0.032400	0.571000
C1341	C134	0.327800	0.550500	0.117100
C1351	C135	0.753500	0.931600	0.842100
H1021	H102	0.774400	0.905600	0.878000
C1361	C136	0.445400	0.346200	0.148200
H1031	H103	0.437400	0.307200	0.129300
H1041	H104	0.515200	0.355500	0.145300
H1051	H105	0.411200	0.326800	0.190300
C1371	C137	0.518000	0.485600	0.524500
H1061	H106	0.568400	0.516300	0.528400
C1381	C138	0.259500	0.276000	0.910600
H1071	H107	0.198200	0.267200	0.902500
C1391	C139	0.220800	0.605900	0.815200
H1081	H108	0.222000	0.584500	0.782900
H1091	H109	0.282100	0.636200	0.807300
H1101	H110	0.213500	0.562800	0.853200
C1401	C140	0.687500	0.993900	0.839400
H1111	H111	0.663900	0.009000	0.873700
C1411	C141	0.072100	0.792400	0.804950
C1421	C142	0.440900	0.295800	0.939600
H1121	H112	0.502300	0.302200	0.948500
C1431	C143	0.132200	0.660600	0.818600
C1441	C144	0.261400	0.302000	0.959700
H1131	H113	0.201900	0.312900	0.982400
C1451	C145	0.523200	0.084200	0.572700
H1141	H114	0.582400	0.096700	0.543000
C1461	C146	0.322900	0.522200	0.966300
H1151	H115	0.284600	0.477000	0.967500
H1161	H116	0.286500	0.569800	0.954100
H1171	H117	0.385600	0.527900	0.937500
C1471	C147	0.355500	0.048400	0.662200
H1181	H118	0.297100	0.036700	0.692500
C1481	C148	0.539000	0.386500	0.621000
H1191	H119	0.591300	0.418500	0.621400
C1491	C149	0.457100	0.829000	0.722600
H1201	H120	0.437300	0.830800	0.762100
C1501	C150	0.848300	0.644300	0.861200
H1211	H121	0.845100	0.590100	0.888300
H1221	H122	0.807300	0.676300	0.881900
H1231	H123	0.824400	0.645700	0.825900
C1511	C151	0.090300	0.882700	0.784100
H1241	H124	0.079800	0.900000	0.819000
H1251	H125	0.157900	0.896800	0.761100
H1261	H126	0.044800	0.908200	0.758900
C1521	C152	0.423400	0.788600	0.640900
H1271	H127	0.380200	0.765000	0.625600
C1531	C153	0.365900	0.014200	0.616200
H1281	H128	0.316200	0.979000	0.617100
C1541	C154	0.296400	0.613200	0.147400
H1291	H129	0.224800	0.613900	0.157100
H1301	H130	0.321100	0.600600	0.184000
H1311	H131	0.323600	0.664900	0.120000
C1551	C155	0.549300	0.856400	0.688700
H1321	H132	0.590400	0.883000	0.703200
C1561	C156	0.458100	0.995500	0.522600
H1331	H133	0.404300	0.964400	0.523000
C1571	C157	0.393300	0.798500	0.697700
C1581	C158	0.522800	0.815800	0.606900
H1341	H134	0.544100	0.812800	0.567900
C1591	C159	0.584900	0.845400	0.631300
O321	O32	0.732300	0.934700	0.606500
H1351	H135	0.773000	0.962400	0.576600
O331	O33	0.705600	0.863500	0.541500
C1601	C160	0.678400	0.887200	0.589900
O341	O34	0.476100	0.503600	0.203400
C1611	C161	0.381400	0.465900	0.208100
H1361	H136	0.326800	0.489700	0.228800
H1371	H137	0.379800	0.409100	0.230400
C1621	C162	0.599600	0.515700	0.254100
H1381	H138	0.632400	0.554200	0.218100
C1631	C163	0.644100	0.490400	0.304000
H1391	H139	0.706600	0.512000	0.301500
C1641	C164	0.595100	0.432800	0.357700
C1651	C165	0.501700	0.400600	0.361400
H1401	H140	0.468900	0.362100	0.397400
C1661	C166	0.457200	0.425900	0.311500
H1411	H141	0.394700	0.404300	0.314100
C1671	C167	0.506200	0.483500	0.257800
O351	O35	0.715800	0.441700	0.407700
O361	O36	0.582400	0.327000	0.457800
H1421	H142	0.577400	0.291400	0.443600
C1681	C168	0.641500	0.391900	0.412800
Ni31	Ni3	0.000000	0.000000	0.000000
