data_AQMAND_clean_PM
_symmetry_space_group_name_H-M	'P1'
_cell_length_a	11.210000
_cell_length_b	12.383000
_cell_length_c	13.696000
_cell_angle_alpha	90.000000
_cell_angle_beta	93.010000
_cell_angle_gamma	90.000000
_symmetry_Int_Tables_number 1

loop_
_symmetry_equiv_pos_as_xyz
'x,y,z'

loop_
_atom_site_label
_atom_site_type_symbol
_atom_site_fract_x
_atom_site_fract_y
_atom_site_fract_z
C11	C1	0.049400	0.951600	0.174300
C21	C2	0.318000	0.866500	0.062500
C31	C3	0.413400	0.920800	0.130200
C41	C4	0.445800	0.038300	0.108600
Nd11	Nd1	0.153710	0.102040	0.033510
O11	O1	0.140400	0.007800	0.199000
O21	O2	0.999700	0.959500	0.089800
O31	O3	0.235400	0.918800	0.025400
O41	O4	0.338400	0.767800	0.049900
O51	O5	0.361000	0.103300	0.089100
O61	O6	0.550200	0.065600	0.121500
C51	C5	0.549400	0.451600	0.674300
C61	C6	0.818000	0.366500	0.562500
C71	C7	0.913400	0.420800	0.630200
C81	C8	0.945800	0.538300	0.608600
Nd21	Nd2	0.653710	0.602040	0.533510
O71	O7	0.640400	0.507800	0.699000
O81	O8	0.499700	0.459500	0.589800
O91	O9	0.735400	0.418800	0.525400
O101	O10	0.838400	0.267800	0.549900
O111	O11	0.861000	0.603300	0.589100
O121	O12	0.050200	0.565600	0.621500
C91	C9	0.950600	0.951600	0.325700
C101	C10	0.682000	0.866500	0.437500
C111	C11	0.586600	0.920800	0.369800
C121	C12	0.554200	0.038300	0.391400
Nd31	Nd3	0.846290	0.102040	0.466490
O131	O13	0.859600	0.007800	0.301000
O141	O14	0.000300	0.959500	0.410200
O151	O15	0.764600	0.918800	0.474600
O161	O16	0.661600	0.767800	0.450100
O171	O17	0.639000	0.103300	0.410900
O181	O18	0.449800	0.065600	0.378500
C131	C13	0.450600	0.451600	0.825700
C141	C14	0.182000	0.366500	0.937500
C151	C15	0.086600	0.420800	0.869800
C161	C16	0.054200	0.538300	0.891400
Nd41	Nd4	0.346290	0.602040	0.966490
O191	O19	0.359600	0.507800	0.801000
O201	O20	0.500300	0.459500	0.910200
O211	O21	0.264600	0.418800	0.974600
O221	O22	0.161600	0.267800	0.950100
O231	O23	0.139000	0.603300	0.910900
O241	O24	0.949800	0.565600	0.878500
C171	C17	0.950600	0.048400	0.825700
C181	C18	0.682000	0.133500	0.937500
C191	C19	0.586600	0.079200	0.869800
C201	C20	0.554200	0.961700	0.891400
Nd51	Nd5	0.846290	0.897960	0.966490
O251	O25	0.859600	0.992200	0.801000
O261	O26	0.000300	0.040500	0.910200
O271	O27	0.764600	0.081200	0.974600
O281	O28	0.661600	0.232200	0.950100
O291	O29	0.639000	0.896700	0.910900
O301	O30	0.449800	0.934400	0.878500
C211	C21	0.450600	0.548400	0.325700
C221	C22	0.182000	0.633500	0.437500
C231	C23	0.086600	0.579200	0.369800
C241	C24	0.054200	0.461700	0.391400
Nd61	Nd6	0.346290	0.397960	0.466490
O311	O31	0.359600	0.492200	0.301000
O321	O32	0.500300	0.540500	0.410200
O331	O33	0.264600	0.581200	0.474600
O341	O34	0.161600	0.732200	0.450100
O351	O35	0.139000	0.396700	0.410900
O361	O36	0.949800	0.434400	0.378500
C251	C25	0.049400	0.048400	0.674300
C261	C26	0.318000	0.133500	0.562500
C271	C27	0.413400	0.079200	0.630200
C281	C28	0.445800	0.961700	0.608600
Nd71	Nd7	0.153710	0.897960	0.533510
O371	O37	0.140400	0.992200	0.699000
O381	O38	0.999700	0.040500	0.589800
O391	O39	0.235400	0.081200	0.525400
O401	O40	0.338400	0.232200	0.549900
O411	O41	0.361000	0.896700	0.589100
O421	O42	0.550200	0.934400	0.621500
C291	C29	0.549400	0.548400	0.174300
C301	C30	0.818000	0.633500	0.062500
C311	C31	0.913400	0.579200	0.130200
C321	C32	0.945800	0.461700	0.108600
Nd81	Nd8	0.653710	0.397960	0.033510
O431	O43	0.640400	0.492200	0.199000
O441	O44	0.499700	0.540500	0.089800
O451	O45	0.735400	0.581200	0.025400
O461	O46	0.838400	0.732200	0.049900
O471	O47	0.861000	0.396700	0.089100
O481	O48	0.050200	0.434400	0.121500
C331	C33	0.000000	0.876200	0.250000
C341	C34	0.500000	0.376200	0.750000
C351	C35	0.000000	0.123800	0.750000
C361	C36	0.500000	0.623800	0.250000
