data_AQOLUP_clean_PM
_symmetry_space_group_name_H-M	'P1'
_cell_length_a	37.072800
_cell_length_b	37.072800
_cell_length_c	37.072800
_cell_angle_alpha	90.000000
_cell_angle_beta	90.000000
_cell_angle_gamma	90.000000
_symmetry_Int_Tables_number 1

loop_
_symmetry_equiv_pos_as_xyz
'x,y,z'

loop_
_atom_site_label
_atom_site_type_symbol
_atom_site_fract_x
_atom_site_fract_y
_atom_site_fract_z
N11	N1	0.684590	0.715420	0.463130
N21	N2	0.688660	0.790890	0.463150
C11	C1	0.663400	0.709420	0.434730
N31	N3	0.666730	0.796310	0.435490
C21	C2	0.675170	0.679900	0.417210
H11	H1	0.643200	0.723700	0.427900
C31	C3	0.660500	0.662810	0.384490
C41	C4	0.676790	0.632230	0.370050
H21	H2	0.697800	0.622600	0.381200
N41	N4	0.684590	0.215420	0.963130
N51	N5	0.688660	0.290890	0.963150
C51	C5	0.663400	0.209420	0.934730
N61	N6	0.666730	0.296310	0.935490
C61	C6	0.675170	0.179900	0.917210
H31	H3	0.643200	0.223700	0.927900
C71	C7	0.660500	0.162810	0.884490
C81	C8	0.676790	0.132230	0.870050
H41	H4	0.697800	0.122600	0.881200
N71	N7	0.184590	0.715420	0.963130
N81	N8	0.188660	0.790890	0.963150
C91	C9	0.163400	0.709420	0.934730
N91	N9	0.166730	0.796310	0.935490
C101	C10	0.175170	0.679900	0.917210
H51	H5	0.143200	0.723700	0.927900
C111	C11	0.160500	0.662810	0.884490
C121	C12	0.176790	0.632230	0.870050
H61	H6	0.197800	0.622600	0.881200
N101	N10	0.184590	0.215420	0.463130
N111	N11	0.188660	0.290890	0.463150
C131	C13	0.163400	0.209420	0.434730
N121	N12	0.166730	0.296310	0.435490
C141	C14	0.175170	0.179900	0.417210
H71	H7	0.143200	0.223700	0.427900
C151	C15	0.160500	0.162810	0.384490
C161	C16	0.176790	0.132230	0.370050
H81	H8	0.197800	0.122600	0.381200
N131	N13	0.315410	0.284580	0.463130
N141	N14	0.311340	0.209110	0.463150
C171	C17	0.336600	0.290580	0.434730
N151	N15	0.333270	0.203690	0.435490
C181	C18	0.324830	0.320100	0.417210
H91	H9	0.356800	0.276300	0.427900
C191	C19	0.339500	0.337190	0.384490
C201	C20	0.323210	0.367770	0.370050
H101	H10	0.302200	0.377400	0.381200
N161	N16	0.315410	0.784580	0.963130
N171	N17	0.311340	0.709110	0.963150
C211	C21	0.336600	0.790580	0.934730
N181	N18	0.333270	0.703690	0.935490
C221	C22	0.324830	0.820100	0.917210
H111	H11	0.356800	0.776300	0.927900
C231	C23	0.339500	0.837190	0.884490
C241	C24	0.323210	0.867770	0.870050
H121	H12	0.302200	0.877400	0.881200
N191	N19	0.815410	0.284580	0.963130
N201	N20	0.811340	0.209110	0.963150
C251	C25	0.836600	0.290580	0.934730
N211	N21	0.833270	0.203690	0.935490
C261	C26	0.824830	0.320100	0.917210
H131	H13	0.856800	0.276300	0.927900
C271	C27	0.839500	0.337190	0.884490
C281	C28	0.823210	0.367770	0.870050
H141	H14	0.802200	0.377400	0.881200
N221	N22	0.815410	0.784580	0.463130
N231	N23	0.811340	0.709110	0.463150
C291	C29	0.836600	0.790580	0.434730
N241	N24	0.833270	0.703690	0.435490
C301	C30	0.824830	0.820100	0.417210
H151	H15	0.856800	0.776300	0.427900
C311	C31	0.839500	0.837190	0.384490
C321	C32	0.823210	0.867770	0.370050
H161	H16	0.802200	0.877400	0.381200
N251	N25	0.315410	0.715420	0.536870
N261	N26	0.311340	0.790890	0.536850
C331	C33	0.336600	0.709420	0.565270
N271	N27	0.333270	0.796310	0.564510
C341	C34	0.324830	0.679900	0.582790
H171	H17	0.356800	0.723700	0.572100
C351	C35	0.339500	0.662810	0.615510
C361	C36	0.323210	0.632230	0.629950
H181	H18	0.302200	0.622600	0.618800
N281	N28	0.315410	0.215420	0.036870
N291	N29	0.311340	0.290890	0.036850
C371	C37	0.336600	0.209420	0.065270
N301	N30	0.333270	0.296310	0.064510
C381	C38	0.324830	0.179900	0.082790
H191	H19	0.356800	0.223700	0.072100
C391	C39	0.339500	0.162810	0.115510
C401	C40	0.323210	0.132230	0.129950
H201	H20	0.302200	0.122600	0.118800
N311	N31	0.815410	0.715420	0.036870
N321	N32	0.811340	0.790890	0.036850
C411	C41	0.836600	0.709420	0.065270
N331	N33	0.833270	0.796310	0.064510
C421	C42	0.824830	0.679900	0.082790
H211	H21	0.856800	0.723700	0.072100
C431	C43	0.839500	0.662810	0.115510
C441	C44	0.823210	0.632230	0.129950
H221	H22	0.802200	0.622600	0.118800
N341	N34	0.815410	0.215420	0.536870
N351	N35	0.811340	0.290890	0.536850
C451	C45	0.836600	0.209420	0.565270
N361	N36	0.833270	0.296310	0.564510
C461	C46	0.824830	0.179900	0.582790
H231	H23	0.856800	0.223700	0.572100
C471	C47	0.839500	0.162810	0.615510
C481	C48	0.823210	0.132230	0.629950
H241	H24	0.802200	0.122600	0.618800
N371	N37	0.684590	0.284580	0.536870
N381	N38	0.688660	0.209110	0.536850
C491	C49	0.663400	0.290580	0.565270
N391	N39	0.666730	0.203690	0.564510
C501	C50	0.675170	0.320100	0.582790
H251	H25	0.643200	0.276300	0.572100
C511	C51	0.660500	0.337190	0.615510
C521	C52	0.676790	0.367770	0.629950
H261	H26	0.697800	0.377400	0.618800
N401	N40	0.684590	0.784580	0.036870
N411	N41	0.688660	0.709110	0.036850
C531	C53	0.663400	0.790580	0.065270
N421	N42	0.666730	0.703690	0.064510
C541	C54	0.675170	0.820100	0.082790
H271	H27	0.643200	0.776300	0.072100
C551	C55	0.660500	0.837190	0.115510
C561	C56	0.676790	0.867770	0.129950
H281	H28	0.697800	0.877400	0.118800
N431	N43	0.184590	0.284580	0.036870
N441	N44	0.188660	0.209110	0.036850
C571	C57	0.163400	0.290580	0.065270
N451	N45	0.166730	0.203690	0.064510
C581	C58	0.175170	0.320100	0.082790
H291	H29	0.143200	0.276300	0.072100
C591	C59	0.160500	0.337190	0.115510
C601	C60	0.176790	0.367770	0.129950
H301	H30	0.197800	0.377400	0.118800
N461	N46	0.184590	0.784580	0.536870
N471	N47	0.188660	0.709110	0.536850
C611	C61	0.163400	0.790580	0.565270
N481	N48	0.166730	0.703690	0.564510
C621	C62	0.175170	0.820100	0.582790
H311	H31	0.143200	0.776300	0.572100
C631	C63	0.160500	0.837190	0.615510
C641	C64	0.176790	0.867770	0.629950
H321	H32	0.197800	0.877400	0.618800
N491	N49	0.463130	0.684590	0.715420
N501	N50	0.463150	0.688660	0.790890
C651	C65	0.434730	0.663400	0.709420
N511	N51	0.435490	0.666730	0.796310
C661	C66	0.417210	0.675170	0.679900
H331	H33	0.427900	0.643200	0.723700
C671	C67	0.384490	0.660500	0.662810
C681	C68	0.370050	0.676790	0.632230
H341	H34	0.381200	0.697800	0.622600
N521	N52	0.463130	0.184590	0.215420
N531	N53	0.463150	0.188660	0.290890
C691	C69	0.434730	0.163400	0.209420
N541	N54	0.435490	0.166730	0.296310
C701	C70	0.417210	0.175170	0.179900
H351	H35	0.427900	0.143200	0.223700
C711	C71	0.384490	0.160500	0.162810
C721	C72	0.370050	0.176790	0.132230
H361	H36	0.381200	0.197800	0.122600
N551	N55	0.963130	0.684590	0.215420
N561	N56	0.963150	0.688660	0.290890
C731	C73	0.934730	0.663400	0.209420
N571	N57	0.935490	0.666730	0.296310
C741	C74	0.917210	0.675170	0.179900
H371	H37	0.927900	0.643200	0.223700
C751	C75	0.884490	0.660500	0.162810
C761	C76	0.870050	0.676790	0.132230
H381	H38	0.881200	0.697800	0.122600
N581	N58	0.963130	0.184590	0.715420
N591	N59	0.963150	0.188660	0.790890
C771	C77	0.934730	0.163400	0.709420
N601	N60	0.935490	0.166730	0.796310
C781	C78	0.917210	0.175170	0.679900
H391	H39	0.927900	0.143200	0.723700
C791	C79	0.884490	0.160500	0.662810
C801	C80	0.870050	0.176790	0.632230
H401	H40	0.881200	0.197800	0.622600
N611	N61	0.463130	0.315410	0.284580
N621	N62	0.463150	0.311340	0.209110
C811	C81	0.434730	0.336600	0.290580
N631	N63	0.435490	0.333270	0.203690
C821	C82	0.417210	0.324830	0.320100
H411	H41	0.427900	0.356800	0.276300
C831	C83	0.384490	0.339500	0.337190
C841	C84	0.370050	0.323210	0.367770
H421	H42	0.381200	0.302200	0.377400
N641	N64	0.463130	0.815410	0.784580
N651	N65	0.463150	0.811340	0.709110
C851	C85	0.434730	0.836600	0.790580
N661	N66	0.435490	0.833270	0.703690
C861	C86	0.417210	0.824830	0.820100
H431	H43	0.427900	0.856800	0.776300
C871	C87	0.384490	0.839500	0.837190
C881	C88	0.370050	0.823210	0.867770
H441	H44	0.381200	0.802200	0.877400
N671	N67	0.963130	0.315410	0.784580
N681	N68	0.963150	0.311340	0.709110
C891	C89	0.934730	0.336600	0.790580
N691	N69	0.935490	0.333270	0.703690
C901	C90	0.917210	0.324830	0.820100
H451	H45	0.927900	0.356800	0.776300
C911	C91	0.884490	0.339500	0.837190
C921	C92	0.870050	0.323210	0.867770
H461	H46	0.881200	0.302200	0.877400
N701	N70	0.963130	0.815410	0.284580
N711	N71	0.963150	0.811340	0.209110
C931	C93	0.934730	0.836600	0.290580
N721	N72	0.935490	0.833270	0.203690
C941	C94	0.917210	0.824830	0.320100
H471	H47	0.927900	0.856800	0.276300
C951	C95	0.884490	0.839500	0.337190
C961	C96	0.870050	0.823210	0.367770
H481	H48	0.881200	0.802200	0.377400
N731	N73	0.536870	0.315410	0.715420
N741	N74	0.536850	0.311340	0.790890
C971	C97	0.565270	0.336600	0.709420
N751	N75	0.564510	0.333270	0.796310
C981	C98	0.582790	0.324830	0.679900
H491	H49	0.572100	0.356800	0.723700
C991	C99	0.615510	0.339500	0.662810
C1001	C100	0.629950	0.323210	0.632230
H501	H50	0.618800	0.302200	0.622600
N761	N76	0.536870	0.815410	0.215420
N771	N77	0.536850	0.811340	0.290890
C1011	C101	0.565270	0.836600	0.209420
N781	N78	0.564510	0.833270	0.296310
C1021	C102	0.582790	0.824830	0.179900
H511	H51	0.572100	0.856800	0.223700
C1031	C103	0.615510	0.839500	0.162810
C1041	C104	0.629950	0.823210	0.132230
H521	H52	0.618800	0.802200	0.122600
N791	N79	0.036870	0.315410	0.215420
N801	N80	0.036850	0.311340	0.290890
C1051	C105	0.065270	0.336600	0.209420
N811	N81	0.064510	0.333270	0.296310
C1061	C106	0.082790	0.324830	0.179900
H531	H53	0.072100	0.356800	0.223700
C1071	C107	0.115510	0.339500	0.162810
C1081	C108	0.129950	0.323210	0.132230
H541	H54	0.118800	0.302200	0.122600
N821	N82	0.036870	0.815410	0.715420
N831	N83	0.036850	0.811340	0.790890
C1091	C109	0.065270	0.836600	0.709420
N841	N84	0.064510	0.833270	0.796310
C1101	C110	0.082790	0.824830	0.679900
H551	H55	0.072100	0.856800	0.723700
C1111	C111	0.115510	0.839500	0.662810
C1121	C112	0.129950	0.823210	0.632230
H561	H56	0.118800	0.802200	0.622600
N851	N85	0.536870	0.684590	0.284580
N861	N86	0.536850	0.688660	0.209110
C1131	C113	0.565270	0.663400	0.290580
N871	N87	0.564510	0.666730	0.203690
C1141	C114	0.582790	0.675170	0.320100
H571	H57	0.572100	0.643200	0.276300
C1151	C115	0.615510	0.660500	0.337190
C1161	C116	0.629950	0.676790	0.367770
H581	H58	0.618800	0.697800	0.377400
N881	N88	0.536870	0.184590	0.784580
N891	N89	0.536850	0.188660	0.709110
C1171	C117	0.565270	0.163400	0.790580
N901	N90	0.564510	0.166730	0.703690
C1181	C118	0.582790	0.175170	0.820100
H591	H59	0.572100	0.143200	0.776300
C1191	C119	0.615510	0.160500	0.837190
C1201	C120	0.629950	0.176790	0.867770
H601	H60	0.618800	0.197800	0.877400
N911	N91	0.036870	0.684590	0.784580
N921	N92	0.036850	0.688660	0.709110
C1211	C121	0.065270	0.663400	0.790580
N931	N93	0.064510	0.666730	0.703690
C1221	C122	0.082790	0.675170	0.820100
H611	H61	0.072100	0.643200	0.776300
C1231	C123	0.115510	0.660500	0.837190
C1241	C124	0.129950	0.676790	0.867770
H621	H62	0.118800	0.697800	0.877400
N941	N94	0.036870	0.184590	0.284580
N951	N95	0.036850	0.188660	0.209110
C1251	C125	0.065270	0.163400	0.290580
N961	N96	0.064510	0.166730	0.203690
C1261	C126	0.082790	0.175170	0.320100
H631	H63	0.072100	0.143200	0.276300
C1271	C127	0.115510	0.160500	0.337190
C1281	C128	0.129950	0.176790	0.367770
H641	H64	0.118800	0.197800	0.377400
N971	N97	0.715420	0.463130	0.684590
N981	N98	0.790890	0.463150	0.688660
C1291	C129	0.709420	0.434730	0.663400
N991	N99	0.796310	0.435490	0.666730
C1301	C130	0.679900	0.417210	0.675170
H651	H65	0.723700	0.427900	0.643200
C1311	C131	0.662810	0.384490	0.660500
C1321	C132	0.632230	0.370050	0.676790
H661	H66	0.622600	0.381200	0.697800
N1001	N100	0.715420	0.963130	0.184590
N1011	N101	0.790890	0.963150	0.188660
C1331	C133	0.709420	0.934730	0.163400
N1021	N102	0.796310	0.935490	0.166730
C1341	C134	0.679900	0.917210	0.175170
H671	H67	0.723700	0.927900	0.143200
C1351	C135	0.662810	0.884490	0.160500
C1361	C136	0.632230	0.870050	0.176790
H681	H68	0.622600	0.881200	0.197800
N1031	N103	0.215420	0.463130	0.184590
N1041	N104	0.290890	0.463150	0.188660
C1371	C137	0.209420	0.434730	0.163400
N1051	N105	0.296310	0.435490	0.166730
C1381	C138	0.179900	0.417210	0.175170
H691	H69	0.223700	0.427900	0.143200
C1391	C139	0.162810	0.384490	0.160500
C1401	C140	0.132230	0.370050	0.176790
H701	H70	0.122600	0.381200	0.197800
N1061	N106	0.215420	0.963130	0.684590
N1071	N107	0.290890	0.963150	0.688660
C1411	C141	0.209420	0.934730	0.663400
N1081	N108	0.296310	0.935490	0.666730
C1421	C142	0.179900	0.917210	0.675170
H711	H71	0.223700	0.927900	0.643200
C1431	C143	0.162810	0.884490	0.660500
C1441	C144	0.132230	0.870050	0.676790
H721	H72	0.122600	0.881200	0.697800
N1091	N109	0.284580	0.463130	0.315410
N1101	N110	0.209110	0.463150	0.311340
C1451	C145	0.290580	0.434730	0.336600
N1111	N111	0.203690	0.435490	0.333270
C1461	C146	0.320100	0.417210	0.324830
H731	H73	0.276300	0.427900	0.356800
C1471	C147	0.337190	0.384490	0.339500
C1481	C148	0.367770	0.370050	0.323210
H741	H74	0.377400	0.381200	0.302200
N1121	N112	0.284580	0.963130	0.815410
N1131	N113	0.209110	0.963150	0.811340
C1491	C149	0.290580	0.934730	0.836600
N1141	N114	0.203690	0.935490	0.833270
C1501	C150	0.320100	0.917210	0.824830
H751	H75	0.276300	0.927900	0.856800
C1511	C151	0.337190	0.884490	0.839500
C1521	C152	0.367770	0.870050	0.823210
H761	H76	0.377400	0.881200	0.802200
N1151	N115	0.784580	0.463130	0.815410
N1161	N116	0.709110	0.463150	0.811340
C1531	C153	0.790580	0.434730	0.836600
N1171	N117	0.703690	0.435490	0.833270
C1541	C154	0.820100	0.417210	0.824830
H771	H77	0.776300	0.427900	0.856800
C1551	C155	0.837190	0.384490	0.839500
C1561	C156	0.867770	0.370050	0.823210
H781	H78	0.877400	0.381200	0.802200
N1181	N118	0.784580	0.963130	0.315410
N1191	N119	0.709110	0.963150	0.311340
C1571	C157	0.790580	0.934730	0.336600
N1201	N120	0.703690	0.935490	0.333270
C1581	C158	0.820100	0.917210	0.324830
H791	H79	0.776300	0.927900	0.356800
C1591	C159	0.837190	0.884490	0.339500
C1601	C160	0.867770	0.870050	0.323210
H801	H80	0.877400	0.881200	0.302200
N1211	N121	0.715420	0.536870	0.315410
N1221	N122	0.790890	0.536850	0.311340
C1611	C161	0.709420	0.565270	0.336600
N1231	N123	0.796310	0.564510	0.333270
C1621	C162	0.679900	0.582790	0.324830
H811	H81	0.723700	0.572100	0.356800
C1631	C163	0.662810	0.615510	0.339500
C1641	C164	0.632230	0.629950	0.323210
H821	H82	0.622600	0.618800	0.302200
N1241	N124	0.715420	0.036870	0.815410
N1251	N125	0.790890	0.036850	0.811340
C1651	C165	0.709420	0.065270	0.836600
N1261	N126	0.796310	0.064510	0.833270
C1661	C166	0.679900	0.082790	0.824830
H831	H83	0.723700	0.072100	0.856800
C1671	C167	0.662810	0.115510	0.839500
C1681	C168	0.632230	0.129950	0.823210
H841	H84	0.622600	0.118800	0.802200
N1271	N127	0.215420	0.536870	0.815410
N1281	N128	0.290890	0.536850	0.811340
C1691	C169	0.209420	0.565270	0.836600
N1291	N129	0.296310	0.564510	0.833270
C1701	C170	0.179900	0.582790	0.824830
H851	H85	0.223700	0.572100	0.856800
C1711	C171	0.162810	0.615510	0.839500
C1721	C172	0.132230	0.629950	0.823210
H861	H86	0.122600	0.618800	0.802200
N1301	N130	0.215420	0.036870	0.315410
N1311	N131	0.290890	0.036850	0.311340
C1731	C173	0.209420	0.065270	0.336600
N1321	N132	0.296310	0.064510	0.333270
C1741	C174	0.179900	0.082790	0.324830
H871	H87	0.223700	0.072100	0.356800
C1751	C175	0.162810	0.115510	0.339500
C1761	C176	0.132230	0.129950	0.323210
H881	H88	0.122600	0.118800	0.302200
N1331	N133	0.284580	0.536870	0.684590
N1341	N134	0.209110	0.536850	0.688660
C1771	C177	0.290580	0.565270	0.663400
N1351	N135	0.203690	0.564510	0.666730
C1781	C178	0.320100	0.582790	0.675170
H891	H89	0.276300	0.572100	0.643200
C1791	C179	0.337190	0.615510	0.660500
C1801	C180	0.367770	0.629950	0.676790
H901	H90	0.377400	0.618800	0.697800
N1361	N136	0.284580	0.036870	0.184590
N1371	N137	0.209110	0.036850	0.188660
C1811	C181	0.290580	0.065270	0.163400
N1381	N138	0.203690	0.064510	0.166730
C1821	C182	0.320100	0.082790	0.175170
H911	H91	0.276300	0.072100	0.143200
C1831	C183	0.337190	0.115510	0.160500
C1841	C184	0.367770	0.129950	0.176790
H921	H92	0.377400	0.118800	0.197800
N1391	N139	0.784580	0.536870	0.184590
N1401	N140	0.709110	0.536850	0.188660
C1851	C185	0.790580	0.565270	0.163400
N1411	N141	0.703690	0.564510	0.166730
C1861	C186	0.820100	0.582790	0.175170
H931	H93	0.776300	0.572100	0.143200
C1871	C187	0.837190	0.615510	0.160500
C1881	C188	0.867770	0.629950	0.176790
H941	H94	0.877400	0.618800	0.197800
N1421	N142	0.784580	0.036870	0.684590
N1431	N143	0.709110	0.036850	0.688660
C1891	C189	0.790580	0.065270	0.663400
N1441	N144	0.703690	0.064510	0.666730
C1901	C190	0.820100	0.082790	0.675170
H951	H95	0.776300	0.072100	0.643200
C1911	C191	0.837190	0.115510	0.660500
C1921	C192	0.867770	0.129950	0.676790
H961	H96	0.877400	0.118800	0.697800
N1451	N145	0.215420	0.184590	0.036870
N1461	N146	0.290890	0.188660	0.036850
C1931	C193	0.209420	0.163400	0.065270
N1471	N147	0.296310	0.166730	0.064510
C1941	C194	0.179900	0.175170	0.082790
H971	H97	0.223700	0.143200	0.072100
C1951	C195	0.162810	0.160500	0.115510
C1961	C196	0.132230	0.176790	0.129950
H981	H98	0.122600	0.197800	0.118800
N1481	N148	0.215420	0.684590	0.536870
N1491	N149	0.290890	0.688660	0.536850
C1971	C197	0.209420	0.663400	0.565270
N1501	N150	0.296310	0.666730	0.564510
C1981	C198	0.179900	0.675170	0.582790
H991	H99	0.223700	0.643200	0.572100
C1991	C199	0.162810	0.660500	0.615510
C2001	C200	0.132230	0.676790	0.629950
H1001	H100	0.122600	0.697800	0.618800
N1511	N151	0.715420	0.184590	0.536870
N1521	N152	0.790890	0.188660	0.536850
C2011	C201	0.709420	0.163400	0.565270
N1531	N153	0.796310	0.166730	0.564510
C2021	C202	0.679900	0.175170	0.582790
H1011	H101	0.723700	0.143200	0.572100
C2031	C203	0.662810	0.160500	0.615510
C2041	C204	0.632230	0.176790	0.629950
H1021	H102	0.622600	0.197800	0.618800
N1541	N154	0.715420	0.684590	0.036870
N1551	N155	0.790890	0.688660	0.036850
C2051	C205	0.709420	0.663400	0.065270
N1561	N156	0.796310	0.666730	0.064510
C2061	C206	0.679900	0.675170	0.082790
H1031	H103	0.723700	0.643200	0.072100
C2071	C207	0.662810	0.660500	0.115510
C2081	C208	0.632230	0.676790	0.129950
H1041	H104	0.622600	0.697800	0.118800
N1571	N157	0.784580	0.815410	0.036870
N1581	N158	0.709110	0.811340	0.036850
C2091	C209	0.790580	0.836600	0.065270
N1591	N159	0.703690	0.833270	0.064510
C2101	C210	0.820100	0.824830	0.082790
H1051	H105	0.776300	0.856800	0.072100
C2111	C211	0.837190	0.839500	0.115510
C2121	C212	0.867770	0.823210	0.129950
H1061	H106	0.877400	0.802200	0.118800
N1601	N160	0.784580	0.315410	0.536870
N1611	N161	0.709110	0.311340	0.536850
C2131	C213	0.790580	0.336600	0.565270
N1621	N162	0.703690	0.333270	0.564510
C2141	C214	0.820100	0.324830	0.582790
H1071	H107	0.776300	0.356800	0.572100
C2151	C215	0.837190	0.339500	0.615510
C2161	C216	0.867770	0.323210	0.629950
H1081	H108	0.877400	0.302200	0.618800
N1631	N163	0.284580	0.815410	0.536870
N1641	N164	0.209110	0.811340	0.536850
C2171	C217	0.290580	0.836600	0.565270
N1651	N165	0.203690	0.833270	0.564510
C2181	C218	0.320100	0.824830	0.582790
H1091	H109	0.276300	0.856800	0.572100
C2191	C219	0.337190	0.839500	0.615510
C2201	C220	0.367770	0.823210	0.629950
H1101	H110	0.377400	0.802200	0.618800
N1661	N166	0.284580	0.315410	0.036870
N1671	N167	0.209110	0.311340	0.036850
C2211	C221	0.290580	0.336600	0.065270
N1681	N168	0.203690	0.333270	0.064510
C2221	C222	0.320100	0.324830	0.082790
H1111	H111	0.276300	0.356800	0.072100
C2231	C223	0.337190	0.339500	0.115510
C2241	C224	0.367770	0.323210	0.129950
H1121	H112	0.377400	0.302200	0.118800
N1691	N169	0.215420	0.815410	0.963130
N1701	N170	0.290890	0.811340	0.963150
C2251	C225	0.209420	0.836600	0.934730
N1711	N171	0.296310	0.833270	0.935490
C2261	C226	0.179900	0.824830	0.917210
H1131	H113	0.223700	0.856800	0.927900
C2271	C227	0.162810	0.839500	0.884490
C2281	C228	0.132230	0.823210	0.870050
H1141	H114	0.122600	0.802200	0.881200
N1721	N172	0.215420	0.315410	0.463130
N1731	N173	0.290890	0.311340	0.463150
C2291	C229	0.209420	0.336600	0.434730
N1741	N174	0.296310	0.333270	0.435490
C2301	C230	0.179900	0.324830	0.417210
H1151	H115	0.223700	0.356800	0.427900
C2311	C231	0.162810	0.339500	0.384490
C2321	C232	0.132230	0.323210	0.370050
H1161	H116	0.122600	0.302200	0.381200
N1751	N175	0.715420	0.815410	0.463130
N1761	N176	0.790890	0.811340	0.463150
C2331	C233	0.709420	0.836600	0.434730
N1771	N177	0.796310	0.833270	0.435490
C2341	C234	0.679900	0.824830	0.417210
H1171	H117	0.723700	0.856800	0.427900
C2351	C235	0.662810	0.839500	0.384490
C2361	C236	0.632230	0.823210	0.370050
H1181	H118	0.622600	0.802200	0.381200
N1781	N178	0.715420	0.315410	0.963130
N1791	N179	0.790890	0.311340	0.963150
C2371	C237	0.709420	0.336600	0.934730
N1801	N180	0.796310	0.333270	0.935490
C2381	C238	0.679900	0.324830	0.917210
H1191	H119	0.723700	0.356800	0.927900
C2391	C239	0.662810	0.339500	0.884490
C2401	C240	0.632230	0.323210	0.870050
H1201	H120	0.622600	0.302200	0.881200
N1811	N181	0.784580	0.184590	0.963130
N1821	N182	0.709110	0.188660	0.963150
C2411	C241	0.790580	0.163400	0.934730
N1831	N183	0.703690	0.166730	0.935490
C2421	C242	0.820100	0.175170	0.917210
H1211	H121	0.776300	0.143200	0.927900
C2431	C243	0.837190	0.160500	0.884490
C2441	C244	0.867770	0.176790	0.870050
H1221	H122	0.877400	0.197800	0.881200
N1841	N184	0.784580	0.684590	0.463130
N1851	N185	0.709110	0.688660	0.463150
C2451	C245	0.790580	0.663400	0.434730
N1861	N186	0.703690	0.666730	0.435490
C2461	C246	0.820100	0.675170	0.417210
H1231	H123	0.776300	0.643200	0.427900
C2471	C247	0.837190	0.660500	0.384490
C2481	C248	0.867770	0.676790	0.370050
H1241	H124	0.877400	0.697800	0.381200
N1871	N187	0.284580	0.184590	0.463130
N1881	N188	0.209110	0.188660	0.463150
C2491	C249	0.290580	0.163400	0.434730
N1891	N189	0.203690	0.166730	0.435490
C2501	C250	0.320100	0.175170	0.417210
H1251	H125	0.276300	0.143200	0.427900
C2511	C251	0.337190	0.160500	0.384490
C2521	C252	0.367770	0.176790	0.370050
H1261	H126	0.377400	0.197800	0.381200
N1901	N190	0.284580	0.684590	0.963130
N1911	N191	0.209110	0.688660	0.963150
C2531	C253	0.290580	0.663400	0.934730
N1921	N192	0.203690	0.666730	0.935490
C2541	C254	0.320100	0.675170	0.917210
H1271	H127	0.276300	0.643200	0.927900
C2551	C255	0.337190	0.660500	0.884490
C2561	C256	0.367770	0.676790	0.870050
H1281	H128	0.377400	0.697800	0.881200
N1931	N193	0.184590	0.963130	0.784580
N1941	N194	0.188660	0.963150	0.709110
C2571	C257	0.163400	0.934730	0.790580
N1951	N195	0.166730	0.935490	0.703690
C2581	C258	0.175170	0.917210	0.820100
H1291	H129	0.143200	0.927900	0.776300
C2591	C259	0.160500	0.884490	0.837190
C2601	C260	0.176790	0.870050	0.867770
H1301	H130	0.197800	0.881200	0.877400
N1961	N196	0.184590	0.463130	0.284580
N1971	N197	0.188660	0.463150	0.209110
C2611	C261	0.163400	0.434730	0.290580
N1981	N198	0.166730	0.435490	0.203690
C2621	C262	0.175170	0.417210	0.320100
H1311	H131	0.143200	0.427900	0.276300
C2631	C263	0.160500	0.384490	0.337190
C2641	C264	0.176790	0.370050	0.367770
H1321	H132	0.197800	0.381200	0.377400
N1991	N199	0.684590	0.963130	0.284580
N2001	N200	0.688660	0.963150	0.209110
C2651	C265	0.663400	0.934730	0.290580
N2011	N201	0.666730	0.935490	0.203690
C2661	C266	0.675170	0.917210	0.320100
H1331	H133	0.643200	0.927900	0.276300
C2671	C267	0.660500	0.884490	0.337190
C2681	C268	0.676790	0.870050	0.367770
H1341	H134	0.697800	0.881200	0.377400
N2021	N202	0.684590	0.463130	0.784580
N2031	N203	0.688660	0.463150	0.709110
C2691	C269	0.663400	0.434730	0.790580
N2041	N204	0.666730	0.435490	0.703690
C2701	C270	0.675170	0.417210	0.820100
H1351	H135	0.643200	0.427900	0.776300
C2711	C271	0.660500	0.384490	0.837190
C2721	C272	0.676790	0.370050	0.867770
H1361	H136	0.697800	0.381200	0.877400
N2051	N205	0.815410	0.963130	0.215420
N2061	N206	0.811340	0.963150	0.290890
C2731	C273	0.836600	0.934730	0.209420
N2071	N207	0.833270	0.935490	0.296310
C2741	C274	0.824830	0.917210	0.179900
H1371	H137	0.856800	0.927900	0.223700
C2751	C275	0.839500	0.884490	0.162810
C2761	C276	0.823210	0.870050	0.132230
H1381	H138	0.802200	0.881200	0.122600
N2081	N208	0.815410	0.463130	0.715420
N2091	N209	0.811340	0.463150	0.790890
C2771	C277	0.836600	0.434730	0.709420
N2101	N210	0.833270	0.435490	0.796310
C2781	C278	0.824830	0.417210	0.679900
H1391	H139	0.856800	0.427900	0.723700
C2791	C279	0.839500	0.384490	0.662810
C2801	C280	0.823210	0.370050	0.632230
H1401	H140	0.802200	0.381200	0.622600
N2111	N211	0.315410	0.963130	0.715420
N2121	N212	0.311340	0.963150	0.790890
C2811	C281	0.336600	0.934730	0.709420
N2131	N213	0.333270	0.935490	0.796310
C2821	C282	0.324830	0.917210	0.679900
H1411	H141	0.356800	0.927900	0.723700
C2831	C283	0.339500	0.884490	0.662810
C2841	C284	0.323210	0.870050	0.632230
H1421	H142	0.302200	0.881200	0.622600
N2141	N214	0.315410	0.463130	0.215420
N2151	N215	0.311340	0.463150	0.290890
C2851	C285	0.336600	0.434730	0.209420
N2161	N216	0.333270	0.435490	0.296310
C2861	C286	0.324830	0.417210	0.179900
H1431	H143	0.356800	0.427900	0.223700
C2871	C287	0.339500	0.384490	0.162810
C2881	C288	0.323210	0.370050	0.132230
H1441	H144	0.302200	0.381200	0.122600
N2171	N217	0.815410	0.036870	0.784580
N2181	N218	0.811340	0.036850	0.709110
C2891	C289	0.836600	0.065270	0.790580
N2191	N219	0.833270	0.064510	0.703690
C2901	C290	0.824830	0.082790	0.820100
H1451	H145	0.856800	0.072100	0.776300
C2911	C291	0.839500	0.115510	0.837190
C2921	C292	0.823210	0.129950	0.867770
H1461	H146	0.802200	0.118800	0.877400
N2201	N220	0.815410	0.536870	0.284580
N2211	N221	0.811340	0.536850	0.209110
C2931	C293	0.836600	0.565270	0.290580
N2221	N222	0.833270	0.564510	0.203690
C2941	C294	0.824830	0.582790	0.320100
H1471	H147	0.856800	0.572100	0.276300
C2951	C295	0.839500	0.615510	0.337190
C2961	C296	0.823210	0.629950	0.367770
H1481	H148	0.802200	0.618800	0.377400
N2231	N223	0.315410	0.036870	0.284580
N2241	N224	0.311340	0.036850	0.209110
C2971	C297	0.336600	0.065270	0.290580
N2251	N225	0.333270	0.064510	0.203690
C2981	C298	0.324830	0.082790	0.320100
H1491	H149	0.356800	0.072100	0.276300
C2991	C299	0.339500	0.115510	0.337190
C3001	C300	0.323210	0.129950	0.367770
H1501	H150	0.302200	0.118800	0.377400
N2261	N226	0.315410	0.536870	0.784580
N2271	N227	0.311340	0.536850	0.709110
C3011	C301	0.336600	0.565270	0.790580
N2281	N228	0.333270	0.564510	0.703690
C3021	C302	0.324830	0.582790	0.820100
H1511	H151	0.356800	0.572100	0.776300
C3031	C303	0.339500	0.615510	0.837190
C3041	C304	0.323210	0.629950	0.867770
H1521	H152	0.302200	0.618800	0.877400
N2291	N229	0.184590	0.036870	0.215420
N2301	N230	0.188660	0.036850	0.290890
C3051	C305	0.163400	0.065270	0.209420
N2311	N231	0.166730	0.064510	0.296310
C3061	C306	0.175170	0.082790	0.179900
H1531	H153	0.143200	0.072100	0.223700
C3071	C307	0.160500	0.115510	0.162810
C3081	C308	0.176790	0.129950	0.132230
H1541	H154	0.197800	0.118800	0.122600
N2321	N232	0.184590	0.536870	0.715420
N2331	N233	0.188660	0.536850	0.790890
C3091	C309	0.163400	0.565270	0.709420
N2341	N234	0.166730	0.564510	0.796310
C3101	C310	0.175170	0.582790	0.679900
H1551	H155	0.143200	0.572100	0.723700
C3111	C311	0.160500	0.615510	0.662810
C3121	C312	0.176790	0.629950	0.632230
H1561	H156	0.197800	0.618800	0.622600
N2351	N235	0.684590	0.036870	0.715420
N2361	N236	0.688660	0.036850	0.790890
C3131	C313	0.663400	0.065270	0.709420
N2371	N237	0.666730	0.064510	0.796310
C3141	C314	0.675170	0.082790	0.679900
H1571	H157	0.643200	0.072100	0.723700
C3151	C315	0.660500	0.115510	0.662810
C3161	C316	0.676790	0.129950	0.632230
H1581	H158	0.697800	0.118800	0.622600
N2381	N238	0.684590	0.536870	0.215420
N2391	N239	0.688660	0.536850	0.290890
C3171	C317	0.663400	0.565270	0.209420
N2401	N240	0.666730	0.564510	0.296310
C3181	C318	0.675170	0.582790	0.179900
H1591	H159	0.643200	0.572100	0.223700
C3191	C319	0.660500	0.615510	0.162810
C3201	C320	0.676790	0.629950	0.132230
H1601	H160	0.697800	0.618800	0.122600
N2411	N241	0.963130	0.215420	0.815410
N2421	N242	0.963150	0.290890	0.811340
C3211	C321	0.934730	0.209420	0.836600
N2431	N243	0.935490	0.296310	0.833270
C3221	C322	0.917210	0.179900	0.824830
H1611	H161	0.927900	0.223700	0.856800
C3231	C323	0.884490	0.162810	0.839500
C3241	C324	0.870050	0.132230	0.823210
H1621	H162	0.881200	0.122600	0.802200
N2441	N244	0.963130	0.715420	0.315410
N2451	N245	0.963150	0.790890	0.311340
C3251	C325	0.934730	0.709420	0.336600
N2461	N246	0.935490	0.796310	0.333270
C3261	C326	0.917210	0.679900	0.324830
H1631	H163	0.927900	0.723700	0.356800
C3271	C327	0.884490	0.662810	0.339500
C3281	C328	0.870050	0.632230	0.323210
H1641	H164	0.881200	0.622600	0.302200
N2471	N247	0.463130	0.215420	0.315410
N2481	N248	0.463150	0.290890	0.311340
C3291	C329	0.434730	0.209420	0.336600
N2491	N249	0.435490	0.296310	0.333270
C3301	C330	0.417210	0.179900	0.324830
H1651	H165	0.427900	0.223700	0.356800
C3311	C331	0.384490	0.162810	0.339500
C3321	C332	0.370050	0.132230	0.323210
H1661	H166	0.381200	0.122600	0.302200
N2501	N250	0.463130	0.715420	0.815410
N2511	N251	0.463150	0.790890	0.811340
C3331	C333	0.434730	0.709420	0.836600
N2521	N252	0.435490	0.796310	0.833270
C3341	C334	0.417210	0.679900	0.824830
H1671	H167	0.427900	0.723700	0.856800
C3351	C335	0.384490	0.662810	0.839500
C3361	C336	0.370050	0.632230	0.823210
H1681	H168	0.381200	0.622600	0.802200
N2531	N253	0.963130	0.784580	0.184590
N2541	N254	0.963150	0.709110	0.188660
C3371	C337	0.934730	0.790580	0.163400
N2551	N255	0.935490	0.703690	0.166730
C3381	C338	0.917210	0.820100	0.175170
H1691	H169	0.927900	0.776300	0.143200
C3391	C339	0.884490	0.837190	0.160500
C3401	C340	0.870050	0.867770	0.176790
H1701	H170	0.881200	0.877400	0.197800
N2561	N256	0.963130	0.284580	0.684590
N2571	N257	0.963150	0.209110	0.688660
C3411	C341	0.934730	0.290580	0.663400
N2581	N258	0.935490	0.203690	0.666730
C3421	C342	0.917210	0.320100	0.675170
H1711	H171	0.927900	0.276300	0.643200
C3431	C343	0.884490	0.337190	0.660500
C3441	C344	0.870050	0.367770	0.676790
H1721	H172	0.881200	0.377400	0.697800
N2591	N259	0.463130	0.784580	0.684590
N2601	N260	0.463150	0.709110	0.688660
C3451	C345	0.434730	0.790580	0.663400
N2611	N261	0.435490	0.703690	0.666730
C3461	C346	0.417210	0.820100	0.675170
H1731	H173	0.427900	0.776300	0.643200
C3471	C347	0.384490	0.837190	0.660500
C3481	C348	0.370050	0.867770	0.676790
H1741	H174	0.381200	0.877400	0.697800
N2621	N262	0.463130	0.284580	0.184590
N2631	N263	0.463150	0.209110	0.188660
C3491	C349	0.434730	0.290580	0.163400
N2641	N264	0.435490	0.203690	0.166730
C3501	C350	0.417210	0.320100	0.175170
H1751	H175	0.427900	0.276300	0.143200
C3511	C351	0.384490	0.337190	0.160500
C3521	C352	0.370050	0.367770	0.176790
H1761	H176	0.381200	0.377400	0.197800
N2651	N265	0.036870	0.215420	0.184590
N2661	N266	0.036850	0.290890	0.188660
C3531	C353	0.065270	0.209420	0.163400
N2671	N267	0.064510	0.296310	0.166730
C3541	C354	0.082790	0.179900	0.175170
H1771	H177	0.072100	0.223700	0.143200
C3551	C355	0.115510	0.162810	0.160500
C3561	C356	0.129950	0.132230	0.176790
H1781	H178	0.118800	0.122600	0.197800
N2681	N268	0.036870	0.715420	0.684590
N2691	N269	0.036850	0.790890	0.688660
C3571	C357	0.065270	0.709420	0.663400
N2701	N270	0.064510	0.796310	0.666730
C3581	C358	0.082790	0.679900	0.675170
H1791	H179	0.072100	0.723700	0.643200
C3591	C359	0.115510	0.662810	0.660500
C3601	C360	0.129950	0.632230	0.676790
H1801	H180	0.118800	0.622600	0.697800
N2711	N271	0.536870	0.215420	0.684590
N2721	N272	0.536850	0.290890	0.688660
C3611	C361	0.565270	0.209420	0.663400
N2731	N273	0.564510	0.296310	0.666730
C3621	C362	0.582790	0.179900	0.675170
H1811	H181	0.572100	0.223700	0.643200
C3631	C363	0.615510	0.162810	0.660500
C3641	C364	0.629950	0.132230	0.676790
H1821	H182	0.618800	0.122600	0.697800
N2741	N274	0.536870	0.715420	0.184590
N2751	N275	0.536850	0.790890	0.188660
C3651	C365	0.565270	0.709420	0.163400
N2761	N276	0.564510	0.796310	0.166730
C3661	C366	0.582790	0.679900	0.175170
H1831	H183	0.572100	0.723700	0.143200
C3671	C367	0.615510	0.662810	0.160500
C3681	C368	0.629950	0.632230	0.176790
H1841	H184	0.618800	0.622600	0.197800
N2771	N277	0.036870	0.784580	0.815410
N2781	N278	0.036850	0.709110	0.811340
C3691	C369	0.065270	0.790580	0.836600
N2791	N279	0.064510	0.703690	0.833270
C3701	C370	0.082790	0.820100	0.824830
H1851	H185	0.072100	0.776300	0.856800
C3711	C371	0.115510	0.837190	0.839500
C3721	C372	0.129950	0.867770	0.823210
H1861	H186	0.118800	0.877400	0.802200
N2801	N280	0.036870	0.284580	0.315410
N2811	N281	0.036850	0.209110	0.311340
C3731	C373	0.065270	0.290580	0.336600
N2821	N282	0.064510	0.203690	0.333270
C3741	C374	0.082790	0.320100	0.324830
H1871	H187	0.072100	0.276300	0.356800
C3751	C375	0.115510	0.337190	0.339500
C3761	C376	0.129950	0.367770	0.323210
H1881	H188	0.118800	0.377400	0.302200
N2831	N283	0.536870	0.784580	0.315410
N2841	N284	0.536850	0.709110	0.311340
C3771	C377	0.565270	0.790580	0.336600
N2851	N285	0.564510	0.703690	0.333270
C3781	C378	0.582790	0.820100	0.324830
H1891	H189	0.572100	0.776300	0.356800
C3791	C379	0.615510	0.837190	0.339500
C3801	C380	0.629950	0.867770	0.323210
H1901	H190	0.618800	0.877400	0.302200
N2861	N286	0.536870	0.284580	0.815410
N2871	N287	0.536850	0.209110	0.811340
C3811	C381	0.565270	0.290580	0.836600
N2881	N288	0.564510	0.203690	0.833270
C3821	C382	0.582790	0.320100	0.824830
H1911	H191	0.572100	0.276300	0.856800
C3831	C383	0.615510	0.337190	0.839500
C3841	C384	0.629950	0.367770	0.823210
H1921	H192	0.618800	0.377400	0.802200
N2891	N289	0.315410	0.284580	0.536870
N2901	N290	0.311340	0.209110	0.536850
C3851	C385	0.336600	0.290580	0.565270
N2911	N291	0.333270	0.203690	0.564510
C3861	C386	0.324830	0.320100	0.582790
H1931	H193	0.356800	0.276300	0.572100
C3871	C387	0.339500	0.337190	0.615510
C3881	C388	0.323210	0.367770	0.629950
H1941	H194	0.302200	0.377400	0.618800
N2921	N292	0.315410	0.784580	0.036870
N2931	N293	0.311340	0.709110	0.036850
C3891	C389	0.336600	0.790580	0.065270
N2941	N294	0.333270	0.703690	0.064510
C3901	C390	0.324830	0.820100	0.082790
H1951	H195	0.356800	0.776300	0.072100
C3911	C391	0.339500	0.837190	0.115510
C3921	C392	0.323210	0.867770	0.129950
H1961	H196	0.302200	0.877400	0.118800
N2951	N295	0.815410	0.284580	0.036870
N2961	N296	0.811340	0.209110	0.036850
C3931	C393	0.836600	0.290580	0.065270
N2971	N297	0.833270	0.203690	0.064510
C3941	C394	0.824830	0.320100	0.082790
H1971	H197	0.856800	0.276300	0.072100
C3951	C395	0.839500	0.337190	0.115510
C3961	C396	0.823210	0.367770	0.129950
H1981	H198	0.802200	0.377400	0.118800
N2981	N298	0.815410	0.784580	0.536870
N2991	N299	0.811340	0.709110	0.536850
C3971	C397	0.836600	0.790580	0.565270
N3001	N300	0.833270	0.703690	0.564510
C3981	C398	0.824830	0.820100	0.582790
H1991	H199	0.856800	0.776300	0.572100
C3991	C399	0.839500	0.837190	0.615510
C4001	C400	0.823210	0.867770	0.629950
H2001	H200	0.802200	0.877400	0.618800
N3011	N301	0.684590	0.715420	0.536870
N3021	N302	0.688660	0.790890	0.536850
C4011	C401	0.663400	0.709420	0.565270
N3031	N303	0.666730	0.796310	0.564510
C4021	C402	0.675170	0.679900	0.582790
H2011	H201	0.643200	0.723700	0.572100
C4031	C403	0.660500	0.662810	0.615510
C4041	C404	0.676790	0.632230	0.629950
H2021	H202	0.697800	0.622600	0.618800
N3041	N304	0.684590	0.215420	0.036870
N3051	N305	0.688660	0.290890	0.036850
C4051	C405	0.663400	0.209420	0.065270
N3061	N306	0.666730	0.296310	0.064510
C4061	C406	0.675170	0.179900	0.082790
H2031	H203	0.643200	0.223700	0.072100
C4071	C407	0.660500	0.162810	0.115510
C4081	C408	0.676790	0.132230	0.129950
H2041	H204	0.697800	0.122600	0.118800
N3071	N307	0.184590	0.715420	0.036870
N3081	N308	0.188660	0.790890	0.036850
C4091	C409	0.163400	0.709420	0.065270
N3091	N309	0.166730	0.796310	0.064510
C4101	C410	0.175170	0.679900	0.082790
H2051	H205	0.143200	0.723700	0.072100
C4111	C411	0.160500	0.662810	0.115510
C4121	C412	0.176790	0.632230	0.129950
H2061	H206	0.197800	0.622600	0.118800
N3101	N310	0.184590	0.215420	0.536870
N3111	N311	0.188660	0.290890	0.536850
C4131	C413	0.163400	0.209420	0.565270
N3121	N312	0.166730	0.296310	0.564510
C4141	C414	0.175170	0.179900	0.582790
H2071	H207	0.143200	0.223700	0.572100
C4151	C415	0.160500	0.162810	0.615510
C4161	C416	0.176790	0.132230	0.629950
H2081	H208	0.197800	0.122600	0.618800
N3131	N313	0.684590	0.284580	0.463130
N3141	N314	0.688660	0.209110	0.463150
C4171	C417	0.663400	0.290580	0.434730
N3151	N315	0.666730	0.203690	0.435490
C4181	C418	0.675170	0.320100	0.417210
H2091	H209	0.643200	0.276300	0.427900
C4191	C419	0.660500	0.337190	0.384490
C4201	C420	0.676790	0.367770	0.370050
H2101	H210	0.697800	0.377400	0.381200
N3161	N316	0.684590	0.784580	0.963130
N3171	N317	0.688660	0.709110	0.963150
C4211	C421	0.663400	0.790580	0.934730
N3181	N318	0.666730	0.703690	0.935490
C4221	C422	0.675170	0.820100	0.917210
H2111	H211	0.643200	0.776300	0.927900
C4231	C423	0.660500	0.837190	0.884490
C4241	C424	0.676790	0.867770	0.870050
H2121	H212	0.697800	0.877400	0.881200
N3191	N319	0.184590	0.284580	0.963130
N3201	N320	0.188660	0.209110	0.963150
C4251	C425	0.163400	0.290580	0.934730
N3211	N321	0.166730	0.203690	0.935490
C4261	C426	0.175170	0.320100	0.917210
H2131	H213	0.143200	0.276300	0.927900
C4271	C427	0.160500	0.337190	0.884490
C4281	C428	0.176790	0.367770	0.870050
H2141	H214	0.197800	0.377400	0.881200
N3221	N322	0.184590	0.784580	0.463130
N3231	N323	0.188660	0.709110	0.463150
C4291	C429	0.163400	0.790580	0.434730
N3241	N324	0.166730	0.703690	0.435490
C4301	C430	0.175170	0.820100	0.417210
H2151	H215	0.143200	0.776300	0.427900
C4311	C431	0.160500	0.837190	0.384490
C4321	C432	0.176790	0.867770	0.370050
H2161	H216	0.197800	0.877400	0.381200
N3251	N325	0.315410	0.715420	0.463130
N3261	N326	0.311340	0.790890	0.463150
C4331	C433	0.336600	0.709420	0.434730
N3271	N327	0.333270	0.796310	0.435490
C4341	C434	0.324830	0.679900	0.417210
H2171	H217	0.356800	0.723700	0.427900
C4351	C435	0.339500	0.662810	0.384490
C4361	C436	0.323210	0.632230	0.370050
H2181	H218	0.302200	0.622600	0.381200
N3281	N328	0.315410	0.215420	0.963130
N3291	N329	0.311340	0.290890	0.963150
C4371	C437	0.336600	0.209420	0.934730
N3301	N330	0.333270	0.296310	0.935490
C4381	C438	0.324830	0.179900	0.917210
H2191	H219	0.356800	0.223700	0.927900
C4391	C439	0.339500	0.162810	0.884490
C4401	C440	0.323210	0.132230	0.870050
H2201	H220	0.302200	0.122600	0.881200
N3311	N331	0.815410	0.715420	0.963130
N3321	N332	0.811340	0.790890	0.963150
C4411	C441	0.836600	0.709420	0.934730
N3331	N333	0.833270	0.796310	0.935490
C4421	C442	0.824830	0.679900	0.917210
H2211	H221	0.856800	0.723700	0.927900
C4431	C443	0.839500	0.662810	0.884490
C4441	C444	0.823210	0.632230	0.870050
H2221	H222	0.802200	0.622600	0.881200
N3341	N334	0.815410	0.215420	0.463130
N3351	N335	0.811340	0.290890	0.463150
C4451	C445	0.836600	0.209420	0.434730
N3361	N336	0.833270	0.296310	0.435490
C4461	C446	0.824830	0.179900	0.417210
H2231	H223	0.856800	0.223700	0.427900
C4471	C447	0.839500	0.162810	0.384490
C4481	C448	0.823210	0.132230	0.370050
H2241	H224	0.802200	0.122600	0.381200
N3371	N337	0.536870	0.315410	0.284580
N3381	N338	0.536850	0.311340	0.209110
C4491	C449	0.565270	0.336600	0.290580
N3391	N339	0.564510	0.333270	0.203690
C4501	C450	0.582790	0.324830	0.320100
H2251	H225	0.572100	0.356800	0.276300
C4511	C451	0.615510	0.339500	0.337190
C4521	C452	0.629950	0.323210	0.367770
H2261	H226	0.618800	0.302200	0.377400
N3401	N340	0.536870	0.815410	0.784580
N3411	N341	0.536850	0.811340	0.709110
C4531	C453	0.565270	0.836600	0.790580
N3421	N342	0.564510	0.833270	0.703690
C4541	C454	0.582790	0.824830	0.820100
H2271	H227	0.572100	0.856800	0.776300
C4551	C455	0.615510	0.839500	0.837190
C4561	C456	0.629950	0.823210	0.867770
H2281	H228	0.618800	0.802200	0.877400
N3431	N343	0.036870	0.315410	0.784580
N3441	N344	0.036850	0.311340	0.709110
C4571	C457	0.065270	0.336600	0.790580
N3451	N345	0.064510	0.333270	0.703690
C4581	C458	0.082790	0.324830	0.820100
H2291	H229	0.072100	0.356800	0.776300
C4591	C459	0.115510	0.339500	0.837190
C4601	C460	0.129950	0.323210	0.867770
H2301	H230	0.118800	0.302200	0.877400
N3461	N346	0.036870	0.815410	0.284580
N3471	N347	0.036850	0.811340	0.209110
C4611	C461	0.065270	0.836600	0.290580
N3481	N348	0.064510	0.833270	0.203690
C4621	C462	0.082790	0.824830	0.320100
H2311	H231	0.072100	0.856800	0.276300
C4631	C463	0.115510	0.839500	0.337190
C4641	C464	0.129950	0.823210	0.367770
H2321	H232	0.118800	0.802200	0.377400
N3491	N349	0.536870	0.684590	0.715420
N3501	N350	0.536850	0.688660	0.790890
C4651	C465	0.565270	0.663400	0.709420
N3511	N351	0.564510	0.666730	0.796310
C4661	C466	0.582790	0.675170	0.679900
H2331	H233	0.572100	0.643200	0.723700
C4671	C467	0.615510	0.660500	0.662810
C4681	C468	0.629950	0.676790	0.632230
H2341	H234	0.618800	0.697800	0.622600
N3521	N352	0.536870	0.184590	0.215420
N3531	N353	0.536850	0.188660	0.290890
C4691	C469	0.565270	0.163400	0.209420
N3541	N354	0.564510	0.166730	0.296310
C4701	C470	0.582790	0.175170	0.179900
H2351	H235	0.572100	0.143200	0.223700
C4711	C471	0.615510	0.160500	0.162810
C4721	C472	0.629950	0.176790	0.132230
H2361	H236	0.618800	0.197800	0.122600
N3551	N355	0.036870	0.684590	0.215420
N3561	N356	0.036850	0.688660	0.290890
C4731	C473	0.065270	0.663400	0.209420
N3571	N357	0.064510	0.666730	0.296310
C4741	C474	0.082790	0.675170	0.179900
H2371	H237	0.072100	0.643200	0.223700
C4751	C475	0.115510	0.660500	0.162810
C4761	C476	0.129950	0.676790	0.132230
H2381	H238	0.118800	0.697800	0.122600
N3581	N358	0.036870	0.184590	0.715420
N3591	N359	0.036850	0.188660	0.790890
C4771	C477	0.065270	0.163400	0.709420
N3601	N360	0.064510	0.166730	0.796310
C4781	C478	0.082790	0.175170	0.679900
H2391	H239	0.072100	0.143200	0.723700
C4791	C479	0.115510	0.160500	0.662810
C4801	C480	0.129950	0.176790	0.632230
H2401	H240	0.118800	0.197800	0.622600
N3611	N361	0.463130	0.684590	0.284580
N3621	N362	0.463150	0.688660	0.209110
C4811	C481	0.434730	0.663400	0.290580
N3631	N363	0.435490	0.666730	0.203690
C4821	C482	0.417210	0.675170	0.320100
H2411	H241	0.427900	0.643200	0.276300
C4831	C483	0.384490	0.660500	0.337190
C4841	C484	0.370050	0.676790	0.367770
H2421	H242	0.381200	0.697800	0.377400
N3641	N364	0.463130	0.184590	0.784580
N3651	N365	0.463150	0.188660	0.709110
C4851	C485	0.434730	0.163400	0.790580
N3661	N366	0.435490	0.166730	0.703690
C4861	C486	0.417210	0.175170	0.820100
H2431	H243	0.427900	0.143200	0.776300
C4871	C487	0.384490	0.160500	0.837190
C4881	C488	0.370050	0.176790	0.867770
H2441	H244	0.381200	0.197800	0.877400
N3671	N367	0.963130	0.684590	0.784580
N3681	N368	0.963150	0.688660	0.709110
C4891	C489	0.934730	0.663400	0.790580
N3691	N369	0.935490	0.666730	0.703690
C4901	C490	0.917210	0.675170	0.820100
H2451	H245	0.927900	0.643200	0.776300
C4911	C491	0.884490	0.660500	0.837190
C4921	C492	0.870050	0.676790	0.867770
H2461	H246	0.881200	0.697800	0.877400
N3701	N370	0.963130	0.184590	0.284580
N3711	N371	0.963150	0.188660	0.209110
C4931	C493	0.934730	0.163400	0.290580
N3721	N372	0.935490	0.166730	0.203690
C4941	C494	0.917210	0.175170	0.320100
H2471	H247	0.927900	0.143200	0.276300
C4951	C495	0.884490	0.160500	0.337190
C4961	C496	0.870050	0.176790	0.367770
H2481	H248	0.881200	0.197800	0.377400
N3731	N373	0.463130	0.315410	0.715420
N3741	N374	0.463150	0.311340	0.790890
C4971	C497	0.434730	0.336600	0.709420
N3751	N375	0.435490	0.333270	0.796310
C4981	C498	0.417210	0.324830	0.679900
H2491	H249	0.427900	0.356800	0.723700
C4991	C499	0.384490	0.339500	0.662810
C5001	C500	0.370050	0.323210	0.632230
H2501	H250	0.381200	0.302200	0.622600
N3761	N376	0.463130	0.815410	0.215420
N3771	N377	0.463150	0.811340	0.290890
C5011	C501	0.434730	0.836600	0.209420
N3781	N378	0.435490	0.833270	0.296310
C5021	C502	0.417210	0.824830	0.179900
H2511	H251	0.427900	0.856800	0.223700
C5031	C503	0.384490	0.839500	0.162810
C5041	C504	0.370050	0.823210	0.132230
H2521	H252	0.381200	0.802200	0.122600
N3791	N379	0.963130	0.315410	0.215420
N3801	N380	0.963150	0.311340	0.290890
C5051	C505	0.934730	0.336600	0.209420
N3811	N381	0.935490	0.333270	0.296310
C5061	C506	0.917210	0.324830	0.179900
H2531	H253	0.927900	0.356800	0.223700
C5071	C507	0.884490	0.339500	0.162810
C5081	C508	0.870050	0.323210	0.132230
H2541	H254	0.881200	0.302200	0.122600
N3821	N382	0.963130	0.815410	0.715420
N3831	N383	0.963150	0.811340	0.790890
C5091	C509	0.934730	0.836600	0.709420
N3841	N384	0.935490	0.833270	0.796310
C5101	C510	0.917210	0.824830	0.679900
H2551	H255	0.927900	0.856800	0.723700
C5111	C511	0.884490	0.839500	0.662810
C5121	C512	0.870050	0.823210	0.632230
H2561	H256	0.881200	0.802200	0.622600
N3851	N385	0.284580	0.536870	0.315410
N3861	N386	0.209110	0.536850	0.311340
C5131	C513	0.290580	0.565270	0.336600
N3871	N387	0.203690	0.564510	0.333270
C5141	C514	0.320100	0.582790	0.324830
H2571	H257	0.276300	0.572100	0.356800
C5151	C515	0.337190	0.615510	0.339500
C5161	C516	0.367770	0.629950	0.323210
H2581	H258	0.377400	0.618800	0.302200
N3881	N388	0.284580	0.036870	0.815410
N3891	N389	0.209110	0.036850	0.811340
C5171	C517	0.290580	0.065270	0.836600
N3901	N390	0.203690	0.064510	0.833270
C5181	C518	0.320100	0.082790	0.824830
H2591	H259	0.276300	0.072100	0.856800
C5191	C519	0.337190	0.115510	0.839500
C5201	C520	0.367770	0.129950	0.823210
H2601	H260	0.377400	0.118800	0.802200
N3911	N391	0.784580	0.536870	0.815410
N3921	N392	0.709110	0.536850	0.811340
C5211	C521	0.790580	0.565270	0.836600
N3931	N393	0.703690	0.564510	0.833270
C5221	C522	0.820100	0.582790	0.824830
H2611	H261	0.776300	0.572100	0.856800
C5231	C523	0.837190	0.615510	0.839500
C5241	C524	0.867770	0.629950	0.823210
H2621	H262	0.877400	0.618800	0.802200
N3941	N394	0.784580	0.036870	0.315410
N3951	N395	0.709110	0.036850	0.311340
C5251	C525	0.790580	0.065270	0.336600
N3961	N396	0.703690	0.064510	0.333270
C5261	C526	0.820100	0.082790	0.324830
H2631	H263	0.776300	0.072100	0.356800
C5271	C527	0.837190	0.115510	0.339500
C5281	C528	0.867770	0.129950	0.323210
H2641	H264	0.877400	0.118800	0.302200
N3971	N397	0.715420	0.536870	0.684590
N3981	N398	0.790890	0.536850	0.688660
C5291	C529	0.709420	0.565270	0.663400
N3991	N399	0.796310	0.564510	0.666730
C5301	C530	0.679900	0.582790	0.675170
H2651	H265	0.723700	0.572100	0.643200
C5311	C531	0.662810	0.615510	0.660500
C5321	C532	0.632230	0.629950	0.676790
H2661	H266	0.622600	0.618800	0.697800
N4001	N400	0.715420	0.036870	0.184590
N4011	N401	0.790890	0.036850	0.188660
C5331	C533	0.709420	0.065270	0.163400
N4021	N402	0.796310	0.064510	0.166730
C5341	C534	0.679900	0.082790	0.175170
H2671	H267	0.723700	0.072100	0.143200
C5351	C535	0.662810	0.115510	0.160500
C5361	C536	0.632230	0.129950	0.176790
H2681	H268	0.622600	0.118800	0.197800
N4031	N403	0.215420	0.536870	0.184590
N4041	N404	0.290890	0.536850	0.188660
C5371	C537	0.209420	0.565270	0.163400
N4051	N405	0.296310	0.564510	0.166730
C5381	C538	0.179900	0.582790	0.175170
H2691	H269	0.223700	0.572100	0.143200
C5391	C539	0.162810	0.615510	0.160500
C5401	C540	0.132230	0.629950	0.176790
H2701	H270	0.122600	0.618800	0.197800
N4061	N406	0.215420	0.036870	0.684590
N4071	N407	0.290890	0.036850	0.688660
C5411	C541	0.209420	0.065270	0.663400
N4081	N408	0.296310	0.064510	0.666730
C5421	C542	0.179900	0.082790	0.675170
H2711	H271	0.223700	0.072100	0.643200
C5431	C543	0.162810	0.115510	0.660500
C5441	C544	0.132230	0.129950	0.676790
H2721	H272	0.122600	0.118800	0.697800
N4091	N409	0.284580	0.463130	0.684590
N4101	N410	0.209110	0.463150	0.688660
C5451	C545	0.290580	0.434730	0.663400
N4111	N411	0.203690	0.435490	0.666730
C5461	C546	0.320100	0.417210	0.675170
H2731	H273	0.276300	0.427900	0.643200
C5471	C547	0.337190	0.384490	0.660500
C5481	C548	0.367770	0.370050	0.676790
H2741	H274	0.377400	0.381200	0.697800
N4121	N412	0.284580	0.963130	0.184590
N4131	N413	0.209110	0.963150	0.188660
C5491	C549	0.290580	0.934730	0.163400
N4141	N414	0.203690	0.935490	0.166730
C5501	C550	0.320100	0.917210	0.175170
H2751	H275	0.276300	0.927900	0.143200
C5511	C551	0.337190	0.884490	0.160500
C5521	C552	0.367770	0.870050	0.176790
H2761	H276	0.377400	0.881200	0.197800
N4151	N415	0.784580	0.463130	0.184590
N4161	N416	0.709110	0.463150	0.188660
C5531	C553	0.790580	0.434730	0.163400
N4171	N417	0.703690	0.435490	0.166730
C5541	C554	0.820100	0.417210	0.175170
H2771	H277	0.776300	0.427900	0.143200
C5551	C555	0.837190	0.384490	0.160500
C5561	C556	0.867770	0.370050	0.176790
H2781	H278	0.877400	0.381200	0.197800
N4181	N418	0.784580	0.963130	0.684590
N4191	N419	0.709110	0.963150	0.688660
C5571	C557	0.790580	0.934730	0.663400
N4201	N420	0.703690	0.935490	0.666730
C5581	C558	0.820100	0.917210	0.675170
H2791	H279	0.776300	0.927900	0.643200
C5591	C559	0.837190	0.884490	0.660500
C5601	C560	0.867770	0.870050	0.676790
H2801	H280	0.877400	0.881200	0.697800
N4211	N421	0.715420	0.463130	0.315410
N4221	N422	0.790890	0.463150	0.311340
C5611	C561	0.709420	0.434730	0.336600
N4231	N423	0.796310	0.435490	0.333270
C5621	C562	0.679900	0.417210	0.324830
H2811	H281	0.723700	0.427900	0.356800
C5631	C563	0.662810	0.384490	0.339500
C5641	C564	0.632230	0.370050	0.323210
H2821	H282	0.622600	0.381200	0.302200
N4241	N424	0.715420	0.963130	0.815410
N4251	N425	0.790890	0.963150	0.811340
C5651	C565	0.709420	0.934730	0.836600
N4261	N426	0.796310	0.935490	0.833270
C5661	C566	0.679900	0.917210	0.824830
H2831	H283	0.723700	0.927900	0.856800
C5671	C567	0.662810	0.884490	0.839500
C5681	C568	0.632230	0.870050	0.823210
H2841	H284	0.622600	0.881200	0.802200
N4271	N427	0.215420	0.463130	0.815410
N4281	N428	0.290890	0.463150	0.811340
C5691	C569	0.209420	0.434730	0.836600
N4291	N429	0.296310	0.435490	0.833270
C5701	C570	0.179900	0.417210	0.824830
H2851	H285	0.223700	0.427900	0.856800
C5711	C571	0.162810	0.384490	0.839500
C5721	C572	0.132230	0.370050	0.823210
H2861	H286	0.122600	0.381200	0.802200
N4301	N430	0.215420	0.963130	0.315410
N4311	N431	0.290890	0.963150	0.311340
C5731	C573	0.209420	0.934730	0.336600
N4321	N432	0.296310	0.935490	0.333270
C5741	C574	0.179900	0.917210	0.324830
H2871	H287	0.223700	0.927900	0.356800
C5751	C575	0.162810	0.884490	0.339500
C5761	C576	0.132230	0.870050	0.323210
H2881	H288	0.122600	0.881200	0.302200
N4331	N433	0.784580	0.815410	0.963130
N4341	N434	0.709110	0.811340	0.963150
C5771	C577	0.790580	0.836600	0.934730
N4351	N435	0.703690	0.833270	0.935490
C5781	C578	0.820100	0.824830	0.917210
H2891	H289	0.776300	0.856800	0.927900
C5791	C579	0.837190	0.839500	0.884490
C5801	C580	0.867770	0.823210	0.870050
H2901	H290	0.877400	0.802200	0.881200
N4361	N436	0.784580	0.315410	0.463130
N4371	N437	0.709110	0.311340	0.463150
C5811	C581	0.790580	0.336600	0.434730
N4381	N438	0.703690	0.333270	0.435490
C5821	C582	0.820100	0.324830	0.417210
H2911	H291	0.776300	0.356800	0.427900
C5831	C583	0.837190	0.339500	0.384490
C5841	C584	0.867770	0.323210	0.370050
H2921	H292	0.877400	0.302200	0.381200
N4391	N439	0.284580	0.815410	0.463130
N4401	N440	0.209110	0.811340	0.463150
C5851	C585	0.290580	0.836600	0.434730
N4411	N441	0.203690	0.833270	0.435490
C5861	C586	0.320100	0.824830	0.417210
H2931	H293	0.276300	0.856800	0.427900
C5871	C587	0.337190	0.839500	0.384490
C5881	C588	0.367770	0.823210	0.370050
H2941	H294	0.377400	0.802200	0.381200
N4421	N442	0.284580	0.315410	0.963130
N4431	N443	0.209110	0.311340	0.963150
C5891	C589	0.290580	0.336600	0.934730
N4441	N444	0.203690	0.333270	0.935490
C5901	C590	0.320100	0.324830	0.917210
H2951	H295	0.276300	0.356800	0.927900
C5911	C591	0.337190	0.339500	0.884490
C5921	C592	0.367770	0.323210	0.870050
H2961	H296	0.377400	0.302200	0.881200
N4451	N445	0.215420	0.184590	0.963130
N4461	N446	0.290890	0.188660	0.963150
C5931	C593	0.209420	0.163400	0.934730
N4471	N447	0.296310	0.166730	0.935490
C5941	C594	0.179900	0.175170	0.917210
H2971	H297	0.223700	0.143200	0.927900
C5951	C595	0.162810	0.160500	0.884490
C5961	C596	0.132230	0.176790	0.870050
H2981	H298	0.122600	0.197800	0.881200
N4481	N448	0.215420	0.684590	0.463130
N4491	N449	0.290890	0.688660	0.463150
C5971	C597	0.209420	0.663400	0.434730
N4501	N450	0.296310	0.666730	0.435490
C5981	C598	0.179900	0.675170	0.417210
H2991	H299	0.223700	0.643200	0.427900
C5991	C599	0.162810	0.660500	0.384490
C6001	C600	0.132230	0.676790	0.370050
H3001	H300	0.122600	0.697800	0.381200
N4511	N451	0.715420	0.184590	0.463130
N4521	N452	0.790890	0.188660	0.463150
C6011	C601	0.709420	0.163400	0.434730
N4531	N453	0.796310	0.166730	0.435490
C6021	C602	0.679900	0.175170	0.417210
H3011	H301	0.723700	0.143200	0.427900
C6031	C603	0.662810	0.160500	0.384490
C6041	C604	0.632230	0.176790	0.370050
H3021	H302	0.622600	0.197800	0.381200
N4541	N454	0.715420	0.684590	0.963130
N4551	N455	0.790890	0.688660	0.963150
C6051	C605	0.709420	0.663400	0.934730
N4561	N456	0.796310	0.666730	0.935490
C6061	C606	0.679900	0.675170	0.917210
H3031	H303	0.723700	0.643200	0.927900
C6071	C607	0.662810	0.660500	0.884490
C6081	C608	0.632230	0.676790	0.870050
H3041	H304	0.622600	0.697800	0.881200
N4571	N457	0.784580	0.184590	0.036870
N4581	N458	0.709110	0.188660	0.036850
C6091	C609	0.790580	0.163400	0.065270
N4591	N459	0.703690	0.166730	0.064510
C6101	C610	0.820100	0.175170	0.082790
H3051	H305	0.776300	0.143200	0.072100
C6111	C611	0.837190	0.160500	0.115510
C6121	C612	0.867770	0.176790	0.129950
H3061	H306	0.877400	0.197800	0.118800
N4601	N460	0.784580	0.684590	0.536870
N4611	N461	0.709110	0.688660	0.536850
C6131	C613	0.790580	0.663400	0.565270
N4621	N462	0.703690	0.666730	0.564510
C6141	C614	0.820100	0.675170	0.582790
H3071	H307	0.776300	0.643200	0.572100
C6151	C615	0.837190	0.660500	0.615510
C6161	C616	0.867770	0.676790	0.629950
H3081	H308	0.877400	0.697800	0.618800
N4631	N463	0.284580	0.184590	0.536870
N4641	N464	0.209110	0.188660	0.536850
C6171	C617	0.290580	0.163400	0.565270
N4651	N465	0.203690	0.166730	0.564510
C6181	C618	0.320100	0.175170	0.582790
H3091	H309	0.276300	0.143200	0.572100
C6191	C619	0.337190	0.160500	0.615510
C6201	C620	0.367770	0.176790	0.629950
H3101	H310	0.377400	0.197800	0.618800
N4661	N466	0.284580	0.684590	0.036870
N4671	N467	0.209110	0.688660	0.036850
C6211	C621	0.290580	0.663400	0.065270
N4681	N468	0.203690	0.666730	0.064510
C6221	C622	0.320100	0.675170	0.082790
H3111	H311	0.276300	0.643200	0.072100
C6231	C623	0.337190	0.660500	0.115510
C6241	C624	0.367770	0.676790	0.129950
H3121	H312	0.377400	0.697800	0.118800
N4691	N469	0.215420	0.815410	0.036870
N4701	N470	0.290890	0.811340	0.036850
C6251	C625	0.209420	0.836600	0.065270
N4711	N471	0.296310	0.833270	0.064510
C6261	C626	0.179900	0.824830	0.082790
H3131	H313	0.223700	0.856800	0.072100
C6271	C627	0.162810	0.839500	0.115510
C6281	C628	0.132230	0.823210	0.129950
H3141	H314	0.122600	0.802200	0.118800
N4721	N472	0.215420	0.315410	0.536870
N4731	N473	0.290890	0.311340	0.536850
C6291	C629	0.209420	0.336600	0.565270
N4741	N474	0.296310	0.333270	0.564510
C6301	C630	0.179900	0.324830	0.582790
H3151	H315	0.223700	0.356800	0.572100
C6311	C631	0.162810	0.339500	0.615510
C6321	C632	0.132230	0.323210	0.629950
H3161	H316	0.122600	0.302200	0.618800
N4751	N475	0.715420	0.815410	0.536870
N4761	N476	0.790890	0.811340	0.536850
C6331	C633	0.709420	0.836600	0.565270
N4771	N477	0.796310	0.833270	0.564510
C6341	C634	0.679900	0.824830	0.582790
H3171	H317	0.723700	0.856800	0.572100
C6351	C635	0.662810	0.839500	0.615510
C6361	C636	0.632230	0.823210	0.629950
H3181	H318	0.622600	0.802200	0.618800
N4781	N478	0.715420	0.315410	0.036870
N4791	N479	0.790890	0.311340	0.036850
C6371	C637	0.709420	0.336600	0.065270
N4801	N480	0.796310	0.333270	0.064510
C6381	C638	0.679900	0.324830	0.082790
H3191	H319	0.723700	0.356800	0.072100
C6391	C639	0.662810	0.339500	0.115510
C6401	C640	0.632230	0.323210	0.129950
H3201	H320	0.622600	0.302200	0.118800
N4811	N481	0.815410	0.036870	0.215420
N4821	N482	0.811340	0.036850	0.290890
C6411	C641	0.836600	0.065270	0.209420
N4831	N483	0.833270	0.064510	0.296310
C6421	C642	0.824830	0.082790	0.179900
H3211	H321	0.856800	0.072100	0.223700
C6431	C643	0.839500	0.115510	0.162810
C6441	C644	0.823210	0.129950	0.132230
H3221	H322	0.802200	0.118800	0.122600
N4841	N484	0.815410	0.536870	0.715420
N4851	N485	0.811340	0.536850	0.790890
C6451	C645	0.836600	0.565270	0.709420
N4861	N486	0.833270	0.564510	0.796310
C6461	C646	0.824830	0.582790	0.679900
H3231	H323	0.856800	0.572100	0.723700
C6471	C647	0.839500	0.615510	0.662810
C6481	C648	0.823210	0.629950	0.632230
H3241	H324	0.802200	0.618800	0.622600
N4871	N487	0.315410	0.036870	0.715420
N4881	N488	0.311340	0.036850	0.790890
C6491	C649	0.336600	0.065270	0.709420
N4891	N489	0.333270	0.064510	0.796310
C6501	C650	0.324830	0.082790	0.679900
H3251	H325	0.356800	0.072100	0.723700
C6511	C651	0.339500	0.115510	0.662810
C6521	C652	0.323210	0.129950	0.632230
H3261	H326	0.302200	0.118800	0.622600
N4901	N490	0.315410	0.536870	0.215420
N4911	N491	0.311340	0.536850	0.290890
C6531	C653	0.336600	0.565270	0.209420
N4921	N492	0.333270	0.564510	0.296310
C6541	C654	0.324830	0.582790	0.179900
H3271	H327	0.356800	0.572100	0.223700
C6551	C655	0.339500	0.615510	0.162810
C6561	C656	0.323210	0.629950	0.132230
H3281	H328	0.302200	0.618800	0.122600
N4931	N493	0.184590	0.036870	0.784580
N4941	N494	0.188660	0.036850	0.709110
C6571	C657	0.163400	0.065270	0.790580
N4951	N495	0.166730	0.064510	0.703690
C6581	C658	0.175170	0.082790	0.820100
H3291	H329	0.143200	0.072100	0.776300
C6591	C659	0.160500	0.115510	0.837190
C6601	C660	0.176790	0.129950	0.867770
H3301	H330	0.197800	0.118800	0.877400
N4961	N496	0.184590	0.536870	0.284580
N4971	N497	0.188660	0.536850	0.209110
C6611	C661	0.163400	0.565270	0.290580
N4981	N498	0.166730	0.564510	0.203690
C6621	C662	0.175170	0.582790	0.320100
H3311	H331	0.143200	0.572100	0.276300
C6631	C663	0.160500	0.615510	0.337190
C6641	C664	0.176790	0.629950	0.367770
H3321	H332	0.197800	0.618800	0.377400
N4991	N499	0.684590	0.036870	0.284580
N5001	N500	0.688660	0.036850	0.209110
C6651	C665	0.663400	0.065270	0.290580
N5011	N501	0.666730	0.064510	0.203690
C6661	C666	0.675170	0.082790	0.320100
H3331	H333	0.643200	0.072100	0.276300
C6671	C667	0.660500	0.115510	0.337190
C6681	C668	0.676790	0.129950	0.367770
H3341	H334	0.697800	0.118800	0.377400
N5021	N502	0.684590	0.536870	0.784580
N5031	N503	0.688660	0.536850	0.709110
C6691	C669	0.663400	0.565270	0.790580
N5041	N504	0.666730	0.564510	0.703690
C6701	C670	0.675170	0.582790	0.820100
H3351	H335	0.643200	0.572100	0.776300
C6711	C671	0.660500	0.615510	0.837190
C6721	C672	0.676790	0.629950	0.867770
H3361	H336	0.697800	0.618800	0.877400
N5051	N505	0.184590	0.963130	0.215420
N5061	N506	0.188660	0.963150	0.290890
C6731	C673	0.163400	0.934730	0.209420
N5071	N507	0.166730	0.935490	0.296310
C6741	C674	0.175170	0.917210	0.179900
H3371	H337	0.143200	0.927900	0.223700
C6751	C675	0.160500	0.884490	0.162810
C6761	C676	0.176790	0.870050	0.132230
H3381	H338	0.197800	0.881200	0.122600
N5081	N508	0.184590	0.463130	0.715420
N5091	N509	0.188660	0.463150	0.790890
C6771	C677	0.163400	0.434730	0.709420
N5101	N510	0.166730	0.435490	0.796310
C6781	C678	0.175170	0.417210	0.679900
H3391	H339	0.143200	0.427900	0.723700
C6791	C679	0.160500	0.384490	0.662810
C6801	C680	0.176790	0.370050	0.632230
H3401	H340	0.197800	0.381200	0.622600
N5111	N511	0.684590	0.963130	0.715420
N5121	N512	0.688660	0.963150	0.790890
C6811	C681	0.663400	0.934730	0.709420
N5131	N513	0.666730	0.935490	0.796310
C6821	C682	0.675170	0.917210	0.679900
H3411	H341	0.643200	0.927900	0.723700
C6831	C683	0.660500	0.884490	0.662810
C6841	C684	0.676790	0.870050	0.632230
H3421	H342	0.697800	0.881200	0.622600
N5141	N514	0.684590	0.463130	0.215420
N5151	N515	0.688660	0.463150	0.290890
C6851	C685	0.663400	0.434730	0.209420
N5161	N516	0.666730	0.435490	0.296310
C6861	C686	0.675170	0.417210	0.179900
H3431	H343	0.643200	0.427900	0.223700
C6871	C687	0.660500	0.384490	0.162810
C6881	C688	0.676790	0.370050	0.132230
H3441	H344	0.697800	0.381200	0.122600
N5171	N517	0.815410	0.963130	0.784580
N5181	N518	0.811340	0.963150	0.709110
C6891	C689	0.836600	0.934730	0.790580
N5191	N519	0.833270	0.935490	0.703690
C6901	C690	0.824830	0.917210	0.820100
H3451	H345	0.856800	0.927900	0.776300
C6911	C691	0.839500	0.884490	0.837190
C6921	C692	0.823210	0.870050	0.867770
H3461	H346	0.802200	0.881200	0.877400
N5201	N520	0.815410	0.463130	0.284580
N5211	N521	0.811340	0.463150	0.209110
C6931	C693	0.836600	0.434730	0.290580
N5221	N522	0.833270	0.435490	0.203690
C6941	C694	0.824830	0.417210	0.320100
H3471	H347	0.856800	0.427900	0.276300
C6951	C695	0.839500	0.384490	0.337190
C6961	C696	0.823210	0.370050	0.367770
H3481	H348	0.802200	0.381200	0.377400
N5231	N523	0.315410	0.963130	0.284580
N5241	N524	0.311340	0.963150	0.209110
C6971	C697	0.336600	0.934730	0.290580
N5251	N525	0.333270	0.935490	0.203690
C6981	C698	0.324830	0.917210	0.320100
H3491	H349	0.356800	0.927900	0.276300
C6991	C699	0.339500	0.884490	0.337190
C7001	C700	0.323210	0.870050	0.367770
H3501	H350	0.302200	0.881200	0.377400
N5261	N526	0.315410	0.463130	0.784580
N5271	N527	0.311340	0.463150	0.709110
C7011	C701	0.336600	0.434730	0.790580
N5281	N528	0.333270	0.435490	0.703690
C7021	C702	0.324830	0.417210	0.820100
H3511	H351	0.356800	0.427900	0.776300
C7031	C703	0.339500	0.384490	0.837190
C7041	C704	0.323210	0.370050	0.867770
H3521	H352	0.302200	0.381200	0.877400
N5291	N529	0.036870	0.784580	0.184590
N5301	N530	0.036850	0.709110	0.188660
C7051	C705	0.065270	0.790580	0.163400
N5311	N531	0.064510	0.703690	0.166730
C7061	C706	0.082790	0.820100	0.175170
H3531	H353	0.072100	0.776300	0.143200
C7071	C707	0.115510	0.837190	0.160500
C7081	C708	0.129950	0.867770	0.176790
H3541	H354	0.118800	0.877400	0.197800
N5321	N532	0.036870	0.284580	0.684590
N5331	N533	0.036850	0.209110	0.688660
C7091	C709	0.065270	0.290580	0.663400
N5341	N534	0.064510	0.203690	0.666730
C7101	C710	0.082790	0.320100	0.675170
H3551	H355	0.072100	0.276300	0.643200
C7111	C711	0.115510	0.337190	0.660500
C7121	C712	0.129950	0.367770	0.676790
H3561	H356	0.118800	0.377400	0.697800
N5351	N535	0.536870	0.784580	0.684590
N5361	N536	0.536850	0.709110	0.688660
C7131	C713	0.565270	0.790580	0.663400
N5371	N537	0.564510	0.703690	0.666730
C7141	C714	0.582790	0.820100	0.675170
H3571	H357	0.572100	0.776300	0.643200
C7151	C715	0.615510	0.837190	0.660500
C7161	C716	0.629950	0.867770	0.676790
H3581	H358	0.618800	0.877400	0.697800
N5381	N538	0.536870	0.284580	0.184590
N5391	N539	0.536850	0.209110	0.188660
C7171	C717	0.565270	0.290580	0.163400
N5401	N540	0.564510	0.203690	0.166730
C7181	C718	0.582790	0.320100	0.175170
H3591	H359	0.572100	0.276300	0.143200
C7191	C719	0.615510	0.337190	0.160500
C7201	C720	0.629950	0.367770	0.176790
H3601	H360	0.618800	0.377400	0.197800
N5411	N541	0.036870	0.215420	0.815410
N5421	N542	0.036850	0.290890	0.811340
C7211	C721	0.065270	0.209420	0.836600
N5431	N543	0.064510	0.296310	0.833270
C7221	C722	0.082790	0.179900	0.824830
H3611	H361	0.072100	0.223700	0.856800
C7231	C723	0.115510	0.162810	0.839500
C7241	C724	0.129950	0.132230	0.823210
H3621	H362	0.118800	0.122600	0.802200
N5441	N544	0.036870	0.715420	0.315410
N5451	N545	0.036850	0.790890	0.311340
C7251	C725	0.065270	0.709420	0.336600
N5461	N546	0.064510	0.796310	0.333270
C7261	C726	0.082790	0.679900	0.324830
H3631	H363	0.072100	0.723700	0.356800
C7271	C727	0.115510	0.662810	0.339500
C7281	C728	0.129950	0.632230	0.323210
H3641	H364	0.118800	0.622600	0.302200
N5471	N547	0.536870	0.215420	0.315410
N5481	N548	0.536850	0.290890	0.311340
C7291	C729	0.565270	0.209420	0.336600
N5491	N549	0.564510	0.296310	0.333270
C7301	C730	0.582790	0.179900	0.324830
H3651	H365	0.572100	0.223700	0.356800
C7311	C731	0.615510	0.162810	0.339500
C7321	C732	0.629950	0.132230	0.323210
H3661	H366	0.618800	0.122600	0.302200
N5501	N550	0.536870	0.715420	0.815410
N5511	N551	0.536850	0.790890	0.811340
C7331	C733	0.565270	0.709420	0.836600
N5521	N552	0.564510	0.796310	0.833270
C7341	C734	0.582790	0.679900	0.824830
H3671	H367	0.572100	0.723700	0.856800
C7351	C735	0.615510	0.662810	0.839500
C7361	C736	0.629950	0.632230	0.823210
H3681	H368	0.618800	0.622600	0.802200
N5531	N553	0.963130	0.784580	0.815410
N5541	N554	0.963150	0.709110	0.811340
C7371	C737	0.934730	0.790580	0.836600
N5551	N555	0.935490	0.703690	0.833270
C7381	C738	0.917210	0.820100	0.824830
H3691	H369	0.927900	0.776300	0.856800
C7391	C739	0.884490	0.837190	0.839500
C7401	C740	0.870050	0.867770	0.823210
H3701	H370	0.881200	0.877400	0.802200
N5561	N556	0.963130	0.284580	0.315410
N5571	N557	0.963150	0.209110	0.311340
C7411	C741	0.934730	0.290580	0.336600
N5581	N558	0.935490	0.203690	0.333270
C7421	C742	0.917210	0.320100	0.324830
H3711	H371	0.927900	0.276300	0.356800
C7431	C743	0.884490	0.337190	0.339500
C7441	C744	0.870050	0.367770	0.323210
H3721	H372	0.881200	0.377400	0.302200
N5591	N559	0.463130	0.784580	0.315410
N5601	N560	0.463150	0.709110	0.311340
C7451	C745	0.434730	0.790580	0.336600
N5611	N561	0.435490	0.703690	0.333270
C7461	C746	0.417210	0.820100	0.324830
H3731	H373	0.427900	0.776300	0.356800
C7471	C747	0.384490	0.837190	0.339500
C7481	C748	0.370050	0.867770	0.323210
H3741	H374	0.381200	0.877400	0.302200
N5621	N562	0.463130	0.284580	0.815410
N5631	N563	0.463150	0.209110	0.811340
C7491	C749	0.434730	0.290580	0.836600
N5641	N564	0.435490	0.203690	0.833270
C7501	C750	0.417210	0.320100	0.824830
H3751	H375	0.427900	0.276300	0.856800
C7511	C751	0.384490	0.337190	0.839500
C7521	C752	0.370050	0.367770	0.823210
H3761	H376	0.381200	0.377400	0.802200
N5651	N565	0.963130	0.215420	0.184590
N5661	N566	0.963150	0.290890	0.188660
C7531	C753	0.934730	0.209420	0.163400
N5671	N567	0.935490	0.296310	0.166730
C7541	C754	0.917210	0.179900	0.175170
H3771	H377	0.927900	0.223700	0.143200
C7551	C755	0.884490	0.162810	0.160500
C7561	C756	0.870050	0.132230	0.176790
H3781	H378	0.881200	0.122600	0.197800
N5681	N568	0.963130	0.715420	0.684590
N5691	N569	0.963150	0.790890	0.688660
C7571	C757	0.934730	0.709420	0.663400
N5701	N570	0.935490	0.796310	0.666730
C7581	C758	0.917210	0.679900	0.675170
H3791	H379	0.927900	0.723700	0.643200
C7591	C759	0.884490	0.662810	0.660500
C7601	C760	0.870050	0.632230	0.676790
H3801	H380	0.881200	0.622600	0.697800
N5711	N571	0.463130	0.215420	0.684590
N5721	N572	0.463150	0.290890	0.688660
C7611	C761	0.434730	0.209420	0.663400
N5731	N573	0.435490	0.296310	0.666730
C7621	C762	0.417210	0.179900	0.675170
H3811	H381	0.427900	0.223700	0.643200
C7631	C763	0.384490	0.162810	0.660500
C7641	C764	0.370050	0.132230	0.676790
H3821	H382	0.381200	0.122600	0.697800
N5741	N574	0.463130	0.715420	0.184590
N5751	N575	0.463150	0.790890	0.188660
C7651	C765	0.434730	0.709420	0.163400
N5761	N576	0.435490	0.796310	0.166730
C7661	C766	0.417210	0.679900	0.175170
H3831	H383	0.427900	0.723700	0.143200
C7671	C767	0.384490	0.662810	0.160500
C7681	C768	0.370050	0.632230	0.176790
H3841	H384	0.381200	0.622600	0.197800
Co11	Co1	0.684340	0.752980	0.500000
Co21	Co2	0.684340	0.252980	0.000000
Co31	Co3	0.184340	0.752980	0.000000
Co41	Co4	0.184340	0.252980	0.500000
Co51	Co5	0.315660	0.247020	0.500000
Co61	Co6	0.315660	0.747020	0.000000
Co71	Co7	0.815660	0.247020	0.000000
Co81	Co8	0.815660	0.747020	0.500000
Co91	Co9	0.315660	0.752980	0.500000
Co101	Co10	0.315660	0.252980	0.000000
Co111	Co11	0.815660	0.752980	0.000000
Co121	Co12	0.815660	0.252980	0.500000
Co131	Co13	0.684340	0.247020	0.500000
Co141	Co14	0.684340	0.747020	0.000000
Co151	Co15	0.184340	0.247020	0.000000
Co161	Co16	0.184340	0.747020	0.500000
Co171	Co17	0.500000	0.684340	0.752980
Co181	Co18	0.500000	0.184340	0.252980
Co191	Co19	0.000000	0.684340	0.252980
Co201	Co20	0.000000	0.184340	0.752980
Co211	Co21	0.500000	0.315660	0.247020
Co221	Co22	0.500000	0.815660	0.747020
Co231	Co23	0.000000	0.315660	0.747020
Co241	Co24	0.000000	0.815660	0.247020
Co251	Co25	0.500000	0.315660	0.752980
Co261	Co26	0.500000	0.815660	0.252980
Co271	Co27	0.000000	0.315660	0.252980
Co281	Co28	0.000000	0.815660	0.752980
Co291	Co29	0.500000	0.684340	0.247020
Co301	Co30	0.500000	0.184340	0.747020
Co311	Co31	0.000000	0.684340	0.747020
Co321	Co32	0.000000	0.184340	0.247020
Co331	Co33	0.752980	0.500000	0.684340
Co341	Co34	0.752980	0.000000	0.184340
Co351	Co35	0.252980	0.500000	0.184340
Co361	Co36	0.252980	0.000000	0.684340
Co371	Co37	0.247020	0.500000	0.315660
Co381	Co38	0.247020	0.000000	0.815660
Co391	Co39	0.747020	0.500000	0.815660
Co401	Co40	0.747020	0.000000	0.315660
Co411	Co41	0.752980	0.500000	0.315660
Co421	Co42	0.752980	0.000000	0.815660
Co431	Co43	0.252980	0.500000	0.815660
Co441	Co44	0.252980	0.000000	0.315660
Co451	Co45	0.247020	0.500000	0.684340
Co461	Co46	0.247020	0.000000	0.184340
Co471	Co47	0.747020	0.500000	0.184340
Co481	Co48	0.747020	0.000000	0.684340
Co491	Co49	0.252980	0.184340	0.000000
Co501	Co50	0.252980	0.684340	0.500000
Co511	Co51	0.752980	0.184340	0.500000
Co521	Co52	0.752980	0.684340	0.000000
Co531	Co53	0.747020	0.815660	0.000000
Co541	Co54	0.747020	0.315660	0.500000
Co551	Co55	0.247020	0.815660	0.500000
Co561	Co56	0.247020	0.315660	0.000000
Co571	Co57	0.252980	0.815660	0.000000
Co581	Co58	0.252980	0.315660	0.500000
Co591	Co59	0.752980	0.815660	0.500000
Co601	Co60	0.752980	0.315660	0.000000
Co611	Co61	0.747020	0.184340	0.000000
Co621	Co62	0.747020	0.684340	0.500000
Co631	Co63	0.247020	0.184340	0.500000
Co641	Co64	0.247020	0.684340	0.000000
Co651	Co65	0.184340	0.000000	0.747020
Co661	Co66	0.184340	0.500000	0.247020
Co671	Co67	0.684340	0.000000	0.247020
Co681	Co68	0.684340	0.500000	0.747020
Co691	Co69	0.815660	0.000000	0.252980
Co701	Co70	0.815660	0.500000	0.752980
Co711	Co71	0.315660	0.000000	0.752980
Co721	Co72	0.315660	0.500000	0.252980
Co731	Co73	0.815660	0.000000	0.747020
Co741	Co74	0.815660	0.500000	0.247020
Co751	Co75	0.315660	0.000000	0.247020
Co761	Co76	0.315660	0.500000	0.747020
Co771	Co77	0.184340	0.000000	0.252980
Co781	Co78	0.184340	0.500000	0.752980
Co791	Co79	0.684340	0.000000	0.752980
Co801	Co80	0.684340	0.500000	0.252980
Co811	Co81	0.000000	0.252980	0.815660
Co821	Co82	0.000000	0.752980	0.315660
Co831	Co83	0.500000	0.252980	0.315660
Co841	Co84	0.500000	0.752980	0.815660
Co851	Co85	0.000000	0.747020	0.184340
Co861	Co86	0.000000	0.247020	0.684340
Co871	Co87	0.500000	0.747020	0.684340
Co881	Co88	0.500000	0.247020	0.184340
Co891	Co89	0.000000	0.252980	0.184340
Co901	Co90	0.000000	0.752980	0.684340
Co911	Co91	0.500000	0.252980	0.684340
Co921	Co92	0.500000	0.752980	0.184340
Co931	Co93	0.000000	0.747020	0.815660
Co941	Co94	0.000000	0.247020	0.315660
Co951	Co95	0.500000	0.747020	0.315660
Co961	Co96	0.500000	0.247020	0.815660
Cl11	Cl1	0.750000	0.750000	0.500000
Cl21	Cl2	0.250000	0.250000	0.500000
Cl31	Cl3	0.250000	0.750000	0.500000
Cl41	Cl4	0.750000	0.250000	0.500000
Cl51	Cl5	0.500000	0.750000	0.750000
Cl61	Cl6	0.500000	0.250000	0.250000
Cl71	Cl7	0.500000	0.250000	0.750000
Cl81	Cl8	0.500000	0.750000	0.250000
Cl91	Cl9	0.750000	0.500000	0.750000
Cl101	Cl10	0.250000	0.500000	0.250000
Cl111	Cl11	0.750000	0.500000	0.250000
Cl121	Cl12	0.250000	0.500000	0.750000
Cl131	Cl13	0.250000	0.250000	0.000000
Cl141	Cl14	0.750000	0.750000	0.000000
Cl151	Cl15	0.250000	0.750000	0.000000
Cl161	Cl16	0.750000	0.250000	0.000000
Cl171	Cl17	0.250000	0.000000	0.750000
Cl181	Cl18	0.750000	0.000000	0.250000
Cl191	Cl19	0.750000	0.000000	0.750000
Cl201	Cl20	0.250000	0.000000	0.250000
Cl211	Cl21	0.000000	0.250000	0.750000
Cl221	Cl22	0.000000	0.750000	0.250000
Cl231	Cl23	0.000000	0.250000	0.250000
Cl241	Cl24	0.000000	0.750000	0.750000
