data_AQOMEA01_clean_PM
_symmetry_space_group_name_H-M	'P1'
_cell_length_a	37.413900
_cell_length_b	37.413900
_cell_length_c	37.413900
_cell_angle_alpha	90.000000
_cell_angle_beta	90.000000
_cell_angle_gamma	90.000000
_symmetry_Int_Tables_number 1

loop_
_symmetry_equiv_pos_as_xyz
'x,y,z'

loop_
_atom_site_label
_atom_site_type_symbol
_atom_site_fract_x
_atom_site_fract_y
_atom_site_fract_z
N11	N1	0.537360	0.311720	0.292320
N21	N2	0.537520	0.284790	0.316310
N31	N3	0.564760	0.333530	0.297780
C11	C1	0.583130	0.320140	0.326160
C21	C2	0.565800	0.289730	0.337550
H11	H1	0.572700	0.274900	0.357000
C31	C3	0.615400	0.337440	0.340160
C41	C4	0.629620	0.367580	0.323590
H21	H2	0.618600	0.376700	0.302600
N41	N4	0.537360	0.811720	0.792320
N51	N5	0.537520	0.784790	0.816310
N61	N6	0.564760	0.833530	0.797780
C51	C5	0.583130	0.820140	0.826160
C61	C6	0.565800	0.789730	0.837550
H31	H3	0.572700	0.774900	0.857000
C71	C7	0.615400	0.837440	0.840160
C81	C8	0.629620	0.867580	0.823590
H41	H4	0.618600	0.876700	0.802600
N71	N7	0.037360	0.311720	0.792320
N81	N8	0.037520	0.284790	0.816310
N91	N9	0.064760	0.333530	0.797780
C91	C9	0.083130	0.320140	0.826160
C101	C10	0.065800	0.289730	0.837550
H51	H5	0.072700	0.274900	0.857000
C111	C11	0.115400	0.337440	0.840160
C121	C12	0.129620	0.367580	0.823590
H61	H6	0.118600	0.376700	0.802600
N101	N10	0.037360	0.811720	0.292320
N111	N11	0.037520	0.784790	0.316310
N121	N12	0.064760	0.833530	0.297780
C131	C13	0.083130	0.820140	0.326160
C141	C14	0.065800	0.789730	0.337550
H71	H7	0.072700	0.774900	0.357000
C151	C15	0.115400	0.837440	0.340160
C161	C16	0.129620	0.867580	0.323590
H81	H8	0.118600	0.876700	0.302600
N131	N13	0.462640	0.688280	0.292320
N141	N14	0.462480	0.715210	0.316310
N151	N15	0.435240	0.666470	0.297780
C171	C17	0.416870	0.679860	0.326160
C181	C18	0.434200	0.710270	0.337550
H91	H9	0.427300	0.725100	0.357000
C191	C19	0.384600	0.662560	0.340160
C201	C20	0.370380	0.632420	0.323590
H101	H10	0.381400	0.623300	0.302600
N161	N16	0.462640	0.188280	0.792320
N171	N17	0.462480	0.215210	0.816310
N181	N18	0.435240	0.166470	0.797780
C211	C21	0.416870	0.179860	0.826160
C221	C22	0.434200	0.210270	0.837550
H111	H11	0.427300	0.225100	0.857000
C231	C23	0.384600	0.162560	0.840160
C241	C24	0.370380	0.132420	0.823590
H121	H12	0.381400	0.123300	0.802600
N191	N19	0.962640	0.688280	0.792320
N201	N20	0.962480	0.715210	0.816310
N211	N21	0.935240	0.666470	0.797780
C251	C25	0.916870	0.679860	0.826160
C261	C26	0.934200	0.710270	0.837550
H131	H13	0.927300	0.725100	0.857000
C271	C27	0.884600	0.662560	0.840160
C281	C28	0.870380	0.632420	0.823590
H141	H14	0.881400	0.623300	0.802600
N221	N22	0.962640	0.188280	0.292320
N231	N23	0.962480	0.215210	0.316310
N241	N24	0.935240	0.166470	0.297780
C291	C29	0.916870	0.179860	0.326160
C301	C30	0.934200	0.210270	0.337550
H151	H15	0.927300	0.225100	0.357000
C311	C31	0.884600	0.162560	0.340160
C321	C32	0.870380	0.132420	0.323590
H161	H16	0.881400	0.123300	0.302600
N251	N25	0.462640	0.311720	0.707680
N261	N26	0.462480	0.284790	0.683690
N271	N27	0.435240	0.333530	0.702220
C331	C33	0.416870	0.320140	0.673840
C341	C34	0.434200	0.289730	0.662450
H171	H17	0.427300	0.274900	0.643000
C351	C35	0.384600	0.337440	0.659840
C361	C36	0.370380	0.367580	0.676410
H181	H18	0.381400	0.376700	0.697400
N281	N28	0.462640	0.811720	0.207680
N291	N29	0.462480	0.784790	0.183690
N301	N30	0.435240	0.833530	0.202220
C371	C37	0.416870	0.820140	0.173840
C381	C38	0.434200	0.789730	0.162450
H191	H19	0.427300	0.774900	0.143000
C391	C39	0.384600	0.837440	0.159840
C401	C40	0.370380	0.867580	0.176410
H201	H20	0.381400	0.876700	0.197400
N311	N31	0.962640	0.311720	0.207680
N321	N32	0.962480	0.284790	0.183690
N331	N33	0.935240	0.333530	0.202220
C411	C41	0.916870	0.320140	0.173840
C421	C42	0.934200	0.289730	0.162450
H211	H21	0.927300	0.274900	0.143000
C431	C43	0.884600	0.337440	0.159840
C441	C44	0.870380	0.367580	0.176410
H221	H22	0.881400	0.376700	0.197400
N341	N34	0.962640	0.811720	0.707680
N351	N35	0.962480	0.784790	0.683690
N361	N36	0.935240	0.833530	0.702220
C451	C45	0.916870	0.820140	0.673840
C461	C46	0.934200	0.789730	0.662450
H231	H23	0.927300	0.774900	0.643000
C471	C47	0.884600	0.837440	0.659840
C481	C48	0.870380	0.867580	0.676410
H241	H24	0.881400	0.876700	0.697400
N371	N37	0.537360	0.688280	0.707680
N381	N38	0.537520	0.715210	0.683690
N391	N39	0.564760	0.666470	0.702220
C491	C49	0.583130	0.679860	0.673840
C501	C50	0.565800	0.710270	0.662450
H251	H25	0.572700	0.725100	0.643000
C511	C51	0.615400	0.662560	0.659840
C521	C52	0.629620	0.632420	0.676410
H261	H26	0.618600	0.623300	0.697400
N401	N40	0.537360	0.188280	0.207680
N411	N41	0.537520	0.215210	0.183690
N421	N42	0.564760	0.166470	0.202220
C531	C53	0.583130	0.179860	0.173840
C541	C54	0.565800	0.210270	0.162450
H271	H27	0.572700	0.225100	0.143000
C551	C55	0.615400	0.162560	0.159840
C561	C56	0.629620	0.132420	0.176410
H281	H28	0.618600	0.123300	0.197400
N431	N43	0.037360	0.688280	0.207680
N441	N44	0.037520	0.715210	0.183690
N451	N45	0.064760	0.666470	0.202220
C571	C57	0.083130	0.679860	0.173840
C581	C58	0.065800	0.710270	0.162450
H291	H29	0.072700	0.725100	0.143000
C591	C59	0.115400	0.662560	0.159840
C601	C60	0.129620	0.632420	0.176410
H301	H30	0.118600	0.623300	0.197400
N461	N46	0.037360	0.188280	0.707680
N471	N47	0.037520	0.215210	0.683690
N481	N48	0.064760	0.166470	0.702220
C611	C61	0.083130	0.179860	0.673840
C621	C62	0.065800	0.210270	0.662450
H311	H31	0.072700	0.225100	0.643000
C631	C63	0.115400	0.162560	0.659840
C641	C64	0.129620	0.132420	0.676410
H321	H32	0.118600	0.123300	0.697400
N491	N49	0.292320	0.537360	0.311720
N501	N50	0.316310	0.537520	0.284790
N511	N51	0.297780	0.564760	0.333530
C651	C65	0.326160	0.583130	0.320140
C661	C66	0.337550	0.565800	0.289730
H331	H33	0.357000	0.572700	0.274900
C671	C67	0.340160	0.615400	0.337440
C681	C68	0.323590	0.629620	0.367580
H341	H34	0.302600	0.618600	0.376700
N521	N52	0.292320	0.037360	0.811720
N531	N53	0.316310	0.037520	0.784790
N541	N54	0.297780	0.064760	0.833530
C691	C69	0.326160	0.083130	0.820140
C701	C70	0.337550	0.065800	0.789730
H351	H35	0.357000	0.072700	0.774900
C711	C71	0.340160	0.115400	0.837440
C721	C72	0.323590	0.129620	0.867580
H361	H36	0.302600	0.118600	0.876700
N551	N55	0.792320	0.537360	0.811720
N561	N56	0.816310	0.537520	0.784790
N571	N57	0.797780	0.564760	0.833530
C731	C73	0.826160	0.583130	0.820140
C741	C74	0.837550	0.565800	0.789730
H371	H37	0.857000	0.572700	0.774900
C751	C75	0.840160	0.615400	0.837440
C761	C76	0.823590	0.629620	0.867580
H381	H38	0.802600	0.618600	0.876700
N581	N58	0.792320	0.037360	0.311720
N591	N59	0.816310	0.037520	0.284790
N601	N60	0.797780	0.064760	0.333530
C771	C77	0.826160	0.083130	0.320140
C781	C78	0.837550	0.065800	0.289730
H391	H39	0.857000	0.072700	0.274900
C791	C79	0.840160	0.115400	0.337440
C801	C80	0.823590	0.129620	0.367580
H401	H40	0.802600	0.118600	0.376700
N611	N61	0.292320	0.462640	0.688280
N621	N62	0.316310	0.462480	0.715210
N631	N63	0.297780	0.435240	0.666470
C811	C81	0.326160	0.416870	0.679860
C821	C82	0.337550	0.434200	0.710270
H411	H41	0.357000	0.427300	0.725100
C831	C83	0.340160	0.384600	0.662560
C841	C84	0.323590	0.370380	0.632420
H421	H42	0.302600	0.381400	0.623300
N641	N64	0.292320	0.962640	0.188280
N651	N65	0.316310	0.962480	0.215210
N661	N66	0.297780	0.935240	0.166470
C851	C85	0.326160	0.916870	0.179860
C861	C86	0.337550	0.934200	0.210270
H431	H43	0.357000	0.927300	0.225100
C871	C87	0.340160	0.884600	0.162560
C881	C88	0.323590	0.870380	0.132420
H441	H44	0.302600	0.881400	0.123300
N671	N67	0.792320	0.462640	0.188280
N681	N68	0.816310	0.462480	0.215210
N691	N69	0.797780	0.435240	0.166470
C891	C89	0.826160	0.416870	0.179860
C901	C90	0.837550	0.434200	0.210270
H451	H45	0.857000	0.427300	0.225100
C911	C91	0.840160	0.384600	0.162560
C921	C92	0.823590	0.370380	0.132420
H461	H46	0.802600	0.381400	0.123300
N701	N70	0.792320	0.962640	0.688280
N711	N71	0.816310	0.962480	0.715210
N721	N72	0.797780	0.935240	0.666470
C931	C93	0.826160	0.916870	0.679860
C941	C94	0.837550	0.934200	0.710270
H471	H47	0.857000	0.927300	0.725100
C951	C95	0.840160	0.884600	0.662560
C961	C96	0.823590	0.870380	0.632420
H481	H48	0.802600	0.881400	0.623300
N731	N73	0.707680	0.462640	0.311720
N741	N74	0.683690	0.462480	0.284790
N751	N75	0.702220	0.435240	0.333530
C971	C97	0.673840	0.416870	0.320140
C981	C98	0.662450	0.434200	0.289730
H491	H49	0.643000	0.427300	0.274900
C991	C99	0.659840	0.384600	0.337440
C1001	C100	0.676410	0.370380	0.367580
H501	H50	0.697400	0.381400	0.376700
N761	N76	0.707680	0.962640	0.811720
N771	N77	0.683690	0.962480	0.784790
N781	N78	0.702220	0.935240	0.833530
C1011	C101	0.673840	0.916870	0.820140
C1021	C102	0.662450	0.934200	0.789730
H511	H51	0.643000	0.927300	0.774900
C1031	C103	0.659840	0.884600	0.837440
C1041	C104	0.676410	0.870380	0.867580
H521	H52	0.697400	0.881400	0.876700
N791	N79	0.207680	0.462640	0.811720
N801	N80	0.183690	0.462480	0.784790
N811	N81	0.202220	0.435240	0.833530
C1051	C105	0.173840	0.416870	0.820140
C1061	C106	0.162450	0.434200	0.789730
H531	H53	0.143000	0.427300	0.774900
C1071	C107	0.159840	0.384600	0.837440
C1081	C108	0.176410	0.370380	0.867580
H541	H54	0.197400	0.381400	0.876700
N821	N82	0.207680	0.962640	0.311720
N831	N83	0.183690	0.962480	0.284790
N841	N84	0.202220	0.935240	0.333530
C1091	C109	0.173840	0.916870	0.320140
C1101	C110	0.162450	0.934200	0.289730
H551	H55	0.143000	0.927300	0.274900
C1111	C111	0.159840	0.884600	0.337440
C1121	C112	0.176410	0.870380	0.367580
H561	H56	0.197400	0.881400	0.376700
N851	N85	0.707680	0.537360	0.688280
N861	N86	0.683690	0.537520	0.715210
N871	N87	0.702220	0.564760	0.666470
C1131	C113	0.673840	0.583130	0.679860
C1141	C114	0.662450	0.565800	0.710270
H571	H57	0.643000	0.572700	0.725100
C1151	C115	0.659840	0.615400	0.662560
C1161	C116	0.676410	0.629620	0.632420
H581	H58	0.697400	0.618600	0.623300
N881	N88	0.707680	0.037360	0.188280
N891	N89	0.683690	0.037520	0.215210
N901	N90	0.702220	0.064760	0.166470
C1171	C117	0.673840	0.083130	0.179860
C1181	C118	0.662450	0.065800	0.210270
H591	H59	0.643000	0.072700	0.225100
C1191	C119	0.659840	0.115400	0.162560
C1201	C120	0.676410	0.129620	0.132420
H601	H60	0.697400	0.118600	0.123300
N911	N91	0.207680	0.537360	0.188280
N921	N92	0.183690	0.537520	0.215210
N931	N93	0.202220	0.564760	0.166470
C1211	C121	0.173840	0.583130	0.179860
C1221	C122	0.162450	0.565800	0.210270
H611	H61	0.143000	0.572700	0.225100
C1231	C123	0.159840	0.615400	0.162560
C1241	C124	0.176410	0.629620	0.132420
H621	H62	0.197400	0.618600	0.123300
N941	N94	0.207680	0.037360	0.688280
N951	N95	0.183690	0.037520	0.715210
N961	N96	0.202220	0.064760	0.666470
C1251	C125	0.173840	0.083130	0.679860
C1261	C126	0.162450	0.065800	0.710270
H631	H63	0.143000	0.072700	0.725100
C1271	C127	0.159840	0.115400	0.662560
C1281	C128	0.176410	0.129620	0.632420
H641	H64	0.197400	0.118600	0.623300
N971	N97	0.311720	0.292320	0.537360
N981	N98	0.284790	0.316310	0.537520
N991	N99	0.333530	0.297780	0.564760
C1291	C129	0.320140	0.326160	0.583130
C1301	C130	0.289730	0.337550	0.565800
H651	H65	0.274900	0.357000	0.572700
C1311	C131	0.337440	0.340160	0.615400
C1321	C132	0.367580	0.323590	0.629620
H661	H66	0.376700	0.302600	0.618600
N1001	N100	0.311720	0.792320	0.037360
N1011	N101	0.284790	0.816310	0.037520
N1021	N102	0.333530	0.797780	0.064760
C1331	C133	0.320140	0.826160	0.083130
C1341	C134	0.289730	0.837550	0.065800
H671	H67	0.274900	0.857000	0.072700
C1351	C135	0.337440	0.840160	0.115400
C1361	C136	0.367580	0.823590	0.129620
H681	H68	0.376700	0.802600	0.118600
N1031	N103	0.811720	0.292320	0.037360
N1041	N104	0.784790	0.316310	0.037520
N1051	N105	0.833530	0.297780	0.064760
C1371	C137	0.820140	0.326160	0.083130
C1381	C138	0.789730	0.337550	0.065800
H691	H69	0.774900	0.357000	0.072700
C1391	C139	0.837440	0.340160	0.115400
C1401	C140	0.867580	0.323590	0.129620
H701	H70	0.876700	0.302600	0.118600
N1061	N106	0.811720	0.792320	0.537360
N1071	N107	0.784790	0.816310	0.537520
N1081	N108	0.833530	0.797780	0.564760
C1411	C141	0.820140	0.826160	0.583130
C1421	C142	0.789730	0.837550	0.565800
H711	H71	0.774900	0.857000	0.572700
C1431	C143	0.837440	0.840160	0.615400
C1441	C144	0.867580	0.823590	0.629620
H721	H72	0.876700	0.802600	0.618600
N1091	N109	0.688280	0.292320	0.462640
N1101	N110	0.715210	0.316310	0.462480
N1111	N111	0.666470	0.297780	0.435240
C1451	C145	0.679860	0.326160	0.416870
C1461	C146	0.710270	0.337550	0.434200
H731	H73	0.725100	0.357000	0.427300
C1471	C147	0.662560	0.340160	0.384600
C1481	C148	0.632420	0.323590	0.370380
H741	H74	0.623300	0.302600	0.381400
N1121	N112	0.688280	0.792320	0.962640
N1131	N113	0.715210	0.816310	0.962480
N1141	N114	0.666470	0.797780	0.935240
C1491	C149	0.679860	0.826160	0.916870
C1501	C150	0.710270	0.837550	0.934200
H751	H75	0.725100	0.857000	0.927300
C1511	C151	0.662560	0.840160	0.884600
C1521	C152	0.632420	0.823590	0.870380
H761	H76	0.623300	0.802600	0.881400
N1151	N115	0.188280	0.292320	0.962640
N1161	N116	0.215210	0.316310	0.962480
N1171	N117	0.166470	0.297780	0.935240
C1531	C153	0.179860	0.326160	0.916870
C1541	C154	0.210270	0.337550	0.934200
H771	H77	0.225100	0.357000	0.927300
C1551	C155	0.162560	0.340160	0.884600
C1561	C156	0.132420	0.323590	0.870380
H781	H78	0.123300	0.302600	0.881400
N1181	N118	0.188280	0.792320	0.462640
N1191	N119	0.215210	0.816310	0.462480
N1201	N120	0.166470	0.797780	0.435240
C1571	C157	0.179860	0.826160	0.416870
C1581	C158	0.210270	0.837550	0.434200
H791	H79	0.225100	0.857000	0.427300
C1591	C159	0.162560	0.840160	0.384600
C1601	C160	0.132420	0.823590	0.370380
H801	H80	0.123300	0.802600	0.381400
N1211	N121	0.311720	0.707680	0.462640
N1221	N122	0.284790	0.683690	0.462480
N1231	N123	0.333530	0.702220	0.435240
C1611	C161	0.320140	0.673840	0.416870
C1621	C162	0.289730	0.662450	0.434200
H811	H81	0.274900	0.643000	0.427300
C1631	C163	0.337440	0.659840	0.384600
C1641	C164	0.367580	0.676410	0.370380
H821	H82	0.376700	0.697400	0.381400
N1241	N124	0.311720	0.207680	0.962640
N1251	N125	0.284790	0.183690	0.962480
N1261	N126	0.333530	0.202220	0.935240
C1651	C165	0.320140	0.173840	0.916870
C1661	C166	0.289730	0.162450	0.934200
H831	H83	0.274900	0.143000	0.927300
C1671	C167	0.337440	0.159840	0.884600
C1681	C168	0.367580	0.176410	0.870380
H841	H84	0.376700	0.197400	0.881400
N1271	N127	0.811720	0.707680	0.962640
N1281	N128	0.784790	0.683690	0.962480
N1291	N129	0.833530	0.702220	0.935240
C1691	C169	0.820140	0.673840	0.916870
C1701	C170	0.789730	0.662450	0.934200
H851	H85	0.774900	0.643000	0.927300
C1711	C171	0.837440	0.659840	0.884600
C1721	C172	0.867580	0.676410	0.870380
H861	H86	0.876700	0.697400	0.881400
N1301	N130	0.811720	0.207680	0.462640
N1311	N131	0.784790	0.183690	0.462480
N1321	N132	0.833530	0.202220	0.435240
C1731	C173	0.820140	0.173840	0.416870
C1741	C174	0.789730	0.162450	0.434200
H871	H87	0.774900	0.143000	0.427300
C1751	C175	0.837440	0.159840	0.384600
C1761	C176	0.867580	0.176410	0.370380
H881	H88	0.876700	0.197400	0.381400
N1331	N133	0.688280	0.707680	0.537360
N1341	N134	0.715210	0.683690	0.537520
N1351	N135	0.666470	0.702220	0.564760
C1771	C177	0.679860	0.673840	0.583130
C1781	C178	0.710270	0.662450	0.565800
H891	H89	0.725100	0.643000	0.572700
C1791	C179	0.662560	0.659840	0.615400
C1801	C180	0.632420	0.676410	0.629620
H901	H90	0.623300	0.697400	0.618600
N1361	N136	0.688280	0.207680	0.037360
N1371	N137	0.715210	0.183690	0.037520
N1381	N138	0.666470	0.202220	0.064760
C1811	C181	0.679860	0.173840	0.083130
C1821	C182	0.710270	0.162450	0.065800
H911	H91	0.725100	0.143000	0.072700
C1831	C183	0.662560	0.159840	0.115400
C1841	C184	0.632420	0.176410	0.129620
H921	H92	0.623300	0.197400	0.118600
N1391	N139	0.188280	0.707680	0.037360
N1401	N140	0.215210	0.683690	0.037520
N1411	N141	0.166470	0.702220	0.064760
C1851	C185	0.179860	0.673840	0.083130
C1861	C186	0.210270	0.662450	0.065800
H931	H93	0.225100	0.643000	0.072700
C1871	C187	0.162560	0.659840	0.115400
C1881	C188	0.132420	0.676410	0.129620
H941	H94	0.123300	0.697400	0.118600
N1421	N142	0.188280	0.207680	0.537360
N1431	N143	0.215210	0.183690	0.537520
N1441	N144	0.166470	0.202220	0.564760
C1891	C189	0.179860	0.173840	0.583130
C1901	C190	0.210270	0.162450	0.565800
H951	H95	0.225100	0.143000	0.572700
C1911	C191	0.162560	0.159840	0.615400
C1921	C192	0.132420	0.176410	0.629620
H961	H96	0.123300	0.197400	0.618600
N1451	N145	0.811720	0.037360	0.207680
N1461	N146	0.784790	0.037520	0.183690
N1471	N147	0.833530	0.064760	0.202220
C1931	C193	0.820140	0.083130	0.173840
C1941	C194	0.789730	0.065800	0.162450
H971	H97	0.774900	0.072700	0.143000
C1951	C195	0.837440	0.115400	0.159840
C1961	C196	0.867580	0.129620	0.176410
H981	H98	0.876700	0.118600	0.197400
N1481	N148	0.811720	0.537360	0.707680
N1491	N149	0.784790	0.537520	0.683690
N1501	N150	0.833530	0.564760	0.702220
C1971	C197	0.820140	0.583130	0.673840
C1981	C198	0.789730	0.565800	0.662450
H991	H99	0.774900	0.572700	0.643000
C1991	C199	0.837440	0.615400	0.659840
C2001	C200	0.867580	0.629620	0.676410
H1001	H100	0.876700	0.618600	0.697400
N1511	N151	0.311720	0.037360	0.707680
N1521	N152	0.284790	0.037520	0.683690
N1531	N153	0.333530	0.064760	0.702220
C2011	C201	0.320140	0.083130	0.673840
C2021	C202	0.289730	0.065800	0.662450
H1011	H101	0.274900	0.072700	0.643000
C2031	C203	0.337440	0.115400	0.659840
C2041	C204	0.367580	0.129620	0.676410
H1021	H102	0.376700	0.118600	0.697400
N1541	N154	0.311720	0.537360	0.207680
N1551	N155	0.284790	0.537520	0.183690
N1561	N156	0.333530	0.564760	0.202220
C2051	C205	0.320140	0.583130	0.173840
C2061	C206	0.289730	0.565800	0.162450
H1031	H103	0.274900	0.572700	0.143000
C2071	C207	0.337440	0.615400	0.159840
C2081	C208	0.367580	0.629620	0.176410
H1041	H104	0.376700	0.618600	0.197400
N1571	N157	0.188280	0.962640	0.207680
N1581	N158	0.215210	0.962480	0.183690
N1591	N159	0.166470	0.935240	0.202220
C2091	C209	0.179860	0.916870	0.173840
C2101	C210	0.210270	0.934200	0.162450
H1051	H105	0.225100	0.927300	0.143000
C2111	C211	0.162560	0.884600	0.159840
C2121	C212	0.132420	0.870380	0.176410
H1061	H106	0.123300	0.881400	0.197400
N1601	N160	0.188280	0.462640	0.707680
N1611	N161	0.215210	0.462480	0.683690
N1621	N162	0.166470	0.435240	0.702220
C2131	C213	0.179860	0.416870	0.673840
C2141	C214	0.210270	0.434200	0.662450
H1071	H107	0.225100	0.427300	0.643000
C2151	C215	0.162560	0.384600	0.659840
C2161	C216	0.132420	0.370380	0.676410
H1081	H108	0.123300	0.381400	0.697400
N1631	N163	0.688280	0.962640	0.707680
N1641	N164	0.715210	0.962480	0.683690
N1651	N165	0.666470	0.935240	0.702220
C2171	C217	0.679860	0.916870	0.673840
C2181	C218	0.710270	0.934200	0.662450
H1091	H109	0.725100	0.927300	0.643000
C2191	C219	0.662560	0.884600	0.659840
C2201	C220	0.632420	0.870380	0.676410
H1101	H110	0.623300	0.881400	0.697400
N1661	N166	0.688280	0.462640	0.207680
N1671	N167	0.715210	0.462480	0.183690
N1681	N168	0.666470	0.435240	0.202220
C2211	C221	0.679860	0.416870	0.173840
C2221	C222	0.710270	0.434200	0.162450
H1111	H111	0.725100	0.427300	0.143000
C2231	C223	0.662560	0.384600	0.159840
C2241	C224	0.632420	0.370380	0.176410
H1121	H112	0.623300	0.381400	0.197400
N1691	N169	0.811720	0.962640	0.792320
N1701	N170	0.784790	0.962480	0.816310
N1711	N171	0.833530	0.935240	0.797780
C2251	C225	0.820140	0.916870	0.826160
C2261	C226	0.789730	0.934200	0.837550
H1131	H113	0.774900	0.927300	0.857000
C2271	C227	0.837440	0.884600	0.840160
C2281	C228	0.867580	0.870380	0.823590
H1141	H114	0.876700	0.881400	0.802600
N1721	N172	0.811720	0.462640	0.292320
N1731	N173	0.784790	0.462480	0.316310
N1741	N174	0.833530	0.435240	0.297780
C2291	C229	0.820140	0.416870	0.326160
C2301	C230	0.789730	0.434200	0.337550
H1151	H115	0.774900	0.427300	0.357000
C2311	C231	0.837440	0.384600	0.340160
C2321	C232	0.867580	0.370380	0.323590
H1161	H116	0.876700	0.381400	0.302600
N1751	N175	0.311720	0.962640	0.292320
N1761	N176	0.284790	0.962480	0.316310
N1771	N177	0.333530	0.935240	0.297780
C2331	C233	0.320140	0.916870	0.326160
C2341	C234	0.289730	0.934200	0.337550
H1171	H117	0.274900	0.927300	0.357000
C2351	C235	0.337440	0.884600	0.340160
C2361	C236	0.367580	0.870380	0.323590
H1181	H118	0.376700	0.881400	0.302600
N1781	N178	0.311720	0.462640	0.792320
N1791	N179	0.284790	0.462480	0.816310
N1801	N180	0.333530	0.435240	0.797780
C2371	C237	0.320140	0.416870	0.826160
C2381	C238	0.289730	0.434200	0.837550
H1191	H119	0.274900	0.427300	0.857000
C2391	C239	0.337440	0.384600	0.840160
C2401	C240	0.367580	0.370380	0.823590
H1201	H120	0.376700	0.381400	0.802600
N1811	N181	0.188280	0.037360	0.792320
N1821	N182	0.215210	0.037520	0.816310
N1831	N183	0.166470	0.064760	0.797780
C2411	C241	0.179860	0.083130	0.826160
C2421	C242	0.210270	0.065800	0.837550
H1211	H121	0.225100	0.072700	0.857000
C2431	C243	0.162560	0.115400	0.840160
C2441	C244	0.132420	0.129620	0.823590
H1221	H122	0.123300	0.118600	0.802600
N1841	N184	0.188280	0.537360	0.292320
N1851	N185	0.215210	0.537520	0.316310
N1861	N186	0.166470	0.564760	0.297780
C2451	C245	0.179860	0.583130	0.326160
C2461	C246	0.210270	0.565800	0.337550
H1231	H123	0.225100	0.572700	0.357000
C2471	C247	0.162560	0.615400	0.340160
C2481	C248	0.132420	0.629620	0.323590
H1241	H124	0.123300	0.618600	0.302600
N1871	N187	0.688280	0.037360	0.292320
N1881	N188	0.715210	0.037520	0.316310
N1891	N189	0.666470	0.064760	0.297780
C2491	C249	0.679860	0.083130	0.326160
C2501	C250	0.710270	0.065800	0.337550
H1251	H125	0.725100	0.072700	0.357000
C2511	C251	0.662560	0.115400	0.340160
C2521	C252	0.632420	0.129620	0.323590
H1261	H126	0.623300	0.118600	0.302600
N1901	N190	0.688280	0.537360	0.792320
N1911	N191	0.715210	0.537520	0.816310
N1921	N192	0.666470	0.564760	0.797780
C2531	C253	0.679860	0.583130	0.826160
C2541	C254	0.710270	0.565800	0.837550
H1271	H127	0.725100	0.572700	0.857000
C2551	C255	0.662560	0.615400	0.840160
C2561	C256	0.632420	0.629620	0.823590
H1281	H128	0.623300	0.618600	0.802600
N1931	N193	0.037360	0.792320	0.188280
N1941	N194	0.037520	0.816310	0.215210
N1951	N195	0.064760	0.797780	0.166470
C2571	C257	0.083130	0.826160	0.179860
C2581	C258	0.065800	0.837550	0.210270
H1291	H129	0.072700	0.857000	0.225100
C2591	C259	0.115400	0.840160	0.162560
C2601	C260	0.129620	0.823590	0.132420
H1301	H130	0.118600	0.802600	0.123300
N1961	N196	0.037360	0.292320	0.688280
N1971	N197	0.037520	0.316310	0.715210
N1981	N198	0.064760	0.297780	0.666470
C2611	C261	0.083130	0.326160	0.679860
C2621	C262	0.065800	0.337550	0.710270
H1311	H131	0.072700	0.357000	0.725100
C2631	C263	0.115400	0.340160	0.662560
C2641	C264	0.129620	0.323590	0.632420
H1321	H132	0.118600	0.302600	0.623300
N1991	N199	0.537360	0.792320	0.688280
N2001	N200	0.537520	0.816310	0.715210
N2011	N201	0.564760	0.797780	0.666470
C2651	C265	0.583130	0.826160	0.679860
C2661	C266	0.565800	0.837550	0.710270
H1331	H133	0.572700	0.857000	0.725100
C2671	C267	0.615400	0.840160	0.662560
C2681	C268	0.629620	0.823590	0.632420
H1341	H134	0.618600	0.802600	0.623300
N2021	N202	0.537360	0.292320	0.188280
N2031	N203	0.537520	0.316310	0.215210
N2041	N204	0.564760	0.297780	0.166470
C2691	C269	0.583130	0.326160	0.179860
C2701	C270	0.565800	0.337550	0.210270
H1351	H135	0.572700	0.357000	0.225100
C2711	C271	0.615400	0.340160	0.162560
C2721	C272	0.629620	0.323590	0.132420
H1361	H136	0.618600	0.302600	0.123300
N2051	N205	0.962640	0.792320	0.811720
N2061	N206	0.962480	0.816310	0.784790
N2071	N207	0.935240	0.797780	0.833530
C2731	C273	0.916870	0.826160	0.820140
C2741	C274	0.934200	0.837550	0.789730
H1371	H137	0.927300	0.857000	0.774900
C2751	C275	0.884600	0.840160	0.837440
C2761	C276	0.870380	0.823590	0.867580
H1381	H138	0.881400	0.802600	0.876700
N2081	N208	0.962640	0.292320	0.311720
N2091	N209	0.962480	0.316310	0.284790
N2101	N210	0.935240	0.297780	0.333530
C2771	C277	0.916870	0.326160	0.320140
C2781	C278	0.934200	0.337550	0.289730
H1391	H139	0.927300	0.357000	0.274900
C2791	C279	0.884600	0.340160	0.337440
C2801	C280	0.870380	0.323590	0.367580
H1401	H140	0.881400	0.302600	0.376700
N2111	N211	0.462640	0.792320	0.311720
N2121	N212	0.462480	0.816310	0.284790
N2131	N213	0.435240	0.797780	0.333530
C2811	C281	0.416870	0.826160	0.320140
C2821	C282	0.434200	0.837550	0.289730
H1411	H141	0.427300	0.857000	0.274900
C2831	C283	0.384600	0.840160	0.337440
C2841	C284	0.370380	0.823590	0.367580
H1421	H142	0.381400	0.802600	0.376700
N2141	N214	0.462640	0.292320	0.811720
N2151	N215	0.462480	0.316310	0.784790
N2161	N216	0.435240	0.297780	0.833530
C2851	C285	0.416870	0.326160	0.820140
C2861	C286	0.434200	0.337550	0.789730
H1431	H143	0.427300	0.357000	0.774900
C2871	C287	0.384600	0.340160	0.837440
C2881	C288	0.370380	0.323590	0.867580
H1441	H144	0.381400	0.302600	0.876700
N2171	N217	0.962640	0.207680	0.188280
N2181	N218	0.962480	0.183690	0.215210
N2191	N219	0.935240	0.202220	0.166470
C2891	C289	0.916870	0.173840	0.179860
C2901	C290	0.934200	0.162450	0.210270
H1451	H145	0.927300	0.143000	0.225100
C2911	C291	0.884600	0.159840	0.162560
C2921	C292	0.870380	0.176410	0.132420
H1461	H146	0.881400	0.197400	0.123300
N2201	N220	0.962640	0.707680	0.688280
N2211	N221	0.962480	0.683690	0.715210
N2221	N222	0.935240	0.702220	0.666470
C2931	C293	0.916870	0.673840	0.679860
C2941	C294	0.934200	0.662450	0.710270
H1471	H147	0.927300	0.643000	0.725100
C2951	C295	0.884600	0.659840	0.662560
C2961	C296	0.870380	0.676410	0.632420
H1481	H148	0.881400	0.697400	0.623300
N2231	N223	0.462640	0.207680	0.688280
N2241	N224	0.462480	0.183690	0.715210
N2251	N225	0.435240	0.202220	0.666470
C2971	C297	0.416870	0.173840	0.679860
C2981	C298	0.434200	0.162450	0.710270
H1491	H149	0.427300	0.143000	0.725100
C2991	C299	0.384600	0.159840	0.662560
C3001	C300	0.370380	0.176410	0.632420
H1501	H150	0.381400	0.197400	0.623300
N2261	N226	0.462640	0.707680	0.188280
N2271	N227	0.462480	0.683690	0.215210
N2281	N228	0.435240	0.702220	0.166470
C3011	C301	0.416870	0.673840	0.179860
C3021	C302	0.434200	0.662450	0.210270
H1511	H151	0.427300	0.643000	0.225100
C3031	C303	0.384600	0.659840	0.162560
C3041	C304	0.370380	0.676410	0.132420
H1521	H152	0.381400	0.697400	0.123300
N2291	N229	0.037360	0.207680	0.811720
N2301	N230	0.037520	0.183690	0.784790
N2311	N231	0.064760	0.202220	0.833530
C3051	C305	0.083130	0.173840	0.820140
C3061	C306	0.065800	0.162450	0.789730
H1531	H153	0.072700	0.143000	0.774900
C3071	C307	0.115400	0.159840	0.837440
C3081	C308	0.129620	0.176410	0.867580
H1541	H154	0.118600	0.197400	0.876700
N2321	N232	0.037360	0.707680	0.311720
N2331	N233	0.037520	0.683690	0.284790
N2341	N234	0.064760	0.702220	0.333530
C3091	C309	0.083130	0.673840	0.320140
C3101	C310	0.065800	0.662450	0.289730
H1551	H155	0.072700	0.643000	0.274900
C3111	C311	0.115400	0.659840	0.337440
C3121	C312	0.129620	0.676410	0.367580
H1561	H156	0.118600	0.697400	0.376700
N2351	N235	0.537360	0.207680	0.311720
N2361	N236	0.537520	0.183690	0.284790
N2371	N237	0.564760	0.202220	0.333530
C3131	C313	0.583130	0.173840	0.320140
C3141	C314	0.565800	0.162450	0.289730
H1571	H157	0.572700	0.143000	0.274900
C3151	C315	0.615400	0.159840	0.337440
C3161	C316	0.629620	0.176410	0.367580
H1581	H158	0.618600	0.197400	0.376700
N2381	N238	0.537360	0.707680	0.811720
N2391	N239	0.537520	0.683690	0.784790
N2401	N240	0.564760	0.702220	0.833530
C3171	C317	0.583130	0.673840	0.820140
C3181	C318	0.565800	0.662450	0.789730
H1591	H159	0.572700	0.643000	0.774900
C3191	C319	0.615400	0.659840	0.837440
C3201	C320	0.629620	0.676410	0.867580
H1601	H160	0.618600	0.697400	0.876700
N2411	N241	0.792320	0.811720	0.962640
N2421	N242	0.816310	0.784790	0.962480
N2431	N243	0.797780	0.833530	0.935240
C3211	C321	0.826160	0.820140	0.916870
C3221	C322	0.837550	0.789730	0.934200
H1611	H161	0.857000	0.774900	0.927300
C3231	C323	0.840160	0.837440	0.884600
C3241	C324	0.823590	0.867580	0.870380
H1621	H162	0.802600	0.876700	0.881400
N2441	N244	0.792320	0.311720	0.462640
N2451	N245	0.816310	0.284790	0.462480
N2461	N246	0.797780	0.333530	0.435240
C3251	C325	0.826160	0.320140	0.416870
C3261	C326	0.837550	0.289730	0.434200
H1631	H163	0.857000	0.274900	0.427300
C3271	C327	0.840160	0.337440	0.384600
C3281	C328	0.823590	0.367580	0.370380
H1641	H164	0.802600	0.376700	0.381400
N2471	N247	0.292320	0.811720	0.462640
N2481	N248	0.316310	0.784790	0.462480
N2491	N249	0.297780	0.833530	0.435240
C3291	C329	0.326160	0.820140	0.416870
C3301	C330	0.337550	0.789730	0.434200
H1651	H165	0.357000	0.774900	0.427300
C3311	C331	0.340160	0.837440	0.384600
C3321	C332	0.323590	0.867580	0.370380
H1661	H166	0.302600	0.876700	0.381400
N2501	N250	0.292320	0.311720	0.962640
N2511	N251	0.316310	0.284790	0.962480
N2521	N252	0.297780	0.333530	0.935240
C3331	C333	0.326160	0.320140	0.916870
C3341	C334	0.337550	0.289730	0.934200
H1671	H167	0.357000	0.274900	0.927300
C3351	C335	0.340160	0.337440	0.884600
C3361	C336	0.323590	0.367580	0.870380
H1681	H168	0.302600	0.376700	0.881400
N2531	N253	0.792320	0.188280	0.037360
N2541	N254	0.816310	0.215210	0.037520
N2551	N255	0.797780	0.166470	0.064760
C3371	C337	0.826160	0.179860	0.083130
C3381	C338	0.837550	0.210270	0.065800
H1691	H169	0.857000	0.225100	0.072700
C3391	C339	0.840160	0.162560	0.115400
C3401	C340	0.823590	0.132420	0.129620
H1701	H170	0.802600	0.123300	0.118600
N2561	N256	0.792320	0.688280	0.537360
N2571	N257	0.816310	0.715210	0.537520
N2581	N258	0.797780	0.666470	0.564760
C3411	C341	0.826160	0.679860	0.583130
C3421	C342	0.837550	0.710270	0.565800
H1711	H171	0.857000	0.725100	0.572700
C3431	C343	0.840160	0.662560	0.615400
C3441	C344	0.823590	0.632420	0.629620
H1721	H172	0.802600	0.623300	0.618600
N2591	N259	0.292320	0.188280	0.537360
N2601	N260	0.316310	0.215210	0.537520
N2611	N261	0.297780	0.166470	0.564760
C3451	C345	0.326160	0.179860	0.583130
C3461	C346	0.337550	0.210270	0.565800
H1731	H173	0.357000	0.225100	0.572700
C3471	C347	0.340160	0.162560	0.615400
C3481	C348	0.323590	0.132420	0.629620
H1741	H174	0.302600	0.123300	0.618600
N2621	N262	0.292320	0.688280	0.037360
N2631	N263	0.316310	0.715210	0.037520
N2641	N264	0.297780	0.666470	0.064760
C3491	C349	0.326160	0.679860	0.083130
C3501	C350	0.337550	0.710270	0.065800
H1751	H175	0.357000	0.725100	0.072700
C3511	C351	0.340160	0.662560	0.115400
C3521	C352	0.323590	0.632420	0.129620
H1761	H176	0.302600	0.623300	0.118600
N2651	N265	0.207680	0.811720	0.037360
N2661	N266	0.183690	0.784790	0.037520
N2671	N267	0.202220	0.833530	0.064760
C3531	C353	0.173840	0.820140	0.083130
C3541	C354	0.162450	0.789730	0.065800
H1771	H177	0.143000	0.774900	0.072700
C3551	C355	0.159840	0.837440	0.115400
C3561	C356	0.176410	0.867580	0.129620
H1781	H178	0.197400	0.876700	0.118600
N2681	N268	0.207680	0.311720	0.537360
N2691	N269	0.183690	0.284790	0.537520
N2701	N270	0.202220	0.333530	0.564760
C3571	C357	0.173840	0.320140	0.583130
C3581	C358	0.162450	0.289730	0.565800
H1791	H179	0.143000	0.274900	0.572700
C3591	C359	0.159840	0.337440	0.615400
C3601	C360	0.176410	0.367580	0.629620
H1801	H180	0.197400	0.376700	0.618600
N2711	N271	0.707680	0.811720	0.537360
N2721	N272	0.683690	0.784790	0.537520
N2731	N273	0.702220	0.833530	0.564760
C3611	C361	0.673840	0.820140	0.583130
C3621	C362	0.662450	0.789730	0.565800
H1811	H181	0.643000	0.774900	0.572700
C3631	C363	0.659840	0.837440	0.615400
C3641	C364	0.676410	0.867580	0.629620
H1821	H182	0.697400	0.876700	0.618600
N2741	N274	0.707680	0.311720	0.037360
N2751	N275	0.683690	0.284790	0.037520
N2761	N276	0.702220	0.333530	0.064760
C3651	C365	0.673840	0.320140	0.083130
C3661	C366	0.662450	0.289730	0.065800
H1831	H183	0.643000	0.274900	0.072700
C3671	C367	0.659840	0.337440	0.115400
C3681	C368	0.676410	0.367580	0.129620
H1841	H184	0.697400	0.376700	0.118600
N2771	N277	0.207680	0.188280	0.962640
N2781	N278	0.183690	0.215210	0.962480
N2791	N279	0.202220	0.166470	0.935240
C3691	C369	0.173840	0.179860	0.916870
C3701	C370	0.162450	0.210270	0.934200
H1851	H185	0.143000	0.225100	0.927300
C3711	C371	0.159840	0.162560	0.884600
C3721	C372	0.176410	0.132420	0.870380
H1861	H186	0.197400	0.123300	0.881400
N2801	N280	0.207680	0.688280	0.462640
N2811	N281	0.183690	0.715210	0.462480
N2821	N282	0.202220	0.666470	0.435240
C3731	C373	0.173840	0.679860	0.416870
C3741	C374	0.162450	0.710270	0.434200
H1871	H187	0.143000	0.725100	0.427300
C3751	C375	0.159840	0.662560	0.384600
C3761	C376	0.176410	0.632420	0.370380
H1881	H188	0.197400	0.623300	0.381400
N2831	N283	0.707680	0.188280	0.462640
N2841	N284	0.683690	0.215210	0.462480
N2851	N285	0.702220	0.166470	0.435240
C3771	C377	0.673840	0.179860	0.416870
C3781	C378	0.662450	0.210270	0.434200
H1891	H189	0.643000	0.225100	0.427300
C3791	C379	0.659840	0.162560	0.384600
C3801	C380	0.676410	0.132420	0.370380
H1901	H190	0.697400	0.123300	0.381400
N2861	N286	0.707680	0.688280	0.962640
N2871	N287	0.683690	0.715210	0.962480
N2881	N288	0.702220	0.666470	0.935240
C3811	C381	0.673840	0.679860	0.916870
C3821	C382	0.662450	0.710270	0.934200
H1911	H191	0.643000	0.725100	0.927300
C3831	C383	0.659840	0.662560	0.884600
C3841	C384	0.676410	0.632420	0.870380
H1921	H192	0.697400	0.623300	0.881400
N2891	N289	0.462640	0.688280	0.707680
N2901	N290	0.462480	0.715210	0.683690
N2911	N291	0.435240	0.666470	0.702220
C3851	C385	0.416870	0.679860	0.673840
C3861	C386	0.434200	0.710270	0.662450
H1931	H193	0.427300	0.725100	0.643000
C3871	C387	0.384600	0.662560	0.659840
C3881	C388	0.370380	0.632420	0.676410
H1941	H194	0.381400	0.623300	0.697400
N2921	N292	0.462640	0.188280	0.207680
N2931	N293	0.462480	0.215210	0.183690
N2941	N294	0.435240	0.166470	0.202220
C3891	C389	0.416870	0.179860	0.173840
C3901	C390	0.434200	0.210270	0.162450
H1951	H195	0.427300	0.225100	0.143000
C3911	C391	0.384600	0.162560	0.159840
C3921	C392	0.370380	0.132420	0.176410
H1961	H196	0.381400	0.123300	0.197400
N2951	N295	0.962640	0.688280	0.207680
N2961	N296	0.962480	0.715210	0.183690
N2971	N297	0.935240	0.666470	0.202220
C3931	C393	0.916870	0.679860	0.173840
C3941	C394	0.934200	0.710270	0.162450
H1971	H197	0.927300	0.725100	0.143000
C3951	C395	0.884600	0.662560	0.159840
C3961	C396	0.870380	0.632420	0.176410
H1981	H198	0.881400	0.623300	0.197400
N2981	N298	0.962640	0.188280	0.707680
N2991	N299	0.962480	0.215210	0.683690
N3001	N300	0.935240	0.166470	0.702220
C3971	C397	0.916870	0.179860	0.673840
C3981	C398	0.934200	0.210270	0.662450
H1991	H199	0.927300	0.225100	0.643000
C3991	C399	0.884600	0.162560	0.659840
C4001	C400	0.870380	0.132420	0.676410
H2001	H200	0.881400	0.123300	0.697400
N3011	N301	0.537360	0.311720	0.707680
N3021	N302	0.537520	0.284790	0.683690
N3031	N303	0.564760	0.333530	0.702220
C4011	C401	0.583130	0.320140	0.673840
C4021	C402	0.565800	0.289730	0.662450
H2011	H201	0.572700	0.274900	0.643000
C4031	C403	0.615400	0.337440	0.659840
C4041	C404	0.629620	0.367580	0.676410
H2021	H202	0.618600	0.376700	0.697400
N3041	N304	0.537360	0.811720	0.207680
N3051	N305	0.537520	0.784790	0.183690
N3061	N306	0.564760	0.833530	0.202220
C4051	C405	0.583130	0.820140	0.173840
C4061	C406	0.565800	0.789730	0.162450
H2031	H203	0.572700	0.774900	0.143000
C4071	C407	0.615400	0.837440	0.159840
C4081	C408	0.629620	0.867580	0.176410
H2041	H204	0.618600	0.876700	0.197400
N3071	N307	0.037360	0.311720	0.207680
N3081	N308	0.037520	0.284790	0.183690
N3091	N309	0.064760	0.333530	0.202220
C4091	C409	0.083130	0.320140	0.173840
C4101	C410	0.065800	0.289730	0.162450
H2051	H205	0.072700	0.274900	0.143000
C4111	C411	0.115400	0.337440	0.159840
C4121	C412	0.129620	0.367580	0.176410
H2061	H206	0.118600	0.376700	0.197400
N3101	N310	0.037360	0.811720	0.707680
N3111	N311	0.037520	0.784790	0.683690
N3121	N312	0.064760	0.833530	0.702220
C4131	C413	0.083130	0.820140	0.673840
C4141	C414	0.065800	0.789730	0.662450
H2071	H207	0.072700	0.774900	0.643000
C4151	C415	0.115400	0.837440	0.659840
C4161	C416	0.129620	0.867580	0.676410
H2081	H208	0.118600	0.876700	0.697400
N3131	N313	0.537360	0.688280	0.292320
N3141	N314	0.537520	0.715210	0.316310
N3151	N315	0.564760	0.666470	0.297780
C4171	C417	0.583130	0.679860	0.326160
C4181	C418	0.565800	0.710270	0.337550
H2091	H209	0.572700	0.725100	0.357000
C4191	C419	0.615400	0.662560	0.340160
C4201	C420	0.629620	0.632420	0.323590
H2101	H210	0.618600	0.623300	0.302600
N3161	N316	0.537360	0.188280	0.792320
N3171	N317	0.537520	0.215210	0.816310
N3181	N318	0.564760	0.166470	0.797780
C4211	C421	0.583130	0.179860	0.826160
C4221	C422	0.565800	0.210270	0.837550
H2111	H211	0.572700	0.225100	0.857000
C4231	C423	0.615400	0.162560	0.840160
C4241	C424	0.629620	0.132420	0.823590
H2121	H212	0.618600	0.123300	0.802600
N3191	N319	0.037360	0.688280	0.792320
N3201	N320	0.037520	0.715210	0.816310
N3211	N321	0.064760	0.666470	0.797780
C4251	C425	0.083130	0.679860	0.826160
C4261	C426	0.065800	0.710270	0.837550
H2131	H213	0.072700	0.725100	0.857000
C4271	C427	0.115400	0.662560	0.840160
C4281	C428	0.129620	0.632420	0.823590
H2141	H214	0.118600	0.623300	0.802600
N3221	N322	0.037360	0.188280	0.292320
N3231	N323	0.037520	0.215210	0.316310
N3241	N324	0.064760	0.166470	0.297780
C4291	C429	0.083130	0.179860	0.326160
C4301	C430	0.065800	0.210270	0.337550
H2151	H215	0.072700	0.225100	0.357000
C4311	C431	0.115400	0.162560	0.340160
C4321	C432	0.129620	0.132420	0.323590
H2161	H216	0.118600	0.123300	0.302600
N3251	N325	0.462640	0.311720	0.292320
N3261	N326	0.462480	0.284790	0.316310
N3271	N327	0.435240	0.333530	0.297780
C4331	C433	0.416870	0.320140	0.326160
C4341	C434	0.434200	0.289730	0.337550
H2171	H217	0.427300	0.274900	0.357000
C4351	C435	0.384600	0.337440	0.340160
C4361	C436	0.370380	0.367580	0.323590
H2181	H218	0.381400	0.376700	0.302600
N3281	N328	0.462640	0.811720	0.792320
N3291	N329	0.462480	0.784790	0.816310
N3301	N330	0.435240	0.833530	0.797780
C4371	C437	0.416870	0.820140	0.826160
C4381	C438	0.434200	0.789730	0.837550
H2191	H219	0.427300	0.774900	0.857000
C4391	C439	0.384600	0.837440	0.840160
C4401	C440	0.370380	0.867580	0.823590
H2201	H220	0.381400	0.876700	0.802600
N3311	N331	0.962640	0.311720	0.792320
N3321	N332	0.962480	0.284790	0.816310
N3331	N333	0.935240	0.333530	0.797780
C4411	C441	0.916870	0.320140	0.826160
C4421	C442	0.934200	0.289730	0.837550
H2211	H221	0.927300	0.274900	0.857000
C4431	C443	0.884600	0.337440	0.840160
C4441	C444	0.870380	0.367580	0.823590
H2221	H222	0.881400	0.376700	0.802600
N3341	N334	0.962640	0.811720	0.292320
N3351	N335	0.962480	0.784790	0.316310
N3361	N336	0.935240	0.833530	0.297780
C4451	C445	0.916870	0.820140	0.326160
C4461	C446	0.934200	0.789730	0.337550
H2231	H223	0.927300	0.774900	0.357000
C4471	C447	0.884600	0.837440	0.340160
C4481	C448	0.870380	0.867580	0.323590
H2241	H224	0.881400	0.876700	0.302600
N3371	N337	0.707680	0.462640	0.688280
N3381	N338	0.683690	0.462480	0.715210
N3391	N339	0.702220	0.435240	0.666470
C4491	C449	0.673840	0.416870	0.679860
C4501	C450	0.662450	0.434200	0.710270
H2251	H225	0.643000	0.427300	0.725100
C4511	C451	0.659840	0.384600	0.662560
C4521	C452	0.676410	0.370380	0.632420
H2261	H226	0.697400	0.381400	0.623300
N3401	N340	0.707680	0.962640	0.188280
N3411	N341	0.683690	0.962480	0.215210
N3421	N342	0.702220	0.935240	0.166470
C4531	C453	0.673840	0.916870	0.179860
C4541	C454	0.662450	0.934200	0.210270
H2271	H227	0.643000	0.927300	0.225100
C4551	C455	0.659840	0.884600	0.162560
C4561	C456	0.676410	0.870380	0.132420
H2281	H228	0.697400	0.881400	0.123300
N3431	N343	0.207680	0.462640	0.188280
N3441	N344	0.183690	0.462480	0.215210
N3451	N345	0.202220	0.435240	0.166470
C4571	C457	0.173840	0.416870	0.179860
C4581	C458	0.162450	0.434200	0.210270
H2291	H229	0.143000	0.427300	0.225100
C4591	C459	0.159840	0.384600	0.162560
C4601	C460	0.176410	0.370380	0.132420
H2301	H230	0.197400	0.381400	0.123300
N3461	N346	0.207680	0.962640	0.688280
N3471	N347	0.183690	0.962480	0.715210
N3481	N348	0.202220	0.935240	0.666470
C4611	C461	0.173840	0.916870	0.679860
C4621	C462	0.162450	0.934200	0.710270
H2311	H231	0.143000	0.927300	0.725100
C4631	C463	0.159840	0.884600	0.662560
C4641	C464	0.176410	0.870380	0.632420
H2321	H232	0.197400	0.881400	0.623300
N3491	N349	0.707680	0.537360	0.311720
N3501	N350	0.683690	0.537520	0.284790
N3511	N351	0.702220	0.564760	0.333530
C4651	C465	0.673840	0.583130	0.320140
C4661	C466	0.662450	0.565800	0.289730
H2331	H233	0.643000	0.572700	0.274900
C4671	C467	0.659840	0.615400	0.337440
C4681	C468	0.676410	0.629620	0.367580
H2341	H234	0.697400	0.618600	0.376700
N3521	N352	0.707680	0.037360	0.811720
N3531	N353	0.683690	0.037520	0.784790
N3541	N354	0.702220	0.064760	0.833530
C4691	C469	0.673840	0.083130	0.820140
C4701	C470	0.662450	0.065800	0.789730
H2351	H235	0.643000	0.072700	0.774900
C4711	C471	0.659840	0.115400	0.837440
C4721	C472	0.676410	0.129620	0.867580
H2361	H236	0.697400	0.118600	0.876700
N3551	N355	0.207680	0.537360	0.811720
N3561	N356	0.183690	0.537520	0.784790
N3571	N357	0.202220	0.564760	0.833530
C4731	C473	0.173840	0.583130	0.820140
C4741	C474	0.162450	0.565800	0.789730
H2371	H237	0.143000	0.572700	0.774900
C4751	C475	0.159840	0.615400	0.837440
C4761	C476	0.176410	0.629620	0.867580
H2381	H238	0.197400	0.618600	0.876700
N3581	N358	0.207680	0.037360	0.311720
N3591	N359	0.183690	0.037520	0.284790
N3601	N360	0.202220	0.064760	0.333530
C4771	C477	0.173840	0.083130	0.320140
C4781	C478	0.162450	0.065800	0.289730
H2391	H239	0.143000	0.072700	0.274900
C4791	C479	0.159840	0.115400	0.337440
C4801	C480	0.176410	0.129620	0.367580
H2401	H240	0.197400	0.118600	0.376700
N3611	N361	0.292320	0.537360	0.688280
N3621	N362	0.316310	0.537520	0.715210
N3631	N363	0.297780	0.564760	0.666470
C4811	C481	0.326160	0.583130	0.679860
C4821	C482	0.337550	0.565800	0.710270
H2411	H241	0.357000	0.572700	0.725100
C4831	C483	0.340160	0.615400	0.662560
C4841	C484	0.323590	0.629620	0.632420
H2421	H242	0.302600	0.618600	0.623300
N3641	N364	0.292320	0.037360	0.188280
N3651	N365	0.316310	0.037520	0.215210
N3661	N366	0.297780	0.064760	0.166470
C4851	C485	0.326160	0.083130	0.179860
C4861	C486	0.337550	0.065800	0.210270
H2431	H243	0.357000	0.072700	0.225100
C4871	C487	0.340160	0.115400	0.162560
C4881	C488	0.323590	0.129620	0.132420
H2441	H244	0.302600	0.118600	0.123300
N3671	N367	0.792320	0.537360	0.188280
N3681	N368	0.816310	0.537520	0.215210
N3691	N369	0.797780	0.564760	0.166470
C4891	C489	0.826160	0.583130	0.179860
C4901	C490	0.837550	0.565800	0.210270
H2451	H245	0.857000	0.572700	0.225100
C4911	C491	0.840160	0.615400	0.162560
C4921	C492	0.823590	0.629620	0.132420
H2461	H246	0.802600	0.618600	0.123300
N3701	N370	0.792320	0.037360	0.688280
N3711	N371	0.816310	0.037520	0.715210
N3721	N372	0.797780	0.064760	0.666470
C4931	C493	0.826160	0.083130	0.679860
C4941	C494	0.837550	0.065800	0.710270
H2471	H247	0.857000	0.072700	0.725100
C4951	C495	0.840160	0.115400	0.662560
C4961	C496	0.823590	0.129620	0.632420
H2481	H248	0.802600	0.118600	0.623300
N3731	N373	0.292320	0.462640	0.311720
N3741	N374	0.316310	0.462480	0.284790
N3751	N375	0.297780	0.435240	0.333530
C4971	C497	0.326160	0.416870	0.320140
C4981	C498	0.337550	0.434200	0.289730
H2491	H249	0.357000	0.427300	0.274900
C4991	C499	0.340160	0.384600	0.337440
C5001	C500	0.323590	0.370380	0.367580
H2501	H250	0.302600	0.381400	0.376700
N3761	N376	0.292320	0.962640	0.811720
N3771	N377	0.316310	0.962480	0.784790
N3781	N378	0.297780	0.935240	0.833530
C5011	C501	0.326160	0.916870	0.820140
C5021	C502	0.337550	0.934200	0.789730
H2511	H251	0.357000	0.927300	0.774900
C5031	C503	0.340160	0.884600	0.837440
C5041	C504	0.323590	0.870380	0.867580
H2521	H252	0.302600	0.881400	0.876700
N3791	N379	0.792320	0.462640	0.811720
N3801	N380	0.816310	0.462480	0.784790
N3811	N381	0.797780	0.435240	0.833530
C5051	C505	0.826160	0.416870	0.820140
C5061	C506	0.837550	0.434200	0.789730
H2531	H253	0.857000	0.427300	0.774900
C5071	C507	0.840160	0.384600	0.837440
C5081	C508	0.823590	0.370380	0.867580
H2541	H254	0.802600	0.381400	0.876700
N3821	N382	0.792320	0.962640	0.311720
N3831	N383	0.816310	0.962480	0.284790
N3841	N384	0.797780	0.935240	0.333530
C5091	C509	0.826160	0.916870	0.320140
C5101	C510	0.837550	0.934200	0.289730
H2551	H255	0.857000	0.927300	0.274900
C5111	C511	0.840160	0.884600	0.337440
C5121	C512	0.823590	0.870380	0.367580
H2561	H256	0.802600	0.881400	0.376700
N3851	N385	0.688280	0.707680	0.462640
N3861	N386	0.715210	0.683690	0.462480
N3871	N387	0.666470	0.702220	0.435240
C5131	C513	0.679860	0.673840	0.416870
C5141	C514	0.710270	0.662450	0.434200
H2571	H257	0.725100	0.643000	0.427300
C5151	C515	0.662560	0.659840	0.384600
C5161	C516	0.632420	0.676410	0.370380
H2581	H258	0.623300	0.697400	0.381400
N3881	N388	0.688280	0.207680	0.962640
N3891	N389	0.715210	0.183690	0.962480
N3901	N390	0.666470	0.202220	0.935240
C5171	C517	0.679860	0.173840	0.916870
C5181	C518	0.710270	0.162450	0.934200
H2591	H259	0.725100	0.143000	0.927300
C5191	C519	0.662560	0.159840	0.884600
C5201	C520	0.632420	0.176410	0.870380
H2601	H260	0.623300	0.197400	0.881400
N3911	N391	0.188280	0.707680	0.962640
N3921	N392	0.215210	0.683690	0.962480
N3931	N393	0.166470	0.702220	0.935240
C5211	C521	0.179860	0.673840	0.916870
C5221	C522	0.210270	0.662450	0.934200
H2611	H261	0.225100	0.643000	0.927300
C5231	C523	0.162560	0.659840	0.884600
C5241	C524	0.132420	0.676410	0.870380
H2621	H262	0.123300	0.697400	0.881400
N3941	N394	0.188280	0.207680	0.462640
N3951	N395	0.215210	0.183690	0.462480
N3961	N396	0.166470	0.202220	0.435240
C5251	C525	0.179860	0.173840	0.416870
C5261	C526	0.210270	0.162450	0.434200
H2631	H263	0.225100	0.143000	0.427300
C5271	C527	0.162560	0.159840	0.384600
C5281	C528	0.132420	0.176410	0.370380
H2641	H264	0.123300	0.197400	0.381400
N3971	N397	0.311720	0.707680	0.537360
N3981	N398	0.284790	0.683690	0.537520
N3991	N399	0.333530	0.702220	0.564760
C5291	C529	0.320140	0.673840	0.583130
C5301	C530	0.289730	0.662450	0.565800
H2651	H265	0.274900	0.643000	0.572700
C5311	C531	0.337440	0.659840	0.615400
C5321	C532	0.367580	0.676410	0.629620
H2661	H266	0.376700	0.697400	0.618600
N4001	N400	0.311720	0.207680	0.037360
N4011	N401	0.284790	0.183690	0.037520
N4021	N402	0.333530	0.202220	0.064760
C5331	C533	0.320140	0.173840	0.083130
C5341	C534	0.289730	0.162450	0.065800
H2671	H267	0.274900	0.143000	0.072700
C5351	C535	0.337440	0.159840	0.115400
C5361	C536	0.367580	0.176410	0.129620
H2681	H268	0.376700	0.197400	0.118600
N4031	N403	0.811720	0.707680	0.037360
N4041	N404	0.784790	0.683690	0.037520
N4051	N405	0.833530	0.702220	0.064760
C5371	C537	0.820140	0.673840	0.083130
C5381	C538	0.789730	0.662450	0.065800
H2691	H269	0.774900	0.643000	0.072700
C5391	C539	0.837440	0.659840	0.115400
C5401	C540	0.867580	0.676410	0.129620
H2701	H270	0.876700	0.697400	0.118600
N4061	N406	0.811720	0.207680	0.537360
N4071	N407	0.784790	0.183690	0.537520
N4081	N408	0.833530	0.202220	0.564760
C5411	C541	0.820140	0.173840	0.583130
C5421	C542	0.789730	0.162450	0.565800
H2711	H271	0.774900	0.143000	0.572700
C5431	C543	0.837440	0.159840	0.615400
C5441	C544	0.867580	0.176410	0.629620
H2721	H272	0.876700	0.197400	0.618600
N4091	N409	0.688280	0.292320	0.537360
N4101	N410	0.715210	0.316310	0.537520
N4111	N411	0.666470	0.297780	0.564760
C5451	C545	0.679860	0.326160	0.583130
C5461	C546	0.710270	0.337550	0.565800
H2731	H273	0.725100	0.357000	0.572700
C5471	C547	0.662560	0.340160	0.615400
C5481	C548	0.632420	0.323590	0.629620
H2741	H274	0.623300	0.302600	0.618600
N4121	N412	0.688280	0.792320	0.037360
N4131	N413	0.715210	0.816310	0.037520
N4141	N414	0.666470	0.797780	0.064760
C5491	C549	0.679860	0.826160	0.083130
C5501	C550	0.710270	0.837550	0.065800
H2751	H275	0.725100	0.857000	0.072700
C5511	C551	0.662560	0.840160	0.115400
C5521	C552	0.632420	0.823590	0.129620
H2761	H276	0.623300	0.802600	0.118600
N4151	N415	0.188280	0.292320	0.037360
N4161	N416	0.215210	0.316310	0.037520
N4171	N417	0.166470	0.297780	0.064760
C5531	C553	0.179860	0.326160	0.083130
C5541	C554	0.210270	0.337550	0.065800
H2771	H277	0.225100	0.357000	0.072700
C5551	C555	0.162560	0.340160	0.115400
C5561	C556	0.132420	0.323590	0.129620
H2781	H278	0.123300	0.302600	0.118600
N4181	N418	0.188280	0.792320	0.537360
N4191	N419	0.215210	0.816310	0.537520
N4201	N420	0.166470	0.797780	0.564760
C5571	C557	0.179860	0.826160	0.583130
C5581	C558	0.210270	0.837550	0.565800
H2791	H279	0.225100	0.857000	0.572700
C5591	C559	0.162560	0.840160	0.615400
C5601	C560	0.132420	0.823590	0.629620
H2801	H280	0.123300	0.802600	0.618600
N4211	N421	0.311720	0.292320	0.462640
N4221	N422	0.284790	0.316310	0.462480
N4231	N423	0.333530	0.297780	0.435240
C5611	C561	0.320140	0.326160	0.416870
C5621	C562	0.289730	0.337550	0.434200
H2811	H281	0.274900	0.357000	0.427300
C5631	C563	0.337440	0.340160	0.384600
C5641	C564	0.367580	0.323590	0.370380
H2821	H282	0.376700	0.302600	0.381400
N4241	N424	0.311720	0.792320	0.962640
N4251	N425	0.284790	0.816310	0.962480
N4261	N426	0.333530	0.797780	0.935240
C5651	C565	0.320140	0.826160	0.916870
C5661	C566	0.289730	0.837550	0.934200
H2831	H283	0.274900	0.857000	0.927300
C5671	C567	0.337440	0.840160	0.884600
C5681	C568	0.367580	0.823590	0.870380
H2841	H284	0.376700	0.802600	0.881400
N4271	N427	0.811720	0.292320	0.962640
N4281	N428	0.784790	0.316310	0.962480
N4291	N429	0.833530	0.297780	0.935240
C5691	C569	0.820140	0.326160	0.916870
C5701	C570	0.789730	0.337550	0.934200
H2851	H285	0.774900	0.357000	0.927300
C5711	C571	0.837440	0.340160	0.884600
C5721	C572	0.867580	0.323590	0.870380
H2861	H286	0.876700	0.302600	0.881400
N4301	N430	0.811720	0.792320	0.462640
N4311	N431	0.784790	0.816310	0.462480
N4321	N432	0.833530	0.797780	0.435240
C5731	C573	0.820140	0.826160	0.416870
C5741	C574	0.789730	0.837550	0.434200
H2871	H287	0.774900	0.857000	0.427300
C5751	C575	0.837440	0.840160	0.384600
C5761	C576	0.867580	0.823590	0.370380
H2881	H288	0.876700	0.802600	0.381400
N4331	N433	0.188280	0.962640	0.792320
N4341	N434	0.215210	0.962480	0.816310
N4351	N435	0.166470	0.935240	0.797780
C5771	C577	0.179860	0.916870	0.826160
C5781	C578	0.210270	0.934200	0.837550
H2891	H289	0.225100	0.927300	0.857000
C5791	C579	0.162560	0.884600	0.840160
C5801	C580	0.132420	0.870380	0.823590
H2901	H290	0.123300	0.881400	0.802600
N4361	N436	0.188280	0.462640	0.292320
N4371	N437	0.215210	0.462480	0.316310
N4381	N438	0.166470	0.435240	0.297780
C5811	C581	0.179860	0.416870	0.326160
C5821	C582	0.210270	0.434200	0.337550
H2911	H291	0.225100	0.427300	0.357000
C5831	C583	0.162560	0.384600	0.340160
C5841	C584	0.132420	0.370380	0.323590
H2921	H292	0.123300	0.381400	0.302600
N4391	N439	0.688280	0.962640	0.292320
N4401	N440	0.715210	0.962480	0.316310
N4411	N441	0.666470	0.935240	0.297780
C5851	C585	0.679860	0.916870	0.326160
C5861	C586	0.710270	0.934200	0.337550
H2931	H293	0.725100	0.927300	0.357000
C5871	C587	0.662560	0.884600	0.340160
C5881	C588	0.632420	0.870380	0.323590
H2941	H294	0.623300	0.881400	0.302600
N4421	N442	0.688280	0.462640	0.792320
N4431	N443	0.715210	0.462480	0.816310
N4441	N444	0.666470	0.435240	0.797780
C5891	C589	0.679860	0.416870	0.826160
C5901	C590	0.710270	0.434200	0.837550
H2951	H295	0.725100	0.427300	0.857000
C5911	C591	0.662560	0.384600	0.840160
C5921	C592	0.632420	0.370380	0.823590
H2961	H296	0.623300	0.381400	0.802600
N4451	N445	0.811720	0.037360	0.792320
N4461	N446	0.784790	0.037520	0.816310
N4471	N447	0.833530	0.064760	0.797780
C5931	C593	0.820140	0.083130	0.826160
C5941	C594	0.789730	0.065800	0.837550
H2971	H297	0.774900	0.072700	0.857000
C5951	C595	0.837440	0.115400	0.840160
C5961	C596	0.867580	0.129620	0.823590
H2981	H298	0.876700	0.118600	0.802600
N4481	N448	0.811720	0.537360	0.292320
N4491	N449	0.784790	0.537520	0.316310
N4501	N450	0.833530	0.564760	0.297780
C5971	C597	0.820140	0.583130	0.326160
C5981	C598	0.789730	0.565800	0.337550
H2991	H299	0.774900	0.572700	0.357000
C5991	C599	0.837440	0.615400	0.340160
C6001	C600	0.867580	0.629620	0.323590
H3001	H300	0.876700	0.618600	0.302600
N4511	N451	0.311720	0.037360	0.292320
N4521	N452	0.284790	0.037520	0.316310
N4531	N453	0.333530	0.064760	0.297780
C6011	C601	0.320140	0.083130	0.326160
C6021	C602	0.289730	0.065800	0.337550
H3011	H301	0.274900	0.072700	0.357000
C6031	C603	0.337440	0.115400	0.340160
C6041	C604	0.367580	0.129620	0.323590
H3021	H302	0.376700	0.118600	0.302600
N4541	N454	0.311720	0.537360	0.792320
N4551	N455	0.284790	0.537520	0.816310
N4561	N456	0.333530	0.564760	0.797780
C6051	C605	0.320140	0.583130	0.826160
C6061	C606	0.289730	0.565800	0.837550
H3031	H303	0.274900	0.572700	0.857000
C6071	C607	0.337440	0.615400	0.840160
C6081	C608	0.367580	0.629620	0.823590
H3041	H304	0.376700	0.618600	0.802600
N4571	N457	0.188280	0.037360	0.207680
N4581	N458	0.215210	0.037520	0.183690
N4591	N459	0.166470	0.064760	0.202220
C6091	C609	0.179860	0.083130	0.173840
C6101	C610	0.210270	0.065800	0.162450
H3051	H305	0.225100	0.072700	0.143000
C6111	C611	0.162560	0.115400	0.159840
C6121	C612	0.132420	0.129620	0.176410
H3061	H306	0.123300	0.118600	0.197400
N4601	N460	0.188280	0.537360	0.707680
N4611	N461	0.215210	0.537520	0.683690
N4621	N462	0.166470	0.564760	0.702220
C6131	C613	0.179860	0.583130	0.673840
C6141	C614	0.210270	0.565800	0.662450
H3071	H307	0.225100	0.572700	0.643000
C6151	C615	0.162560	0.615400	0.659840
C6161	C616	0.132420	0.629620	0.676410
H3081	H308	0.123300	0.618600	0.697400
N4631	N463	0.688280	0.037360	0.707680
N4641	N464	0.715210	0.037520	0.683690
N4651	N465	0.666470	0.064760	0.702220
C6171	C617	0.679860	0.083130	0.673840
C6181	C618	0.710270	0.065800	0.662450
H3091	H309	0.725100	0.072700	0.643000
C6191	C619	0.662560	0.115400	0.659840
C6201	C620	0.632420	0.129620	0.676410
H3101	H310	0.623300	0.118600	0.697400
N4661	N466	0.688280	0.537360	0.207680
N4671	N467	0.715210	0.537520	0.183690
N4681	N468	0.666470	0.564760	0.202220
C6211	C621	0.679860	0.583130	0.173840
C6221	C622	0.710270	0.565800	0.162450
H3111	H311	0.725100	0.572700	0.143000
C6231	C623	0.662560	0.615400	0.159840
C6241	C624	0.632420	0.629620	0.176410
H3121	H312	0.623300	0.618600	0.197400
N4691	N469	0.811720	0.962640	0.207680
N4701	N470	0.784790	0.962480	0.183690
N4711	N471	0.833530	0.935240	0.202220
C6251	C625	0.820140	0.916870	0.173840
C6261	C626	0.789730	0.934200	0.162450
H3131	H313	0.774900	0.927300	0.143000
C6271	C627	0.837440	0.884600	0.159840
C6281	C628	0.867580	0.870380	0.176410
H3141	H314	0.876700	0.881400	0.197400
N4721	N472	0.811720	0.462640	0.707680
N4731	N473	0.784790	0.462480	0.683690
N4741	N474	0.833530	0.435240	0.702220
C6291	C629	0.820140	0.416870	0.673840
C6301	C630	0.789730	0.434200	0.662450
H3151	H315	0.774900	0.427300	0.643000
C6311	C631	0.837440	0.384600	0.659840
C6321	C632	0.867580	0.370380	0.676410
H3161	H316	0.876700	0.381400	0.697400
N4751	N475	0.311720	0.962640	0.707680
N4761	N476	0.284790	0.962480	0.683690
N4771	N477	0.333530	0.935240	0.702220
C6331	C633	0.320140	0.916870	0.673840
C6341	C634	0.289730	0.934200	0.662450
H3171	H317	0.274900	0.927300	0.643000
C6351	C635	0.337440	0.884600	0.659840
C6361	C636	0.367580	0.870380	0.676410
H3181	H318	0.376700	0.881400	0.697400
N4781	N478	0.311720	0.462640	0.207680
N4791	N479	0.284790	0.462480	0.183690
N4801	N480	0.333530	0.435240	0.202220
C6371	C637	0.320140	0.416870	0.173840
C6381	C638	0.289730	0.434200	0.162450
H3191	H319	0.274900	0.427300	0.143000
C6391	C639	0.337440	0.384600	0.159840
C6401	C640	0.367580	0.370380	0.176410
H3201	H320	0.376700	0.381400	0.197400
N4811	N481	0.962640	0.207680	0.811720
N4821	N482	0.962480	0.183690	0.784790
N4831	N483	0.935240	0.202220	0.833530
C6411	C641	0.916870	0.173840	0.820140
C6421	C642	0.934200	0.162450	0.789730
H3211	H321	0.927300	0.143000	0.774900
C6431	C643	0.884600	0.159840	0.837440
C6441	C644	0.870380	0.176410	0.867580
H3221	H322	0.881400	0.197400	0.876700
N4841	N484	0.962640	0.707680	0.311720
N4851	N485	0.962480	0.683690	0.284790
N4861	N486	0.935240	0.702220	0.333530
C6451	C645	0.916870	0.673840	0.320140
C6461	C646	0.934200	0.662450	0.289730
H3231	H323	0.927300	0.643000	0.274900
C6471	C647	0.884600	0.659840	0.337440
C6481	C648	0.870380	0.676410	0.367580
H3241	H324	0.881400	0.697400	0.376700
N4871	N487	0.462640	0.207680	0.311720
N4881	N488	0.462480	0.183690	0.284790
N4891	N489	0.435240	0.202220	0.333530
C6491	C649	0.416870	0.173840	0.320140
C6501	C650	0.434200	0.162450	0.289730
H3251	H325	0.427300	0.143000	0.274900
C6511	C651	0.384600	0.159840	0.337440
C6521	C652	0.370380	0.176410	0.367580
H3261	H326	0.381400	0.197400	0.376700
N4901	N490	0.462640	0.707680	0.811720
N4911	N491	0.462480	0.683690	0.784790
N4921	N492	0.435240	0.702220	0.833530
C6531	C653	0.416870	0.673840	0.820140
C6541	C654	0.434200	0.662450	0.789730
H3271	H327	0.427300	0.643000	0.774900
C6551	C655	0.384600	0.659840	0.837440
C6561	C656	0.370380	0.676410	0.867580
H3281	H328	0.381400	0.697400	0.876700
N4931	N493	0.037360	0.207680	0.188280
N4941	N494	0.037520	0.183690	0.215210
N4951	N495	0.064760	0.202220	0.166470
C6571	C657	0.083130	0.173840	0.179860
C6581	C658	0.065800	0.162450	0.210270
H3291	H329	0.072700	0.143000	0.225100
C6591	C659	0.115400	0.159840	0.162560
C6601	C660	0.129620	0.176410	0.132420
H3301	H330	0.118600	0.197400	0.123300
N4961	N496	0.037360	0.707680	0.688280
N4971	N497	0.037520	0.683690	0.715210
N4981	N498	0.064760	0.702220	0.666470
C6611	C661	0.083130	0.673840	0.679860
C6621	C662	0.065800	0.662450	0.710270
H3311	H331	0.072700	0.643000	0.725100
C6631	C663	0.115400	0.659840	0.662560
C6641	C664	0.129620	0.676410	0.632420
H3321	H332	0.118600	0.697400	0.623300
N4991	N499	0.537360	0.207680	0.688280
N5001	N500	0.537520	0.183690	0.715210
N5011	N501	0.564760	0.202220	0.666470
C6651	C665	0.583130	0.173840	0.679860
C6661	C666	0.565800	0.162450	0.710270
H3331	H333	0.572700	0.143000	0.725100
C6671	C667	0.615400	0.159840	0.662560
C6681	C668	0.629620	0.176410	0.632420
H3341	H334	0.618600	0.197400	0.623300
N5021	N502	0.537360	0.707680	0.188280
N5031	N503	0.537520	0.683690	0.215210
N5041	N504	0.564760	0.702220	0.166470
C6691	C669	0.583130	0.673840	0.179860
C6701	C670	0.565800	0.662450	0.210270
H3351	H335	0.572700	0.643000	0.225100
C6711	C671	0.615400	0.659840	0.162560
C6721	C672	0.629620	0.676410	0.132420
H3361	H336	0.618600	0.697400	0.123300
N5051	N505	0.037360	0.792320	0.811720
N5061	N506	0.037520	0.816310	0.784790
N5071	N507	0.064760	0.797780	0.833530
C6731	C673	0.083130	0.826160	0.820140
C6741	C674	0.065800	0.837550	0.789730
H3371	H337	0.072700	0.857000	0.774900
C6751	C675	0.115400	0.840160	0.837440
C6761	C676	0.129620	0.823590	0.867580
H3381	H338	0.118600	0.802600	0.876700
N5081	N508	0.037360	0.292320	0.311720
N5091	N509	0.037520	0.316310	0.284790
N5101	N510	0.064760	0.297780	0.333530
C6771	C677	0.083130	0.326160	0.320140
C6781	C678	0.065800	0.337550	0.289730
H3391	H339	0.072700	0.357000	0.274900
C6791	C679	0.115400	0.340160	0.337440
C6801	C680	0.129620	0.323590	0.367580
H3401	H340	0.118600	0.302600	0.376700
N5111	N511	0.537360	0.792320	0.311720
N5121	N512	0.537520	0.816310	0.284790
N5131	N513	0.564760	0.797780	0.333530
C6811	C681	0.583130	0.826160	0.320140
C6821	C682	0.565800	0.837550	0.289730
H3411	H341	0.572700	0.857000	0.274900
C6831	C683	0.615400	0.840160	0.337440
C6841	C684	0.629620	0.823590	0.367580
H3421	H342	0.618600	0.802600	0.376700
N5141	N514	0.537360	0.292320	0.811720
N5151	N515	0.537520	0.316310	0.784790
N5161	N516	0.564760	0.297780	0.833530
C6851	C685	0.583130	0.326160	0.820140
C6861	C686	0.565800	0.337550	0.789730
H3431	H343	0.572700	0.357000	0.774900
C6871	C687	0.615400	0.340160	0.837440
C6881	C688	0.629620	0.323590	0.867580
H3441	H344	0.618600	0.302600	0.876700
N5171	N517	0.962640	0.792320	0.188280
N5181	N518	0.962480	0.816310	0.215210
N5191	N519	0.935240	0.797780	0.166470
C6891	C689	0.916870	0.826160	0.179860
C6901	C690	0.934200	0.837550	0.210270
H3451	H345	0.927300	0.857000	0.225100
C6911	C691	0.884600	0.840160	0.162560
C6921	C692	0.870380	0.823590	0.132420
H3461	H346	0.881400	0.802600	0.123300
N5201	N520	0.962640	0.292320	0.688280
N5211	N521	0.962480	0.316310	0.715210
N5221	N522	0.935240	0.297780	0.666470
C6931	C693	0.916870	0.326160	0.679860
C6941	C694	0.934200	0.337550	0.710270
H3471	H347	0.927300	0.357000	0.725100
C6951	C695	0.884600	0.340160	0.662560
C6961	C696	0.870380	0.323590	0.632420
H3481	H348	0.881400	0.302600	0.623300
N5231	N523	0.462640	0.792320	0.688280
N5241	N524	0.462480	0.816310	0.715210
N5251	N525	0.435240	0.797780	0.666470
C6971	C697	0.416870	0.826160	0.679860
C6981	C698	0.434200	0.837550	0.710270
H3491	H349	0.427300	0.857000	0.725100
C6991	C699	0.384600	0.840160	0.662560
C7001	C700	0.370380	0.823590	0.632420
H3501	H350	0.381400	0.802600	0.623300
N5261	N526	0.462640	0.292320	0.188280
N5271	N527	0.462480	0.316310	0.215210
N5281	N528	0.435240	0.297780	0.166470
C7011	C701	0.416870	0.326160	0.179860
C7021	C702	0.434200	0.337550	0.210270
H3511	H351	0.427300	0.357000	0.225100
C7031	C703	0.384600	0.340160	0.162560
C7041	C704	0.370380	0.323590	0.132420
H3521	H352	0.381400	0.302600	0.123300
N5291	N529	0.207680	0.188280	0.037360
N5301	N530	0.183690	0.215210	0.037520
N5311	N531	0.202220	0.166470	0.064760
C7051	C705	0.173840	0.179860	0.083130
C7061	C706	0.162450	0.210270	0.065800
H3531	H353	0.143000	0.225100	0.072700
C7071	C707	0.159840	0.162560	0.115400
C7081	C708	0.176410	0.132420	0.129620
H3541	H354	0.197400	0.123300	0.118600
N5321	N532	0.207680	0.688280	0.537360
N5331	N533	0.183690	0.715210	0.537520
N5341	N534	0.202220	0.666470	0.564760
C7091	C709	0.173840	0.679860	0.583130
C7101	C710	0.162450	0.710270	0.565800
H3551	H355	0.143000	0.725100	0.572700
C7111	C711	0.159840	0.662560	0.615400
C7121	C712	0.176410	0.632420	0.629620
H3561	H356	0.197400	0.623300	0.618600
N5351	N535	0.707680	0.188280	0.537360
N5361	N536	0.683690	0.215210	0.537520
N5371	N537	0.702220	0.166470	0.564760
C7131	C713	0.673840	0.179860	0.583130
C7141	C714	0.662450	0.210270	0.565800
H3571	H357	0.643000	0.225100	0.572700
C7151	C715	0.659840	0.162560	0.615400
C7161	C716	0.676410	0.132420	0.629620
H3581	H358	0.697400	0.123300	0.618600
N5381	N538	0.707680	0.688280	0.037360
N5391	N539	0.683690	0.715210	0.037520
N5401	N540	0.702220	0.666470	0.064760
C7171	C717	0.673840	0.679860	0.083130
C7181	C718	0.662450	0.710270	0.065800
H3591	H359	0.643000	0.725100	0.072700
C7191	C719	0.659840	0.662560	0.115400
C7201	C720	0.676410	0.632420	0.129620
H3601	H360	0.697400	0.623300	0.118600
N5411	N541	0.207680	0.811720	0.962640
N5421	N542	0.183690	0.784790	0.962480
N5431	N543	0.202220	0.833530	0.935240
C7211	C721	0.173840	0.820140	0.916870
C7221	C722	0.162450	0.789730	0.934200
H3611	H361	0.143000	0.774900	0.927300
C7231	C723	0.159840	0.837440	0.884600
C7241	C724	0.176410	0.867580	0.870380
H3621	H362	0.197400	0.876700	0.881400
N5441	N544	0.207680	0.311720	0.462640
N5451	N545	0.183690	0.284790	0.462480
N5461	N546	0.202220	0.333530	0.435240
C7251	C725	0.173840	0.320140	0.416870
C7261	C726	0.162450	0.289730	0.434200
H3631	H363	0.143000	0.274900	0.427300
C7271	C727	0.159840	0.337440	0.384600
C7281	C728	0.176410	0.367580	0.370380
H3641	H364	0.197400	0.376700	0.381400
N5471	N547	0.707680	0.811720	0.462640
N5481	N548	0.683690	0.784790	0.462480
N5491	N549	0.702220	0.833530	0.435240
C7291	C729	0.673840	0.820140	0.416870
C7301	C730	0.662450	0.789730	0.434200
H3651	H365	0.643000	0.774900	0.427300
C7311	C731	0.659840	0.837440	0.384600
C7321	C732	0.676410	0.867580	0.370380
H3661	H366	0.697400	0.876700	0.381400
N5501	N550	0.707680	0.311720	0.962640
N5511	N551	0.683690	0.284790	0.962480
N5521	N552	0.702220	0.333530	0.935240
C7331	C733	0.673840	0.320140	0.916870
C7341	C734	0.662450	0.289730	0.934200
H3671	H367	0.643000	0.274900	0.927300
C7351	C735	0.659840	0.337440	0.884600
C7361	C736	0.676410	0.367580	0.870380
H3681	H368	0.697400	0.376700	0.881400
N5531	N553	0.792320	0.188280	0.962640
N5541	N554	0.816310	0.215210	0.962480
N5551	N555	0.797780	0.166470	0.935240
C7371	C737	0.826160	0.179860	0.916870
C7381	C738	0.837550	0.210270	0.934200
H3691	H369	0.857000	0.225100	0.927300
C7391	C739	0.840160	0.162560	0.884600
C7401	C740	0.823590	0.132420	0.870380
H3701	H370	0.802600	0.123300	0.881400
N5561	N556	0.792320	0.688280	0.462640
N5571	N557	0.816310	0.715210	0.462480
N5581	N558	0.797780	0.666470	0.435240
C7411	C741	0.826160	0.679860	0.416870
C7421	C742	0.837550	0.710270	0.434200
H3711	H371	0.857000	0.725100	0.427300
C7431	C743	0.840160	0.662560	0.384600
C7441	C744	0.823590	0.632420	0.370380
H3721	H372	0.802600	0.623300	0.381400
N5591	N559	0.292320	0.188280	0.462640
N5601	N560	0.316310	0.215210	0.462480
N5611	N561	0.297780	0.166470	0.435240
C7451	C745	0.326160	0.179860	0.416870
C7461	C746	0.337550	0.210270	0.434200
H3731	H373	0.357000	0.225100	0.427300
C7471	C747	0.340160	0.162560	0.384600
C7481	C748	0.323590	0.132420	0.370380
H3741	H374	0.302600	0.123300	0.381400
N5621	N562	0.292320	0.688280	0.962640
N5631	N563	0.316310	0.715210	0.962480
N5641	N564	0.297780	0.666470	0.935240
C7491	C749	0.326160	0.679860	0.916870
C7501	C750	0.337550	0.710270	0.934200
H3751	H375	0.357000	0.725100	0.927300
C7511	C751	0.340160	0.662560	0.884600
C7521	C752	0.323590	0.632420	0.870380
H3761	H376	0.302600	0.623300	0.881400
N5651	N565	0.792320	0.811720	0.037360
N5661	N566	0.816310	0.784790	0.037520
N5671	N567	0.797780	0.833530	0.064760
C7531	C753	0.826160	0.820140	0.083130
C7541	C754	0.837550	0.789730	0.065800
H3771	H377	0.857000	0.774900	0.072700
C7551	C755	0.840160	0.837440	0.115400
C7561	C756	0.823590	0.867580	0.129620
H3781	H378	0.802600	0.876700	0.118600
N5681	N568	0.792320	0.311720	0.537360
N5691	N569	0.816310	0.284790	0.537520
N5701	N570	0.797780	0.333530	0.564760
C7571	C757	0.826160	0.320140	0.583130
C7581	C758	0.837550	0.289730	0.565800
H3791	H379	0.857000	0.274900	0.572700
C7591	C759	0.840160	0.337440	0.615400
C7601	C760	0.823590	0.367580	0.629620
H3801	H380	0.802600	0.376700	0.618600
N5711	N571	0.292320	0.811720	0.537360
N5721	N572	0.316310	0.784790	0.537520
N5731	N573	0.297780	0.833530	0.564760
C7611	C761	0.326160	0.820140	0.583130
C7621	C762	0.337550	0.789730	0.565800
H3811	H381	0.357000	0.774900	0.572700
C7631	C763	0.340160	0.837440	0.615400
C7641	C764	0.323590	0.867580	0.629620
H3821	H382	0.302600	0.876700	0.618600
N5741	N574	0.292320	0.311720	0.037360
N5751	N575	0.316310	0.284790	0.037520
N5761	N576	0.297780	0.333530	0.064760
C7651	C765	0.326160	0.320140	0.083130
C7661	C766	0.337550	0.289730	0.065800
H3831	H383	0.357000	0.274900	0.072700
C7671	C767	0.340160	0.337440	0.115400
C7681	C768	0.323590	0.367580	0.129620
H3841	H384	0.302600	0.376700	0.118600
Co11	Co1	0.500000	0.246170	0.316330
Co21	Co2	0.500000	0.746170	0.816330
Co31	Co3	0.000000	0.246170	0.816330
Co41	Co4	0.000000	0.746170	0.316330
Co51	Co5	0.500000	0.753830	0.316330
Co61	Co6	0.500000	0.253830	0.816330
Co71	Co7	0.000000	0.753830	0.816330
Co81	Co8	0.000000	0.253830	0.316330
Co91	Co9	0.500000	0.246170	0.683670
Co101	Co10	0.500000	0.746170	0.183670
Co111	Co11	0.000000	0.246170	0.183670
Co121	Co12	0.000000	0.746170	0.683670
Co131	Co13	0.500000	0.753830	0.683670
Co141	Co14	0.500000	0.253830	0.183670
Co151	Co15	0.000000	0.753830	0.183670
Co161	Co16	0.000000	0.253830	0.683670
Co171	Co17	0.316330	0.500000	0.246170
Co181	Co18	0.316330	0.000000	0.746170
Co191	Co19	0.816330	0.500000	0.746170
Co201	Co20	0.816330	0.000000	0.246170
Co211	Co21	0.316330	0.500000	0.753830
Co221	Co22	0.316330	0.000000	0.253830
Co231	Co23	0.816330	0.500000	0.253830
Co241	Co24	0.816330	0.000000	0.753830
Co251	Co25	0.683670	0.500000	0.246170
Co261	Co26	0.683670	0.000000	0.746170
Co271	Co27	0.183670	0.500000	0.746170
Co281	Co28	0.183670	0.000000	0.246170
Co291	Co29	0.683670	0.500000	0.753830
Co301	Co30	0.683670	0.000000	0.253830
Co311	Co31	0.183670	0.500000	0.253830
Co321	Co32	0.183670	0.000000	0.753830
Co331	Co33	0.246170	0.316330	0.500000
Co341	Co34	0.246170	0.816330	0.000000
Co351	Co35	0.746170	0.316330	0.000000
Co361	Co36	0.746170	0.816330	0.500000
Co371	Co37	0.753830	0.316330	0.500000
Co381	Co38	0.753830	0.816330	0.000000
Co391	Co39	0.253830	0.316330	0.000000
Co401	Co40	0.253830	0.816330	0.500000
Co411	Co41	0.246170	0.683670	0.500000
Co421	Co42	0.246170	0.183670	0.000000
Co431	Co43	0.746170	0.683670	0.000000
Co441	Co44	0.746170	0.183670	0.500000
Co451	Co45	0.753830	0.683670	0.500000
Co461	Co46	0.753830	0.183670	0.000000
Co471	Co47	0.253830	0.683670	0.000000
Co481	Co48	0.253830	0.183670	0.500000
Co491	Co49	0.746170	0.000000	0.183670
Co501	Co50	0.746170	0.500000	0.683670
Co511	Co51	0.246170	0.000000	0.683670
Co521	Co52	0.246170	0.500000	0.183670
Co531	Co53	0.253830	0.000000	0.183670
Co541	Co54	0.253830	0.500000	0.683670
Co551	Co55	0.753830	0.000000	0.683670
Co561	Co56	0.753830	0.500000	0.183670
Co571	Co57	0.746170	0.000000	0.816330
Co581	Co58	0.746170	0.500000	0.316330
Co591	Co59	0.246170	0.000000	0.316330
Co601	Co60	0.246170	0.500000	0.816330
Co611	Co61	0.253830	0.000000	0.816330
Co621	Co62	0.253830	0.500000	0.316330
Co631	Co63	0.753830	0.000000	0.316330
Co641	Co64	0.753830	0.500000	0.816330
Co651	Co65	0.000000	0.816330	0.253830
Co661	Co66	0.000000	0.316330	0.753830
Co671	Co67	0.500000	0.816330	0.753830
Co681	Co68	0.500000	0.316330	0.253830
Co691	Co69	0.000000	0.816330	0.746170
Co701	Co70	0.000000	0.316330	0.246170
Co711	Co71	0.500000	0.816330	0.246170
Co721	Co72	0.500000	0.316330	0.746170
Co731	Co73	0.000000	0.183670	0.253830
Co741	Co74	0.000000	0.683670	0.753830
Co751	Co75	0.500000	0.183670	0.753830
Co761	Co76	0.500000	0.683670	0.253830
Co771	Co77	0.000000	0.183670	0.746170
Co781	Co78	0.000000	0.683670	0.246170
Co791	Co79	0.500000	0.183670	0.246170
Co801	Co80	0.500000	0.683670	0.746170
Co811	Co81	0.816330	0.746170	0.000000
Co821	Co82	0.816330	0.246170	0.500000
Co831	Co83	0.316330	0.746170	0.500000
Co841	Co84	0.316330	0.246170	0.000000
Co851	Co85	0.816330	0.253830	0.000000
Co861	Co86	0.816330	0.753830	0.500000
Co871	Co87	0.316330	0.253830	0.500000
Co881	Co88	0.316330	0.753830	0.000000
Co891	Co89	0.183670	0.746170	0.000000
Co901	Co90	0.183670	0.246170	0.500000
Co911	Co91	0.683670	0.746170	0.500000
Co921	Co92	0.683670	0.246170	0.000000
Co931	Co93	0.183670	0.253830	0.000000
Co941	Co94	0.183670	0.753830	0.500000
Co951	Co95	0.683670	0.253830	0.500000
Co961	Co96	0.683670	0.753830	0.000000
Cl11	Cl1	0.500000	0.250000	0.250000
Cl21	Cl2	0.000000	0.250000	0.750000
Cl31	Cl3	0.000000	0.750000	0.250000
Cl41	Cl4	0.500000	0.750000	0.250000
Cl51	Cl5	0.000000	0.250000	0.250000
Cl61	Cl6	0.500000	0.250000	0.750000
Cl71	Cl7	0.500000	0.750000	0.750000
Cl81	Cl8	0.250000	0.500000	0.250000
Cl91	Cl9	0.250000	0.000000	0.750000
Cl101	Cl10	0.750000	0.000000	0.250000
Cl111	Cl11	0.250000	0.500000	0.750000
Cl121	Cl12	0.250000	0.000000	0.250000
Cl131	Cl13	0.750000	0.500000	0.250000
Cl141	Cl14	0.750000	0.500000	0.750000
Cl151	Cl15	0.250000	0.250000	0.500000
Cl161	Cl16	0.250000	0.750000	0.000000
Cl171	Cl17	0.750000	0.250000	0.000000
Cl181	Cl18	0.750000	0.250000	0.500000
Cl191	Cl19	0.250000	0.250000	0.000000
Cl201	Cl20	0.250000	0.750000	0.500000
Cl211	Cl21	0.750000	0.750000	0.500000
Cl221	Cl22	0.750000	0.000000	0.750000
Cl231	Cl23	0.000000	0.750000	0.750000
Cl241	Cl24	0.750000	0.750000	0.000000
