data_AQOMEA_clean_PM
_symmetry_space_group_name_H-M	'P1'
_cell_length_a	37.704800
_cell_length_b	37.704800
_cell_length_c	37.704800
_cell_angle_alpha	90.000000
_cell_angle_beta	90.000000
_cell_angle_gamma	90.000000
_symmetry_Int_Tables_number 1

loop_
_symmetry_equiv_pos_as_xyz
'x,y,z'

loop_
_atom_site_label
_atom_site_type_symbol
_atom_site_fract_x
_atom_site_fract_y
_atom_site_fract_z
N11	N1	0.682990	0.461940	0.285270
N21	N2	0.706780	0.461940	0.312110
N31	N3	0.701310	0.434920	0.333770
C11	C1	0.662240	0.433880	0.290140
H11	H1	0.643500	0.427000	0.275600
C21	C2	0.673290	0.416770	0.320530
C31	C3	0.659290	0.384500	0.337750
C41	C4	0.629440	0.367630	0.324240
H21	H2	0.618600	0.376500	0.303900
N41	N4	0.682990	0.961940	0.785270
N51	N5	0.706780	0.961940	0.812110
N61	N6	0.701310	0.934920	0.833770
C51	C5	0.662240	0.933880	0.790140
H31	H3	0.643500	0.927000	0.775600
C61	C6	0.673290	0.916770	0.820530
C71	C7	0.659290	0.884500	0.837750
C81	C8	0.629440	0.867630	0.824240
H41	H4	0.618600	0.876500	0.803900
N71	N7	0.182990	0.461940	0.785270
N81	N8	0.206780	0.461940	0.812110
N91	N9	0.201310	0.434920	0.833770
C91	C9	0.162240	0.433880	0.790140
H51	H5	0.143500	0.427000	0.775600
C101	C10	0.173290	0.416770	0.820530
C111	C11	0.159290	0.384500	0.837750
C121	C12	0.129440	0.367630	0.824240
H61	H6	0.118600	0.376500	0.803900
N101	N10	0.182990	0.961940	0.285270
N111	N11	0.206780	0.961940	0.312110
N121	N12	0.201310	0.934920	0.333770
C131	C13	0.162240	0.933880	0.290140
H71	H7	0.143500	0.927000	0.275600
C141	C14	0.173290	0.916770	0.320530
C151	C15	0.159290	0.884500	0.337750
C161	C16	0.129440	0.867630	0.324240
H81	H8	0.118600	0.876500	0.303900
N131	N13	0.317010	0.538060	0.285270
N141	N14	0.293220	0.538060	0.312110
N151	N15	0.298690	0.565080	0.333770
C171	C17	0.337760	0.566120	0.290140
H91	H9	0.356500	0.573000	0.275600
C181	C18	0.326710	0.583230	0.320530
C191	C19	0.340710	0.615500	0.337750
C201	C20	0.370560	0.632370	0.324240
H101	H10	0.381400	0.623500	0.303900
N161	N16	0.317010	0.038060	0.785270
N171	N17	0.293220	0.038060	0.812110
N181	N18	0.298690	0.065080	0.833770
C211	C21	0.337760	0.066120	0.790140
H111	H11	0.356500	0.073000	0.775600
C221	C22	0.326710	0.083230	0.820530
C231	C23	0.340710	0.115500	0.837750
C241	C24	0.370560	0.132370	0.824240
H121	H12	0.381400	0.123500	0.803900
N191	N19	0.817010	0.538060	0.785270
N201	N20	0.793220	0.538060	0.812110
N211	N21	0.798690	0.565080	0.833770
C251	C25	0.837760	0.566120	0.790140
H131	H13	0.856500	0.573000	0.775600
C261	C26	0.826710	0.583230	0.820530
C271	C27	0.840710	0.615500	0.837750
C281	C28	0.870560	0.632370	0.824240
H141	H14	0.881400	0.623500	0.803900
N221	N22	0.817010	0.038060	0.285270
N231	N23	0.793220	0.038060	0.312110
N241	N24	0.798690	0.065080	0.333770
C291	C29	0.837760	0.066120	0.290140
H151	H15	0.856500	0.073000	0.275600
C301	C30	0.826710	0.083230	0.320530
C311	C31	0.840710	0.115500	0.337750
C321	C32	0.870560	0.132370	0.324240
H161	H16	0.881400	0.123500	0.303900
N251	N25	0.317010	0.461940	0.714730
N261	N26	0.293220	0.461940	0.687890
N271	N27	0.298690	0.434920	0.666230
C331	C33	0.337760	0.433880	0.709860
H171	H17	0.356500	0.427000	0.724400
C341	C34	0.326710	0.416770	0.679470
C351	C35	0.340710	0.384500	0.662250
C361	C36	0.370560	0.367630	0.675760
H181	H18	0.381400	0.376500	0.696100
N281	N28	0.317010	0.961940	0.214730
N291	N29	0.293220	0.961940	0.187890
N301	N30	0.298690	0.934920	0.166230
C371	C37	0.337760	0.933880	0.209860
H191	H19	0.356500	0.927000	0.224400
C381	C38	0.326710	0.916770	0.179470
C391	C39	0.340710	0.884500	0.162250
C401	C40	0.370560	0.867630	0.175760
H201	H20	0.381400	0.876500	0.196100
N311	N31	0.817010	0.461940	0.214730
N321	N32	0.793220	0.461940	0.187890
N331	N33	0.798690	0.434920	0.166230
C411	C41	0.837760	0.433880	0.209860
H211	H21	0.856500	0.427000	0.224400
C421	C42	0.826710	0.416770	0.179470
C431	C43	0.840710	0.384500	0.162250
C441	C44	0.870560	0.367630	0.175760
H221	H22	0.881400	0.376500	0.196100
N341	N34	0.817010	0.961940	0.714730
N351	N35	0.793220	0.961940	0.687890
N361	N36	0.798690	0.934920	0.666230
C451	C45	0.837760	0.933880	0.709860
H231	H23	0.856500	0.927000	0.724400
C461	C46	0.826710	0.916770	0.679470
C471	C47	0.840710	0.884500	0.662250
C481	C48	0.870560	0.867630	0.675760
H241	H24	0.881400	0.876500	0.696100
N371	N37	0.682990	0.538060	0.714730
N381	N38	0.706780	0.538060	0.687890
N391	N39	0.701310	0.565080	0.666230
C491	C49	0.662240	0.566120	0.709860
H251	H25	0.643500	0.573000	0.724400
C501	C50	0.673290	0.583230	0.679470
C511	C51	0.659290	0.615500	0.662250
C521	C52	0.629440	0.632370	0.675760
H261	H26	0.618600	0.623500	0.696100
N401	N40	0.682990	0.038060	0.214730
N411	N41	0.706780	0.038060	0.187890
N421	N42	0.701310	0.065080	0.166230
C531	C53	0.662240	0.066120	0.209860
H271	H27	0.643500	0.073000	0.224400
C541	C54	0.673290	0.083230	0.179470
C551	C55	0.659290	0.115500	0.162250
C561	C56	0.629440	0.132370	0.175760
H281	H28	0.618600	0.123500	0.196100
N431	N43	0.182990	0.538060	0.214730
N441	N44	0.206780	0.538060	0.187890
N451	N45	0.201310	0.565080	0.166230
C571	C57	0.162240	0.566120	0.209860
H291	H29	0.143500	0.573000	0.224400
C581	C58	0.173290	0.583230	0.179470
C591	C59	0.159290	0.615500	0.162250
C601	C60	0.129440	0.632370	0.175760
H301	H30	0.118600	0.623500	0.196100
N461	N46	0.182990	0.038060	0.714730
N471	N47	0.206780	0.038060	0.687890
N481	N48	0.201310	0.065080	0.666230
C611	C61	0.162240	0.066120	0.709860
H311	H31	0.143500	0.073000	0.724400
C621	C62	0.173290	0.083230	0.679470
C631	C63	0.159290	0.115500	0.662250
C641	C64	0.129440	0.132370	0.675760
H321	H32	0.118600	0.123500	0.696100
N491	N49	0.285270	0.682990	0.461940
N501	N50	0.312110	0.706780	0.461940
N511	N51	0.333770	0.701310	0.434920
C651	C65	0.290140	0.662240	0.433880
H331	H33	0.275600	0.643500	0.427000
C661	C66	0.320530	0.673290	0.416770
C671	C67	0.337750	0.659290	0.384500
C681	C68	0.324240	0.629440	0.367630
H341	H34	0.303900	0.618600	0.376500
N521	N52	0.285270	0.182990	0.961940
N531	N53	0.312110	0.206780	0.961940
N541	N54	0.333770	0.201310	0.934920
C691	C69	0.290140	0.162240	0.933880
H351	H35	0.275600	0.143500	0.927000
C701	C70	0.320530	0.173290	0.916770
C711	C71	0.337750	0.159290	0.884500
C721	C72	0.324240	0.129440	0.867630
H361	H36	0.303900	0.118600	0.876500
N551	N55	0.785270	0.682990	0.961940
N561	N56	0.812110	0.706780	0.961940
N571	N57	0.833770	0.701310	0.934920
C731	C73	0.790140	0.662240	0.933880
H371	H37	0.775600	0.643500	0.927000
C741	C74	0.820530	0.673290	0.916770
C751	C75	0.837750	0.659290	0.884500
C761	C76	0.824240	0.629440	0.867630
H381	H38	0.803900	0.618600	0.876500
N581	N58	0.785270	0.182990	0.461940
N591	N59	0.812110	0.206780	0.461940
N601	N60	0.833770	0.201310	0.434920
C771	C77	0.790140	0.162240	0.433880
H391	H39	0.775600	0.143500	0.427000
C781	C78	0.820530	0.173290	0.416770
C791	C79	0.837750	0.159290	0.384500
C801	C80	0.824240	0.129440	0.367630
H401	H40	0.803900	0.118600	0.376500
N611	N61	0.285270	0.317010	0.538060
N621	N62	0.312110	0.293220	0.538060
N631	N63	0.333770	0.298690	0.565080
C811	C81	0.290140	0.337760	0.566120
H411	H41	0.275600	0.356500	0.573000
C821	C82	0.320530	0.326710	0.583230
C831	C83	0.337750	0.340710	0.615500
C841	C84	0.324240	0.370560	0.632370
H421	H42	0.303900	0.381400	0.623500
N641	N64	0.285270	0.817010	0.038060
N651	N65	0.312110	0.793220	0.038060
N661	N66	0.333770	0.798690	0.065080
C851	C85	0.290140	0.837760	0.066120
H431	H43	0.275600	0.856500	0.073000
C861	C86	0.320530	0.826710	0.083230
C871	C87	0.337750	0.840710	0.115500
C881	C88	0.324240	0.870560	0.132370
H441	H44	0.303900	0.881400	0.123500
N671	N67	0.785270	0.317010	0.038060
N681	N68	0.812110	0.293220	0.038060
N691	N69	0.833770	0.298690	0.065080
C891	C89	0.790140	0.337760	0.066120
H451	H45	0.775600	0.356500	0.073000
C901	C90	0.820530	0.326710	0.083230
C911	C91	0.837750	0.340710	0.115500
C921	C92	0.824240	0.370560	0.132370
H461	H46	0.803900	0.381400	0.123500
N701	N70	0.785270	0.817010	0.538060
N711	N71	0.812110	0.793220	0.538060
N721	N72	0.833770	0.798690	0.565080
C931	C93	0.790140	0.837760	0.566120
H471	H47	0.775600	0.856500	0.573000
C941	C94	0.820530	0.826710	0.583230
C951	C95	0.837750	0.840710	0.615500
C961	C96	0.824240	0.870560	0.632370
H481	H48	0.803900	0.881400	0.623500
N731	N73	0.714730	0.317010	0.461940
N741	N74	0.687890	0.293220	0.461940
N751	N75	0.666230	0.298690	0.434920
C971	C97	0.709860	0.337760	0.433880
H491	H49	0.724400	0.356500	0.427000
C981	C98	0.679470	0.326710	0.416770
C991	C99	0.662250	0.340710	0.384500
C1001	C100	0.675760	0.370560	0.367630
H501	H50	0.696100	0.381400	0.376500
N761	N76	0.714730	0.817010	0.961940
N771	N77	0.687890	0.793220	0.961940
N781	N78	0.666230	0.798690	0.934920
C1011	C101	0.709860	0.837760	0.933880
H511	H51	0.724400	0.856500	0.927000
C1021	C102	0.679470	0.826710	0.916770
C1031	C103	0.662250	0.840710	0.884500
C1041	C104	0.675760	0.870560	0.867630
H521	H52	0.696100	0.881400	0.876500
N791	N79	0.214730	0.317010	0.961940
N801	N80	0.187890	0.293220	0.961940
N811	N81	0.166230	0.298690	0.934920
C1051	C105	0.209860	0.337760	0.933880
H531	H53	0.224400	0.356500	0.927000
C1061	C106	0.179470	0.326710	0.916770
C1071	C107	0.162250	0.340710	0.884500
C1081	C108	0.175760	0.370560	0.867630
H541	H54	0.196100	0.381400	0.876500
N821	N82	0.214730	0.817010	0.461940
N831	N83	0.187890	0.793220	0.461940
N841	N84	0.166230	0.798690	0.434920
C1091	C109	0.209860	0.837760	0.433880
H551	H55	0.224400	0.856500	0.427000
C1101	C110	0.179470	0.826710	0.416770
C1111	C111	0.162250	0.840710	0.384500
C1121	C112	0.175760	0.870560	0.367630
H561	H56	0.196100	0.881400	0.376500
N851	N85	0.714730	0.682990	0.538060
N861	N86	0.687890	0.706780	0.538060
N871	N87	0.666230	0.701310	0.565080
C1131	C113	0.709860	0.662240	0.566120
H571	H57	0.724400	0.643500	0.573000
C1141	C114	0.679470	0.673290	0.583230
C1151	C115	0.662250	0.659290	0.615500
C1161	C116	0.675760	0.629440	0.632370
H581	H58	0.696100	0.618600	0.623500
N881	N88	0.714730	0.182990	0.038060
N891	N89	0.687890	0.206780	0.038060
N901	N90	0.666230	0.201310	0.065080
C1171	C117	0.709860	0.162240	0.066120
H591	H59	0.724400	0.143500	0.073000
C1181	C118	0.679470	0.173290	0.083230
C1191	C119	0.662250	0.159290	0.115500
C1201	C120	0.675760	0.129440	0.132370
H601	H60	0.696100	0.118600	0.123500
N911	N91	0.214730	0.682990	0.038060
N921	N92	0.187890	0.706780	0.038060
N931	N93	0.166230	0.701310	0.065080
C1211	C121	0.209860	0.662240	0.066120
H611	H61	0.224400	0.643500	0.073000
C1221	C122	0.179470	0.673290	0.083230
C1231	C123	0.162250	0.659290	0.115500
C1241	C124	0.175760	0.629440	0.132370
H621	H62	0.196100	0.618600	0.123500
N941	N94	0.214730	0.182990	0.538060
N951	N95	0.187890	0.206780	0.538060
N961	N96	0.166230	0.201310	0.565080
C1251	C125	0.209860	0.162240	0.566120
H631	H63	0.224400	0.143500	0.573000
C1261	C126	0.179470	0.173290	0.583230
C1271	C127	0.162250	0.159290	0.615500
C1281	C128	0.175760	0.129440	0.632370
H641	H64	0.196100	0.118600	0.623500
N971	N97	0.461940	0.285270	0.682990
N981	N98	0.461940	0.312110	0.706780
N991	N99	0.434920	0.333770	0.701310
C1291	C129	0.433880	0.290140	0.662240
H651	H65	0.427000	0.275600	0.643500
C1301	C130	0.416770	0.320530	0.673290
C1311	C131	0.384500	0.337750	0.659290
C1321	C132	0.367630	0.324240	0.629440
H661	H66	0.376500	0.303900	0.618600
N1001	N100	0.461940	0.785270	0.182990
N1011	N101	0.461940	0.812110	0.206780
N1021	N102	0.434920	0.833770	0.201310
C1331	C133	0.433880	0.790140	0.162240
H671	H67	0.427000	0.775600	0.143500
C1341	C134	0.416770	0.820530	0.173290
C1351	C135	0.384500	0.837750	0.159290
C1361	C136	0.367630	0.824240	0.129440
H681	H68	0.376500	0.803900	0.118600
N1031	N103	0.961940	0.285270	0.182990
N1041	N104	0.961940	0.312110	0.206780
N1051	N105	0.934920	0.333770	0.201310
C1371	C137	0.933880	0.290140	0.162240
H691	H69	0.927000	0.275600	0.143500
C1381	C138	0.916770	0.320530	0.173290
C1391	C139	0.884500	0.337750	0.159290
C1401	C140	0.867630	0.324240	0.129440
H701	H70	0.876500	0.303900	0.118600
N1061	N106	0.961940	0.785270	0.682990
N1071	N107	0.961940	0.812110	0.706780
N1081	N108	0.934920	0.833770	0.701310
C1411	C141	0.933880	0.790140	0.662240
H711	H71	0.927000	0.775600	0.643500
C1421	C142	0.916770	0.820530	0.673290
C1431	C143	0.884500	0.837750	0.659290
C1441	C144	0.867630	0.824240	0.629440
H721	H72	0.876500	0.803900	0.618600
N1091	N109	0.538060	0.285270	0.317010
N1101	N110	0.538060	0.312110	0.293220
N1111	N111	0.565080	0.333770	0.298690
C1451	C145	0.566120	0.290140	0.337760
H731	H73	0.573000	0.275600	0.356500
C1461	C146	0.583230	0.320530	0.326710
C1471	C147	0.615500	0.337750	0.340710
C1481	C148	0.632370	0.324240	0.370560
H741	H74	0.623500	0.303900	0.381400
N1121	N112	0.538060	0.785270	0.817010
N1131	N113	0.538060	0.812110	0.793220
N1141	N114	0.565080	0.833770	0.798690
C1491	C149	0.566120	0.790140	0.837760
H751	H75	0.573000	0.775600	0.856500
C1501	C150	0.583230	0.820530	0.826710
C1511	C151	0.615500	0.837750	0.840710
C1521	C152	0.632370	0.824240	0.870560
H761	H76	0.623500	0.803900	0.881400
N1151	N115	0.038060	0.285270	0.817010
N1161	N116	0.038060	0.312110	0.793220
N1171	N117	0.065080	0.333770	0.798690
C1531	C153	0.066120	0.290140	0.837760
H771	H77	0.073000	0.275600	0.856500
C1541	C154	0.083230	0.320530	0.826710
C1551	C155	0.115500	0.337750	0.840710
C1561	C156	0.132370	0.324240	0.870560
H781	H78	0.123500	0.303900	0.881400
N1181	N118	0.038060	0.785270	0.317010
N1191	N119	0.038060	0.812110	0.293220
N1201	N120	0.065080	0.833770	0.298690
C1571	C157	0.066120	0.790140	0.337760
H791	H79	0.073000	0.775600	0.356500
C1581	C158	0.083230	0.820530	0.326710
C1591	C159	0.115500	0.837750	0.340710
C1601	C160	0.132370	0.824240	0.370560
H801	H80	0.123500	0.803900	0.381400
N1211	N121	0.461940	0.714730	0.317010
N1221	N122	0.461940	0.687890	0.293220
N1231	N123	0.434920	0.666230	0.298690
C1611	C161	0.433880	0.709860	0.337760
H811	H81	0.427000	0.724400	0.356500
C1621	C162	0.416770	0.679470	0.326710
C1631	C163	0.384500	0.662250	0.340710
C1641	C164	0.367630	0.675760	0.370560
H821	H82	0.376500	0.696100	0.381400
N1241	N124	0.461940	0.214730	0.817010
N1251	N125	0.461940	0.187890	0.793220
N1261	N126	0.434920	0.166230	0.798690
C1651	C165	0.433880	0.209860	0.837760
H831	H83	0.427000	0.224400	0.856500
C1661	C166	0.416770	0.179470	0.826710
C1671	C167	0.384500	0.162250	0.840710
C1681	C168	0.367630	0.175760	0.870560
H841	H84	0.376500	0.196100	0.881400
N1271	N127	0.961940	0.714730	0.817010
N1281	N128	0.961940	0.687890	0.793220
N1291	N129	0.934920	0.666230	0.798690
C1691	C169	0.933880	0.709860	0.837760
H851	H85	0.927000	0.724400	0.856500
C1701	C170	0.916770	0.679470	0.826710
C1711	C171	0.884500	0.662250	0.840710
C1721	C172	0.867630	0.675760	0.870560
H861	H86	0.876500	0.696100	0.881400
N1301	N130	0.961940	0.214730	0.317010
N1311	N131	0.961940	0.187890	0.293220
N1321	N132	0.934920	0.166230	0.298690
C1731	C173	0.933880	0.209860	0.337760
H871	H87	0.927000	0.224400	0.356500
C1741	C174	0.916770	0.179470	0.326710
C1751	C175	0.884500	0.162250	0.340710
C1761	C176	0.867630	0.175760	0.370560
H881	H88	0.876500	0.196100	0.381400
N1331	N133	0.538060	0.714730	0.682990
N1341	N134	0.538060	0.687890	0.706780
N1351	N135	0.565080	0.666230	0.701310
C1771	C177	0.566120	0.709860	0.662240
H891	H89	0.573000	0.724400	0.643500
C1781	C178	0.583230	0.679470	0.673290
C1791	C179	0.615500	0.662250	0.659290
C1801	C180	0.632370	0.675760	0.629440
H901	H90	0.623500	0.696100	0.618600
N1361	N136	0.538060	0.214730	0.182990
N1371	N137	0.538060	0.187890	0.206780
N1381	N138	0.565080	0.166230	0.201310
C1811	C181	0.566120	0.209860	0.162240
H911	H91	0.573000	0.224400	0.143500
C1821	C182	0.583230	0.179470	0.173290
C1831	C183	0.615500	0.162250	0.159290
C1841	C184	0.632370	0.175760	0.129440
H921	H92	0.623500	0.196100	0.118600
N1391	N139	0.038060	0.714730	0.182990
N1401	N140	0.038060	0.687890	0.206780
N1411	N141	0.065080	0.666230	0.201310
C1851	C185	0.066120	0.709860	0.162240
H931	H93	0.073000	0.724400	0.143500
C1861	C186	0.083230	0.679470	0.173290
C1871	C187	0.115500	0.662250	0.159290
C1881	C188	0.132370	0.675760	0.129440
H941	H94	0.123500	0.696100	0.118600
N1421	N142	0.038060	0.214730	0.682990
N1431	N143	0.038060	0.187890	0.706780
N1441	N144	0.065080	0.166230	0.701310
C1891	C189	0.066120	0.209860	0.662240
H951	H95	0.073000	0.224400	0.643500
C1901	C190	0.083230	0.179470	0.673290
C1911	C191	0.115500	0.162250	0.659290
C1921	C192	0.132370	0.175760	0.629440
H961	H96	0.123500	0.196100	0.618600
N1451	N145	0.961940	0.182990	0.214730
N1461	N146	0.961940	0.206780	0.187890
N1471	N147	0.934920	0.201310	0.166230
C1931	C193	0.933880	0.162240	0.209860
H971	H97	0.927000	0.143500	0.224400
C1941	C194	0.916770	0.173290	0.179470
C1951	C195	0.884500	0.159290	0.162250
C1961	C196	0.867630	0.129440	0.175760
H981	H98	0.876500	0.118600	0.196100
N1481	N148	0.961940	0.682990	0.714730
N1491	N149	0.961940	0.706780	0.687890
N1501	N150	0.934920	0.701310	0.666230
C1971	C197	0.933880	0.662240	0.709860
H991	H99	0.927000	0.643500	0.724400
C1981	C198	0.916770	0.673290	0.679470
C1991	C199	0.884500	0.659290	0.662250
C2001	C200	0.867630	0.629440	0.675760
H1001	H100	0.876500	0.618600	0.696100
N1511	N151	0.461940	0.182990	0.714730
N1521	N152	0.461940	0.206780	0.687890
N1531	N153	0.434920	0.201310	0.666230
C2011	C201	0.433880	0.162240	0.709860
H1011	H101	0.427000	0.143500	0.724400
C2021	C202	0.416770	0.173290	0.679470
C2031	C203	0.384500	0.159290	0.662250
C2041	C204	0.367630	0.129440	0.675760
H1021	H102	0.376500	0.118600	0.696100
N1541	N154	0.461940	0.682990	0.214730
N1551	N155	0.461940	0.706780	0.187890
N1561	N156	0.434920	0.701310	0.166230
C2051	C205	0.433880	0.662240	0.209860
H1031	H103	0.427000	0.643500	0.224400
C2061	C206	0.416770	0.673290	0.179470
C2071	C207	0.384500	0.659290	0.162250
C2081	C208	0.367630	0.629440	0.175760
H1041	H104	0.376500	0.618600	0.196100
N1571	N157	0.038060	0.817010	0.214730
N1581	N158	0.038060	0.793220	0.187890
N1591	N159	0.065080	0.798690	0.166230
C2091	C209	0.066120	0.837760	0.209860
H1051	H105	0.073000	0.856500	0.224400
C2101	C210	0.083230	0.826710	0.179470
C2111	C211	0.115500	0.840710	0.162250
C2121	C212	0.132370	0.870560	0.175760
H1061	H106	0.123500	0.881400	0.196100
N1601	N160	0.038060	0.317010	0.714730
N1611	N161	0.038060	0.293220	0.687890
N1621	N162	0.065080	0.298690	0.666230
C2131	C213	0.066120	0.337760	0.709860
H1071	H107	0.073000	0.356500	0.724400
C2141	C214	0.083230	0.326710	0.679470
C2151	C215	0.115500	0.340710	0.662250
C2161	C216	0.132370	0.370560	0.675760
H1081	H108	0.123500	0.381400	0.696100
N1631	N163	0.538060	0.817010	0.714730
N1641	N164	0.538060	0.793220	0.687890
N1651	N165	0.565080	0.798690	0.666230
C2171	C217	0.566120	0.837760	0.709860
H1091	H109	0.573000	0.856500	0.724400
C2181	C218	0.583230	0.826710	0.679470
C2191	C219	0.615500	0.840710	0.662250
C2201	C220	0.632370	0.870560	0.675760
H1101	H110	0.623500	0.881400	0.696100
N1661	N166	0.538060	0.317010	0.214730
N1671	N167	0.538060	0.293220	0.187890
N1681	N168	0.565080	0.298690	0.166230
C2211	C221	0.566120	0.337760	0.209860
H1111	H111	0.573000	0.356500	0.224400
C2221	C222	0.583230	0.326710	0.179470
C2231	C223	0.615500	0.340710	0.162250
C2241	C224	0.632370	0.370560	0.175760
H1121	H112	0.623500	0.381400	0.196100
N1691	N169	0.961940	0.817010	0.785270
N1701	N170	0.961940	0.793220	0.812110
N1711	N171	0.934920	0.798690	0.833770
C2251	C225	0.933880	0.837760	0.790140
H1131	H113	0.927000	0.856500	0.775600
C2261	C226	0.916770	0.826710	0.820530
C2271	C227	0.884500	0.840710	0.837750
C2281	C228	0.867630	0.870560	0.824240
H1141	H114	0.876500	0.881400	0.803900
N1721	N172	0.961940	0.317010	0.285270
N1731	N173	0.961940	0.293220	0.312110
N1741	N174	0.934920	0.298690	0.333770
C2291	C229	0.933880	0.337760	0.290140
H1151	H115	0.927000	0.356500	0.275600
C2301	C230	0.916770	0.326710	0.320530
C2311	C231	0.884500	0.340710	0.337750
C2321	C232	0.867630	0.370560	0.324240
H1161	H116	0.876500	0.381400	0.303900
N1751	N175	0.461940	0.817010	0.285270
N1761	N176	0.461940	0.793220	0.312110
N1771	N177	0.434920	0.798690	0.333770
C2331	C233	0.433880	0.837760	0.290140
H1171	H117	0.427000	0.856500	0.275600
C2341	C234	0.416770	0.826710	0.320530
C2351	C235	0.384500	0.840710	0.337750
C2361	C236	0.367630	0.870560	0.324240
H1181	H118	0.376500	0.881400	0.303900
N1781	N178	0.461940	0.317010	0.785270
N1791	N179	0.461940	0.293220	0.812110
N1801	N180	0.434920	0.298690	0.833770
C2371	C237	0.433880	0.337760	0.790140
H1191	H119	0.427000	0.356500	0.775600
C2381	C238	0.416770	0.326710	0.820530
C2391	C239	0.384500	0.340710	0.837750
C2401	C240	0.367630	0.370560	0.824240
H1201	H120	0.376500	0.381400	0.803900
N1811	N181	0.038060	0.182990	0.785270
N1821	N182	0.038060	0.206780	0.812110
N1831	N183	0.065080	0.201310	0.833770
C2411	C241	0.066120	0.162240	0.790140
H1211	H121	0.073000	0.143500	0.775600
C2421	C242	0.083230	0.173290	0.820530
C2431	C243	0.115500	0.159290	0.837750
C2441	C244	0.132370	0.129440	0.824240
H1221	H122	0.123500	0.118600	0.803900
N1841	N184	0.038060	0.682990	0.285270
N1851	N185	0.038060	0.706780	0.312110
N1861	N186	0.065080	0.701310	0.333770
C2451	C245	0.066120	0.662240	0.290140
H1231	H123	0.073000	0.643500	0.275600
C2461	C246	0.083230	0.673290	0.320530
C2471	C247	0.115500	0.659290	0.337750
C2481	C248	0.132370	0.629440	0.324240
H1241	H124	0.123500	0.618600	0.303900
N1871	N187	0.538060	0.182990	0.285270
N1881	N188	0.538060	0.206780	0.312110
N1891	N189	0.565080	0.201310	0.333770
C2491	C249	0.566120	0.162240	0.290140
H1251	H125	0.573000	0.143500	0.275600
C2501	C250	0.583230	0.173290	0.320530
C2511	C251	0.615500	0.159290	0.337750
C2521	C252	0.632370	0.129440	0.324240
H1261	H126	0.623500	0.118600	0.303900
N1901	N190	0.538060	0.682990	0.785270
N1911	N191	0.538060	0.706780	0.812110
N1921	N192	0.565080	0.701310	0.833770
C2531	C253	0.566120	0.662240	0.790140
H1271	H127	0.573000	0.643500	0.775600
C2541	C254	0.583230	0.673290	0.820530
C2551	C255	0.615500	0.659290	0.837750
C2561	C256	0.632370	0.629440	0.824240
H1281	H128	0.623500	0.618600	0.803900
N1931	N193	0.182990	0.785270	0.038060
N1941	N194	0.206780	0.812110	0.038060
N1951	N195	0.201310	0.833770	0.065080
C2571	C257	0.162240	0.790140	0.066120
H1291	H129	0.143500	0.775600	0.073000
C2581	C258	0.173290	0.820530	0.083230
C2591	C259	0.159290	0.837750	0.115500
C2601	C260	0.129440	0.824240	0.132370
H1301	H130	0.118600	0.803900	0.123500
N1961	N196	0.182990	0.285270	0.538060
N1971	N197	0.206780	0.312110	0.538060
N1981	N198	0.201310	0.333770	0.565080
C2611	C261	0.162240	0.290140	0.566120
H1311	H131	0.143500	0.275600	0.573000
C2621	C262	0.173290	0.320530	0.583230
C2631	C263	0.159290	0.337750	0.615500
C2641	C264	0.129440	0.324240	0.632370
H1321	H132	0.118600	0.303900	0.623500
N1991	N199	0.682990	0.785270	0.538060
N2001	N200	0.706780	0.812110	0.538060
N2011	N201	0.701310	0.833770	0.565080
C2651	C265	0.662240	0.790140	0.566120
H1331	H133	0.643500	0.775600	0.573000
C2661	C266	0.673290	0.820530	0.583230
C2671	C267	0.659290	0.837750	0.615500
C2681	C268	0.629440	0.824240	0.632370
H1341	H134	0.618600	0.803900	0.623500
N2021	N202	0.682990	0.285270	0.038060
N2031	N203	0.706780	0.312110	0.038060
N2041	N204	0.701310	0.333770	0.065080
C2691	C269	0.662240	0.290140	0.066120
H1351	H135	0.643500	0.275600	0.073000
C2701	C270	0.673290	0.320530	0.083230
C2711	C271	0.659290	0.337750	0.115500
C2721	C272	0.629440	0.324240	0.132370
H1361	H136	0.618600	0.303900	0.123500
N2051	N205	0.817010	0.785270	0.961940
N2061	N206	0.793220	0.812110	0.961940
N2071	N207	0.798690	0.833770	0.934920
C2731	C273	0.837760	0.790140	0.933880
H1371	H137	0.856500	0.775600	0.927000
C2741	C274	0.826710	0.820530	0.916770
C2751	C275	0.840710	0.837750	0.884500
C2761	C276	0.870560	0.824240	0.867630
H1381	H138	0.881400	0.803900	0.876500
N2081	N208	0.817010	0.285270	0.461940
N2091	N209	0.793220	0.312110	0.461940
N2101	N210	0.798690	0.333770	0.434920
C2771	C277	0.837760	0.290140	0.433880
H1391	H139	0.856500	0.275600	0.427000
C2781	C278	0.826710	0.320530	0.416770
C2791	C279	0.840710	0.337750	0.384500
C2801	C280	0.870560	0.324240	0.367630
H1401	H140	0.881400	0.303900	0.376500
N2111	N211	0.317010	0.785270	0.461940
N2121	N212	0.293220	0.812110	0.461940
N2131	N213	0.298690	0.833770	0.434920
C2811	C281	0.337760	0.790140	0.433880
H1411	H141	0.356500	0.775600	0.427000
C2821	C282	0.326710	0.820530	0.416770
C2831	C283	0.340710	0.837750	0.384500
C2841	C284	0.370560	0.824240	0.367630
H1421	H142	0.381400	0.803900	0.376500
N2141	N214	0.317010	0.285270	0.961940
N2151	N215	0.293220	0.312110	0.961940
N2161	N216	0.298690	0.333770	0.934920
C2851	C285	0.337760	0.290140	0.933880
H1431	H143	0.356500	0.275600	0.927000
C2861	C286	0.326710	0.320530	0.916770
C2871	C287	0.340710	0.337750	0.884500
C2881	C288	0.370560	0.324240	0.867630
H1441	H144	0.381400	0.303900	0.876500
N2171	N217	0.817010	0.214730	0.038060
N2181	N218	0.793220	0.187890	0.038060
N2191	N219	0.798690	0.166230	0.065080
C2891	C289	0.837760	0.209860	0.066120
H1451	H145	0.856500	0.224400	0.073000
C2901	C290	0.826710	0.179470	0.083230
C2911	C291	0.840710	0.162250	0.115500
C2921	C292	0.870560	0.175760	0.132370
H1461	H146	0.881400	0.196100	0.123500
N2201	N220	0.817010	0.714730	0.538060
N2211	N221	0.793220	0.687890	0.538060
N2221	N222	0.798690	0.666230	0.565080
C2931	C293	0.837760	0.709860	0.566120
H1471	H147	0.856500	0.724400	0.573000
C2941	C294	0.826710	0.679470	0.583230
C2951	C295	0.840710	0.662250	0.615500
C2961	C296	0.870560	0.675760	0.632370
H1481	H148	0.881400	0.696100	0.623500
N2231	N223	0.317010	0.214730	0.538060
N2241	N224	0.293220	0.187890	0.538060
N2251	N225	0.298690	0.166230	0.565080
C2971	C297	0.337760	0.209860	0.566120
H1491	H149	0.356500	0.224400	0.573000
C2981	C298	0.326710	0.179470	0.583230
C2991	C299	0.340710	0.162250	0.615500
C3001	C300	0.370560	0.175760	0.632370
H1501	H150	0.381400	0.196100	0.623500
N2261	N226	0.317010	0.714730	0.038060
N2271	N227	0.293220	0.687890	0.038060
N2281	N228	0.298690	0.666230	0.065080
C3011	C301	0.337760	0.709860	0.066120
H1511	H151	0.356500	0.724400	0.073000
C3021	C302	0.326710	0.679470	0.083230
C3031	C303	0.340710	0.662250	0.115500
C3041	C304	0.370560	0.675760	0.132370
H1521	H152	0.381400	0.696100	0.123500
N2291	N229	0.182990	0.214730	0.961940
N2301	N230	0.206780	0.187890	0.961940
N2311	N231	0.201310	0.166230	0.934920
C3051	C305	0.162240	0.209860	0.933880
H1531	H153	0.143500	0.224400	0.927000
C3061	C306	0.173290	0.179470	0.916770
C3071	C307	0.159290	0.162250	0.884500
C3081	C308	0.129440	0.175760	0.867630
H1541	H154	0.118600	0.196100	0.876500
N2321	N232	0.182990	0.714730	0.461940
N2331	N233	0.206780	0.687890	0.461940
N2341	N234	0.201310	0.666230	0.434920
C3091	C309	0.162240	0.709860	0.433880
H1551	H155	0.143500	0.724400	0.427000
C3101	C310	0.173290	0.679470	0.416770
C3111	C311	0.159290	0.662250	0.384500
C3121	C312	0.129440	0.675760	0.367630
H1561	H156	0.118600	0.696100	0.376500
N2351	N235	0.682990	0.214730	0.461940
N2361	N236	0.706780	0.187890	0.461940
N2371	N237	0.701310	0.166230	0.434920
C3131	C313	0.662240	0.209860	0.433880
H1571	H157	0.643500	0.224400	0.427000
C3141	C314	0.673290	0.179470	0.416770
C3151	C315	0.659290	0.162250	0.384500
C3161	C316	0.629440	0.175760	0.367630
H1581	H158	0.618600	0.196100	0.376500
N2381	N238	0.682990	0.714730	0.961940
N2391	N239	0.706780	0.687890	0.961940
N2401	N240	0.701310	0.666230	0.934920
C3171	C317	0.662240	0.709860	0.933880
H1591	H159	0.643500	0.724400	0.927000
C3181	C318	0.673290	0.679470	0.916770
C3191	C319	0.659290	0.662250	0.884500
C3201	C320	0.629440	0.675760	0.867630
H1601	H160	0.618600	0.696100	0.876500
N2411	N241	0.785270	0.961940	0.817010
N2421	N242	0.812110	0.961940	0.793220
N2431	N243	0.833770	0.934920	0.798690
C3211	C321	0.790140	0.933880	0.837760
H1611	H161	0.775600	0.927000	0.856500
C3221	C322	0.820530	0.916770	0.826710
C3231	C323	0.837750	0.884500	0.840710
C3241	C324	0.824240	0.867630	0.870560
H1621	H162	0.803900	0.876500	0.881400
N2441	N244	0.785270	0.461940	0.317010
N2451	N245	0.812110	0.461940	0.293220
N2461	N246	0.833770	0.434920	0.298690
C3251	C325	0.790140	0.433880	0.337760
H1631	H163	0.775600	0.427000	0.356500
C3261	C326	0.820530	0.416770	0.326710
C3271	C327	0.837750	0.384500	0.340710
C3281	C328	0.824240	0.367630	0.370560
H1641	H164	0.803900	0.376500	0.381400
N2471	N247	0.285270	0.961940	0.317010
N2481	N248	0.312110	0.961940	0.293220
N2491	N249	0.333770	0.934920	0.298690
C3291	C329	0.290140	0.933880	0.337760
H1651	H165	0.275600	0.927000	0.356500
C3301	C330	0.320530	0.916770	0.326710
C3311	C331	0.337750	0.884500	0.340710
C3321	C332	0.324240	0.867630	0.370560
H1661	H166	0.303900	0.876500	0.381400
N2501	N250	0.285270	0.461940	0.817010
N2511	N251	0.312110	0.461940	0.793220
N2521	N252	0.333770	0.434920	0.798690
C3331	C333	0.290140	0.433880	0.837760
H1671	H167	0.275600	0.427000	0.856500
C3341	C334	0.320530	0.416770	0.826710
C3351	C335	0.337750	0.384500	0.840710
C3361	C336	0.324240	0.367630	0.870560
H1681	H168	0.303900	0.376500	0.881400
N2531	N253	0.785270	0.038060	0.182990
N2541	N254	0.812110	0.038060	0.206780
N2551	N255	0.833770	0.065080	0.201310
C3371	C337	0.790140	0.066120	0.162240
H1691	H169	0.775600	0.073000	0.143500
C3381	C338	0.820530	0.083230	0.173290
C3391	C339	0.837750	0.115500	0.159290
C3401	C340	0.824240	0.132370	0.129440
H1701	H170	0.803900	0.123500	0.118600
N2561	N256	0.785270	0.538060	0.682990
N2571	N257	0.812110	0.538060	0.706780
N2581	N258	0.833770	0.565080	0.701310
C3411	C341	0.790140	0.566120	0.662240
H1711	H171	0.775600	0.573000	0.643500
C3421	C342	0.820530	0.583230	0.673290
C3431	C343	0.837750	0.615500	0.659290
C3441	C344	0.824240	0.632370	0.629440
H1721	H172	0.803900	0.623500	0.618600
N2591	N259	0.285270	0.038060	0.682990
N2601	N260	0.312110	0.038060	0.706780
N2611	N261	0.333770	0.065080	0.701310
C3451	C345	0.290140	0.066120	0.662240
H1731	H173	0.275600	0.073000	0.643500
C3461	C346	0.320530	0.083230	0.673290
C3471	C347	0.337750	0.115500	0.659290
C3481	C348	0.324240	0.132370	0.629440
H1741	H174	0.303900	0.123500	0.618600
N2621	N262	0.285270	0.538060	0.182990
N2631	N263	0.312110	0.538060	0.206780
N2641	N264	0.333770	0.565080	0.201310
C3491	C349	0.290140	0.566120	0.162240
H1751	H175	0.275600	0.573000	0.143500
C3501	C350	0.320530	0.583230	0.173290
C3511	C351	0.337750	0.615500	0.159290
C3521	C352	0.324240	0.632370	0.129440
H1761	H176	0.303900	0.623500	0.118600
N2651	N265	0.214730	0.961940	0.182990
N2661	N266	0.187890	0.961940	0.206780
N2671	N267	0.166230	0.934920	0.201310
C3531	C353	0.209860	0.933880	0.162240
H1771	H177	0.224400	0.927000	0.143500
C3541	C354	0.179470	0.916770	0.173290
C3551	C355	0.162250	0.884500	0.159290
C3561	C356	0.175760	0.867630	0.129440
H1781	H178	0.196100	0.876500	0.118600
N2681	N268	0.214730	0.461940	0.682990
N2691	N269	0.187890	0.461940	0.706780
N2701	N270	0.166230	0.434920	0.701310
C3571	C357	0.209860	0.433880	0.662240
H1791	H179	0.224400	0.427000	0.643500
C3581	C358	0.179470	0.416770	0.673290
C3591	C359	0.162250	0.384500	0.659290
C3601	C360	0.175760	0.367630	0.629440
H1801	H180	0.196100	0.376500	0.618600
N2711	N271	0.714730	0.961940	0.682990
N2721	N272	0.687890	0.961940	0.706780
N2731	N273	0.666230	0.934920	0.701310
C3611	C361	0.709860	0.933880	0.662240
H1811	H181	0.724400	0.927000	0.643500
C3621	C362	0.679470	0.916770	0.673290
C3631	C363	0.662250	0.884500	0.659290
C3641	C364	0.675760	0.867630	0.629440
H1821	H182	0.696100	0.876500	0.618600
N2741	N274	0.714730	0.461940	0.182990
N2751	N275	0.687890	0.461940	0.206780
N2761	N276	0.666230	0.434920	0.201310
C3651	C365	0.709860	0.433880	0.162240
H1831	H183	0.724400	0.427000	0.143500
C3661	C366	0.679470	0.416770	0.173290
C3671	C367	0.662250	0.384500	0.159290
C3681	C368	0.675760	0.367630	0.129440
H1841	H184	0.696100	0.376500	0.118600
N2771	N277	0.214730	0.038060	0.817010
N2781	N278	0.187890	0.038060	0.793220
N2791	N279	0.166230	0.065080	0.798690
C3691	C369	0.209860	0.066120	0.837760
H1851	H185	0.224400	0.073000	0.856500
C3701	C370	0.179470	0.083230	0.826710
C3711	C371	0.162250	0.115500	0.840710
C3721	C372	0.175760	0.132370	0.870560
H1861	H186	0.196100	0.123500	0.881400
N2801	N280	0.214730	0.538060	0.317010
N2811	N281	0.187890	0.538060	0.293220
N2821	N282	0.166230	0.565080	0.298690
C3731	C373	0.209860	0.566120	0.337760
H1871	H187	0.224400	0.573000	0.356500
C3741	C374	0.179470	0.583230	0.326710
C3751	C375	0.162250	0.615500	0.340710
C3761	C376	0.175760	0.632370	0.370560
H1881	H188	0.196100	0.623500	0.381400
N2831	N283	0.714730	0.038060	0.317010
N2841	N284	0.687890	0.038060	0.293220
N2851	N285	0.666230	0.065080	0.298690
C3771	C377	0.709860	0.066120	0.337760
H1891	H189	0.724400	0.073000	0.356500
C3781	C378	0.679470	0.083230	0.326710
C3791	C379	0.662250	0.115500	0.340710
C3801	C380	0.675760	0.132370	0.370560
H1901	H190	0.696100	0.123500	0.381400
N2861	N286	0.714730	0.538060	0.817010
N2871	N287	0.687890	0.538060	0.793220
N2881	N288	0.666230	0.565080	0.798690
C3811	C381	0.709860	0.566120	0.837760
H1911	H191	0.724400	0.573000	0.856500
C3821	C382	0.679470	0.583230	0.826710
C3831	C383	0.662250	0.615500	0.840710
C3841	C384	0.675760	0.632370	0.870560
H1921	H192	0.696100	0.623500	0.881400
N2891	N289	0.317010	0.538060	0.714730
N2901	N290	0.293220	0.538060	0.687890
N2911	N291	0.298690	0.565080	0.666230
C3851	C385	0.337760	0.566120	0.709860
H1931	H193	0.356500	0.573000	0.724400
C3861	C386	0.326710	0.583230	0.679470
C3871	C387	0.340710	0.615500	0.662250
C3881	C388	0.370560	0.632370	0.675760
H1941	H194	0.381400	0.623500	0.696100
N2921	N292	0.317010	0.038060	0.214730
N2931	N293	0.293220	0.038060	0.187890
N2941	N294	0.298690	0.065080	0.166230
C3891	C389	0.337760	0.066120	0.209860
H1951	H195	0.356500	0.073000	0.224400
C3901	C390	0.326710	0.083230	0.179470
C3911	C391	0.340710	0.115500	0.162250
C3921	C392	0.370560	0.132370	0.175760
H1961	H196	0.381400	0.123500	0.196100
N2951	N295	0.817010	0.538060	0.214730
N2961	N296	0.793220	0.538060	0.187890
N2971	N297	0.798690	0.565080	0.166230
C3931	C393	0.837760	0.566120	0.209860
H1971	H197	0.856500	0.573000	0.224400
C3941	C394	0.826710	0.583230	0.179470
C3951	C395	0.840710	0.615500	0.162250
C3961	C396	0.870560	0.632370	0.175760
H1981	H198	0.881400	0.623500	0.196100
N2981	N298	0.817010	0.038060	0.714730
N2991	N299	0.793220	0.038060	0.687890
N3001	N300	0.798690	0.065080	0.666230
C3971	C397	0.837760	0.066120	0.709860
H1991	H199	0.856500	0.073000	0.724400
C3981	C398	0.826710	0.083230	0.679470
C3991	C399	0.840710	0.115500	0.662250
C4001	C400	0.870560	0.132370	0.675760
H2001	H200	0.881400	0.123500	0.696100
N3011	N301	0.682990	0.461940	0.714730
N3021	N302	0.706780	0.461940	0.687890
N3031	N303	0.701310	0.434920	0.666230
C4011	C401	0.662240	0.433880	0.709860
H2011	H201	0.643500	0.427000	0.724400
C4021	C402	0.673290	0.416770	0.679470
C4031	C403	0.659290	0.384500	0.662250
C4041	C404	0.629440	0.367630	0.675760
H2021	H202	0.618600	0.376500	0.696100
N3041	N304	0.682990	0.961940	0.214730
N3051	N305	0.706780	0.961940	0.187890
N3061	N306	0.701310	0.934920	0.166230
C4051	C405	0.662240	0.933880	0.209860
H2031	H203	0.643500	0.927000	0.224400
C4061	C406	0.673290	0.916770	0.179470
C4071	C407	0.659290	0.884500	0.162250
C4081	C408	0.629440	0.867630	0.175760
H2041	H204	0.618600	0.876500	0.196100
N3071	N307	0.182990	0.461940	0.214730
N3081	N308	0.206780	0.461940	0.187890
N3091	N309	0.201310	0.434920	0.166230
C4091	C409	0.162240	0.433880	0.209860
H2051	H205	0.143500	0.427000	0.224400
C4101	C410	0.173290	0.416770	0.179470
C4111	C411	0.159290	0.384500	0.162250
C4121	C412	0.129440	0.367630	0.175760
H2061	H206	0.118600	0.376500	0.196100
N3101	N310	0.182990	0.961940	0.714730
N3111	N311	0.206780	0.961940	0.687890
N3121	N312	0.201310	0.934920	0.666230
C4131	C413	0.162240	0.933880	0.709860
H2071	H207	0.143500	0.927000	0.724400
C4141	C414	0.173290	0.916770	0.679470
C4151	C415	0.159290	0.884500	0.662250
C4161	C416	0.129440	0.867630	0.675760
H2081	H208	0.118600	0.876500	0.696100
N3131	N313	0.682990	0.538060	0.285270
N3141	N314	0.706780	0.538060	0.312110
N3151	N315	0.701310	0.565080	0.333770
C4171	C417	0.662240	0.566120	0.290140
H2091	H209	0.643500	0.573000	0.275600
C4181	C418	0.673290	0.583230	0.320530
C4191	C419	0.659290	0.615500	0.337750
C4201	C420	0.629440	0.632370	0.324240
H2101	H210	0.618600	0.623500	0.303900
N3161	N316	0.682990	0.038060	0.785270
N3171	N317	0.706780	0.038060	0.812110
N3181	N318	0.701310	0.065080	0.833770
C4211	C421	0.662240	0.066120	0.790140
H2111	H211	0.643500	0.073000	0.775600
C4221	C422	0.673290	0.083230	0.820530
C4231	C423	0.659290	0.115500	0.837750
C4241	C424	0.629440	0.132370	0.824240
H2121	H212	0.618600	0.123500	0.803900
N3191	N319	0.182990	0.538060	0.785270
N3201	N320	0.206780	0.538060	0.812110
N3211	N321	0.201310	0.565080	0.833770
C4251	C425	0.162240	0.566120	0.790140
H2131	H213	0.143500	0.573000	0.775600
C4261	C426	0.173290	0.583230	0.820530
C4271	C427	0.159290	0.615500	0.837750
C4281	C428	0.129440	0.632370	0.824240
H2141	H214	0.118600	0.623500	0.803900
N3221	N322	0.182990	0.038060	0.285270
N3231	N323	0.206780	0.038060	0.312110
N3241	N324	0.201310	0.065080	0.333770
C4291	C429	0.162240	0.066120	0.290140
H2151	H215	0.143500	0.073000	0.275600
C4301	C430	0.173290	0.083230	0.320530
C4311	C431	0.159290	0.115500	0.337750
C4321	C432	0.129440	0.132370	0.324240
H2161	H216	0.118600	0.123500	0.303900
N3251	N325	0.317010	0.461940	0.285270
N3261	N326	0.293220	0.461940	0.312110
N3271	N327	0.298690	0.434920	0.333770
C4331	C433	0.337760	0.433880	0.290140
H2171	H217	0.356500	0.427000	0.275600
C4341	C434	0.326710	0.416770	0.320530
C4351	C435	0.340710	0.384500	0.337750
C4361	C436	0.370560	0.367630	0.324240
H2181	H218	0.381400	0.376500	0.303900
N3281	N328	0.317010	0.961940	0.785270
N3291	N329	0.293220	0.961940	0.812110
N3301	N330	0.298690	0.934920	0.833770
C4371	C437	0.337760	0.933880	0.790140
H2191	H219	0.356500	0.927000	0.775600
C4381	C438	0.326710	0.916770	0.820530
C4391	C439	0.340710	0.884500	0.837750
C4401	C440	0.370560	0.867630	0.824240
H2201	H220	0.381400	0.876500	0.803900
N3311	N331	0.817010	0.461940	0.785270
N3321	N332	0.793220	0.461940	0.812110
N3331	N333	0.798690	0.434920	0.833770
C4411	C441	0.837760	0.433880	0.790140
H2211	H221	0.856500	0.427000	0.775600
C4421	C442	0.826710	0.416770	0.820530
C4431	C443	0.840710	0.384500	0.837750
C4441	C444	0.870560	0.367630	0.824240
H2221	H222	0.881400	0.376500	0.803900
N3341	N334	0.817010	0.961940	0.285270
N3351	N335	0.793220	0.961940	0.312110
N3361	N336	0.798690	0.934920	0.333770
C4451	C445	0.837760	0.933880	0.290140
H2231	H223	0.856500	0.927000	0.275600
C4461	C446	0.826710	0.916770	0.320530
C4471	C447	0.840710	0.884500	0.337750
C4481	C448	0.870560	0.867630	0.324240
H2241	H224	0.881400	0.876500	0.303900
N3371	N337	0.714730	0.317010	0.538060
N3381	N338	0.687890	0.293220	0.538060
N3391	N339	0.666230	0.298690	0.565080
C4491	C449	0.709860	0.337760	0.566120
H2251	H225	0.724400	0.356500	0.573000
C4501	C450	0.679470	0.326710	0.583230
C4511	C451	0.662250	0.340710	0.615500
C4521	C452	0.675760	0.370560	0.632370
H2261	H226	0.696100	0.381400	0.623500
N3401	N340	0.714730	0.817010	0.038060
N3411	N341	0.687890	0.793220	0.038060
N3421	N342	0.666230	0.798690	0.065080
C4531	C453	0.709860	0.837760	0.066120
H2271	H227	0.724400	0.856500	0.073000
C4541	C454	0.679470	0.826710	0.083230
C4551	C455	0.662250	0.840710	0.115500
C4561	C456	0.675760	0.870560	0.132370
H2281	H228	0.696100	0.881400	0.123500
N3431	N343	0.214730	0.317010	0.038060
N3441	N344	0.187890	0.293220	0.038060
N3451	N345	0.166230	0.298690	0.065080
C4571	C457	0.209860	0.337760	0.066120
H2291	H229	0.224400	0.356500	0.073000
C4581	C458	0.179470	0.326710	0.083230
C4591	C459	0.162250	0.340710	0.115500
C4601	C460	0.175760	0.370560	0.132370
H2301	H230	0.196100	0.381400	0.123500
N3461	N346	0.214730	0.817010	0.538060
N3471	N347	0.187890	0.793220	0.538060
N3481	N348	0.166230	0.798690	0.565080
C4611	C461	0.209860	0.837760	0.566120
H2311	H231	0.224400	0.856500	0.573000
C4621	C462	0.179470	0.826710	0.583230
C4631	C463	0.162250	0.840710	0.615500
C4641	C464	0.175760	0.870560	0.632370
H2321	H232	0.196100	0.881400	0.623500
N3491	N349	0.714730	0.682990	0.461940
N3501	N350	0.687890	0.706780	0.461940
N3511	N351	0.666230	0.701310	0.434920
C4651	C465	0.709860	0.662240	0.433880
H2331	H233	0.724400	0.643500	0.427000
C4661	C466	0.679470	0.673290	0.416770
C4671	C467	0.662250	0.659290	0.384500
C4681	C468	0.675760	0.629440	0.367630
H2341	H234	0.696100	0.618600	0.376500
N3521	N352	0.714730	0.182990	0.961940
N3531	N353	0.687890	0.206780	0.961940
N3541	N354	0.666230	0.201310	0.934920
C4691	C469	0.709860	0.162240	0.933880
H2351	H235	0.724400	0.143500	0.927000
C4701	C470	0.679470	0.173290	0.916770
C4711	C471	0.662250	0.159290	0.884500
C4721	C472	0.675760	0.129440	0.867630
H2361	H236	0.696100	0.118600	0.876500
N3551	N355	0.214730	0.682990	0.961940
N3561	N356	0.187890	0.706780	0.961940
N3571	N357	0.166230	0.701310	0.934920
C4731	C473	0.209860	0.662240	0.933880
H2371	H237	0.224400	0.643500	0.927000
C4741	C474	0.179470	0.673290	0.916770
C4751	C475	0.162250	0.659290	0.884500
C4761	C476	0.175760	0.629440	0.867630
H2381	H238	0.196100	0.618600	0.876500
N3581	N358	0.214730	0.182990	0.461940
N3591	N359	0.187890	0.206780	0.461940
N3601	N360	0.166230	0.201310	0.434920
C4771	C477	0.209860	0.162240	0.433880
H2391	H239	0.224400	0.143500	0.427000
C4781	C478	0.179470	0.173290	0.416770
C4791	C479	0.162250	0.159290	0.384500
C4801	C480	0.175760	0.129440	0.367630
H2401	H240	0.196100	0.118600	0.376500
N3611	N361	0.285270	0.682990	0.538060
N3621	N362	0.312110	0.706780	0.538060
N3631	N363	0.333770	0.701310	0.565080
C4811	C481	0.290140	0.662240	0.566120
H2411	H241	0.275600	0.643500	0.573000
C4821	C482	0.320530	0.673290	0.583230
C4831	C483	0.337750	0.659290	0.615500
C4841	C484	0.324240	0.629440	0.632370
H2421	H242	0.303900	0.618600	0.623500
N3641	N364	0.285270	0.182990	0.038060
N3651	N365	0.312110	0.206780	0.038060
N3661	N366	0.333770	0.201310	0.065080
C4851	C485	0.290140	0.162240	0.066120
H2431	H243	0.275600	0.143500	0.073000
C4861	C486	0.320530	0.173290	0.083230
C4871	C487	0.337750	0.159290	0.115500
C4881	C488	0.324240	0.129440	0.132370
H2441	H244	0.303900	0.118600	0.123500
N3671	N367	0.785270	0.682990	0.038060
N3681	N368	0.812110	0.706780	0.038060
N3691	N369	0.833770	0.701310	0.065080
C4891	C489	0.790140	0.662240	0.066120
H2451	H245	0.775600	0.643500	0.073000
C4901	C490	0.820530	0.673290	0.083230
C4911	C491	0.837750	0.659290	0.115500
C4921	C492	0.824240	0.629440	0.132370
H2461	H246	0.803900	0.618600	0.123500
N3701	N370	0.785270	0.182990	0.538060
N3711	N371	0.812110	0.206780	0.538060
N3721	N372	0.833770	0.201310	0.565080
C4931	C493	0.790140	0.162240	0.566120
H2471	H247	0.775600	0.143500	0.573000
C4941	C494	0.820530	0.173290	0.583230
C4951	C495	0.837750	0.159290	0.615500
C4961	C496	0.824240	0.129440	0.632370
H2481	H248	0.803900	0.118600	0.623500
N3731	N373	0.285270	0.317010	0.461940
N3741	N374	0.312110	0.293220	0.461940
N3751	N375	0.333770	0.298690	0.434920
C4971	C497	0.290140	0.337760	0.433880
H2491	H249	0.275600	0.356500	0.427000
C4981	C498	0.320530	0.326710	0.416770
C4991	C499	0.337750	0.340710	0.384500
C5001	C500	0.324240	0.370560	0.367630
H2501	H250	0.303900	0.381400	0.376500
N3761	N376	0.285270	0.817010	0.961940
N3771	N377	0.312110	0.793220	0.961940
N3781	N378	0.333770	0.798690	0.934920
C5011	C501	0.290140	0.837760	0.933880
H2511	H251	0.275600	0.856500	0.927000
C5021	C502	0.320530	0.826710	0.916770
C5031	C503	0.337750	0.840710	0.884500
C5041	C504	0.324240	0.870560	0.867630
H2521	H252	0.303900	0.881400	0.876500
N3791	N379	0.785270	0.317010	0.961940
N3801	N380	0.812110	0.293220	0.961940
N3811	N381	0.833770	0.298690	0.934920
C5051	C505	0.790140	0.337760	0.933880
H2531	H253	0.775600	0.356500	0.927000
C5061	C506	0.820530	0.326710	0.916770
C5071	C507	0.837750	0.340710	0.884500
C5081	C508	0.824240	0.370560	0.867630
H2541	H254	0.803900	0.381400	0.876500
N3821	N382	0.785270	0.817010	0.461940
N3831	N383	0.812110	0.793220	0.461940
N3841	N384	0.833770	0.798690	0.434920
C5091	C509	0.790140	0.837760	0.433880
H2551	H255	0.775600	0.856500	0.427000
C5101	C510	0.820530	0.826710	0.416770
C5111	C511	0.837750	0.840710	0.384500
C5121	C512	0.824240	0.870560	0.367630
H2561	H256	0.803900	0.881400	0.376500
N3851	N385	0.538060	0.714730	0.317010
N3861	N386	0.538060	0.687890	0.293220
N3871	N387	0.565080	0.666230	0.298690
C5131	C513	0.566120	0.709860	0.337760
H2571	H257	0.573000	0.724400	0.356500
C5141	C514	0.583230	0.679470	0.326710
C5151	C515	0.615500	0.662250	0.340710
C5161	C516	0.632370	0.675760	0.370560
H2581	H258	0.623500	0.696100	0.381400
N3881	N388	0.538060	0.214730	0.817010
N3891	N389	0.538060	0.187890	0.793220
N3901	N390	0.565080	0.166230	0.798690
C5171	C517	0.566120	0.209860	0.837760
H2591	H259	0.573000	0.224400	0.856500
C5181	C518	0.583230	0.179470	0.826710
C5191	C519	0.615500	0.162250	0.840710
C5201	C520	0.632370	0.175760	0.870560
H2601	H260	0.623500	0.196100	0.881400
N3911	N391	0.038060	0.714730	0.817010
N3921	N392	0.038060	0.687890	0.793220
N3931	N393	0.065080	0.666230	0.798690
C5211	C521	0.066120	0.709860	0.837760
H2611	H261	0.073000	0.724400	0.856500
C5221	C522	0.083230	0.679470	0.826710
C5231	C523	0.115500	0.662250	0.840710
C5241	C524	0.132370	0.675760	0.870560
H2621	H262	0.123500	0.696100	0.881400
N3941	N394	0.038060	0.214730	0.317010
N3951	N395	0.038060	0.187890	0.293220
N3961	N396	0.065080	0.166230	0.298690
C5251	C525	0.066120	0.209860	0.337760
H2631	H263	0.073000	0.224400	0.356500
C5261	C526	0.083230	0.179470	0.326710
C5271	C527	0.115500	0.162250	0.340710
C5281	C528	0.132370	0.175760	0.370560
H2641	H264	0.123500	0.196100	0.381400
N3971	N397	0.461940	0.714730	0.682990
N3981	N398	0.461940	0.687890	0.706780
N3991	N399	0.434920	0.666230	0.701310
C5291	C529	0.433880	0.709860	0.662240
H2651	H265	0.427000	0.724400	0.643500
C5301	C530	0.416770	0.679470	0.673290
C5311	C531	0.384500	0.662250	0.659290
C5321	C532	0.367630	0.675760	0.629440
H2661	H266	0.376500	0.696100	0.618600
N4001	N400	0.461940	0.214730	0.182990
N4011	N401	0.461940	0.187890	0.206780
N4021	N402	0.434920	0.166230	0.201310
C5331	C533	0.433880	0.209860	0.162240
H2671	H267	0.427000	0.224400	0.143500
C5341	C534	0.416770	0.179470	0.173290
C5351	C535	0.384500	0.162250	0.159290
C5361	C536	0.367630	0.175760	0.129440
H2681	H268	0.376500	0.196100	0.118600
N4031	N403	0.961940	0.714730	0.182990
N4041	N404	0.961940	0.687890	0.206780
N4051	N405	0.934920	0.666230	0.201310
C5371	C537	0.933880	0.709860	0.162240
H2691	H269	0.927000	0.724400	0.143500
C5381	C538	0.916770	0.679470	0.173290
C5391	C539	0.884500	0.662250	0.159290
C5401	C540	0.867630	0.675760	0.129440
H2701	H270	0.876500	0.696100	0.118600
N4061	N406	0.961940	0.214730	0.682990
N4071	N407	0.961940	0.187890	0.706780
N4081	N408	0.934920	0.166230	0.701310
C5411	C541	0.933880	0.209860	0.662240
H2711	H271	0.927000	0.224400	0.643500
C5421	C542	0.916770	0.179470	0.673290
C5431	C543	0.884500	0.162250	0.659290
C5441	C544	0.867630	0.175760	0.629440
H2721	H272	0.876500	0.196100	0.618600
N4091	N409	0.538060	0.285270	0.682990
N4101	N410	0.538060	0.312110	0.706780
N4111	N411	0.565080	0.333770	0.701310
C5451	C545	0.566120	0.290140	0.662240
H2731	H273	0.573000	0.275600	0.643500
C5461	C546	0.583230	0.320530	0.673290
C5471	C547	0.615500	0.337750	0.659290
C5481	C548	0.632370	0.324240	0.629440
H2741	H274	0.623500	0.303900	0.618600
N4121	N412	0.538060	0.785270	0.182990
N4131	N413	0.538060	0.812110	0.206780
N4141	N414	0.565080	0.833770	0.201310
C5491	C549	0.566120	0.790140	0.162240
H2751	H275	0.573000	0.775600	0.143500
C5501	C550	0.583230	0.820530	0.173290
C5511	C551	0.615500	0.837750	0.159290
C5521	C552	0.632370	0.824240	0.129440
H2761	H276	0.623500	0.803900	0.118600
N4151	N415	0.038060	0.285270	0.182990
N4161	N416	0.038060	0.312110	0.206780
N4171	N417	0.065080	0.333770	0.201310
C5531	C553	0.066120	0.290140	0.162240
H2771	H277	0.073000	0.275600	0.143500
C5541	C554	0.083230	0.320530	0.173290
C5551	C555	0.115500	0.337750	0.159290
C5561	C556	0.132370	0.324240	0.129440
H2781	H278	0.123500	0.303900	0.118600
N4181	N418	0.038060	0.785270	0.682990
N4191	N419	0.038060	0.812110	0.706780
N4201	N420	0.065080	0.833770	0.701310
C5571	C557	0.066120	0.790140	0.662240
H2791	H279	0.073000	0.775600	0.643500
C5581	C558	0.083230	0.820530	0.673290
C5591	C559	0.115500	0.837750	0.659290
C5601	C560	0.132370	0.824240	0.629440
H2801	H280	0.123500	0.803900	0.618600
N4211	N421	0.461940	0.285270	0.317010
N4221	N422	0.461940	0.312110	0.293220
N4231	N423	0.434920	0.333770	0.298690
C5611	C561	0.433880	0.290140	0.337760
H2811	H281	0.427000	0.275600	0.356500
C5621	C562	0.416770	0.320530	0.326710
C5631	C563	0.384500	0.337750	0.340710
C5641	C564	0.367630	0.324240	0.370560
H2821	H282	0.376500	0.303900	0.381400
N4241	N424	0.461940	0.785270	0.817010
N4251	N425	0.461940	0.812110	0.793220
N4261	N426	0.434920	0.833770	0.798690
C5651	C565	0.433880	0.790140	0.837760
H2831	H283	0.427000	0.775600	0.856500
C5661	C566	0.416770	0.820530	0.826710
C5671	C567	0.384500	0.837750	0.840710
C5681	C568	0.367630	0.824240	0.870560
H2841	H284	0.376500	0.803900	0.881400
N4271	N427	0.961940	0.285270	0.817010
N4281	N428	0.961940	0.312110	0.793220
N4291	N429	0.934920	0.333770	0.798690
C5691	C569	0.933880	0.290140	0.837760
H2851	H285	0.927000	0.275600	0.856500
C5701	C570	0.916770	0.320530	0.826710
C5711	C571	0.884500	0.337750	0.840710
C5721	C572	0.867630	0.324240	0.870560
H2861	H286	0.876500	0.303900	0.881400
N4301	N430	0.961940	0.785270	0.317010
N4311	N431	0.961940	0.812110	0.293220
N4321	N432	0.934920	0.833770	0.298690
C5731	C573	0.933880	0.790140	0.337760
H2871	H287	0.927000	0.775600	0.356500
C5741	C574	0.916770	0.820530	0.326710
C5751	C575	0.884500	0.837750	0.340710
C5761	C576	0.867630	0.824240	0.370560
H2881	H288	0.876500	0.803900	0.381400
N4331	N433	0.038060	0.817010	0.785270
N4341	N434	0.038060	0.793220	0.812110
N4351	N435	0.065080	0.798690	0.833770
C5771	C577	0.066120	0.837760	0.790140
H2891	H289	0.073000	0.856500	0.775600
C5781	C578	0.083230	0.826710	0.820530
C5791	C579	0.115500	0.840710	0.837750
C5801	C580	0.132370	0.870560	0.824240
H2901	H290	0.123500	0.881400	0.803900
N4361	N436	0.038060	0.317010	0.285270
N4371	N437	0.038060	0.293220	0.312110
N4381	N438	0.065080	0.298690	0.333770
C5811	C581	0.066120	0.337760	0.290140
H2911	H291	0.073000	0.356500	0.275600
C5821	C582	0.083230	0.326710	0.320530
C5831	C583	0.115500	0.340710	0.337750
C5841	C584	0.132370	0.370560	0.324240
H2921	H292	0.123500	0.381400	0.303900
N4391	N439	0.538060	0.817010	0.285270
N4401	N440	0.538060	0.793220	0.312110
N4411	N441	0.565080	0.798690	0.333770
C5851	C585	0.566120	0.837760	0.290140
H2931	H293	0.573000	0.856500	0.275600
C5861	C586	0.583230	0.826710	0.320530
C5871	C587	0.615500	0.840710	0.337750
C5881	C588	0.632370	0.870560	0.324240
H2941	H294	0.623500	0.881400	0.303900
N4421	N442	0.538060	0.317010	0.785270
N4431	N443	0.538060	0.293220	0.812110
N4441	N444	0.565080	0.298690	0.833770
C5891	C589	0.566120	0.337760	0.790140
H2951	H295	0.573000	0.356500	0.775600
C5901	C590	0.583230	0.326710	0.820530
C5911	C591	0.615500	0.340710	0.837750
C5921	C592	0.632370	0.370560	0.824240
H2961	H296	0.623500	0.381400	0.803900
N4451	N445	0.961940	0.182990	0.785270
N4461	N446	0.961940	0.206780	0.812110
N4471	N447	0.934920	0.201310	0.833770
C5931	C593	0.933880	0.162240	0.790140
H2971	H297	0.927000	0.143500	0.775600
C5941	C594	0.916770	0.173290	0.820530
C5951	C595	0.884500	0.159290	0.837750
C5961	C596	0.867630	0.129440	0.824240
H2981	H298	0.876500	0.118600	0.803900
N4481	N448	0.961940	0.682990	0.285270
N4491	N449	0.961940	0.706780	0.312110
N4501	N450	0.934920	0.701310	0.333770
C5971	C597	0.933880	0.662240	0.290140
H2991	H299	0.927000	0.643500	0.275600
C5981	C598	0.916770	0.673290	0.320530
C5991	C599	0.884500	0.659290	0.337750
C6001	C600	0.867630	0.629440	0.324240
H3001	H300	0.876500	0.618600	0.303900
N4511	N451	0.461940	0.182990	0.285270
N4521	N452	0.461940	0.206780	0.312110
N4531	N453	0.434920	0.201310	0.333770
C6011	C601	0.433880	0.162240	0.290140
H3011	H301	0.427000	0.143500	0.275600
C6021	C602	0.416770	0.173290	0.320530
C6031	C603	0.384500	0.159290	0.337750
C6041	C604	0.367630	0.129440	0.324240
H3021	H302	0.376500	0.118600	0.303900
N4541	N454	0.461940	0.682990	0.785270
N4551	N455	0.461940	0.706780	0.812110
N4561	N456	0.434920	0.701310	0.833770
C6051	C605	0.433880	0.662240	0.790140
H3031	H303	0.427000	0.643500	0.775600
C6061	C606	0.416770	0.673290	0.820530
C6071	C607	0.384500	0.659290	0.837750
C6081	C608	0.367630	0.629440	0.824240
H3041	H304	0.376500	0.618600	0.803900
N4571	N457	0.038060	0.182990	0.214730
N4581	N458	0.038060	0.206780	0.187890
N4591	N459	0.065080	0.201310	0.166230
C6091	C609	0.066120	0.162240	0.209860
H3051	H305	0.073000	0.143500	0.224400
C6101	C610	0.083230	0.173290	0.179470
C6111	C611	0.115500	0.159290	0.162250
C6121	C612	0.132370	0.129440	0.175760
H3061	H306	0.123500	0.118600	0.196100
N4601	N460	0.038060	0.682990	0.714730
N4611	N461	0.038060	0.706780	0.687890
N4621	N462	0.065080	0.701310	0.666230
C6131	C613	0.066120	0.662240	0.709860
H3071	H307	0.073000	0.643500	0.724400
C6141	C614	0.083230	0.673290	0.679470
C6151	C615	0.115500	0.659290	0.662250
C6161	C616	0.132370	0.629440	0.675760
H3081	H308	0.123500	0.618600	0.696100
N4631	N463	0.538060	0.182990	0.714730
N4641	N464	0.538060	0.206780	0.687890
N4651	N465	0.565080	0.201310	0.666230
C6171	C617	0.566120	0.162240	0.709860
H3091	H309	0.573000	0.143500	0.724400
C6181	C618	0.583230	0.173290	0.679470
C6191	C619	0.615500	0.159290	0.662250
C6201	C620	0.632370	0.129440	0.675760
H3101	H310	0.623500	0.118600	0.696100
N4661	N466	0.538060	0.682990	0.214730
N4671	N467	0.538060	0.706780	0.187890
N4681	N468	0.565080	0.701310	0.166230
C6211	C621	0.566120	0.662240	0.209860
H3111	H311	0.573000	0.643500	0.224400
C6221	C622	0.583230	0.673290	0.179470
C6231	C623	0.615500	0.659290	0.162250
C6241	C624	0.632370	0.629440	0.175760
H3121	H312	0.623500	0.618600	0.196100
N4691	N469	0.961940	0.817010	0.214730
N4701	N470	0.961940	0.793220	0.187890
N4711	N471	0.934920	0.798690	0.166230
C6251	C625	0.933880	0.837760	0.209860
H3131	H313	0.927000	0.856500	0.224400
C6261	C626	0.916770	0.826710	0.179470
C6271	C627	0.884500	0.840710	0.162250
C6281	C628	0.867630	0.870560	0.175760
H3141	H314	0.876500	0.881400	0.196100
N4721	N472	0.961940	0.317010	0.714730
N4731	N473	0.961940	0.293220	0.687890
N4741	N474	0.934920	0.298690	0.666230
C6291	C629	0.933880	0.337760	0.709860
H3151	H315	0.927000	0.356500	0.724400
C6301	C630	0.916770	0.326710	0.679470
C6311	C631	0.884500	0.340710	0.662250
C6321	C632	0.867630	0.370560	0.675760
H3161	H316	0.876500	0.381400	0.696100
N4751	N475	0.461940	0.817010	0.714730
N4761	N476	0.461940	0.793220	0.687890
N4771	N477	0.434920	0.798690	0.666230
C6331	C633	0.433880	0.837760	0.709860
H3171	H317	0.427000	0.856500	0.724400
C6341	C634	0.416770	0.826710	0.679470
C6351	C635	0.384500	0.840710	0.662250
C6361	C636	0.367630	0.870560	0.675760
H3181	H318	0.376500	0.881400	0.696100
N4781	N478	0.461940	0.317010	0.214730
N4791	N479	0.461940	0.293220	0.187890
N4801	N480	0.434920	0.298690	0.166230
C6371	C637	0.433880	0.337760	0.209860
H3191	H319	0.427000	0.356500	0.224400
C6381	C638	0.416770	0.326710	0.179470
C6391	C639	0.384500	0.340710	0.162250
C6401	C640	0.367630	0.370560	0.175760
H3201	H320	0.376500	0.381400	0.196100
N4811	N481	0.817010	0.214730	0.961940
N4821	N482	0.793220	0.187890	0.961940
N4831	N483	0.798690	0.166230	0.934920
C6411	C641	0.837760	0.209860	0.933880
H3211	H321	0.856500	0.224400	0.927000
C6421	C642	0.826710	0.179470	0.916770
C6431	C643	0.840710	0.162250	0.884500
C6441	C644	0.870560	0.175760	0.867630
H3221	H322	0.881400	0.196100	0.876500
N4841	N484	0.817010	0.714730	0.461940
N4851	N485	0.793220	0.687890	0.461940
N4861	N486	0.798690	0.666230	0.434920
C6451	C645	0.837760	0.709860	0.433880
H3231	H323	0.856500	0.724400	0.427000
C6461	C646	0.826710	0.679470	0.416770
C6471	C647	0.840710	0.662250	0.384500
C6481	C648	0.870560	0.675760	0.367630
H3241	H324	0.881400	0.696100	0.376500
N4871	N487	0.317010	0.214730	0.461940
N4881	N488	0.293220	0.187890	0.461940
N4891	N489	0.298690	0.166230	0.434920
C6491	C649	0.337760	0.209860	0.433880
H3251	H325	0.356500	0.224400	0.427000
C6501	C650	0.326710	0.179470	0.416770
C6511	C651	0.340710	0.162250	0.384500
C6521	C652	0.370560	0.175760	0.367630
H3261	H326	0.381400	0.196100	0.376500
N4901	N490	0.317010	0.714730	0.961940
N4911	N491	0.293220	0.687890	0.961940
N4921	N492	0.298690	0.666230	0.934920
C6531	C653	0.337760	0.709860	0.933880
H3271	H327	0.356500	0.724400	0.927000
C6541	C654	0.326710	0.679470	0.916770
C6551	C655	0.340710	0.662250	0.884500
C6561	C656	0.370560	0.675760	0.867630
H3281	H328	0.381400	0.696100	0.876500
N4931	N493	0.182990	0.214730	0.038060
N4941	N494	0.206780	0.187890	0.038060
N4951	N495	0.201310	0.166230	0.065080
C6571	C657	0.162240	0.209860	0.066120
H3291	H329	0.143500	0.224400	0.073000
C6581	C658	0.173290	0.179470	0.083230
C6591	C659	0.159290	0.162250	0.115500
C6601	C660	0.129440	0.175760	0.132370
H3301	H330	0.118600	0.196100	0.123500
N4961	N496	0.182990	0.714730	0.538060
N4971	N497	0.206780	0.687890	0.538060
N4981	N498	0.201310	0.666230	0.565080
C6611	C661	0.162240	0.709860	0.566120
H3311	H331	0.143500	0.724400	0.573000
C6621	C662	0.173290	0.679470	0.583230
C6631	C663	0.159290	0.662250	0.615500
C6641	C664	0.129440	0.675760	0.632370
H3321	H332	0.118600	0.696100	0.623500
N4991	N499	0.682990	0.214730	0.538060
N5001	N500	0.706780	0.187890	0.538060
N5011	N501	0.701310	0.166230	0.565080
C6651	C665	0.662240	0.209860	0.566120
H3331	H333	0.643500	0.224400	0.573000
C6661	C666	0.673290	0.179470	0.583230
C6671	C667	0.659290	0.162250	0.615500
C6681	C668	0.629440	0.175760	0.632370
H3341	H334	0.618600	0.196100	0.623500
N5021	N502	0.682990	0.714730	0.038060
N5031	N503	0.706780	0.687890	0.038060
N5041	N504	0.701310	0.666230	0.065080
C6691	C669	0.662240	0.709860	0.066120
H3351	H335	0.643500	0.724400	0.073000
C6701	C670	0.673290	0.679470	0.083230
C6711	C671	0.659290	0.662250	0.115500
C6721	C672	0.629440	0.675760	0.132370
H3361	H336	0.618600	0.696100	0.123500
N5051	N505	0.182990	0.785270	0.961940
N5061	N506	0.206780	0.812110	0.961940
N5071	N507	0.201310	0.833770	0.934920
C6731	C673	0.162240	0.790140	0.933880
H3371	H337	0.143500	0.775600	0.927000
C6741	C674	0.173290	0.820530	0.916770
C6751	C675	0.159290	0.837750	0.884500
C6761	C676	0.129440	0.824240	0.867630
H3381	H338	0.118600	0.803900	0.876500
N5081	N508	0.182990	0.285270	0.461940
N5091	N509	0.206780	0.312110	0.461940
N5101	N510	0.201310	0.333770	0.434920
C6771	C677	0.162240	0.290140	0.433880
H3391	H339	0.143500	0.275600	0.427000
C6781	C678	0.173290	0.320530	0.416770
C6791	C679	0.159290	0.337750	0.384500
C6801	C680	0.129440	0.324240	0.367630
H3401	H340	0.118600	0.303900	0.376500
N5111	N511	0.682990	0.785270	0.461940
N5121	N512	0.706780	0.812110	0.461940
N5131	N513	0.701310	0.833770	0.434920
C6811	C681	0.662240	0.790140	0.433880
H3411	H341	0.643500	0.775600	0.427000
C6821	C682	0.673290	0.820530	0.416770
C6831	C683	0.659290	0.837750	0.384500
C6841	C684	0.629440	0.824240	0.367630
H3421	H342	0.618600	0.803900	0.376500
N5141	N514	0.682990	0.285270	0.961940
N5151	N515	0.706780	0.312110	0.961940
N5161	N516	0.701310	0.333770	0.934920
C6851	C685	0.662240	0.290140	0.933880
H3431	H343	0.643500	0.275600	0.927000
C6861	C686	0.673290	0.320530	0.916770
C6871	C687	0.659290	0.337750	0.884500
C6881	C688	0.629440	0.324240	0.867630
H3441	H344	0.618600	0.303900	0.876500
N5171	N517	0.817010	0.785270	0.038060
N5181	N518	0.793220	0.812110	0.038060
N5191	N519	0.798690	0.833770	0.065080
C6891	C689	0.837760	0.790140	0.066120
H3451	H345	0.856500	0.775600	0.073000
C6901	C690	0.826710	0.820530	0.083230
C6911	C691	0.840710	0.837750	0.115500
C6921	C692	0.870560	0.824240	0.132370
H3461	H346	0.881400	0.803900	0.123500
N5201	N520	0.817010	0.285270	0.538060
N5211	N521	0.793220	0.312110	0.538060
N5221	N522	0.798690	0.333770	0.565080
C6931	C693	0.837760	0.290140	0.566120
H3471	H347	0.856500	0.275600	0.573000
C6941	C694	0.826710	0.320530	0.583230
C6951	C695	0.840710	0.337750	0.615500
C6961	C696	0.870560	0.324240	0.632370
H3481	H348	0.881400	0.303900	0.623500
N5231	N523	0.317010	0.785270	0.538060
N5241	N524	0.293220	0.812110	0.538060
N5251	N525	0.298690	0.833770	0.565080
C6971	C697	0.337760	0.790140	0.566120
H3491	H349	0.356500	0.775600	0.573000
C6981	C698	0.326710	0.820530	0.583230
C6991	C699	0.340710	0.837750	0.615500
C7001	C700	0.370560	0.824240	0.632370
H3501	H350	0.381400	0.803900	0.623500
N5261	N526	0.317010	0.285270	0.038060
N5271	N527	0.293220	0.312110	0.038060
N5281	N528	0.298690	0.333770	0.065080
C7011	C701	0.337760	0.290140	0.066120
H3511	H351	0.356500	0.275600	0.073000
C7021	C702	0.326710	0.320530	0.083230
C7031	C703	0.340710	0.337750	0.115500
C7041	C704	0.370560	0.324240	0.132370
H3521	H352	0.381400	0.303900	0.123500
N5291	N529	0.214730	0.038060	0.182990
N5301	N530	0.187890	0.038060	0.206780
N5311	N531	0.166230	0.065080	0.201310
C7051	C705	0.209860	0.066120	0.162240
H3531	H353	0.224400	0.073000	0.143500
C7061	C706	0.179470	0.083230	0.173290
C7071	C707	0.162250	0.115500	0.159290
C7081	C708	0.175760	0.132370	0.129440
H3541	H354	0.196100	0.123500	0.118600
N5321	N532	0.214730	0.538060	0.682990
N5331	N533	0.187890	0.538060	0.706780
N5341	N534	0.166230	0.565080	0.701310
C7091	C709	0.209860	0.566120	0.662240
H3551	H355	0.224400	0.573000	0.643500
C7101	C710	0.179470	0.583230	0.673290
C7111	C711	0.162250	0.615500	0.659290
C7121	C712	0.175760	0.632370	0.629440
H3561	H356	0.196100	0.623500	0.618600
N5351	N535	0.714730	0.038060	0.682990
N5361	N536	0.687890	0.038060	0.706780
N5371	N537	0.666230	0.065080	0.701310
C7131	C713	0.709860	0.066120	0.662240
H3571	H357	0.724400	0.073000	0.643500
C7141	C714	0.679470	0.083230	0.673290
C7151	C715	0.662250	0.115500	0.659290
C7161	C716	0.675760	0.132370	0.629440
H3581	H358	0.696100	0.123500	0.618600
N5381	N538	0.714730	0.538060	0.182990
N5391	N539	0.687890	0.538060	0.206780
N5401	N540	0.666230	0.565080	0.201310
C7171	C717	0.709860	0.566120	0.162240
H3591	H359	0.724400	0.573000	0.143500
C7181	C718	0.679470	0.583230	0.173290
C7191	C719	0.662250	0.615500	0.159290
C7201	C720	0.675760	0.632370	0.129440
H3601	H360	0.696100	0.623500	0.118600
N5411	N541	0.214730	0.961940	0.817010
N5421	N542	0.187890	0.961940	0.793220
N5431	N543	0.166230	0.934920	0.798690
C7211	C721	0.209860	0.933880	0.837760
H3611	H361	0.224400	0.927000	0.856500
C7221	C722	0.179470	0.916770	0.826710
C7231	C723	0.162250	0.884500	0.840710
C7241	C724	0.175760	0.867630	0.870560
H3621	H362	0.196100	0.876500	0.881400
N5441	N544	0.214730	0.461940	0.317010
N5451	N545	0.187890	0.461940	0.293220
N5461	N546	0.166230	0.434920	0.298690
C7251	C725	0.209860	0.433880	0.337760
H3631	H363	0.224400	0.427000	0.356500
C7261	C726	0.179470	0.416770	0.326710
C7271	C727	0.162250	0.384500	0.340710
C7281	C728	0.175760	0.367630	0.370560
H3641	H364	0.196100	0.376500	0.381400
N5471	N547	0.714730	0.961940	0.317010
N5481	N548	0.687890	0.961940	0.293220
N5491	N549	0.666230	0.934920	0.298690
C7291	C729	0.709860	0.933880	0.337760
H3651	H365	0.724400	0.927000	0.356500
C7301	C730	0.679470	0.916770	0.326710
C7311	C731	0.662250	0.884500	0.340710
C7321	C732	0.675760	0.867630	0.370560
H3661	H366	0.696100	0.876500	0.381400
N5501	N550	0.714730	0.461940	0.817010
N5511	N551	0.687890	0.461940	0.793220
N5521	N552	0.666230	0.434920	0.798690
C7331	C733	0.709860	0.433880	0.837760
H3671	H367	0.724400	0.427000	0.856500
C7341	C734	0.679470	0.416770	0.826710
C7351	C735	0.662250	0.384500	0.840710
C7361	C736	0.675760	0.367630	0.870560
H3681	H368	0.696100	0.376500	0.881400
N5531	N553	0.785270	0.038060	0.817010
N5541	N554	0.812110	0.038060	0.793220
N5551	N555	0.833770	0.065080	0.798690
C7371	C737	0.790140	0.066120	0.837760
H3691	H369	0.775600	0.073000	0.856500
C7381	C738	0.820530	0.083230	0.826710
C7391	C739	0.837750	0.115500	0.840710
C7401	C740	0.824240	0.132370	0.870560
H3701	H370	0.803900	0.123500	0.881400
N5561	N556	0.785270	0.538060	0.317010
N5571	N557	0.812110	0.538060	0.293220
N5581	N558	0.833770	0.565080	0.298690
C7411	C741	0.790140	0.566120	0.337760
H3711	H371	0.775600	0.573000	0.356500
C7421	C742	0.820530	0.583230	0.326710
C7431	C743	0.837750	0.615500	0.340710
C7441	C744	0.824240	0.632370	0.370560
H3721	H372	0.803900	0.623500	0.381400
N5591	N559	0.285270	0.038060	0.317010
N5601	N560	0.312110	0.038060	0.293220
N5611	N561	0.333770	0.065080	0.298690
C7451	C745	0.290140	0.066120	0.337760
H3731	H373	0.275600	0.073000	0.356500
C7461	C746	0.320530	0.083230	0.326710
C7471	C747	0.337750	0.115500	0.340710
C7481	C748	0.324240	0.132370	0.370560
H3741	H374	0.303900	0.123500	0.381400
N5621	N562	0.285270	0.538060	0.817010
N5631	N563	0.312110	0.538060	0.793220
N5641	N564	0.333770	0.565080	0.798690
C7491	C749	0.290140	0.566120	0.837760
H3751	H375	0.275600	0.573000	0.856500
C7501	C750	0.320530	0.583230	0.826710
C7511	C751	0.337750	0.615500	0.840710
C7521	C752	0.324240	0.632370	0.870560
H3761	H376	0.303900	0.623500	0.881400
N5651	N565	0.785270	0.961940	0.182990
N5661	N566	0.812110	0.961940	0.206780
N5671	N567	0.833770	0.934920	0.201310
C7531	C753	0.790140	0.933880	0.162240
H3771	H377	0.775600	0.927000	0.143500
C7541	C754	0.820530	0.916770	0.173290
C7551	C755	0.837750	0.884500	0.159290
C7561	C756	0.824240	0.867630	0.129440
H3781	H378	0.803900	0.876500	0.118600
N5681	N568	0.785270	0.461940	0.682990
N5691	N569	0.812110	0.461940	0.706780
N5701	N570	0.833770	0.434920	0.701310
C7571	C757	0.790140	0.433880	0.662240
H3791	H379	0.775600	0.427000	0.643500
C7581	C758	0.820530	0.416770	0.673290
C7591	C759	0.837750	0.384500	0.659290
C7601	C760	0.824240	0.367630	0.629440
H3801	H380	0.803900	0.376500	0.618600
N5711	N571	0.285270	0.961940	0.682990
N5721	N572	0.312110	0.961940	0.706780
N5731	N573	0.333770	0.934920	0.701310
C7611	C761	0.290140	0.933880	0.662240
H3811	H381	0.275600	0.927000	0.643500
C7621	C762	0.320530	0.916770	0.673290
C7631	C763	0.337750	0.884500	0.659290
C7641	C764	0.324240	0.867630	0.629440
H3821	H382	0.303900	0.876500	0.618600
N5741	N574	0.285270	0.461940	0.182990
N5751	N575	0.312110	0.461940	0.206780
N5761	N576	0.333770	0.434920	0.201310
C7651	C765	0.290140	0.433880	0.162240
H3831	H383	0.275600	0.427000	0.143500
C7661	C766	0.320530	0.416770	0.173290
C7671	C767	0.337750	0.384500	0.159290
C7681	C768	0.324240	0.367630	0.129440
H3841	H384	0.303900	0.376500	0.118600
Co11	Co1	0.746010	0.500000	0.317080
Co21	Co2	0.746010	0.000000	0.817080
Co31	Co3	0.246010	0.500000	0.817080
Co41	Co4	0.246010	0.000000	0.317080
Co51	Co5	0.253990	0.500000	0.317080
Co61	Co6	0.253990	0.000000	0.817080
Co71	Co7	0.753990	0.500000	0.817080
Co81	Co8	0.753990	0.000000	0.317080
Co91	Co9	0.253990	0.500000	0.682920
Co101	Co10	0.253990	0.000000	0.182920
Co111	Co11	0.753990	0.500000	0.182920
Co121	Co12	0.753990	0.000000	0.682920
Co131	Co13	0.746010	0.500000	0.682920
Co141	Co14	0.746010	0.000000	0.182920
Co151	Co15	0.246010	0.500000	0.182920
Co161	Co16	0.246010	0.000000	0.682920
Co171	Co17	0.317080	0.746010	0.500000
Co181	Co18	0.317080	0.246010	0.000000
Co191	Co19	0.817080	0.746010	0.000000
Co201	Co20	0.817080	0.246010	0.500000
Co211	Co21	0.317080	0.253990	0.500000
Co221	Co22	0.317080	0.753990	0.000000
Co231	Co23	0.817080	0.253990	0.000000
Co241	Co24	0.817080	0.753990	0.500000
Co251	Co25	0.682920	0.253990	0.500000
Co261	Co26	0.682920	0.753990	0.000000
Co271	Co27	0.182920	0.253990	0.000000
Co281	Co28	0.182920	0.753990	0.500000
Co291	Co29	0.682920	0.746010	0.500000
Co301	Co30	0.682920	0.246010	0.000000
Co311	Co31	0.182920	0.746010	0.000000
Co321	Co32	0.182920	0.246010	0.500000
Co331	Co33	0.500000	0.317080	0.746010
Co341	Co34	0.500000	0.817080	0.246010
Co351	Co35	0.000000	0.317080	0.246010
Co361	Co36	0.000000	0.817080	0.746010
Co371	Co37	0.500000	0.317080	0.253990
Co381	Co38	0.500000	0.817080	0.753990
Co391	Co39	0.000000	0.317080	0.753990
Co401	Co40	0.000000	0.817080	0.253990
Co411	Co41	0.500000	0.682920	0.253990
Co421	Co42	0.500000	0.182920	0.753990
Co431	Co43	0.000000	0.682920	0.753990
Co441	Co44	0.000000	0.182920	0.253990
Co451	Co45	0.500000	0.682920	0.746010
Co461	Co46	0.500000	0.182920	0.246010
Co471	Co47	0.000000	0.682920	0.246010
Co481	Co48	0.000000	0.182920	0.746010
Co491	Co49	0.000000	0.246010	0.182920
Co501	Co50	0.000000	0.746010	0.682920
Co511	Co51	0.500000	0.246010	0.682920
Co521	Co52	0.500000	0.746010	0.182920
Co531	Co53	0.000000	0.753990	0.182920
Co541	Co54	0.000000	0.253990	0.682920
Co551	Co55	0.500000	0.753990	0.682920
Co561	Co56	0.500000	0.253990	0.182920
Co571	Co57	0.000000	0.753990	0.817080
Co581	Co58	0.000000	0.253990	0.317080
Co591	Co59	0.500000	0.753990	0.317080
Co601	Co60	0.500000	0.253990	0.817080
Co611	Co61	0.000000	0.246010	0.817080
Co621	Co62	0.000000	0.746010	0.317080
Co631	Co63	0.500000	0.246010	0.317080
Co641	Co64	0.500000	0.746010	0.817080
Co651	Co65	0.246010	0.817080	0.000000
Co661	Co66	0.246010	0.317080	0.500000
Co671	Co67	0.746010	0.817080	0.500000
Co681	Co68	0.746010	0.317080	0.000000
Co691	Co69	0.753990	0.817080	0.000000
Co701	Co70	0.753990	0.317080	0.500000
Co711	Co71	0.253990	0.817080	0.500000
Co721	Co72	0.253990	0.317080	0.000000
Co731	Co73	0.753990	0.182920	0.000000
Co741	Co74	0.753990	0.682920	0.500000
Co751	Co75	0.253990	0.182920	0.500000
Co761	Co76	0.253990	0.682920	0.000000
Co771	Co77	0.246010	0.182920	0.000000
Co781	Co78	0.246010	0.682920	0.500000
Co791	Co79	0.746010	0.182920	0.500000
Co801	Co80	0.746010	0.682920	0.000000
Co811	Co81	0.817080	0.000000	0.753990
Co821	Co82	0.817080	0.500000	0.253990
Co831	Co83	0.317080	0.000000	0.253990
Co841	Co84	0.317080	0.500000	0.753990
Co851	Co85	0.817080	0.000000	0.246010
Co861	Co86	0.817080	0.500000	0.746010
Co871	Co87	0.317080	0.000000	0.746010
Co881	Co88	0.317080	0.500000	0.246010
Co891	Co89	0.182920	0.000000	0.246010
Co901	Co90	0.182920	0.500000	0.746010
Co911	Co91	0.682920	0.000000	0.746010
Co921	Co92	0.682920	0.500000	0.246010
Co931	Co93	0.182920	0.000000	0.753990
Co941	Co94	0.182920	0.500000	0.253990
Co951	Co95	0.682920	0.000000	0.253990
Co961	Co96	0.682920	0.500000	0.753990
Cl11	Cl1	0.750000	0.500000	0.250000
Cl21	Cl2	0.250000	0.500000	0.250000
Cl31	Cl3	0.250000	0.500000	0.750000
Cl41	Cl4	0.750000	0.500000	0.750000
Cl51	Cl5	0.250000	0.750000	0.500000
Cl61	Cl6	0.250000	0.250000	0.500000
Cl71	Cl7	0.750000	0.250000	0.500000
Cl81	Cl8	0.750000	0.750000	0.500000
Cl91	Cl9	0.500000	0.250000	0.750000
Cl101	Cl10	0.500000	0.250000	0.250000
Cl111	Cl11	0.500000	0.750000	0.250000
Cl121	Cl12	0.500000	0.750000	0.750000
Cl131	Cl13	0.000000	0.250000	0.250000
Cl141	Cl14	0.000000	0.750000	0.250000
Cl151	Cl15	0.000000	0.750000	0.750000
Cl161	Cl16	0.000000	0.250000	0.750000
Cl171	Cl17	0.250000	0.750000	0.000000
Cl181	Cl18	0.750000	0.750000	0.000000
Cl191	Cl19	0.750000	0.250000	0.000000
Cl201	Cl20	0.250000	0.250000	0.000000
Cl211	Cl21	0.750000	0.000000	0.750000
Cl221	Cl22	0.750000	0.000000	0.250000
Cl231	Cl23	0.250000	0.000000	0.250000
Cl241	Cl24	0.250000	0.000000	0.750000
