data_AQOSEG_clean_PM
_symmetry_space_group_name_H-M	'P1'
_cell_length_a	35.104400
_cell_length_b	35.104400
_cell_length_c	11.735200
_cell_angle_alpha	90.000000
_cell_angle_beta	90.000000
_cell_angle_gamma	90.000000
_symmetry_Int_Tables_number 1

loop_
_symmetry_equiv_pos_as_xyz
'x,y,z'

loop_
_atom_site_label
_atom_site_type_symbol
_atom_site_fract_x
_atom_site_fract_y
_atom_site_fract_z
C11	C1	0.880300	0.603100	0.999000
C21	C2	0.894700	0.604700	0.887000
H11	H1	0.884800	0.588600	0.830900
C31	C3	0.923800	0.630300	0.859000
H21	H2	0.933400	0.632200	0.785800
C41	C4	0.938100	0.653500	0.951000
H31	H3	0.958000	0.670500	0.938100
C51	C5	0.921900	0.650300	0.059000
C61	C6	0.893400	0.624700	0.085000
H41	H4	0.883800	0.622500	0.158200
C71	C7	0.945100	0.713000	0.138000
H51	H5	0.943600	0.727200	0.071700
C81	C8	0.941600	0.667900	0.257000
H61	H6	0.937200	0.644200	0.289600
C91	C9	0.818400	0.571700	0.961000
H71	H7	0.813800	0.582400	0.889500
C101	C10	0.845200	0.557100	0.120000
H81	H8	0.862300	0.556800	0.181000
C111	C11	0.838300	0.664300	0.666000
C121	C12	0.836200	0.629500	0.606400
H91	H9	0.857300	0.619400	0.569100
C131	C13	0.802600	0.611700	0.606000
C141	C14	0.772000	0.626100	0.661000
H101	H10	0.748500	0.614200	0.654700
C151	C15	0.775800	0.659300	0.727000
H111	H11	0.756400	0.667200	0.775800
C161	C16	0.809600	0.680100	0.718000
H121	H12	0.811500	0.704500	0.748000
C171	C17	0.889300	0.709000	0.729000
H131	H13	0.879000	0.713500	0.800800
C181	C18	0.896400	0.688700	0.559000
H141	H14	0.891900	0.675400	0.492200
C191	C19	0.809100	0.569700	0.435000
H151	H15	0.822700	0.586500	0.389500
C201	C20	0.780300	0.544600	0.573000
H161	H16	0.770300	0.540400	0.645700
Cu11	Cu1	0.969050	0.708420	0.472600
Cu21	Cu2	0.786270	0.511520	0.244100
N11	N1	0.936100	0.675800	0.145400
N21	N2	0.953800	0.697400	0.311800
N31	N3	0.956200	0.726600	0.235000
N41	N4	0.849400	0.578100	0.021200
N51	N5	0.813100	0.537500	0.115100
N61	N6	0.794500	0.547900	0.014300
N71	N7	0.798500	0.577300	0.542900
N81	N8	0.798100	0.536300	0.403600
N91	N9	0.778400	0.520300	0.492500
N101	N10	0.874400	0.685900	0.651200
N111	N11	0.925100	0.712100	0.573200
N121	N12	0.921500	0.724800	0.688000
C211	C21	0.380300	0.103100	0.499000
C221	C22	0.394700	0.104700	0.387000
H171	H17	0.384800	0.088600	0.330900
C231	C23	0.423800	0.130300	0.359000
H181	H18	0.433400	0.132200	0.285800
C241	C24	0.438100	0.153500	0.451000
H191	H19	0.458000	0.170500	0.438100
C251	C25	0.421900	0.150300	0.559000
C261	C26	0.393400	0.124700	0.585000
H201	H20	0.383800	0.122500	0.658200
C271	C27	0.445100	0.213000	0.638000
H211	H21	0.443600	0.227200	0.571700
C281	C28	0.441600	0.167900	0.757000
H221	H22	0.437200	0.144200	0.789600
C291	C29	0.318400	0.071700	0.461000
H231	H23	0.313800	0.082400	0.389500
C301	C30	0.345200	0.057100	0.620000
H241	H24	0.362300	0.056800	0.681000
C311	C31	0.338300	0.164300	0.166000
C321	C32	0.336200	0.129500	0.106400
H251	H25	0.357300	0.119400	0.069100
C331	C33	0.302600	0.111700	0.106000
C341	C34	0.272000	0.126100	0.161000
H261	H26	0.248500	0.114200	0.154700
C351	C35	0.275800	0.159300	0.227000
H271	H27	0.256400	0.167200	0.275800
C361	C36	0.309600	0.180100	0.218000
H281	H28	0.311500	0.204500	0.248000
C371	C37	0.389300	0.209000	0.229000
H291	H29	0.379000	0.213500	0.300800
C381	C38	0.396400	0.188700	0.059000
H301	H30	0.391900	0.175400	0.992200
C391	C39	0.309100	0.069700	0.935000
H311	H31	0.322700	0.086500	0.889500
C401	C40	0.280300	0.044600	0.073000
H321	H32	0.270300	0.040400	0.145700
Cu31	Cu3	0.469050	0.208420	0.972600
Cu41	Cu4	0.286270	0.011520	0.744100
N131	N13	0.436100	0.175800	0.645400
N141	N14	0.453800	0.197400	0.811800
N151	N15	0.456200	0.226600	0.735000
N161	N16	0.349400	0.078100	0.521200
N171	N17	0.313100	0.037500	0.615100
N181	N18	0.294500	0.047900	0.514300
N191	N19	0.298500	0.077300	0.042900
N201	N20	0.298100	0.036300	0.903600
N211	N21	0.278400	0.020300	0.992500
N221	N22	0.374400	0.185900	0.151200
N231	N23	0.425100	0.212100	0.073200
N241	N24	0.421500	0.224800	0.188000
C411	C41	0.619700	0.396900	0.499000
C421	C42	0.605300	0.395300	0.387000
H331	H33	0.615200	0.411400	0.330900
C431	C43	0.576200	0.369700	0.359000
H341	H34	0.566600	0.367800	0.285800
C441	C44	0.561900	0.346500	0.451000
H351	H35	0.542000	0.329500	0.438100
C451	C45	0.578100	0.349700	0.559000
C461	C46	0.606600	0.375300	0.585000
H361	H36	0.616200	0.377500	0.658200
C471	C47	0.554900	0.287000	0.638000
H371	H37	0.556400	0.272800	0.571700
C481	C48	0.558400	0.332100	0.757000
H381	H38	0.562800	0.355800	0.789600
C491	C49	0.681600	0.428300	0.461000
H391	H39	0.686200	0.417600	0.389500
C501	C50	0.654800	0.442900	0.620000
H401	H40	0.637700	0.443200	0.681000
C511	C51	0.661700	0.335700	0.166000
C521	C52	0.663800	0.370500	0.106400
H411	H41	0.642700	0.380600	0.069100
C531	C53	0.697400	0.388300	0.106000
C541	C54	0.728000	0.373900	0.161000
H421	H42	0.751500	0.385800	0.154700
C551	C55	0.724200	0.340700	0.227000
H431	H43	0.743600	0.332800	0.275800
C561	C56	0.690400	0.319900	0.218000
H441	H44	0.688500	0.295500	0.248000
C571	C57	0.610700	0.291000	0.229000
H451	H45	0.621000	0.286500	0.300800
C581	C58	0.603600	0.311300	0.059000
H461	H46	0.608100	0.324600	0.992200
C591	C59	0.690900	0.430300	0.935000
H471	H47	0.677300	0.413500	0.889500
C601	C60	0.719700	0.455400	0.073000
H481	H48	0.729700	0.459600	0.145700
Cu51	Cu5	0.530950	0.291580	0.972600
Cu61	Cu6	0.713730	0.488480	0.744100
N251	N25	0.563900	0.324200	0.645400
N261	N26	0.546200	0.302600	0.811800
N271	N27	0.543800	0.273400	0.735000
N281	N28	0.650600	0.421900	0.521200
N291	N29	0.686900	0.462500	0.615100
N301	N30	0.705500	0.452100	0.514300
N311	N31	0.701500	0.422700	0.042900
N321	N32	0.701900	0.463700	0.903600
N331	N33	0.721600	0.479700	0.992500
N341	N34	0.625600	0.314100	0.151200
N351	N35	0.574900	0.287900	0.073200
N361	N36	0.578500	0.275200	0.188000
C611	C61	0.119700	0.896900	0.999000
C621	C62	0.105300	0.895300	0.887000
H491	H49	0.115200	0.911400	0.830900
C631	C63	0.076200	0.869700	0.859000
H501	H50	0.066600	0.867800	0.785800
C641	C64	0.061900	0.846500	0.951000
H511	H51	0.042000	0.829500	0.938100
C651	C65	0.078100	0.849700	0.059000
C661	C66	0.106600	0.875300	0.085000
H521	H52	0.116200	0.877500	0.158200
C671	C67	0.054900	0.787000	0.138000
H531	H53	0.056400	0.772800	0.071700
C681	C68	0.058400	0.832100	0.257000
H541	H54	0.062800	0.855800	0.289600
C691	C69	0.181600	0.928300	0.961000
H551	H55	0.186200	0.917600	0.889500
C701	C70	0.154800	0.942900	0.120000
H561	H56	0.137700	0.943200	0.181000
C711	C71	0.161700	0.835700	0.666000
C721	C72	0.163800	0.870500	0.606400
H571	H57	0.142700	0.880600	0.569100
C731	C73	0.197400	0.888300	0.606000
C741	C74	0.228000	0.873900	0.661000
H581	H58	0.251500	0.885800	0.654700
C751	C75	0.224200	0.840700	0.727000
H591	H59	0.243600	0.832800	0.775800
C761	C76	0.190400	0.819900	0.718000
H601	H60	0.188500	0.795500	0.748000
C771	C77	0.110700	0.791000	0.729000
H611	H61	0.121000	0.786500	0.800800
C781	C78	0.103600	0.811300	0.559000
H621	H62	0.108100	0.824600	0.492200
C791	C79	0.190900	0.930300	0.435000
H631	H63	0.177300	0.913500	0.389500
C801	C80	0.219700	0.955400	0.573000
H641	H64	0.229700	0.959600	0.645700
Cu71	Cu7	0.030950	0.791580	0.472600
Cu81	Cu8	0.213730	0.988480	0.244100
N371	N37	0.063900	0.824200	0.145400
N381	N38	0.046200	0.802600	0.311800
N391	N39	0.043800	0.773400	0.235000
N401	N40	0.150600	0.921900	0.021200
N411	N41	0.186900	0.962500	0.115100
N421	N42	0.205500	0.952100	0.014300
N431	N43	0.201500	0.922700	0.542900
N441	N44	0.201900	0.963700	0.403600
N451	N45	0.221600	0.979700	0.492500
N461	N46	0.125600	0.814100	0.651200
N471	N47	0.074900	0.787900	0.573200
N481	N48	0.078500	0.775200	0.688000
C811	C81	0.146900	0.130300	0.249000
C821	C82	0.145300	0.144700	0.137000
H651	H65	0.161400	0.134800	0.080900
C831	C83	0.119700	0.173800	0.109000
H661	H66	0.117800	0.183400	0.035800
C841	C84	0.096500	0.188100	0.201000
H671	H67	0.079500	0.208000	0.188100
C851	C85	0.099700	0.171900	0.309000
C861	C86	0.125300	0.143400	0.335000
H681	H68	0.127500	0.133800	0.408200
C871	C87	0.037000	0.195100	0.388000
H691	H69	0.022800	0.193600	0.321700
C881	C88	0.082100	0.191600	0.507000
H701	H70	0.105800	0.187200	0.539600
C891	C89	0.178300	0.068400	0.211000
H711	H71	0.167600	0.063800	0.139500
C901	C90	0.192900	0.095200	0.370000
H721	H72	0.193200	0.112300	0.431000
C911	C91	0.085700	0.088300	0.916000
C921	C92	0.120500	0.086200	0.856400
H731	H73	0.130600	0.107300	0.819100
C931	C93	0.138300	0.052600	0.856000
C941	C94	0.123900	0.022000	0.911000
H741	H74	0.135800	0.998500	0.904700
C951	C95	0.090700	0.025800	0.977000
H751	H75	0.082800	0.006400	0.025800
C961	C96	0.069900	0.059600	0.968000
H761	H76	0.045500	0.061500	0.998000
C971	C97	0.041000	0.139300	0.979000
H771	H77	0.036500	0.129000	0.050800
C981	C98	0.061300	0.146400	0.809000
H781	H78	0.074600	0.141900	0.742200
C991	C99	0.180300	0.059100	0.685000
H791	H79	0.163500	0.072700	0.639500
C1001	C100	0.205400	0.030300	0.823000
H801	H80	0.209600	0.020300	0.895700
Cu91	Cu9	0.041580	0.219050	0.722600
Cu101	Cu10	0.238480	0.036270	0.494100
N491	N49	0.074200	0.186100	0.395400
N501	N50	0.052600	0.203800	0.561800
N511	N51	0.023400	0.206200	0.485000
N521	N52	0.171900	0.099400	0.271200
N531	N53	0.212500	0.063100	0.365100
N541	N54	0.202100	0.044500	0.264300
N551	N55	0.172700	0.048500	0.792900
N561	N56	0.213700	0.048100	0.653600
N571	N57	0.229700	0.028400	0.742500
N581	N58	0.064100	0.124400	0.901200
N591	N59	0.037900	0.175100	0.823200
N601	N60	0.025200	0.171500	0.938000
C1011	C101	0.646900	0.630300	0.749000
C1021	C102	0.645300	0.644700	0.637000
H811	H81	0.661400	0.634800	0.580900
C1031	C103	0.619700	0.673800	0.609000
H821	H82	0.617800	0.683400	0.535800
C1041	C104	0.596500	0.688100	0.701000
H831	H83	0.579500	0.708000	0.688100
C1051	C105	0.599700	0.671900	0.809000
C1061	C106	0.625300	0.643400	0.835000
H841	H84	0.627500	0.633800	0.908200
C1071	C107	0.537000	0.695100	0.888000
H851	H85	0.522800	0.693600	0.821700
C1081	C108	0.582100	0.691600	0.007000
H861	H86	0.605800	0.687200	0.039600
C1091	C109	0.678300	0.568400	0.711000
H871	H87	0.667600	0.563800	0.639500
C1101	C110	0.692900	0.595200	0.870000
H881	H88	0.693200	0.612300	0.931000
C1111	C111	0.585700	0.588300	0.416000
C1121	C112	0.620500	0.586200	0.356400
H891	H89	0.630600	0.607300	0.319100
C1131	C113	0.638300	0.552600	0.356000
C1141	C114	0.623900	0.522000	0.411000
H901	H90	0.635800	0.498500	0.404700
C1151	C115	0.590700	0.525800	0.477000
H911	H91	0.582800	0.506400	0.525800
C1161	C116	0.569900	0.559600	0.468000
H921	H92	0.545500	0.561500	0.498000
C1171	C117	0.541000	0.639300	0.479000
H931	H93	0.536500	0.629000	0.550800
C1181	C118	0.561300	0.646400	0.309000
H941	H94	0.574600	0.641900	0.242200
C1191	C119	0.680300	0.559100	0.185000
H951	H95	0.663500	0.572700	0.139500
C1201	C120	0.705400	0.530300	0.323000
H961	H96	0.709600	0.520300	0.395700
Cu111	Cu11	0.541580	0.719050	0.222600
Cu121	Cu12	0.738480	0.536270	0.994100
N611	N61	0.574200	0.686100	0.895400
N621	N62	0.552600	0.703800	0.061800
N631	N63	0.523400	0.706200	0.985000
N641	N64	0.671900	0.599400	0.771200
N651	N65	0.712500	0.563100	0.865100
N661	N66	0.702100	0.544500	0.764300
N671	N67	0.672700	0.548500	0.292900
N681	N68	0.713700	0.548100	0.153600
N691	N69	0.729700	0.528400	0.242500
N701	N70	0.564100	0.624400	0.401200
N711	N71	0.537900	0.675100	0.323200
N721	N72	0.525200	0.671500	0.438000
C1211	C121	0.353100	0.869700	0.749000
C1221	C122	0.354700	0.855300	0.637000
H971	H97	0.338600	0.865200	0.580900
C1231	C123	0.380300	0.826200	0.609000
H981	H98	0.382200	0.816600	0.535800
C1241	C124	0.403500	0.811900	0.701000
H991	H99	0.420500	0.792000	0.688100
C1251	C125	0.400300	0.828100	0.809000
C1261	C126	0.374700	0.856600	0.835000
H1001	H100	0.372500	0.866200	0.908200
C1271	C127	0.463000	0.804900	0.888000
H1011	H101	0.477200	0.806400	0.821700
C1281	C128	0.417900	0.808400	0.007000
H1021	H102	0.394200	0.812800	0.039600
C1291	C129	0.321700	0.931600	0.711000
H1031	H103	0.332400	0.936200	0.639500
C1301	C130	0.307100	0.904800	0.870000
H1041	H104	0.306800	0.887700	0.931000
C1311	C131	0.414300	0.911700	0.416000
C1321	C132	0.379500	0.913800	0.356400
H1051	H105	0.369400	0.892700	0.319100
C1331	C133	0.361700	0.947400	0.356000
C1341	C134	0.376100	0.978000	0.411000
H1061	H106	0.364200	0.001500	0.404700
C1351	C135	0.409300	0.974200	0.477000
H1071	H107	0.417200	0.993600	0.525800
C1361	C136	0.430100	0.940400	0.468000
H1081	H108	0.454500	0.938500	0.498000
C1371	C137	0.459000	0.860700	0.479000
H1091	H109	0.463500	0.871000	0.550800
C1381	C138	0.438700	0.853600	0.309000
H1101	H110	0.425400	0.858100	0.242200
C1391	C139	0.319700	0.940900	0.185000
H1111	H111	0.336500	0.927300	0.139500
C1401	C140	0.294600	0.969700	0.323000
H1121	H112	0.290400	0.979700	0.395700
Cu131	Cu13	0.458420	0.780950	0.222600
Cu141	Cu14	0.261520	0.963730	0.994100
N731	N73	0.425800	0.813900	0.895400
N741	N74	0.447400	0.796200	0.061800
N751	N75	0.476600	0.793800	0.985000
N761	N76	0.328100	0.900600	0.771200
N771	N77	0.287500	0.936900	0.865100
N781	N78	0.297900	0.955500	0.764300
N791	N79	0.327300	0.951500	0.292900
N801	N80	0.286300	0.951900	0.153600
N811	N81	0.270300	0.971600	0.242500
N821	N82	0.435900	0.875600	0.401200
N831	N83	0.462100	0.824900	0.323200
N841	N84	0.474800	0.828500	0.438000
C1411	C141	0.853100	0.369700	0.249000
C1421	C142	0.854700	0.355300	0.137000
H1131	H113	0.838600	0.365200	0.080900
C1431	C143	0.880300	0.326200	0.109000
H1141	H114	0.882200	0.316600	0.035800
C1441	C144	0.903500	0.311900	0.201000
H1151	H115	0.920500	0.292000	0.188100
C1451	C145	0.900300	0.328100	0.309000
C1461	C146	0.874700	0.356600	0.335000
H1161	H116	0.872500	0.366200	0.408200
C1471	C147	0.963000	0.304900	0.388000
H1171	H117	0.977200	0.306400	0.321700
C1481	C148	0.917900	0.308400	0.507000
H1181	H118	0.894200	0.312800	0.539600
C1491	C149	0.821700	0.431600	0.211000
H1191	H119	0.832400	0.436200	0.139500
C1501	C150	0.807100	0.404800	0.370000
H1201	H120	0.806800	0.387700	0.431000
C1511	C151	0.914300	0.411700	0.916000
C1521	C152	0.879500	0.413800	0.856400
H1211	H121	0.869400	0.392700	0.819100
C1531	C153	0.861700	0.447400	0.856000
C1541	C154	0.876100	0.478000	0.911000
H1221	H122	0.864200	0.501500	0.904700
C1551	C155	0.909300	0.474200	0.977000
H1231	H123	0.917200	0.493600	0.025800
C1561	C156	0.930100	0.440400	0.968000
H1241	H124	0.954500	0.438500	0.998000
C1571	C157	0.959000	0.360700	0.979000
H1251	H125	0.963500	0.371000	0.050800
C1581	C158	0.938700	0.353600	0.809000
H1261	H126	0.925400	0.358100	0.742200
C1591	C159	0.819700	0.440900	0.685000
H1271	H127	0.836500	0.427300	0.639500
C1601	C160	0.794600	0.469700	0.823000
H1281	H128	0.790400	0.479700	0.895700
Cu151	Cu15	0.958420	0.280950	0.722600
Cu161	Cu16	0.761520	0.463730	0.494100
N851	N85	0.925800	0.313900	0.395400
N861	N86	0.947400	0.296200	0.561800
N871	N87	0.976600	0.293800	0.485000
N881	N88	0.828100	0.400600	0.271200
N891	N89	0.787500	0.436900	0.365100
N901	N90	0.797900	0.455500	0.264300
N911	N91	0.827300	0.451500	0.792900
N921	N92	0.786300	0.451900	0.653600
N931	N93	0.770300	0.471600	0.742500
N941	N94	0.935900	0.375600	0.901200
N951	N95	0.962100	0.324900	0.823200
N961	N96	0.974800	0.328500	0.938000
C1611	C161	0.119700	0.396900	0.001000
C1621	C162	0.105300	0.395300	0.113000
H1291	H129	0.115200	0.411400	0.169100
C1631	C163	0.076200	0.369700	0.141000
H1301	H130	0.066600	0.367800	0.214200
C1641	C164	0.061900	0.346500	0.049000
H1311	H131	0.042000	0.329500	0.061900
C1651	C165	0.078100	0.349700	0.941000
C1661	C166	0.106600	0.375300	0.915000
H1321	H132	0.116200	0.377500	0.841800
C1671	C167	0.054900	0.287000	0.862000
H1331	H133	0.056400	0.272800	0.928300
C1681	C168	0.058400	0.332100	0.743000
H1341	H134	0.062800	0.355800	0.710400
C1691	C169	0.181600	0.428300	0.039000
H1351	H135	0.186200	0.417600	0.110500
C1701	C170	0.154800	0.442900	0.880000
H1361	H136	0.137700	0.443200	0.819000
C1711	C171	0.161700	0.335700	0.334000
C1721	C172	0.163800	0.370500	0.393600
H1371	H137	0.142700	0.380600	0.430900
C1731	C173	0.197400	0.388300	0.394000
C1741	C174	0.228000	0.373900	0.339000
H1381	H138	0.251500	0.385800	0.345300
C1751	C175	0.224200	0.340700	0.273000
H1391	H139	0.243600	0.332800	0.224200
C1761	C176	0.190400	0.319900	0.282000
H1401	H140	0.188500	0.295500	0.252000
C1771	C177	0.110700	0.291000	0.271000
H1411	H141	0.121000	0.286500	0.199200
C1781	C178	0.103600	0.311300	0.441000
H1421	H142	0.108100	0.324600	0.507800
C1791	C179	0.190900	0.430300	0.565000
H1431	H143	0.177300	0.413500	0.610500
C1801	C180	0.219700	0.455400	0.427000
H1441	H144	0.229700	0.459600	0.354300
Cu171	Cu17	0.030950	0.291580	0.527400
Cu181	Cu18	0.213730	0.488480	0.755900
N971	N97	0.063900	0.324200	0.854600
N981	N98	0.046200	0.302600	0.688200
N991	N99	0.043800	0.273400	0.765000
N1001	N100	0.150600	0.421900	0.978800
N1011	N101	0.186900	0.462500	0.884900
N1021	N102	0.205500	0.452100	0.985700
N1031	N103	0.201500	0.422700	0.457100
N1041	N104	0.201900	0.463700	0.596400
N1051	N105	0.221600	0.479700	0.507500
N1061	N106	0.125600	0.314100	0.348800
N1071	N107	0.074900	0.287900	0.426800
N1081	N108	0.078500	0.275200	0.312000
C1811	C181	0.619700	0.896900	0.501000
C1821	C182	0.605300	0.895300	0.613000
H1451	H145	0.615200	0.911400	0.669100
C1831	C183	0.576200	0.869700	0.641000
H1461	H146	0.566600	0.867800	0.714200
C1841	C184	0.561900	0.846500	0.549000
H1471	H147	0.542000	0.829500	0.561900
C1851	C185	0.578100	0.849700	0.441000
C1861	C186	0.606600	0.875300	0.415000
H1481	H148	0.616200	0.877500	0.341800
C1871	C187	0.554900	0.787000	0.362000
H1491	H149	0.556400	0.772800	0.428300
C1881	C188	0.558400	0.832100	0.243000
H1501	H150	0.562800	0.855800	0.210400
C1891	C189	0.681600	0.928300	0.539000
H1511	H151	0.686200	0.917600	0.610500
C1901	C190	0.654800	0.942900	0.380000
H1521	H152	0.637700	0.943200	0.319000
C1911	C191	0.661700	0.835700	0.834000
C1921	C192	0.663800	0.870500	0.893600
H1531	H153	0.642700	0.880600	0.930900
C1931	C193	0.697400	0.888300	0.894000
C1941	C194	0.728000	0.873900	0.839000
H1541	H154	0.751500	0.885800	0.845300
C1951	C195	0.724200	0.840700	0.773000
H1551	H155	0.743600	0.832800	0.724200
C1961	C196	0.690400	0.819900	0.782000
H1561	H156	0.688500	0.795500	0.752000
C1971	C197	0.610700	0.791000	0.771000
H1571	H157	0.621000	0.786500	0.699200
C1981	C198	0.603600	0.811300	0.941000
H1581	H158	0.608100	0.824600	0.007800
C1991	C199	0.690900	0.930300	0.065000
H1591	H159	0.677300	0.913500	0.110500
C2001	C200	0.719700	0.955400	0.927000
H1601	H160	0.729700	0.959600	0.854300
Cu191	Cu19	0.530950	0.791580	0.027400
Cu201	Cu20	0.713730	0.988480	0.255900
N1091	N109	0.563900	0.824200	0.354600
N1101	N110	0.546200	0.802600	0.188200
N1111	N111	0.543800	0.773400	0.265000
N1121	N112	0.650600	0.921900	0.478800
N1131	N113	0.686900	0.962500	0.384900
N1141	N114	0.705500	0.952100	0.485700
N1151	N115	0.701500	0.922700	0.957100
N1161	N116	0.701900	0.963700	0.096400
N1171	N117	0.721600	0.979700	0.007500
N1181	N118	0.625600	0.814100	0.848800
N1191	N119	0.574900	0.787900	0.926800
N1201	N120	0.578500	0.775200	0.812000
C2011	C201	0.380300	0.603100	0.501000
C2021	C202	0.394700	0.604700	0.613000
H1611	H161	0.384800	0.588600	0.669100
C2031	C203	0.423800	0.630300	0.641000
H1621	H162	0.433400	0.632200	0.714200
C2041	C204	0.438100	0.653500	0.549000
H1631	H163	0.458000	0.670500	0.561900
C2051	C205	0.421900	0.650300	0.441000
C2061	C206	0.393400	0.624700	0.415000
H1641	H164	0.383800	0.622500	0.341800
C2071	C207	0.445100	0.713000	0.362000
H1651	H165	0.443600	0.727200	0.428300
C2081	C208	0.441600	0.667900	0.243000
H1661	H166	0.437200	0.644200	0.210400
C2091	C209	0.318400	0.571700	0.539000
H1671	H167	0.313800	0.582400	0.610500
C2101	C210	0.345200	0.557100	0.380000
H1681	H168	0.362300	0.556800	0.319000
C2111	C211	0.338300	0.664300	0.834000
C2121	C212	0.336200	0.629500	0.893600
H1691	H169	0.357300	0.619400	0.930900
C2131	C213	0.302600	0.611700	0.894000
C2141	C214	0.272000	0.626100	0.839000
H1701	H170	0.248500	0.614200	0.845300
C2151	C215	0.275800	0.659300	0.773000
H1711	H171	0.256400	0.667200	0.724200
C2161	C216	0.309600	0.680100	0.782000
H1721	H172	0.311500	0.704500	0.752000
C2171	C217	0.389300	0.709000	0.771000
H1731	H173	0.379000	0.713500	0.699200
C2181	C218	0.396400	0.688700	0.941000
H1741	H174	0.391900	0.675400	0.007800
C2191	C219	0.309100	0.569700	0.065000
H1751	H175	0.322700	0.586500	0.110500
C2201	C220	0.280300	0.544600	0.927000
H1761	H176	0.270300	0.540400	0.854300
Cu211	Cu21	0.469050	0.708420	0.027400
Cu221	Cu22	0.286270	0.511520	0.255900
N1211	N121	0.436100	0.675800	0.354600
N1221	N122	0.453800	0.697400	0.188200
N1231	N123	0.456200	0.726600	0.265000
N1241	N124	0.349400	0.578100	0.478800
N1251	N125	0.313100	0.537500	0.384900
N1261	N126	0.294500	0.547900	0.485700
N1271	N127	0.298500	0.577300	0.957100
N1281	N128	0.298100	0.536300	0.096400
N1291	N129	0.278400	0.520300	0.007500
N1301	N130	0.374400	0.685900	0.848800
N1311	N131	0.425100	0.712100	0.926800
N1321	N132	0.421500	0.724800	0.812000
C2211	C221	0.880300	0.103100	0.001000
C2221	C222	0.894700	0.104700	0.113000
H1771	H177	0.884800	0.088600	0.169100
C2231	C223	0.923800	0.130300	0.141000
H1781	H178	0.933400	0.132200	0.214200
C2241	C224	0.938100	0.153500	0.049000
H1791	H179	0.958000	0.170500	0.061900
C2251	C225	0.921900	0.150300	0.941000
C2261	C226	0.893400	0.124700	0.915000
H1801	H180	0.883800	0.122500	0.841800
C2271	C227	0.945100	0.213000	0.862000
H1811	H181	0.943600	0.227200	0.928300
C2281	C228	0.941600	0.167900	0.743000
H1821	H182	0.937200	0.144200	0.710400
C2291	C229	0.818400	0.071700	0.039000
H1831	H183	0.813800	0.082400	0.110500
C2301	C230	0.845200	0.057100	0.880000
H1841	H184	0.862300	0.056800	0.819000
C2311	C231	0.838300	0.164300	0.334000
C2321	C232	0.836200	0.129500	0.393600
H1851	H185	0.857300	0.119400	0.430900
C2331	C233	0.802600	0.111700	0.394000
C2341	C234	0.772000	0.126100	0.339000
H1861	H186	0.748500	0.114200	0.345300
C2351	C235	0.775800	0.159300	0.273000
H1871	H187	0.756400	0.167200	0.224200
C2361	C236	0.809600	0.180100	0.282000
H1881	H188	0.811500	0.204500	0.252000
C2371	C237	0.889300	0.209000	0.271000
H1891	H189	0.879000	0.213500	0.199200
C2381	C238	0.896400	0.188700	0.441000
H1901	H190	0.891900	0.175400	0.507800
C2391	C239	0.809100	0.069700	0.565000
H1911	H191	0.822700	0.086500	0.610500
C2401	C240	0.780300	0.044600	0.427000
H1921	H192	0.770300	0.040400	0.354300
Cu231	Cu23	0.969050	0.208420	0.527400
Cu241	Cu24	0.786270	0.011520	0.755900
N1331	N133	0.936100	0.175800	0.854600
N1341	N134	0.953800	0.197400	0.688200
N1351	N135	0.956200	0.226600	0.765000
N1361	N136	0.849400	0.078100	0.978800
N1371	N137	0.813100	0.037500	0.884900
N1381	N138	0.794500	0.047900	0.985700
N1391	N139	0.798500	0.077300	0.457100
N1401	N140	0.798100	0.036300	0.596400
N1411	N141	0.778400	0.020300	0.507500
N1421	N142	0.874400	0.185900	0.348800
N1431	N143	0.925100	0.212100	0.426800
N1441	N144	0.921500	0.224800	0.312000
C2411	C241	0.853100	0.869700	0.751000
C2421	C242	0.854700	0.855300	0.863000
H1931	H193	0.838600	0.865200	0.919100
C2431	C243	0.880300	0.826200	0.891000
H1941	H194	0.882200	0.816600	0.964200
C2441	C244	0.903500	0.811900	0.799000
H1951	H195	0.920500	0.792000	0.811900
C2451	C245	0.900300	0.828100	0.691000
C2461	C246	0.874700	0.856600	0.665000
H1961	H196	0.872500	0.866200	0.591800
C2471	C247	0.963000	0.804900	0.612000
H1971	H197	0.977200	0.806400	0.678300
C2481	C248	0.917900	0.808400	0.493000
H1981	H198	0.894200	0.812800	0.460400
C2491	C249	0.821700	0.931600	0.789000
H1991	H199	0.832400	0.936200	0.860500
C2501	C250	0.807100	0.904800	0.630000
H2001	H200	0.806800	0.887700	0.569000
C2511	C251	0.914300	0.911700	0.084000
C2521	C252	0.879500	0.913800	0.143600
H2011	H201	0.869400	0.892700	0.180900
C2531	C253	0.861700	0.947400	0.144000
C2541	C254	0.876100	0.978000	0.089000
H2021	H202	0.864200	0.001500	0.095300
C2551	C255	0.909300	0.974200	0.023000
H2031	H203	0.917200	0.993600	0.974200
C2561	C256	0.930100	0.940400	0.032000
H2041	H204	0.954500	0.938500	0.002000
C2571	C257	0.959000	0.860700	0.021000
H2051	H205	0.963500	0.871000	0.949200
C2581	C258	0.938700	0.853600	0.191000
H2061	H206	0.925400	0.858100	0.257800
C2591	C259	0.819700	0.940900	0.315000
H2071	H207	0.836500	0.927300	0.360500
C2601	C260	0.794600	0.969700	0.177000
H2081	H208	0.790400	0.979700	0.104300
Cu251	Cu25	0.958420	0.780950	0.277400
Cu261	Cu26	0.761520	0.963730	0.505900
N1451	N145	0.925800	0.813900	0.604600
N1461	N146	0.947400	0.796200	0.438200
N1471	N147	0.976600	0.793800	0.515000
N1481	N148	0.828100	0.900600	0.728800
N1491	N149	0.787500	0.936900	0.634900
N1501	N150	0.797900	0.955500	0.735700
N1511	N151	0.827300	0.951500	0.207100
N1521	N152	0.786300	0.951900	0.346400
N1531	N153	0.770300	0.971600	0.257500
N1541	N154	0.935900	0.875600	0.098800
N1551	N155	0.962100	0.824900	0.176800
N1561	N156	0.974800	0.828500	0.062000
C2611	C261	0.353100	0.369700	0.251000
C2621	C262	0.354700	0.355300	0.363000
H2091	H209	0.338600	0.365200	0.419100
C2631	C263	0.380300	0.326200	0.391000
H2101	H210	0.382200	0.316600	0.464200
C2641	C264	0.403500	0.311900	0.299000
H2111	H211	0.420500	0.292000	0.311900
C2651	C265	0.400300	0.328100	0.191000
C2661	C266	0.374700	0.356600	0.165000
H2121	H212	0.372500	0.366200	0.091800
C2671	C267	0.463000	0.304900	0.112000
H2131	H213	0.477200	0.306400	0.178300
C2681	C268	0.417900	0.308400	0.993000
H2141	H214	0.394200	0.312800	0.960400
C2691	C269	0.321700	0.431600	0.289000
H2151	H215	0.332400	0.436200	0.360500
C2701	C270	0.307100	0.404800	0.130000
H2161	H216	0.306800	0.387700	0.069000
C2711	C271	0.414300	0.411700	0.584000
C2721	C272	0.379500	0.413800	0.643600
H2171	H217	0.369400	0.392700	0.680900
C2731	C273	0.361700	0.447400	0.644000
C2741	C274	0.376100	0.478000	0.589000
H2181	H218	0.364200	0.501500	0.595300
C2751	C275	0.409300	0.474200	0.523000
H2191	H219	0.417200	0.493600	0.474200
C2761	C276	0.430100	0.440400	0.532000
H2201	H220	0.454500	0.438500	0.502000
C2771	C277	0.459000	0.360700	0.521000
H2211	H221	0.463500	0.371000	0.449200
C2781	C278	0.438700	0.353600	0.691000
H2221	H222	0.425400	0.358100	0.757800
C2791	C279	0.319700	0.440900	0.815000
H2231	H223	0.336500	0.427300	0.860500
C2801	C280	0.294600	0.469700	0.677000
H2241	H224	0.290400	0.479700	0.604300
Cu271	Cu27	0.458420	0.280950	0.777400
Cu281	Cu28	0.261520	0.463730	0.005900
N1571	N157	0.425800	0.313900	0.104600
N1581	N158	0.447400	0.296200	0.938200
N1591	N159	0.476600	0.293800	0.015000
N1601	N160	0.328100	0.400600	0.228800
N1611	N161	0.287500	0.436900	0.134900
N1621	N162	0.297900	0.455500	0.235700
N1631	N163	0.327300	0.451500	0.707100
N1641	N164	0.286300	0.451900	0.846400
N1651	N165	0.270300	0.471600	0.757500
N1661	N166	0.435900	0.375600	0.598800
N1671	N167	0.462100	0.324900	0.676800
N1681	N168	0.474800	0.328500	0.562000
C2811	C281	0.646900	0.130300	0.251000
C2821	C282	0.645300	0.144700	0.363000
H2251	H225	0.661400	0.134800	0.419100
C2831	C283	0.619700	0.173800	0.391000
H2261	H226	0.617800	0.183400	0.464200
C2841	C284	0.596500	0.188100	0.299000
H2271	H227	0.579500	0.208000	0.311900
C2851	C285	0.599700	0.171900	0.191000
C2861	C286	0.625300	0.143400	0.165000
H2281	H228	0.627500	0.133800	0.091800
C2871	C287	0.537000	0.195100	0.112000
H2291	H229	0.522800	0.193600	0.178300
C2881	C288	0.582100	0.191600	0.993000
H2301	H230	0.605800	0.187200	0.960400
C2891	C289	0.678300	0.068400	0.289000
H2311	H231	0.667600	0.063800	0.360500
C2901	C290	0.692900	0.095200	0.130000
H2321	H232	0.693200	0.112300	0.069000
C2911	C291	0.585700	0.088300	0.584000
C2921	C292	0.620500	0.086200	0.643600
H2331	H233	0.630600	0.107300	0.680900
C2931	C293	0.638300	0.052600	0.644000
C2941	C294	0.623900	0.022000	0.589000
H2341	H234	0.635800	0.998500	0.595300
C2951	C295	0.590700	0.025800	0.523000
H2351	H235	0.582800	0.006400	0.474200
C2961	C296	0.569900	0.059600	0.532000
H2361	H236	0.545500	0.061500	0.502000
C2971	C297	0.541000	0.139300	0.521000
H2371	H237	0.536500	0.129000	0.449200
C2981	C298	0.561300	0.146400	0.691000
H2381	H238	0.574600	0.141900	0.757800
C2991	C299	0.680300	0.059100	0.815000
H2391	H239	0.663500	0.072700	0.860500
C3001	C300	0.705400	0.030300	0.677000
H2401	H240	0.709600	0.020300	0.604300
Cu291	Cu29	0.541580	0.219050	0.777400
Cu301	Cu30	0.738480	0.036270	0.005900
N1691	N169	0.574200	0.186100	0.104600
N1701	N170	0.552600	0.203800	0.938200
N1711	N171	0.523400	0.206200	0.015000
N1721	N172	0.671900	0.099400	0.228800
N1731	N173	0.712500	0.063100	0.134900
N1741	N174	0.702100	0.044500	0.235700
N1751	N175	0.672700	0.048500	0.707100
N1761	N176	0.713700	0.048100	0.846400
N1771	N177	0.729700	0.028400	0.757500
N1781	N178	0.564100	0.124400	0.598800
N1791	N179	0.537900	0.175100	0.676800
N1801	N180	0.525200	0.171500	0.562000
C3011	C301	0.146900	0.630300	0.751000
C3021	C302	0.145300	0.644700	0.863000
H2411	H241	0.161400	0.634800	0.919100
C3031	C303	0.119700	0.673800	0.891000
H2421	H242	0.117800	0.683400	0.964200
C3041	C304	0.096500	0.688100	0.799000
H2431	H243	0.079500	0.708000	0.811900
C3051	C305	0.099700	0.671900	0.691000
C3061	C306	0.125300	0.643400	0.665000
H2441	H244	0.127500	0.633800	0.591800
C3071	C307	0.037000	0.695100	0.612000
H2451	H245	0.022800	0.693600	0.678300
C3081	C308	0.082100	0.691600	0.493000
H2461	H246	0.105800	0.687200	0.460400
C3091	C309	0.178300	0.568400	0.789000
H2471	H247	0.167600	0.563800	0.860500
C3101	C310	0.192900	0.595200	0.630000
H2481	H248	0.193200	0.612300	0.569000
C3111	C311	0.085700	0.588300	0.084000
C3121	C312	0.120500	0.586200	0.143600
H2491	H249	0.130600	0.607300	0.180900
C3131	C313	0.138300	0.552600	0.144000
C3141	C314	0.123900	0.522000	0.089000
H2501	H250	0.135800	0.498500	0.095300
C3151	C315	0.090700	0.525800	0.023000
H2511	H251	0.082800	0.506400	0.974200
C3161	C316	0.069900	0.559600	0.032000
H2521	H252	0.045500	0.561500	0.002000
C3171	C317	0.041000	0.639300	0.021000
H2531	H253	0.036500	0.629000	0.949200
C3181	C318	0.061300	0.646400	0.191000
H2541	H254	0.074600	0.641900	0.257800
C3191	C319	0.180300	0.559100	0.315000
H2551	H255	0.163500	0.572700	0.360500
C3201	C320	0.205400	0.530300	0.177000
H2561	H256	0.209600	0.520300	0.104300
Cu311	Cu31	0.041580	0.719050	0.277400
Cu321	Cu32	0.238480	0.536270	0.505900
N1811	N181	0.074200	0.686100	0.604600
N1821	N182	0.052600	0.703800	0.438200
N1831	N183	0.023400	0.706200	0.515000
N1841	N184	0.171900	0.599400	0.728800
N1851	N185	0.212500	0.563100	0.634900
N1861	N186	0.202100	0.544500	0.735700
N1871	N187	0.172700	0.548500	0.207100
N1881	N188	0.213700	0.548100	0.346400
N1891	N189	0.229700	0.528400	0.257500
N1901	N190	0.064100	0.624400	0.098800
N1911	N191	0.037900	0.675100	0.176800
N1921	N192	0.025200	0.671500	0.062000
