data_AQUCOF_clean_PM
_symmetry_space_group_name_H-M	'P1'
_cell_length_a	11.402900
_cell_length_b	12.996400
_cell_length_c	23.057000
_cell_angle_alpha	90.000000
_cell_angle_beta	90.000000
_cell_angle_gamma	111.636000
_symmetry_Int_Tables_number 1

loop_
_symmetry_equiv_pos_as_xyz
'x,y,z'

loop_
_atom_site_label
_atom_site_type_symbol
_atom_site_fract_x
_atom_site_fract_y
_atom_site_fract_z
Cu11	Cu1	0.030900	0.409500	0.443090
Cu21	Cu2	0.779000	0.059900	0.938680
Cu31	Cu3	0.718100	0.541200	0.972880
Cu41	Cu4	0.107600	0.934200	0.483650
Cu51	Cu5	0.415500	0.399500	0.318910
Cu61	Cu6	0.513200	0.168500	0.752500
Cu71	Cu7	0.530900	0.909500	0.556910
Cu81	Cu8	0.279000	0.559900	0.061320
Cu91	Cu9	0.218100	0.041200	0.027120
Cu101	Cu10	0.607600	0.434200	0.516350
Cu111	Cu11	0.915500	0.899500	0.681090
Cu121	Cu12	0.013200	0.668500	0.247500
H11	H1	0.595400	0.660400	0.900200
H21	H2	0.927800	0.033900	0.528300
H31	H3	0.198100	0.647000	0.380900
H41	H4	0.898200	0.196500	0.519500
H51	H5	0.195800	0.126200	0.407300
H61	H6	0.218600	0.819300	0.403900
H71	H7	0.070600	0.975700	0.800400
H81	H8	0.895900	0.264700	0.018200
H91	H9	0.892400	0.766100	0.998000
H101	H10	0.652900	0.365800	0.900900
H111	H11	0.351900	0.057500	0.649800
H121	H12	0.290400	0.065500	0.817100
H131	H13	0.607400	0.845500	0.892700
H141	H14	0.937800	0.712500	0.515100
H151	H15	0.889100	0.441600	0.020400
H161	H16	0.095400	0.160400	0.099800
H171	H17	0.427800	0.533900	0.471700
H181	H18	0.698100	0.147000	0.619100
H191	H19	0.398200	0.696500	0.480500
H201	H20	0.695800	0.626200	0.592700
H211	H21	0.718600	0.319300	0.596100
H221	H22	0.570600	0.475700	0.199600
H231	H23	0.395900	0.764700	0.981800
H241	H24	0.392400	0.266100	0.002000
H251	H25	0.152900	0.865800	0.099100
H261	H26	0.851900	0.557500	0.350200
H271	H27	0.790400	0.565500	0.182900
H281	H28	0.107400	0.345500	0.107300
H291	H29	0.437800	0.212500	0.484900
H301	H30	0.389100	0.941600	0.979600
C11	C1	0.109000	0.241000	0.425600
C21	C2	0.631000	0.138000	0.881400
C31	C3	0.703000	0.241000	0.919700
C41	C4	0.975000	0.588000	0.477800
C51	C5	0.657000	0.716000	0.920400
C61	C6	0.188000	0.321000	0.384600
C71	C7	0.975000	0.085000	0.501000
C81	C8	0.147000	0.659000	0.409200
C91	C9	0.958000	0.183000	0.496500
C101	C10	0.133000	0.138000	0.429200
C111	C11	0.156000	0.760000	0.422300
C121	C12	0.128000	0.993000	0.769800
C131	C13	0.843000	0.282000	0.992200
C141	C14	0.829000	0.777000	0.976700
C151	C15	0.700000	0.344000	0.927600
C161	C16	0.835000	0.880000	0.968600
C171	C17	0.936000	0.981000	0.996800
C181	C18	0.889000	0.492000	0.508100
C191	C19	0.125000	0.964000	0.610900
C201	C20	0.297000	0.042000	0.681200
C211	C21	0.261000	0.047000	0.779400
C221	C22	0.668000	0.829000	0.913600
C231	C23	0.991000	0.698000	0.488500
C241	C24	0.177000	0.994000	0.671300
C251	C25	0.835000	0.388000	0.995900
C261	C26	0.609000	0.741000	0.574400
C271	C27	0.131000	0.638000	0.118600
C281	C28	0.203000	0.741000	0.080300
C291	C29	0.475000	0.088000	0.522200
C301	C30	0.157000	0.216000	0.079600
C311	C31	0.688000	0.821000	0.615400
C321	C32	0.475000	0.585000	0.499000
C331	C33	0.647000	0.159000	0.590800
C341	C34	0.458000	0.683000	0.503500
C351	C35	0.633000	0.638000	0.570800
C361	C36	0.656000	0.260000	0.577700
C371	C37	0.628000	0.493000	0.230200
C381	C38	0.343000	0.782000	0.007800
C391	C39	0.329000	0.277000	0.023300
C401	C40	0.200000	0.844000	0.072400
C411	C41	0.335000	0.380000	0.031400
C421	C42	0.436000	0.481000	0.003200
C431	C43	0.389000	0.992000	0.491900
C441	C44	0.625000	0.464000	0.389100
C451	C45	0.797000	0.542000	0.318800
C461	C46	0.761000	0.547000	0.220600
C471	C47	0.168000	0.329000	0.086400
C481	C48	0.491000	0.198000	0.511500
C491	C49	0.677000	0.494000	0.328700
C501	C50	0.335000	0.888000	0.004100
N11	N1	0.752000	0.411000	0.965900
N21	N2	0.030000	0.262000	0.457900
N31	N3	0.054000	0.564000	0.438700
N41	N4	0.079000	0.783000	0.461800
N51	N5	0.088000	0.967000	0.713200
N61	N6	0.753000	0.901000	0.934300
N71	N7	0.784000	0.212000	0.955300
N81	N8	0.736000	0.690000	0.955800
N91	N9	0.348000	0.073000	0.734800
N101	N10	0.057000	0.059000	0.467600
N111	N11	0.252000	0.911000	0.034100
N121	N12	0.530000	0.762000	0.542100
N131	N13	0.554000	0.064000	0.561300
N141	N14	0.579000	0.283000	0.538200
N151	N15	0.588000	0.467000	0.286800
N161	N16	0.253000	0.401000	0.065700
N171	N17	0.284000	0.712000	0.044700
N181	N18	0.236000	0.190000	0.044200
N191	N19	0.848000	0.573000	0.265200
N201	N20	0.557000	0.559000	0.532400
O11	O1	0.189000	0.978200	0.568800
O21	O2	0.651500	0.056500	0.881400
O31	O3	0.555000	0.155000	0.843500
O41	O4	0.263100	0.304900	0.352500
O51	O5	0.174000	0.420000	0.391100
O61	O6	0.900400	0.399300	0.498100
O71	O7	0.921000	0.070000	0.989100
O81	O8	0.023000	0.964000	0.021400
O91	O9	0.810200	0.506600	0.541100
O101	O10	0.997600	0.914700	0.605900
O111	O11	0.689000	0.478200	0.431200
O121	O12	0.151500	0.556500	0.118600
O131	O13	0.055000	0.655000	0.156500
O141	O14	0.763100	0.804900	0.647500
O151	O15	0.674000	0.920000	0.608900
O161	O16	0.400400	0.899300	0.501900
O171	O17	0.421000	0.570000	0.010900
O181	O18	0.523000	0.464000	0.978600
O191	O19	0.310200	0.006600	0.458900
O201	O20	0.497600	0.414700	0.394100
