data_AQUCUM_clean_PM
_symmetry_space_group_name_H-M	'P1'
_cell_length_a	25.761100
_cell_length_b	25.761100
_cell_length_c	6.756500
_cell_angle_alpha	90.000000
_cell_angle_beta	90.000000
_cell_angle_gamma	120.000000
_symmetry_Int_Tables_number 1

loop_
_symmetry_equiv_pos_as_xyz
'x,y,z'

loop_
_atom_site_label
_atom_site_type_symbol
_atom_site_fract_x
_atom_site_fract_y
_atom_site_fract_z
Ni11	Ni1	0.617490	0.648320	0.353700
O11	O1	0.436920	0.407460	0.430970
O21	O2	0.367880	0.365290	0.211970
O31	O3	0.611370	0.585520	0.155520
C11	C1	0.416610	0.407370	0.249680
C21	C2	0.460760	0.454090	0.114120
C31	C3	0.556920	0.550360	0.076890
C41	C4	0.515750	0.498310	0.190870
H11	H1	0.526500	0.493960	0.323370
Ni21	Ni2	0.284160	0.981650	0.687030
O41	O4	0.103590	0.740790	0.764300
O51	O5	0.034550	0.698620	0.545300
O61	O6	0.278040	0.918850	0.488850
C51	C5	0.083280	0.740700	0.583010
C61	C6	0.127430	0.787420	0.447450
C71	C7	0.223590	0.883690	0.410220
C81	C8	0.182420	0.831640	0.524200
H21	H2	0.193170	0.827290	0.656700
Ni31	Ni3	0.950820	0.314990	0.020370
O71	O7	0.770250	0.074130	0.097640
O81	O8	0.701210	0.031960	0.878640
O91	O9	0.944700	0.252190	0.822190
C91	C9	0.749940	0.074040	0.916350
C101	C10	0.794090	0.120760	0.780790
C111	C11	0.890250	0.217030	0.743560
C121	C12	0.849080	0.164980	0.857540
H31	H3	0.859830	0.160630	0.990040
Ni41	Ni4	0.351680	0.969170	0.353700
O101	O10	0.592540	0.029460	0.430970
O111	O11	0.634710	0.002590	0.211970
O121	O12	0.414480	0.025850	0.155520
C131	C13	0.592630	0.009240	0.249680
C141	C14	0.545910	0.006670	0.114120
C151	C15	0.449640	0.006560	0.076890
C161	C16	0.501690	0.017440	0.190870
H41	H4	0.506040	0.032540	0.323370
Ni51	Ni5	0.018350	0.302500	0.687030
O131	O13	0.259210	0.362790	0.764300
O141	O14	0.301380	0.335920	0.545300
O151	O15	0.081150	0.359180	0.488850
C171	C17	0.259300	0.342570	0.583010
C181	C18	0.212580	0.340000	0.447450
C191	C19	0.116310	0.339890	0.410220
C201	C20	0.168360	0.350770	0.524200
H51	H5	0.172710	0.365870	0.656700
Ni61	Ni6	0.685010	0.635840	0.020370
O161	O16	0.925870	0.696130	0.097640
O171	O17	0.968040	0.669260	0.878640
O181	O18	0.747810	0.692520	0.822190
C211	C21	0.925960	0.675910	0.916350
C221	C22	0.879240	0.673340	0.780790
C231	C23	0.782970	0.673230	0.743560
C241	C24	0.835020	0.684110	0.857540
H61	H6	0.839370	0.699210	0.990040
Ni71	Ni7	0.030830	0.382510	0.353700
O191	O19	0.970540	0.563080	0.430970
O201	O20	0.997410	0.632120	0.211970
O211	O21	0.974150	0.388630	0.155520
C251	C25	0.990760	0.583390	0.249680
C261	C26	0.993330	0.539240	0.114120
C271	C27	0.993440	0.443080	0.076890
C281	C28	0.982560	0.484250	0.190870
H71	H7	0.967460	0.473500	0.323370
Ni81	Ni8	0.697500	0.715840	0.687030
O221	O22	0.637210	0.896410	0.764300
O231	O23	0.664080	0.965450	0.545300
O241	O24	0.640820	0.721960	0.488850
C291	C29	0.657430	0.916720	0.583010
C301	C30	0.660000	0.872570	0.447450
C311	C31	0.660110	0.776410	0.410220
C321	C32	0.649230	0.817580	0.524200
H81	H8	0.634130	0.806830	0.656700
Ni91	Ni9	0.364160	0.049180	0.020370
O251	O25	0.303870	0.229750	0.097640
O261	O26	0.330740	0.298790	0.878640
O271	O27	0.307480	0.055300	0.822190
C331	C33	0.324090	0.250060	0.916350
C341	C34	0.326660	0.205910	0.780790
C351	C35	0.326770	0.109750	0.743560
C361	C36	0.315890	0.150920	0.857540
H91	H9	0.300790	0.140170	0.990040
Ni101	Ni10	0.382510	0.351680	0.646300
O281	O28	0.563080	0.592540	0.569030
O291	O29	0.632120	0.634710	0.788030
O301	O30	0.388630	0.414480	0.844480
C371	C37	0.583390	0.592630	0.750320
C381	C38	0.539240	0.545910	0.885880
C391	C39	0.443080	0.449640	0.923110
C401	C40	0.484250	0.501690	0.809130
H101	H10	0.473500	0.506040	0.676630
Ni111	Ni11	0.049180	0.685010	0.979630
O311	O31	0.229750	0.925870	0.902360
O321	O32	0.298790	0.968040	0.121360
O331	O33	0.055300	0.747810	0.177810
C411	C41	0.250060	0.925960	0.083650
C421	C42	0.205910	0.879240	0.219210
C431	C43	0.109750	0.782970	0.256440
C441	C44	0.150920	0.835020	0.142460
H111	H11	0.140170	0.839370	0.009960
Ni121	Ni12	0.715840	0.018350	0.312970
O341	O34	0.896410	0.259210	0.235700
O351	O35	0.965450	0.301380	0.454700
O361	O36	0.721960	0.081150	0.511150
C451	C45	0.916720	0.259300	0.416990
C461	C46	0.872570	0.212580	0.552550
C471	C47	0.776410	0.116310	0.589780
C481	C48	0.817580	0.168360	0.475800
H121	H12	0.806830	0.172710	0.343300
Ni131	Ni13	0.648320	0.030830	0.646300
O371	O37	0.407460	0.970540	0.569030
O381	O38	0.365290	0.997410	0.788030
O391	O39	0.585520	0.974150	0.844480
C491	C49	0.407370	0.990760	0.750320
C501	C50	0.454090	0.993330	0.885880
C511	C51	0.550360	0.993440	0.923110
C521	C52	0.498310	0.982560	0.809130
H131	H13	0.493960	0.967460	0.676630
Ni141	Ni14	0.314990	0.364160	0.979630
O401	O40	0.074130	0.303870	0.902360
O411	O41	0.031960	0.330740	0.121360
O421	O42	0.252190	0.307480	0.177810
C531	C53	0.074040	0.324090	0.083650
C541	C54	0.120760	0.326660	0.219210
C551	C55	0.217030	0.326770	0.256440
C561	C56	0.164980	0.315890	0.142460
H141	H14	0.160630	0.300790	0.009960
Ni151	Ni15	0.981650	0.697500	0.312970
O431	O43	0.740790	0.637210	0.235700
O441	O44	0.698620	0.664080	0.454700
O451	O45	0.918850	0.640820	0.511150
C571	C57	0.740700	0.657430	0.416990
C581	C58	0.787420	0.660000	0.552550
C591	C59	0.883690	0.660110	0.589780
C601	C60	0.831640	0.649230	0.475800
H151	H15	0.827290	0.634130	0.343300
Ni161	Ni16	0.969170	0.617490	0.646300
O461	O46	0.029460	0.436920	0.569030
O471	O47	0.002590	0.367880	0.788030
O481	O48	0.025850	0.611370	0.844480
C611	C61	0.009240	0.416610	0.750320
C621	C62	0.006670	0.460760	0.885880
C631	C63	0.006560	0.556920	0.923110
C641	C64	0.017440	0.515750	0.809130
H161	H16	0.032540	0.526500	0.676630
Ni171	Ni17	0.635840	0.950820	0.979630
O491	O49	0.696130	0.770250	0.902360
O501	O50	0.669260	0.701210	0.121360
O511	O51	0.692520	0.944700	0.177810
C651	C65	0.675910	0.749940	0.083650
C661	C66	0.673340	0.794090	0.219210
C671	C67	0.673230	0.890250	0.256440
C681	C68	0.684110	0.849080	0.142460
H171	H17	0.699210	0.859830	0.009960
Ni181	Ni18	0.302500	0.284160	0.312970
O521	O52	0.362790	0.103590	0.235700
O531	O53	0.335920	0.034550	0.454700
O541	O54	0.359180	0.278040	0.511150
C691	C69	0.342570	0.083280	0.416990
C701	C70	0.340000	0.127430	0.552550
C711	C71	0.339890	0.223590	0.589780
C721	C72	0.350770	0.182420	0.475800
H181	H18	0.365870	0.193170	0.343300
