data_AQUDAT_clean_PM
_symmetry_space_group_name_H-M	'P1'
_cell_length_a	28.631500
_cell_length_b	9.274300
_cell_length_c	9.283300
_cell_angle_alpha	90.000000
_cell_angle_beta	116.615000
_cell_angle_gamma	90.000000
_symmetry_Int_Tables_number 1

loop_
_symmetry_equiv_pos_as_xyz
'x,y,z'

loop_
_atom_site_label
_atom_site_type_symbol
_atom_site_fract_x
_atom_site_fract_y
_atom_site_fract_z
Cu11	Cu1	0.187640	0.826900	0.310300
O11	O1	0.127100	0.066400	0.334000
O21	O2	0.137200	0.176000	0.562100
N11	N1	0.220800	0.011000	0.732900
N21	N2	0.257700	0.908200	0.788400
N31	N3	0.251200	0.824700	0.665200
N41	N4	0.210900	0.872200	0.532600
N51	N5	0.142200	0.661400	0.318900
C11	C1	0.148200	0.084400	0.480500
C21	C2	0.192800	0.986400	0.576700
C31	C3	0.111000	0.719800	0.377200
C41	C4	0.074000	0.643800	0.404700
C51	C5	0.069170	0.497400	0.368900
C61	C6	0.100700	0.433500	0.308600
C71	C7	0.136600	0.519300	0.285400
C81	C8	0.029730	0.407700	0.395700
H11	H1	0.114710	0.821050	0.401410
H21	H2	0.052660	0.690300	0.446490
H31	H3	0.097780	0.332500	0.283530
H41	H4	0.158350	0.475300	0.243730
H51	H5	0.047510	0.347960	0.489060
H61	H6	0.005760	0.470110	0.411950
H71	H7	0.024110	0.253800	0.231200
Cu21	Cu2	0.687640	0.326900	0.310300
O31	O3	0.627100	0.566400	0.334000
O41	O4	0.637200	0.676000	0.562100
N61	N6	0.720800	0.511000	0.732900
N71	N7	0.757700	0.408200	0.788400
N81	N8	0.751200	0.324700	0.665200
N91	N9	0.710900	0.372200	0.532600
N101	N10	0.642200	0.161400	0.318900
C91	C9	0.648200	0.584400	0.480500
C101	C10	0.692800	0.486400	0.576700
C111	C11	0.611000	0.219800	0.377200
C121	C12	0.574000	0.143800	0.404700
C131	C13	0.569170	0.997400	0.368900
C141	C14	0.600700	0.933500	0.308600
C151	C15	0.636600	0.019300	0.285400
C161	C16	0.529730	0.907700	0.395700
H81	H8	0.614710	0.321050	0.401410
H91	H9	0.552660	0.190300	0.446490
H101	H10	0.597780	0.832500	0.283530
H111	H11	0.658350	0.975300	0.243730
H121	H12	0.547510	0.847960	0.489060
H131	H13	0.505760	0.970110	0.411950
H141	H14	0.524110	0.753800	0.231200
Cu31	Cu3	0.812360	0.826900	0.189700
O51	O5	0.872900	0.066400	0.166000
O61	O6	0.862800	0.176000	0.937900
N111	N11	0.779200	0.011000	0.767100
N121	N12	0.742300	0.908200	0.711600
N131	N13	0.748800	0.824700	0.834800
N141	N14	0.789100	0.872200	0.967400
N151	N15	0.857800	0.661400	0.181100
C171	C17	0.851800	0.084400	0.019500
C181	C18	0.807200	0.986400	0.923300
C191	C19	0.889000	0.719800	0.122800
C201	C20	0.926000	0.643800	0.095300
C211	C21	0.930830	0.497400	0.131100
C221	C22	0.899300	0.433500	0.191400
C231	C23	0.863400	0.519300	0.214600
C241	C24	0.970270	0.407700	0.104300
H151	H15	0.885290	0.821050	0.098590
H161	H16	0.947340	0.690300	0.053510
H171	H17	0.902220	0.332500	0.216470
H181	H18	0.841650	0.475300	0.256270
H191	H19	0.952490	0.347960	0.010940
H201	H20	0.994240	0.470110	0.088050
H211	H21	0.975890	0.253800	0.268800
Cu41	Cu4	0.312360	0.326900	0.189700
O71	O7	0.372900	0.566400	0.166000
O81	O8	0.362800	0.676000	0.937900
N161	N16	0.279200	0.511000	0.767100
N171	N17	0.242300	0.408200	0.711600
N181	N18	0.248800	0.324700	0.834800
N191	N19	0.289100	0.372200	0.967400
N201	N20	0.357800	0.161400	0.181100
C251	C25	0.351800	0.584400	0.019500
C261	C26	0.307200	0.486400	0.923300
C271	C27	0.389000	0.219800	0.122800
C281	C28	0.426000	0.143800	0.095300
C291	C29	0.430830	0.997400	0.131100
C301	C30	0.399300	0.933500	0.191400
C311	C31	0.363400	0.019300	0.214600
C321	C32	0.470270	0.907700	0.104300
H221	H22	0.385290	0.321050	0.098590
H231	H23	0.447340	0.190300	0.053510
H241	H24	0.402220	0.832500	0.216470
H251	H25	0.341650	0.975300	0.256270
H261	H26	0.452490	0.847960	0.010940
H271	H27	0.494240	0.970110	0.088050
H281	H28	0.475890	0.753800	0.268800
Cu51	Cu5	0.812360	0.173100	0.689700
O91	O9	0.872900	0.933600	0.666000
O101	O10	0.862800	0.824000	0.437900
N211	N21	0.779200	0.989000	0.267100
N221	N22	0.742300	0.091800	0.211600
N231	N23	0.748800	0.175300	0.334800
N241	N24	0.789100	0.127800	0.467400
N251	N25	0.857800	0.338600	0.681100
C331	C33	0.851800	0.915600	0.519500
C341	C34	0.807200	0.013600	0.423300
C351	C35	0.889000	0.280200	0.622800
C361	C36	0.926000	0.356200	0.595300
C371	C37	0.930830	0.502600	0.631100
C381	C38	0.899300	0.566500	0.691400
C391	C39	0.863400	0.480700	0.714600
C401	C40	0.970270	0.592300	0.604300
H291	H29	0.885290	0.178950	0.598590
H301	H30	0.947340	0.309700	0.553510
H311	H31	0.902220	0.667500	0.716470
H321	H32	0.841650	0.524700	0.756270
H331	H33	0.952490	0.652040	0.510940
H341	H34	0.994240	0.529890	0.588050
H351	H35	0.975890	0.746200	0.768800
Cu61	Cu6	0.312360	0.673100	0.689700
O111	O11	0.372900	0.433600	0.666000
O121	O12	0.362800	0.324000	0.437900
N261	N26	0.279200	0.489000	0.267100
N271	N27	0.242300	0.591800	0.211600
N281	N28	0.248800	0.675300	0.334800
N291	N29	0.289100	0.627800	0.467400
N301	N30	0.357800	0.838600	0.681100
C411	C41	0.351800	0.415600	0.519500
C421	C42	0.307200	0.513600	0.423300
C431	C43	0.389000	0.780200	0.622800
C441	C44	0.426000	0.856200	0.595300
C451	C45	0.430830	0.002600	0.631100
C461	C46	0.399300	0.066500	0.691400
C471	C47	0.363400	0.980700	0.714600
C481	C48	0.470270	0.092300	0.604300
H361	H36	0.385290	0.678950	0.598590
H371	H37	0.447340	0.809700	0.553510
H381	H38	0.402220	0.167500	0.716470
H391	H39	0.341650	0.024700	0.756270
H401	H40	0.452490	0.152040	0.510940
H411	H41	0.494240	0.029890	0.588050
H421	H42	0.475890	0.246200	0.768800
Cu71	Cu7	0.187640	0.173100	0.810300
O131	O13	0.127100	0.933600	0.834000
O141	O14	0.137200	0.824000	0.062100
N311	N31	0.220800	0.989000	0.232900
N321	N32	0.257700	0.091800	0.288400
N331	N33	0.251200	0.175300	0.165200
N341	N34	0.210900	0.127800	0.032600
N351	N35	0.142200	0.338600	0.818900
C491	C49	0.148200	0.915600	0.980500
C501	C50	0.192800	0.013600	0.076700
C511	C51	0.111000	0.280200	0.877200
C521	C52	0.074000	0.356200	0.904700
C531	C53	0.069170	0.502600	0.868900
C541	C54	0.100700	0.566500	0.808600
C551	C55	0.136600	0.480700	0.785400
C561	C56	0.029730	0.592300	0.895700
H431	H43	0.114710	0.178950	0.901410
H441	H44	0.052660	0.309700	0.946490
H451	H45	0.097780	0.667500	0.783530
H461	H46	0.158350	0.524700	0.743730
H471	H47	0.047510	0.652040	0.989060
H481	H48	0.005760	0.529890	0.911950
H491	H49	0.024110	0.746200	0.731200
Cu81	Cu8	0.687640	0.673100	0.810300
O151	O15	0.627100	0.433600	0.834000
O161	O16	0.637200	0.324000	0.062100
N361	N36	0.720800	0.489000	0.232900
N371	N37	0.757700	0.591800	0.288400
N381	N38	0.751200	0.675300	0.165200
N391	N39	0.710900	0.627800	0.032600
N401	N40	0.642200	0.838600	0.818900
C571	C57	0.648200	0.415600	0.980500
C581	C58	0.692800	0.513600	0.076700
C591	C59	0.611000	0.780200	0.877200
C601	C60	0.574000	0.856200	0.904700
C611	C61	0.569170	0.002600	0.868900
C621	C62	0.600700	0.066500	0.808600
C631	C63	0.636600	0.980700	0.785400
C641	C64	0.529730	0.092300	0.895700
H501	H50	0.614710	0.678950	0.901410
H511	H51	0.552660	0.809700	0.946490
H521	H52	0.597780	0.167500	0.783530
H531	H53	0.658350	0.024700	0.743730
H541	H54	0.547510	0.152040	0.989060
H551	H55	0.505760	0.029890	0.911950
H561	H56	0.524110	0.246200	0.731200
C651	C65	0.000000	0.313600	0.250000
C661	C66	0.500000	0.813600	0.250000
C671	C67	0.000000	0.686400	0.750000
C681	C68	0.500000	0.186400	0.750000
