data_AQUDIB_clean_PM
_symmetry_space_group_name_H-M	'P1'
_cell_length_a	25.752200
_cell_length_b	25.752200
_cell_length_c	6.757600
_cell_angle_alpha	90.000000
_cell_angle_beta	90.000000
_cell_angle_gamma	120.000000
_symmetry_Int_Tables_number 1

loop_
_symmetry_equiv_pos_as_xyz
'x,y,z'

loop_
_atom_site_label
_atom_site_type_symbol
_atom_site_fract_x
_atom_site_fract_y
_atom_site_fract_z
Ni11	Ni1	0.618990	0.647710	0.353200
O11	O1	0.438610	0.406240	0.434230
O21	O2	0.368970	0.365440	0.216570
O31	O3	0.614440	0.582810	0.157980
C11	C1	0.418150	0.406860	0.253760
C21	C2	0.462560	0.453300	0.118060
C31	C3	0.559670	0.548570	0.080320
C41	C4	0.518050	0.496700	0.194140
H11	H1	0.528840	0.491910	0.326070
Ni21	Ni2	0.285660	0.981040	0.686530
O41	O4	0.105280	0.739570	0.767560
O51	O5	0.035640	0.698770	0.549900
O61	O6	0.281110	0.916140	0.491310
C51	C5	0.084820	0.740190	0.587090
C61	C6	0.129230	0.786630	0.451390
C71	C7	0.226340	0.881900	0.413650
C81	C8	0.184720	0.830030	0.527470
H21	H2	0.195510	0.825240	0.659400
Ni31	Ni3	0.952320	0.314380	0.019870
O71	O7	0.771940	0.072910	0.100900
O81	O8	0.702300	0.032110	0.883240
O91	O9	0.947770	0.249480	0.824650
C91	C9	0.751480	0.073530	0.920430
C101	C10	0.795890	0.119970	0.784730
C111	C11	0.893000	0.215240	0.746990
C121	C12	0.851380	0.163370	0.860810
H31	H3	0.862170	0.158580	0.992740
Ni41	Ni4	0.352290	0.971280	0.353200
O101	O10	0.593760	0.032370	0.434230
O111	O11	0.634560	0.003530	0.216570
O121	O12	0.417190	0.031630	0.157980
C131	C13	0.593140	0.011290	0.253760
C141	C14	0.546700	0.009260	0.118060
C151	C15	0.451430	0.011100	0.080320
C161	C16	0.503300	0.021350	0.194140
H41	H4	0.508090	0.036930	0.326070
Ni51	Ni5	0.018960	0.304610	0.686530
O131	O13	0.260430	0.365700	0.767560
O141	O14	0.301230	0.336860	0.549900
O151	O15	0.083860	0.364960	0.491310
C171	C17	0.259810	0.344620	0.587090
C181	C18	0.213370	0.342590	0.451390
C191	C19	0.118100	0.344430	0.413650
C201	C20	0.169970	0.354680	0.527470
H51	H5	0.174760	0.370260	0.659400
Ni61	Ni6	0.685620	0.637950	0.019870
O161	O16	0.927090	0.699040	0.100900
O171	O17	0.967890	0.670200	0.883240
O181	O18	0.750520	0.698300	0.824650
C211	C21	0.926470	0.677960	0.920430
C221	C22	0.880030	0.675930	0.784730
C231	C23	0.784760	0.677770	0.746990
C241	C24	0.836630	0.688020	0.860810
H61	H6	0.841420	0.703600	0.992740
Ni71	Ni7	0.028720	0.381010	0.353200
O191	O19	0.967630	0.561390	0.434230
O201	O20	0.996470	0.631030	0.216570
O211	O21	0.968370	0.385560	0.157980
C251	C25	0.988710	0.581850	0.253760
C261	C26	0.990740	0.537440	0.118060
C271	C27	0.988900	0.440330	0.080320
C281	C28	0.978650	0.481950	0.194140
H71	H7	0.963070	0.471160	0.326070
Ni81	Ni8	0.695390	0.714340	0.686530
O221	O22	0.634300	0.894720	0.767560
O231	O23	0.663140	0.964360	0.549900
O241	O24	0.635040	0.718890	0.491310
C291	C29	0.655380	0.915180	0.587090
C301	C30	0.657410	0.870770	0.451390
C311	C31	0.655570	0.773660	0.413650
C321	C32	0.645320	0.815280	0.527470
H81	H8	0.629740	0.804490	0.659400
Ni91	Ni9	0.362050	0.047680	0.019870
O251	O25	0.300960	0.228060	0.100900
O261	O26	0.329800	0.297700	0.883240
O271	O27	0.301700	0.052230	0.824650
C331	C33	0.322040	0.248520	0.920430
C341	C34	0.324070	0.204110	0.784730
C351	C35	0.322230	0.107000	0.746990
C361	C36	0.311980	0.148620	0.860810
H91	H9	0.296400	0.137830	0.992740
Ni101	Ni10	0.381010	0.352290	0.646800
O281	O28	0.561390	0.593760	0.565770
O291	O29	0.631030	0.634560	0.783430
O301	O30	0.385560	0.417190	0.842020
C371	C37	0.581850	0.593140	0.746240
C381	C38	0.537440	0.546700	0.881940
C391	C39	0.440330	0.451430	0.919680
C401	C40	0.481950	0.503300	0.805860
H101	H10	0.471160	0.508090	0.673930
Ni111	Ni11	0.047680	0.685620	0.980130
O311	O31	0.228060	0.927090	0.899100
O321	O32	0.297700	0.967890	0.116760
O331	O33	0.052230	0.750520	0.175350
C411	C41	0.248520	0.926470	0.079570
C421	C42	0.204110	0.880030	0.215270
C431	C43	0.107000	0.784760	0.253010
C441	C44	0.148620	0.836630	0.139190
H111	H11	0.137830	0.841420	0.007260
Ni121	Ni12	0.714340	0.018960	0.313470
O341	O34	0.894720	0.260430	0.232440
O351	O35	0.964360	0.301230	0.450100
O361	O36	0.718890	0.083860	0.508690
C451	C45	0.915180	0.259810	0.412910
C461	C46	0.870770	0.213370	0.548610
C471	C47	0.773660	0.118100	0.586350
C481	C48	0.815280	0.169970	0.472530
H121	H12	0.804490	0.174760	0.340600
Ni131	Ni13	0.647710	0.028720	0.646800
O371	O37	0.406240	0.967630	0.565770
O381	O38	0.365440	0.996470	0.783430
O391	O39	0.582810	0.968370	0.842020
C491	C49	0.406860	0.988710	0.746240
C501	C50	0.453300	0.990740	0.881940
C511	C51	0.548570	0.988900	0.919680
C521	C52	0.496700	0.978650	0.805860
H131	H13	0.491910	0.963070	0.673930
Ni141	Ni14	0.314380	0.362050	0.980130
O401	O40	0.072910	0.300960	0.899100
O411	O41	0.032110	0.329800	0.116760
O421	O42	0.249480	0.301700	0.175350
C531	C53	0.073530	0.322040	0.079570
C541	C54	0.119970	0.324070	0.215270
C551	C55	0.215240	0.322230	0.253010
C561	C56	0.163370	0.311980	0.139190
H141	H14	0.158580	0.296400	0.007260
Ni151	Ni15	0.981040	0.695390	0.313470
O431	O43	0.739570	0.634300	0.232440
O441	O44	0.698770	0.663140	0.450100
O451	O45	0.916140	0.635040	0.508690
C571	C57	0.740190	0.655380	0.412910
C581	C58	0.786630	0.657410	0.548610
C591	C59	0.881900	0.655570	0.586350
C601	C60	0.830030	0.645320	0.472530
H151	H15	0.825240	0.629740	0.340600
Ni161	Ni16	0.971280	0.618990	0.646800
O461	O46	0.032370	0.438610	0.565770
O471	O47	0.003530	0.368970	0.783430
O481	O48	0.031630	0.614440	0.842020
C611	C61	0.011290	0.418150	0.746240
C621	C62	0.009260	0.462560	0.881940
C631	C63	0.011100	0.559670	0.919680
C641	C64	0.021350	0.518050	0.805860
H161	H16	0.036930	0.528840	0.673930
Ni171	Ni17	0.637950	0.952320	0.980130
O491	O49	0.699040	0.771940	0.899100
O501	O50	0.670200	0.702300	0.116760
O511	O51	0.698300	0.947770	0.175350
C651	C65	0.677960	0.751480	0.079570
C661	C66	0.675930	0.795890	0.215270
C671	C67	0.677770	0.893000	0.253010
C681	C68	0.688020	0.851380	0.139190
H171	H17	0.703600	0.862170	0.007260
Ni181	Ni18	0.304610	0.285660	0.313470
O521	O52	0.365700	0.105280	0.232440
O531	O53	0.336860	0.035640	0.450100
O541	O54	0.364960	0.281110	0.508690
C691	C69	0.344620	0.084820	0.412910
C701	C70	0.342590	0.129230	0.548610
C711	C71	0.344430	0.226340	0.586350
C721	C72	0.354680	0.184720	0.472530
H181	H18	0.370260	0.195510	0.340600
