data_ARADEE_clean_PM
_symmetry_space_group_name_H-M	'P1'
_cell_length_a	21.789900
_cell_length_b	16.633700
_cell_length_c	13.514900
_cell_angle_alpha	90.000000
_cell_angle_beta	93.816000
_cell_angle_gamma	90.000000
_symmetry_Int_Tables_number 1

loop_
_symmetry_equiv_pos_as_xyz
'x,y,z'

loop_
_atom_site_label
_atom_site_type_symbol
_atom_site_fract_x
_atom_site_fract_y
_atom_site_fract_z
Cd11	Cd1	0.643320	0.249550	0.266970
C11	C1	0.584570	0.111100	0.414700
C21	C2	0.636000	0.904600	0.679900
C31	C3	0.767700	0.149600	0.654900
C41	C4	0.624310	0.082500	0.504700
C51	C5	0.610050	0.010600	0.552000
H11	H1	0.575700	0.980800	0.529800
C61	C6	0.647780	0.984300	0.632600
C71	C7	0.698300	0.029600	0.664600
H21	H2	0.723700	0.011400	0.717900
C81	C8	0.712180	0.101500	0.619500
C91	C9	0.674400	0.127800	0.539000
H31	H3	0.682900	0.176200	0.508200
C101	C10	0.531400	0.391800	0.250900
C111	C11	0.565900	0.464100	0.250900
H41	H4	0.608600	0.464100	0.251400
C121	C12	0.532900	0.533300	0.250000
H51	H5	0.553600	0.582200	0.249400
N11	N1	0.550480	0.314300	0.251100
O11	O1	0.589950	0.182900	0.389400
O21	O2	0.548670	0.062100	0.372700
O31	O3	0.586080	0.868800	0.659300
O41	O4	0.678200	0.875400	0.735900
O51	O5	0.805880	0.116800	0.715400
O61	O6	0.773640	0.218400	0.625800
Cd21	Cd2	0.143320	0.749550	0.266970
C131	C13	0.084570	0.611100	0.414700
C141	C14	0.136000	0.404600	0.679900
C151	C15	0.267700	0.649600	0.654900
C161	C16	0.124310	0.582500	0.504700
C171	C17	0.110050	0.510600	0.552000
H61	H6	0.075700	0.480800	0.529800
C181	C18	0.147780	0.484300	0.632600
C191	C19	0.198300	0.529600	0.664600
H71	H7	0.223700	0.511400	0.717900
C201	C20	0.212180	0.601500	0.619500
C211	C21	0.174400	0.627800	0.539000
H81	H8	0.182900	0.676200	0.508200
C221	C22	0.031400	0.891800	0.250900
C231	C23	0.065900	0.964100	0.250900
H91	H9	0.108600	0.964100	0.251400
C241	C24	0.032900	0.033300	0.250000
H101	H10	0.053600	0.082200	0.249400
N21	N2	0.050480	0.814300	0.251100
O71	O7	0.089950	0.682900	0.389400
O81	O8	0.048670	0.562100	0.372700
O91	O9	0.086080	0.368800	0.659300
O101	O10	0.178200	0.375400	0.735900
O111	O11	0.305880	0.616800	0.715400
O121	O12	0.273640	0.718400	0.625800
Cd31	Cd3	0.356680	0.249550	0.233030
C251	C25	0.415430	0.111100	0.085300
C261	C26	0.364000	0.904600	0.820100
C271	C27	0.232300	0.149600	0.845100
C281	C28	0.375690	0.082500	0.995300
C291	C29	0.389950	0.010600	0.948000
H111	H11	0.424300	0.980800	0.970200
C301	C30	0.352220	0.984300	0.867400
C311	C31	0.301700	0.029600	0.835400
H121	H12	0.276300	0.011400	0.782100
C321	C32	0.287820	0.101500	0.880500
C331	C33	0.325600	0.127800	0.961000
H131	H13	0.317100	0.176200	0.991800
C341	C34	0.468600	0.391800	0.249100
C351	C35	0.434100	0.464100	0.249100
H141	H14	0.391400	0.464100	0.248600
C361	C36	0.467100	0.533300	0.250000
H151	H15	0.446400	0.582200	0.250600
N31	N3	0.449520	0.314300	0.248900
O131	O13	0.410050	0.182900	0.110600
O141	O14	0.451330	0.062100	0.127300
O151	O15	0.413920	0.868800	0.840700
O161	O16	0.321800	0.875400	0.764100
O171	O17	0.194120	0.116800	0.784600
O181	O18	0.226360	0.218400	0.874200
Cd41	Cd4	0.856680	0.749550	0.233030
C371	C37	0.915430	0.611100	0.085300
C381	C38	0.864000	0.404600	0.820100
C391	C39	0.732300	0.649600	0.845100
C401	C40	0.875690	0.582500	0.995300
C411	C41	0.889950	0.510600	0.948000
H161	H16	0.924300	0.480800	0.970200
C421	C42	0.852220	0.484300	0.867400
C431	C43	0.801700	0.529600	0.835400
H171	H17	0.776300	0.511400	0.782100
C441	C44	0.787820	0.601500	0.880500
C451	C45	0.825600	0.627800	0.961000
H181	H18	0.817100	0.676200	0.991800
C461	C46	0.968600	0.891800	0.249100
C471	C47	0.934100	0.964100	0.249100
H191	H19	0.891400	0.964100	0.248600
C481	C48	0.967100	0.033300	0.250000
H201	H20	0.946400	0.082200	0.250600
N41	N4	0.949520	0.814300	0.248900
O191	O19	0.910050	0.682900	0.110600
O201	O20	0.951330	0.562100	0.127300
O211	O21	0.913920	0.368800	0.840700
O221	O22	0.821800	0.375400	0.764100
O231	O23	0.694120	0.616800	0.784600
O241	O24	0.726360	0.718400	0.874200
Cd51	Cd5	0.356680	0.750450	0.733030
C491	C49	0.415430	0.888900	0.585300
C501	C50	0.364000	0.095400	0.320100
C511	C51	0.232300	0.850400	0.345100
C521	C52	0.375690	0.917500	0.495300
C531	C53	0.389950	0.989400	0.448000
H211	H21	0.424300	0.019200	0.470200
C541	C54	0.352220	0.015700	0.367400
C551	C55	0.301700	0.970400	0.335400
H221	H22	0.276300	0.988600	0.282100
C561	C56	0.287820	0.898500	0.380500
C571	C57	0.325600	0.872200	0.461000
H231	H23	0.317100	0.823800	0.491800
C581	C58	0.468600	0.608200	0.749100
C591	C59	0.434100	0.535900	0.749100
H241	H24	0.391400	0.535900	0.748600
C601	C60	0.467100	0.466700	0.750000
H251	H25	0.446400	0.417800	0.750600
N51	N5	0.449520	0.685700	0.748900
O251	O25	0.410050	0.817100	0.610600
O261	O26	0.451330	0.937900	0.627300
O271	O27	0.413920	0.131200	0.340700
O281	O28	0.321800	0.124600	0.264100
O291	O29	0.194120	0.883200	0.284600
O301	O30	0.226360	0.781600	0.374200
Cd61	Cd6	0.856680	0.250450	0.733030
C611	C61	0.915430	0.388900	0.585300
C621	C62	0.864000	0.595400	0.320100
C631	C63	0.732300	0.350400	0.345100
C641	C64	0.875690	0.417500	0.495300
C651	C65	0.889950	0.489400	0.448000
H261	H26	0.924300	0.519200	0.470200
C661	C66	0.852220	0.515700	0.367400
C671	C67	0.801700	0.470400	0.335400
H271	H27	0.776300	0.488600	0.282100
C681	C68	0.787820	0.398500	0.380500
C691	C69	0.825600	0.372200	0.461000
H281	H28	0.817100	0.323800	0.491800
C701	C70	0.968600	0.108200	0.749100
C711	C71	0.934100	0.035900	0.749100
H291	H29	0.891400	0.035900	0.748600
C721	C72	0.967100	0.966700	0.750000
H301	H30	0.946400	0.917800	0.750600
N61	N6	0.949520	0.185700	0.748900
O311	O31	0.910050	0.317100	0.610600
O321	O32	0.951330	0.437900	0.627300
O331	O33	0.913920	0.631200	0.340700
O341	O34	0.821800	0.624600	0.264100
O351	O35	0.694120	0.383200	0.284600
O361	O36	0.726360	0.281600	0.374200
Cd71	Cd7	0.643320	0.750450	0.766970
C731	C73	0.584570	0.888900	0.914700
C741	C74	0.636000	0.095400	0.179900
C751	C75	0.767700	0.850400	0.154900
C761	C76	0.624310	0.917500	0.004700
C771	C77	0.610050	0.989400	0.052000
H311	H31	0.575700	0.019200	0.029800
C781	C78	0.647780	0.015700	0.132600
C791	C79	0.698300	0.970400	0.164600
H321	H32	0.723700	0.988600	0.217900
C801	C80	0.712180	0.898500	0.119500
C811	C81	0.674400	0.872200	0.039000
H331	H33	0.682900	0.823800	0.008200
C821	C82	0.531400	0.608200	0.750900
C831	C83	0.565900	0.535900	0.750900
H341	H34	0.608600	0.535900	0.751400
C841	C84	0.532900	0.466700	0.750000
H351	H35	0.553600	0.417800	0.749400
N71	N7	0.550480	0.685700	0.751100
O371	O37	0.589950	0.817100	0.889400
O381	O38	0.548670	0.937900	0.872700
O391	O39	0.586080	0.131200	0.159300
O401	O40	0.678200	0.124600	0.235900
O411	O41	0.805880	0.883200	0.215400
O421	O42	0.773640	0.781600	0.125800
Cd81	Cd8	0.143320	0.250450	0.766970
C851	C85	0.084570	0.388900	0.914700
C861	C86	0.136000	0.595400	0.179900
C871	C87	0.267700	0.350400	0.154900
C881	C88	0.124310	0.417500	0.004700
C891	C89	0.110050	0.489400	0.052000
H361	H36	0.075700	0.519200	0.029800
C901	C90	0.147780	0.515700	0.132600
C911	C91	0.198300	0.470400	0.164600
H371	H37	0.223700	0.488600	0.217900
C921	C92	0.212180	0.398500	0.119500
C931	C93	0.174400	0.372200	0.039000
H381	H38	0.182900	0.323800	0.008200
C941	C94	0.031400	0.108200	0.750900
C951	C95	0.065900	0.035900	0.750900
H391	H39	0.108600	0.035900	0.751400
C961	C96	0.032900	0.966700	0.750000
H401	H40	0.053600	0.917800	0.749400
N81	N8	0.050480	0.185700	0.751100
O431	O43	0.089950	0.317100	0.889400
O441	O44	0.048670	0.437900	0.872700
O451	O45	0.086080	0.631200	0.159300
O461	O46	0.178200	0.624600	0.235900
O471	O47	0.305880	0.383200	0.215400
O481	O48	0.273640	0.281600	0.125800
Cd91	Cd9	0.500000	0.132710	0.250000
N91	N9	0.500000	0.270400	0.250000
Cd101	Cd10	0.000000	0.632710	0.250000
N101	N10	0.000000	0.770400	0.250000
Cd111	Cd11	0.500000	0.867290	0.750000
N111	N11	0.500000	0.729600	0.750000
Cd121	Cd12	0.000000	0.367290	0.750000
N121	N12	0.000000	0.229600	0.750000
