data_ARAFOP_clean_PM
_symmetry_space_group_name_H-M	'P1'
_cell_length_a	24.561000
_cell_length_b	6.986000
_cell_length_c	9.133300
_cell_angle_alpha	90.000000
_cell_angle_beta	90.000000
_cell_angle_gamma	90.000000
_symmetry_Int_Tables_number 1

loop_
_symmetry_equiv_pos_as_xyz
'x,y,z'

loop_
_atom_site_label
_atom_site_type_symbol
_atom_site_fract_x
_atom_site_fract_y
_atom_site_fract_z
N11	N1	0.442340	0.154300	0.598200
H11	H1	0.383200	0.964600	0.659100
C11	C1	0.394170	0.094100	0.647300
C21	C2	0.277700	0.086000	0.734100
H21	H2	0.296000	0.967100	0.723900
N21	N2	0.394170	0.405900	0.647300
N31	N3	0.942340	0.654300	0.098200
H31	H3	0.883200	0.464600	0.159100
C31	C3	0.894170	0.594100	0.147300
C41	C4	0.777700	0.586000	0.234100
H41	H4	0.796000	0.467100	0.223900
N41	N4	0.894170	0.905900	0.147300
N51	N5	0.557660	0.345700	0.598200
H51	H5	0.616800	0.535400	0.659100
C51	C5	0.605830	0.405900	0.647300
C61	C6	0.722300	0.414000	0.734100
H61	H6	0.704000	0.532900	0.723900
N61	N6	0.605830	0.094100	0.647300
N71	N7	0.057660	0.845700	0.098200
H71	H7	0.116800	0.035400	0.159100
C71	C7	0.105830	0.905900	0.147300
C81	C8	0.222300	0.914000	0.234100
H81	H8	0.204000	0.032900	0.223900
N81	N8	0.105830	0.594100	0.147300
N91	N9	0.557660	0.654300	0.401800
H91	H9	0.616800	0.464600	0.340900
C91	C9	0.605830	0.594100	0.352700
C101	C10	0.722300	0.586000	0.265900
H101	H10	0.704000	0.467100	0.276100
N101	N10	0.605830	0.905900	0.352700
N111	N11	0.057660	0.154300	0.901800
H111	H11	0.116800	0.964600	0.840900
C111	C11	0.105830	0.094100	0.852700
C121	C12	0.222300	0.086000	0.765900
H121	H12	0.204000	0.967100	0.776100
N121	N12	0.105830	0.405900	0.852700
N131	N13	0.442340	0.845700	0.401800
H131	H13	0.383200	0.035400	0.340900
C131	C13	0.394170	0.905900	0.352700
C141	C14	0.277700	0.914000	0.265900
H141	H14	0.296000	0.032900	0.276100
N141	N14	0.394170	0.594100	0.352700
N151	N15	0.942340	0.345700	0.901800
H151	H15	0.883200	0.535400	0.840900
C151	C15	0.894170	0.405900	0.852700
C161	C16	0.777700	0.414000	0.765900
H161	H16	0.796000	0.532900	0.776100
N161	N16	0.894170	0.094100	0.852700
N171	N17	0.557660	0.845700	0.401800
H171	H17	0.616800	0.035400	0.340900
C171	C17	0.722300	0.914000	0.265900
H181	H18	0.704000	0.032900	0.276100
N181	N18	0.057660	0.345700	0.901800
H191	H19	0.116800	0.535400	0.840900
C181	C18	0.222300	0.414000	0.765900
H201	H20	0.204000	0.532900	0.776100
N191	N19	0.442340	0.654300	0.401800
H211	H21	0.383200	0.464600	0.340900
C191	C19	0.277700	0.586000	0.265900
H221	H22	0.296000	0.467100	0.276100
N201	N20	0.942340	0.154300	0.901800
H231	H23	0.883200	0.964600	0.840900
C201	C20	0.777700	0.086000	0.765900
H241	H24	0.796000	0.967100	0.776100
N211	N21	0.442340	0.345700	0.598200
H251	H25	0.383200	0.535400	0.659100
C211	C21	0.277700	0.414000	0.734100
H261	H26	0.296000	0.532900	0.723900
N221	N22	0.942340	0.845700	0.098200
H271	H27	0.883200	0.035400	0.159100
C221	C22	0.777700	0.914000	0.234100
H281	H28	0.796000	0.032900	0.223900
N231	N23	0.557660	0.154300	0.598200
H291	H29	0.616800	0.964600	0.659100
C231	C23	0.722300	0.086000	0.734100
H301	H30	0.704000	0.967100	0.723900
N241	N24	0.057660	0.654300	0.098200
H311	H31	0.116800	0.464600	0.159100
C241	C24	0.222300	0.586000	0.234100
H321	H32	0.204000	0.467100	0.223900
Cu11	Cu1	0.500000	0.000000	0.500000
Cu21	Cu2	0.000000	0.500000	0.000000
Cu31	Cu3	0.500000	0.500000	0.500000
Cu41	Cu4	0.000000	0.000000	0.000000
C251	C25	0.363900	0.250000	0.677200
C261	C26	0.306000	0.250000	0.717400
C271	C27	0.863900	0.750000	0.177200
C281	C28	0.806000	0.750000	0.217400
C291	C29	0.636100	0.250000	0.677200
C301	C30	0.694000	0.250000	0.717400
C311	C31	0.136100	0.750000	0.177200
C321	C32	0.194000	0.750000	0.217400
C331	C33	0.636100	0.750000	0.322800
C341	C34	0.694000	0.750000	0.282600
C351	C35	0.136100	0.250000	0.822800
C361	C36	0.194000	0.250000	0.782600
C371	C37	0.363900	0.750000	0.322800
C381	C38	0.306000	0.750000	0.282600
C391	C39	0.863900	0.250000	0.822800
C401	C40	0.806000	0.250000	0.782600
