data_ARINUL_clean_PM
_symmetry_space_group_name_H-M	'P1'
_cell_length_a	20.586000
_cell_length_b	20.586000
_cell_length_c	7.522000
_cell_angle_alpha	90.000000
_cell_angle_beta	90.000000
_cell_angle_gamma	90.000000
_symmetry_Int_Tables_number 1

loop_
_symmetry_equiv_pos_as_xyz
'x,y,z'

loop_
_atom_site_label
_atom_site_type_symbol
_atom_site_fract_x
_atom_site_fract_y
_atom_site_fract_z
N11	N1	0.005900	0.423700	0.173200
C11	C1	0.017800	0.324900	0.430500
C21	C2	0.960800	0.355300	0.393000
H11	H1	0.923600	0.344100	0.456400
C31	C3	0.957400	0.401200	0.267000
H21	H2	0.916600	0.418700	0.244400
C41	C4	0.062100	0.397800	0.214900
H31	H3	0.098700	0.413100	0.155900
C51	C5	0.025700	0.274200	0.571000
N21	N2	0.988400	0.278800	0.694000
N31	N3	0.990900	0.079800	0.342500
C61	C6	0.972300	0.178100	0.085100
C71	C7	0.021800	0.134900	0.069200
H41	H4	0.050400	0.137600	0.973600
C81	C8	0.029700	0.086000	0.198000
H51	H5	0.063300	0.056300	0.183100
C91	C9	0.932900	0.170400	0.228800
H61	H6	0.898000	0.198500	0.245400
C101	C10	0.958400	0.226600	0.949500
N41	N4	0.997600	0.231000	0.828000
C111	C11	0.074200	0.224200	0.547000
H71	H7	0.093900	0.214100	0.659300
H81	H8	0.106900	0.239300	0.465900
H91	H9	0.054100	0.185900	0.499400
C121	C12	0.905700	0.272500	0.950000
H101	H10	0.869000	0.254200	0.889700
H111	H11	0.919000	0.311600	0.891200
H121	H12	0.893900	0.282300	0.070900
C131	C13	0.944000	0.121000	0.351100
H131	H13	0.915400	0.117500	0.446400
C141	C14	0.070800	0.350400	0.337000
H141	H14	0.112400	0.334600	0.359700
N51	N5	0.994100	0.576300	0.173200
C151	C15	0.982200	0.675100	0.430500
C161	C16	0.039200	0.644700	0.393000
H151	H15	0.076400	0.655900	0.456400
C171	C17	0.042600	0.598800	0.267000
H161	H16	0.083400	0.581300	0.244400
C181	C18	0.937900	0.602200	0.214900
H171	H17	0.901300	0.586900	0.155900
C191	C19	0.974300	0.725800	0.571000
N61	N6	0.011600	0.721200	0.694000
N71	N7	0.009100	0.920200	0.342500
C201	C20	0.027700	0.821900	0.085100
C211	C21	0.978200	0.865100	0.069200
H181	H18	0.949600	0.862400	0.973600
C221	C22	0.970300	0.914000	0.198000
H191	H19	0.936700	0.943700	0.183100
C231	C23	0.067100	0.829600	0.228800
H201	H20	0.102000	0.801500	0.245400
C241	C24	0.041600	0.773400	0.949500
N81	N8	0.002400	0.769000	0.828000
C251	C25	0.925800	0.775800	0.547000
H211	H21	0.906100	0.785900	0.659300
H221	H22	0.893100	0.760700	0.465900
H231	H23	0.945900	0.814100	0.499400
C261	C26	0.094300	0.727500	0.950000
H241	H24	0.131000	0.745800	0.889700
H251	H25	0.081000	0.688400	0.891200
H261	H26	0.106100	0.717700	0.070900
C271	C27	0.056000	0.879000	0.351100
H271	H27	0.084600	0.882500	0.446400
C281	C28	0.929200	0.649600	0.337000
H281	H28	0.887600	0.665400	0.359700
N91	N9	0.423700	0.994100	0.826800
C291	C29	0.324900	0.982200	0.569500
C301	C30	0.355300	0.039200	0.607000
H291	H29	0.344100	0.076400	0.543600
C311	C31	0.401200	0.042600	0.733000
H301	H30	0.418700	0.083400	0.755600
C321	C32	0.397800	0.937900	0.785100
H311	H31	0.413100	0.901300	0.844100
C331	C33	0.274200	0.974300	0.429000
N101	N10	0.278800	0.011600	0.306000
N111	N11	0.079800	0.009100	0.657500
C341	C34	0.178100	0.027700	0.914900
C351	C35	0.134900	0.978200	0.930800
H321	H32	0.137600	0.949600	0.026400
C361	C36	0.086000	0.970300	0.802000
H331	H33	0.056300	0.936700	0.816900
C371	C37	0.170400	0.067100	0.771200
H341	H34	0.198500	0.102000	0.754600
C381	C38	0.226600	0.041600	0.050500
N121	N12	0.231000	0.002400	0.172000
C391	C39	0.224200	0.925800	0.453000
H351	H35	0.214100	0.906100	0.340700
H361	H36	0.239300	0.893100	0.534100
H371	H37	0.185900	0.945900	0.500600
C401	C40	0.272500	0.094300	0.050000
H381	H38	0.254200	0.131000	0.110300
H391	H39	0.311600	0.081000	0.108800
H401	H40	0.282300	0.106100	0.929100
C411	C41	0.121000	0.056000	0.648900
H411	H41	0.117500	0.084600	0.553600
C421	C42	0.350400	0.929200	0.663000
H421	H42	0.334600	0.887600	0.640300
N131	N13	0.576300	0.005900	0.826800
C431	C43	0.675100	0.017800	0.569500
C441	C44	0.644700	0.960800	0.607000
H431	H43	0.655900	0.923600	0.543600
C451	C45	0.598800	0.957400	0.733000
H441	H44	0.581300	0.916600	0.755600
C461	C46	0.602200	0.062100	0.785100
H451	H45	0.586900	0.098700	0.844100
C471	C47	0.725800	0.025700	0.429000
N141	N14	0.721200	0.988400	0.306000
N151	N15	0.920200	0.990900	0.657500
C481	C48	0.821900	0.972300	0.914900
C491	C49	0.865100	0.021800	0.930800
H461	H46	0.862400	0.050400	0.026400
C501	C50	0.914000	0.029700	0.802000
H471	H47	0.943700	0.063300	0.816900
C511	C51	0.829600	0.932900	0.771200
H481	H48	0.801500	0.898000	0.754600
C521	C52	0.773400	0.958400	0.050500
N161	N16	0.769000	0.997600	0.172000
C531	C53	0.775800	0.074200	0.453000
H491	H49	0.785900	0.093900	0.340700
H501	H50	0.760700	0.106900	0.534100
H511	H51	0.814100	0.054100	0.500600
C541	C54	0.727500	0.905700	0.050000
H521	H52	0.745800	0.869000	0.110300
H531	H53	0.688400	0.919000	0.108800
H541	H54	0.717700	0.893900	0.929100
C551	C55	0.879000	0.944000	0.648900
H551	H55	0.882500	0.915400	0.553600
C561	C56	0.649600	0.070800	0.663000
H561	H56	0.665400	0.112400	0.640300
N171	N17	0.505900	0.076300	0.173200
C571	C57	0.517800	0.175100	0.430500
C581	C58	0.460800	0.144700	0.393000
H571	H57	0.423600	0.155900	0.456400
C591	C59	0.457400	0.098800	0.267000
H581	H58	0.416600	0.081300	0.244400
C601	C60	0.562100	0.102200	0.214900
H591	H59	0.598700	0.086900	0.155900
C611	C61	0.525700	0.225800	0.571000
N181	N18	0.488400	0.221200	0.694000
N191	N19	0.490900	0.420200	0.342500
C621	C62	0.472300	0.321900	0.085100
C631	C63	0.521800	0.365100	0.069200
H601	H60	0.550400	0.362400	0.973600
C641	C64	0.529700	0.414000	0.198000
H611	H61	0.563300	0.443700	0.183100
C651	C65	0.432900	0.329600	0.228800
H621	H62	0.398000	0.301500	0.245400
C661	C66	0.458400	0.273400	0.949500
N201	N20	0.497600	0.269000	0.828000
C671	C67	0.574200	0.275800	0.547000
H631	H63	0.593900	0.285900	0.659300
H641	H64	0.606900	0.260700	0.465900
H651	H65	0.554100	0.314100	0.499400
C681	C68	0.405700	0.227500	0.950000
H661	H66	0.369000	0.245800	0.889700
H671	H67	0.419000	0.188400	0.891200
H681	H68	0.393900	0.217700	0.070900
C691	C69	0.444000	0.379000	0.351100
H691	H69	0.415400	0.382500	0.446400
C701	C70	0.570800	0.149600	0.337000
H701	H70	0.612400	0.165400	0.359700
N211	N21	0.494100	0.923700	0.173200
C711	C71	0.482200	0.824900	0.430500
C721	C72	0.539200	0.855300	0.393000
H711	H71	0.576400	0.844100	0.456400
C731	C73	0.542600	0.901200	0.267000
H721	H72	0.583400	0.918700	0.244400
C741	C74	0.437900	0.897800	0.214900
H731	H73	0.401300	0.913100	0.155900
C751	C75	0.474300	0.774200	0.571000
N221	N22	0.511600	0.778800	0.694000
N231	N23	0.509100	0.579800	0.342500
C761	C76	0.527700	0.678100	0.085100
C771	C77	0.478200	0.634900	0.069200
H741	H74	0.449600	0.637600	0.973600
C781	C78	0.470300	0.586000	0.198000
H751	H75	0.436700	0.556300	0.183100
C791	C79	0.567100	0.670400	0.228800
H761	H76	0.602000	0.698500	0.245400
C801	C80	0.541600	0.726600	0.949500
N241	N24	0.502400	0.731000	0.828000
C811	C81	0.425800	0.724200	0.547000
H771	H77	0.406100	0.714100	0.659300
H781	H78	0.393100	0.739300	0.465900
H791	H79	0.445900	0.685900	0.499400
C821	C82	0.594300	0.772500	0.950000
H801	H80	0.631000	0.754200	0.889700
H811	H81	0.581000	0.811600	0.891200
H821	H82	0.606100	0.782300	0.070900
C831	C83	0.556000	0.621000	0.351100
H831	H83	0.584600	0.617500	0.446400
C841	C84	0.429200	0.850400	0.337000
H841	H84	0.387600	0.834600	0.359700
N251	N25	0.923700	0.505900	0.826800
C851	C85	0.824900	0.517800	0.569500
C861	C86	0.855300	0.460800	0.607000
H851	H85	0.844100	0.423600	0.543600
C871	C87	0.901200	0.457400	0.733000
H861	H86	0.918700	0.416600	0.755600
C881	C88	0.897800	0.562100	0.785100
H871	H87	0.913100	0.598700	0.844100
C891	C89	0.774200	0.525700	0.429000
N261	N26	0.778800	0.488400	0.306000
N271	N27	0.579800	0.490900	0.657500
C901	C90	0.678100	0.472300	0.914900
C911	C91	0.634900	0.521800	0.930800
H881	H88	0.637600	0.550400	0.026400
C921	C92	0.586000	0.529700	0.802000
H891	H89	0.556300	0.563300	0.816900
C931	C93	0.670400	0.432900	0.771200
H901	H90	0.698500	0.398000	0.754600
C941	C94	0.726600	0.458400	0.050500
N281	N28	0.731000	0.497600	0.172000
C951	C95	0.724200	0.574200	0.453000
H911	H91	0.714100	0.593900	0.340700
H921	H92	0.739300	0.606900	0.534100
H931	H93	0.685900	0.554100	0.500600
C961	C96	0.772500	0.405700	0.050000
H941	H94	0.754200	0.369000	0.110300
H951	H95	0.811600	0.419000	0.108800
H961	H96	0.782300	0.393900	0.929100
C971	C97	0.621000	0.444000	0.648900
H971	H97	0.617500	0.415400	0.553600
C981	C98	0.850400	0.570800	0.663000
H981	H98	0.834600	0.612400	0.640300
N291	N29	0.076300	0.494100	0.826800
C991	C99	0.175100	0.482200	0.569500
C1001	C100	0.144700	0.539200	0.607000
H991	H99	0.155900	0.576400	0.543600
C1011	C101	0.098800	0.542600	0.733000
H1001	H100	0.081300	0.583400	0.755600
C1021	C102	0.102200	0.437900	0.785100
H1011	H101	0.086900	0.401300	0.844100
C1031	C103	0.225800	0.474300	0.429000
N301	N30	0.221200	0.511600	0.306000
N311	N31	0.420200	0.509100	0.657500
C1041	C104	0.321900	0.527700	0.914900
C1051	C105	0.365100	0.478200	0.930800
H1021	H102	0.362400	0.449600	0.026400
C1061	C106	0.414000	0.470300	0.802000
H1031	H103	0.443700	0.436700	0.816900
C1071	C107	0.329600	0.567100	0.771200
H1041	H104	0.301500	0.602000	0.754600
C1081	C108	0.273400	0.541600	0.050500
N321	N32	0.269000	0.502400	0.172000
C1091	C109	0.275800	0.425800	0.453000
H1051	H105	0.285900	0.406100	0.340700
H1061	H106	0.260700	0.393100	0.534100
H1071	H107	0.314100	0.445900	0.500600
C1101	C110	0.227500	0.594300	0.050000
H1081	H108	0.245800	0.631000	0.110300
H1091	H109	0.188400	0.581000	0.108800
H1101	H110	0.217700	0.606100	0.929100
C1111	C111	0.379000	0.556000	0.648900
H1111	H111	0.382500	0.584600	0.553600
C1121	C112	0.149600	0.429200	0.663000
H1121	H112	0.165400	0.387600	0.640300
Cu11	Cu1	0.000000	0.000000	0.500000
Cu21	Cu2	0.500000	0.500000	0.500000
Cu31	Cu3	0.000000	0.500000	0.000000
Cu41	Cu4	0.500000	0.000000	0.000000
