data_AROFET_clean_PM
_symmetry_space_group_name_H-M	'P1'
_cell_length_a	13.346000
_cell_length_b	16.186400
_cell_length_c	17.780700
_cell_angle_alpha	112.598000
_cell_angle_beta	107.375000
_cell_angle_gamma	97.625000
_symmetry_Int_Tables_number 1

loop_
_symmetry_equiv_pos_as_xyz
'x,y,z'

loop_
_atom_site_label
_atom_site_type_symbol
_atom_site_fract_x
_atom_site_fract_y
_atom_site_fract_z
Cd11	Cd1	0.067210	0.616080	0.593030
Cd21	Cd2	0.162680	0.543850	0.383860
Cd31	Cd3	0.932790	0.383920	0.406970
Cd41	Cd4	0.837320	0.456150	0.616140
H11	H1	0.454300	0.348700	0.632700
H21	H2	0.446300	0.507900	0.104600
H31	H3	0.537000	0.381100	0.932800
H41	H4	0.563200	0.313900	0.851600
H51	H5	0.112100	0.984300	0.672700
H61	H6	0.340200	0.361600	0.836100
H71	H7	0.266600	0.259500	0.760700
H81	H8	0.831300	0.299600	0.186800
H91	H9	0.198800	0.351500	0.712500
H101	H10	0.675800	0.218700	0.054900
H111	H11	0.425400	0.012900	0.687300
H121	H12	0.068900	0.823300	0.578400
H131	H13	0.694800	0.451400	0.017200
H141	H14	0.849600	0.530600	0.149600
H151	H15	0.392300	0.216500	0.941600
H161	H16	0.280800	0.228200	0.885000
H171	H17	0.373900	0.410800	0.540200
H181	H18	0.241800	0.248500	0.006400
H191	H19	0.376500	0.854800	0.587100
H201	H20	0.191200	0.299800	0.125700
H211	H21	0.454800	0.134000	0.821200
H221	H22	0.434400	0.162100	0.741600
H231	H23	0.394500	0.556300	0.220900
H241	H24	0.119800	0.411300	0.616500
H251	H25	0.545700	0.651300	0.367300
H261	H26	0.553700	0.492100	0.895400
H271	H27	0.463000	0.618900	0.067200
H281	H28	0.436800	0.686100	0.148400
H291	H29	0.887900	0.015700	0.327300
H301	H30	0.659800	0.638400	0.163900
H311	H31	0.733400	0.740500	0.239300
H321	H32	0.168700	0.700400	0.813200
H331	H33	0.801200	0.648500	0.287500
H341	H34	0.324200	0.781300	0.945100
H351	H35	0.574600	0.987100	0.312700
H361	H36	0.931100	0.176700	0.421600
H371	H37	0.305200	0.548600	0.982800
H381	H38	0.150400	0.469400	0.850400
H391	H39	0.607700	0.783500	0.058400
H401	H40	0.719200	0.771800	0.115000
H411	H41	0.626100	0.589200	0.459800
H421	H42	0.758200	0.751500	0.993600
H431	H43	0.623500	0.145200	0.412900
H441	H44	0.808800	0.700200	0.874300
H451	H45	0.545200	0.866000	0.178800
H461	H46	0.565600	0.837900	0.258400
H471	H47	0.605500	0.443700	0.779100
H481	H48	0.880200	0.588700	0.383500
C11	C1	0.386600	0.362200	0.630500
C21	C2	0.394000	0.465400	0.108400
C31	C3	0.530400	0.315500	0.895100
C41	C4	0.166400	0.957600	0.656900
C51	C5	0.342500	0.300400	0.795300
C61	C6	0.804100	0.330600	0.152700
C71	C7	0.234900	0.363500	0.677600
C81	C8	0.711500	0.282100	0.073900
C91	C9	0.352600	0.975000	0.664900
C101	C10	0.141100	0.861800	0.599300
C111	C11	0.722500	0.420400	0.051200
C121	C12	0.814400	0.467000	0.130100
C131	C13	0.361300	0.254900	0.913900
C141	C14	0.338400	0.398500	0.575400
C151	C15	0.272700	0.311400	0.050200
C161	C16	0.409100	0.257000	0.847800
C171	C17	0.274800	0.011600	0.689800
C181	C18	0.277800	0.438900	0.183000
C191	C19	0.322600	0.880000	0.605300
C201	C20	0.335800	0.345200	0.683100
C211	C21	0.244400	0.469500	0.256800
C221	C22	0.672900	0.327000	0.024400
C231	C23	0.240100	0.342800	0.119500
C241	C24	0.407300	0.159900	0.787100
C251	C25	0.856000	0.422700	0.181000
C261	C26	0.191200	0.462100	0.513500
C271	C27	0.239400	0.417700	0.570200
C281	C28	0.360300	0.494300	0.175500
C291	C29	0.188500	0.399300	0.620700
C301	C30	0.351800	0.371700	0.043300
C311	C31	0.192900	0.723600	0.512300
C321	C32	0.218000	0.821700	0.572000
C331	C33	0.955200	0.473200	0.261800
C341	C34	0.613400	0.637800	0.369500
C351	C35	0.606000	0.534600	0.891600
C361	C36	0.469600	0.684500	0.104900
C371	C37	0.833600	0.042400	0.343100
C381	C38	0.657500	0.699600	0.204700
C391	C39	0.195900	0.669400	0.847300
C401	C40	0.765100	0.636500	0.322400
C411	C41	0.288500	0.717900	0.926100
C421	C42	0.647400	0.025000	0.335100
C431	C43	0.858900	0.138200	0.400700
C441	C44	0.277500	0.579600	0.948800
C451	C45	0.185600	0.533000	0.869900
C461	C46	0.638700	0.745100	0.086100
C471	C47	0.661600	0.601500	0.424600
C481	C48	0.727300	0.688600	0.949800
C491	C49	0.590900	0.743000	0.152200
C501	C50	0.725200	0.988400	0.310200
C511	C51	0.722200	0.561100	0.817000
C521	C52	0.677400	0.120000	0.394700
C531	C53	0.664200	0.654800	0.316900
C541	C54	0.755600	0.530500	0.743200
C551	C55	0.327100	0.673000	0.975600
C561	C56	0.759900	0.657200	0.880500
C571	C57	0.592700	0.840100	0.212900
C581	C58	0.144000	0.577300	0.819000
C591	C59	0.808800	0.537900	0.486500
C601	C60	0.760600	0.582300	0.429800
C611	C61	0.639700	0.505700	0.824500
C621	C62	0.811500	0.600700	0.379300
C631	C63	0.648200	0.628300	0.956700
C641	C64	0.807100	0.276400	0.487700
C651	C65	0.782000	0.178300	0.428000
C661	C66	0.044800	0.526800	0.738200
O11	O1	0.294800	0.102000	0.745900
O21	O2	0.016500	0.547000	0.276000
O31	O3	0.584000	0.273600	0.947500
O41	O4	0.242000	0.481000	0.470400
O51	O5	0.098000	0.480300	0.513000
O61	O6	0.390000	0.351100	0.979600
O71	O7	0.977800	0.438500	0.317900
O81	O8	0.390800	0.311800	0.738000
O91	O9	0.168800	0.415800	0.258700
O101	O10	0.102500	0.666400	0.497900
O111	O11	0.252900	0.694500	0.473100
O121	O12	0.286400	0.552400	0.314600
O131	O13	0.705200	0.898000	0.254100
O141	O14	0.983500	0.453000	0.724000
O151	O15	0.416000	0.726400	0.052500
O161	O16	0.758000	0.519000	0.529600
O171	O17	0.902000	0.519700	0.487000
O181	O18	0.610000	0.648900	0.020400
O191	O19	0.022200	0.561500	0.682100
O201	O20	0.609200	0.688200	0.262000
O211	O21	0.831200	0.584200	0.741300
O221	O22	0.897500	0.333600	0.502100
O231	O23	0.747100	0.305500	0.526900
O241	O24	0.713600	0.447600	0.685400
