data_ASAMUE_clean_PM
_symmetry_space_group_name_H-M	'P1'
_cell_length_a	17.010500
_cell_length_b	21.959400
_cell_length_c	24.808100
_cell_angle_alpha	90.000000
_cell_angle_beta	90.000000
_cell_angle_gamma	90.000000
_symmetry_Int_Tables_number 1

loop_
_symmetry_equiv_pos_as_xyz
'x,y,z'

loop_
_atom_site_label
_atom_site_type_symbol
_atom_site_fract_x
_atom_site_fract_y
_atom_site_fract_z
Th11	Th1	0.430880	0.598000	0.554770
Th21	Th2	0.453000	0.548190	0.398890
Th31	Th3	0.645430	0.562400	0.494950
O11	O1	0.446900	0.596200	0.652700
O21	O2	0.507900	0.511300	0.679600
O31	O3	0.362100	0.827300	0.996000
O41	O4	0.377500	0.855600	0.907900
O51	O5	0.658000	0.878900	0.913100
O61	O6	0.553600	0.883000	0.858100
O71	O7	0.351300	0.656600	0.832800
O81	O8	0.518400	0.769100	0.936100
O91	O9	0.600000	0.692600	0.776000
O101	O10	0.295000	0.583300	0.583500
O111	O11	0.248800	0.496600	0.549700
O121	O12	0.323500	0.514700	0.370200
O131	O13	0.259400	0.459700	0.430900
O141	O14	0.015700	0.810600	0.436800
O151	O15	0.136300	0.833700	0.466300
O161	O16	0.095800	0.448400	0.487500
O171	O17	0.077100	0.604400	0.367700
O181	O18	0.050400	0.638800	0.547900
O191	O19	0.514200	0.606500	0.473000
O201	O20	0.382300	0.538900	0.481200
O211	O21	0.580900	0.506800	0.421600
O221	O22	0.558400	0.555400	0.570800
N11	N1	0.473900	0.678200	0.801500
N21	N2	0.434400	0.710600	0.886500
N31	N3	0.562300	0.728100	0.857400
N41	N4	0.087500	0.545300	0.519600
N51	N5	0.096900	0.526000	0.426900
N61	N6	0.061400	0.623300	0.457400
C11	C1	0.478300	0.562000	0.687700
C21	C2	0.478500	0.586100	0.744500
H11	H1	0.441200	0.562000	0.766600
H21	H2	0.531600	0.580900	0.760100
C31	C3	0.455800	0.652100	0.747100
H31	H3	0.485000	0.675100	0.719100
H41	H4	0.398900	0.656400	0.739600
C41	C4	0.415300	0.680500	0.839800
C51	C5	0.375300	0.709400	0.929900
H51	H5	0.402600	0.712000	0.965100
H61	H6	0.347100	0.670000	0.928700
C61	C6	0.315700	0.760800	0.926200
H71	H7	0.297200	0.765100	0.888600
H81	H8	0.269700	0.751600	0.949300
C71	C7	0.354000	0.819300	0.944600
C81	C8	0.505000	0.738400	0.895800
C91	C9	0.643600	0.751000	0.867900
H91	H9	0.682300	0.720700	0.854800
H101	H10	0.651400	0.756100	0.907200
C101	C10	0.657400	0.812000	0.839500
H111	H11	0.714500	0.819600	0.836100
H121	H12	0.634400	0.810700	0.802900
C111	C11	0.619700	0.862600	0.871700
C121	C12	0.548500	0.698600	0.809500
C131	C13	0.241500	0.543600	0.576500
C141	C14	0.163400	0.555700	0.603800
H131	H13	0.166100	0.541200	0.641500
H141	H14	0.154100	0.600200	0.604700
C151	C15	0.094900	0.525300	0.576100
H151	H15	0.102200	0.480600	0.577100
H161	H16	0.045800	0.535000	0.595700
C161	C16	0.094300	0.503000	0.478100
C171	C17	0.112000	0.484400	0.381100
H171	H17	0.069500	0.489100	0.354200
H181	H18	0.111000	0.441800	0.394300
C181	C18	0.190400	0.496600	0.354300
H191	H19	0.195200	0.468800	0.323000
H201	H20	0.189400	0.538700	0.340000
C191	C19	0.262800	0.489900	0.387900
C201	C20	0.079300	0.586100	0.413400
C211	C21	0.037000	0.687500	0.446800
H211	H21	0.996300	0.699800	0.473200
H221	H22	0.013900	0.690500	0.410300
C221	C22	0.106600	0.729600	0.451100
H231	H23	0.142500	0.721800	0.420500
H241	H24	0.135500	0.720400	0.484800
C231	C23	0.083300	0.797000	0.451100
C241	C24	0.065300	0.605200	0.510600
Th41	Th4	0.069120	0.402000	0.054770
Th51	Th5	0.047000	0.451810	0.898890
Th61	Th6	0.854570	0.437600	0.994950
O231	O23	0.053100	0.403800	0.152700
O241	O24	0.992100	0.488700	0.179600
O251	O25	0.137900	0.172700	0.496000
O261	O26	0.122500	0.144400	0.407900
O271	O27	0.842000	0.121100	0.413100
O281	O28	0.946400	0.117000	0.358100
O291	O29	0.148700	0.343400	0.332800
O301	O30	0.981600	0.230900	0.436100
O311	O31	0.900000	0.307400	0.276000
O321	O32	0.205000	0.416700	0.083500
O331	O33	0.251200	0.503400	0.049700
O341	O34	0.176500	0.485300	0.870200
O351	O35	0.240600	0.540300	0.930900
O361	O36	0.484300	0.189400	0.936800
O371	O37	0.363700	0.166300	0.966300
O381	O38	0.404200	0.551600	0.987500
O391	O39	0.422900	0.395600	0.867700
O401	O40	0.449600	0.361200	0.047900
O411	O41	0.985800	0.393500	0.973000
O421	O42	0.117700	0.461100	0.981200
O431	O43	0.919100	0.493200	0.921600
O441	O44	0.941600	0.444600	0.070800
N71	N7	0.026100	0.321800	0.301500
N81	N8	0.065600	0.289400	0.386500
N91	N9	0.937700	0.271900	0.357400
N101	N10	0.412500	0.454700	0.019600
N111	N11	0.403100	0.474000	0.926900
N121	N12	0.438600	0.376700	0.957400
C251	C25	0.021700	0.438000	0.187700
C261	C26	0.021500	0.413900	0.244500
H251	H25	0.058800	0.438000	0.266600
H261	H26	0.968400	0.419100	0.260100
C271	C27	0.044200	0.347900	0.247100
H271	H27	0.015000	0.324900	0.219100
H281	H28	0.101100	0.343600	0.239600
C281	C28	0.084700	0.319500	0.339800
C291	C29	0.124700	0.290600	0.429900
H291	H29	0.097400	0.288000	0.465100
H301	H30	0.152900	0.330000	0.428700
C301	C30	0.184300	0.239200	0.426200
H311	H31	0.202800	0.234900	0.388600
H321	H32	0.230300	0.248400	0.449300
C311	C31	0.146000	0.180700	0.444600
C321	C32	0.995000	0.261600	0.395800
C331	C33	0.856400	0.249000	0.367900
H331	H33	0.817700	0.279300	0.354800
H341	H34	0.848600	0.243900	0.407200
C341	C34	0.842600	0.188000	0.339500
H351	H35	0.785500	0.180400	0.336100
H361	H36	0.865600	0.189300	0.302900
C351	C35	0.880300	0.137400	0.371700
C361	C36	0.951500	0.301400	0.309500
C371	C37	0.258500	0.456400	0.076500
C381	C38	0.336600	0.444300	0.103800
H371	H37	0.333900	0.458800	0.141500
H381	H38	0.345900	0.399800	0.104700
C391	C39	0.405100	0.474700	0.076100
H391	H39	0.397800	0.519400	0.077100
H401	H40	0.454200	0.465000	0.095700
C401	C40	0.405700	0.497000	0.978100
C411	C41	0.388000	0.515600	0.881100
H411	H41	0.430500	0.510900	0.854200
H421	H42	0.389000	0.558200	0.894300
C421	C42	0.309600	0.503400	0.854300
H431	H43	0.304800	0.531200	0.823000
H441	H44	0.310600	0.461300	0.840000
C431	C43	0.237200	0.510100	0.887900
C441	C44	0.420700	0.413900	0.913400
C451	C45	0.463000	0.312500	0.946800
H451	H45	0.503700	0.300200	0.973200
H461	H46	0.486100	0.309500	0.910300
C461	C46	0.393400	0.270400	0.951100
H471	H47	0.357500	0.278200	0.920500
H481	H48	0.364500	0.279600	0.984800
C471	C47	0.416700	0.203000	0.951100
C481	C48	0.434700	0.394800	0.010600
Th71	Th7	0.569120	0.098000	0.945230
Th81	Th8	0.547000	0.048190	0.101110
Th91	Th9	0.354570	0.062400	0.005050
O451	O45	0.553100	0.096200	0.847300
O461	O46	0.492100	0.011300	0.820400
O471	O47	0.637900	0.327300	0.504000
O481	O48	0.622500	0.355600	0.592100
O491	O49	0.342000	0.378900	0.586900
O501	O50	0.446400	0.383000	0.641900
O511	O51	0.648700	0.156600	0.667200
O521	O52	0.481600	0.269100	0.563900
O531	O53	0.400000	0.192600	0.724000
O541	O54	0.705000	0.083300	0.916500
O551	O55	0.751200	0.996600	0.950300
O561	O56	0.676500	0.014700	0.129800
O571	O57	0.740600	0.959700	0.069100
O581	O58	0.984300	0.310600	0.063200
O591	O59	0.863700	0.333700	0.033700
O601	O60	0.904200	0.948400	0.012500
O611	O61	0.922900	0.104400	0.132300
O621	O62	0.949600	0.138800	0.952100
O631	O63	0.485800	0.106500	0.027000
O641	O64	0.617700	0.038900	0.018800
O651	O65	0.419100	0.006800	0.078400
O661	O66	0.441600	0.055400	0.929200
N131	N13	0.526100	0.178200	0.698500
N141	N14	0.565600	0.210600	0.613500
N151	N15	0.437700	0.228100	0.642600
N161	N16	0.912500	0.045300	0.980400
N171	N17	0.903100	0.026000	0.073100
N181	N18	0.938600	0.123300	0.042600
C491	C49	0.521700	0.062000	0.812300
C501	C50	0.521500	0.086100	0.755500
H491	H49	0.558800	0.062000	0.733400
H501	H50	0.468400	0.080900	0.739900
C511	C51	0.544200	0.152100	0.752900
H511	H51	0.515000	0.175100	0.780900
H521	H52	0.601100	0.156400	0.760400
C521	C52	0.584700	0.180500	0.660200
C531	C53	0.624700	0.209400	0.570100
H531	H53	0.597400	0.212000	0.534900
H541	H54	0.652900	0.170000	0.571300
C541	C54	0.684300	0.260800	0.573800
H551	H55	0.702800	0.265100	0.611400
H561	H56	0.730300	0.251600	0.550700
C551	C55	0.646000	0.319300	0.555400
C561	C56	0.495000	0.238400	0.604200
C571	C57	0.356400	0.251000	0.632100
H571	H57	0.317700	0.220700	0.645200
H581	H58	0.348600	0.256100	0.592800
C581	C58	0.342600	0.312000	0.660500
H591	H59	0.285500	0.319600	0.663900
H601	H60	0.365600	0.310700	0.697100
C591	C59	0.380300	0.362600	0.628300
C601	C60	0.451500	0.198600	0.690500
C611	C61	0.758500	0.043600	0.923500
C621	C62	0.836600	0.055700	0.896200
H611	H61	0.833900	0.041200	0.858500
H621	H62	0.845900	0.100200	0.895300
C631	C63	0.905100	0.025300	0.923900
H631	H63	0.897800	0.980600	0.922900
H641	H64	0.954200	0.035000	0.904300
C641	C64	0.905700	0.003000	0.021900
C651	C65	0.888000	0.984400	0.118900
H651	H65	0.930500	0.989100	0.145800
H661	H66	0.889000	0.941800	0.105700
C661	C66	0.809600	0.996600	0.145700
H671	H67	0.804800	0.968800	0.177000
H681	H68	0.810600	0.038700	0.160000
C671	C67	0.737200	0.989900	0.112100
C681	C68	0.920700	0.086100	0.086600
C691	C69	0.963000	0.187500	0.053200
H691	H69	0.003700	0.199800	0.026800
H701	H70	0.986100	0.190500	0.089700
C701	C70	0.893400	0.229600	0.048900
H711	H71	0.857500	0.221800	0.079500
H721	H72	0.864500	0.220400	0.015200
C711	C71	0.916700	0.297000	0.048900
C721	C72	0.934700	0.105200	0.989400
Th101	Th10	0.930880	0.902000	0.445230
Th111	Th11	0.953000	0.951810	0.601110
Th121	Th12	0.145430	0.937600	0.505050
O671	O67	0.946900	0.903800	0.347300
O681	O68	0.007900	0.988700	0.320400
O691	O69	0.862100	0.672700	0.004000
O701	O70	0.877500	0.644400	0.092100
O711	O71	0.158000	0.621100	0.086900
O721	O72	0.053600	0.617000	0.141900
O731	O73	0.851300	0.843400	0.167200
O741	O74	0.018400	0.730900	0.063900
O751	O75	0.100000	0.807400	0.224000
O761	O76	0.795000	0.916700	0.416500
O771	O77	0.748800	0.003400	0.450300
O781	O78	0.823500	0.985300	0.629800
O791	O79	0.759400	0.040300	0.569100
O801	O80	0.515700	0.689400	0.563200
O811	O81	0.636300	0.666300	0.533700
O821	O82	0.595800	0.051600	0.512500
O831	O83	0.577100	0.895600	0.632300
O841	O84	0.550400	0.861200	0.452100
O851	O85	0.014200	0.893500	0.527000
O861	O86	0.882300	0.961100	0.518800
O871	O87	0.080900	0.993200	0.578400
O881	O88	0.058400	0.944600	0.429200
N191	N19	0.973900	0.821800	0.198500
N201	N20	0.934400	0.789400	0.113500
N211	N21	0.062300	0.771900	0.142600
N221	N22	0.587500	0.954700	0.480400
N231	N23	0.596900	0.974000	0.573100
N241	N24	0.561400	0.876700	0.542600
C731	C73	0.978300	0.938000	0.312300
C741	C74	0.978500	0.913900	0.255500
H731	H73	0.941200	0.938000	0.233400
H741	H74	0.031600	0.919100	0.239900
C751	C75	0.955800	0.847900	0.252900
H751	H75	0.985000	0.824900	0.280900
H761	H76	0.898900	0.843600	0.260400
C761	C76	0.915300	0.819500	0.160200
C771	C77	0.875300	0.790600	0.070100
H771	H77	0.902600	0.788000	0.034900
H781	H78	0.847100	0.830000	0.071300
C781	C78	0.815700	0.739200	0.073800
H791	H79	0.797200	0.734900	0.111400
H801	H80	0.769700	0.748400	0.050700
C791	C79	0.854000	0.680700	0.055400
C801	C80	0.005000	0.761600	0.104200
C811	C81	0.143600	0.749000	0.132100
H811	H81	0.182300	0.779300	0.145200
H821	H82	0.151400	0.743900	0.092800
C821	C82	0.157400	0.688000	0.160500
H831	H83	0.214500	0.680400	0.163900
H841	H84	0.134400	0.689300	0.197100
C831	C83	0.119700	0.637400	0.128300
C841	C84	0.048500	0.801400	0.190500
C851	C85	0.741500	0.956400	0.423500
C861	C86	0.663400	0.944300	0.396200
H851	H85	0.666100	0.958800	0.358500
H861	H86	0.654100	0.899800	0.395300
C871	C87	0.594900	0.974700	0.423900
H871	H87	0.602200	0.019400	0.422900
H881	H88	0.545800	0.965000	0.404300
C881	C88	0.594300	0.997000	0.521900
C891	C89	0.612000	0.015600	0.618900
H891	H89	0.569500	0.010900	0.645800
H901	H90	0.611000	0.058200	0.605700
C901	C90	0.690400	0.003400	0.645700
H911	H91	0.695200	0.031200	0.677000
H921	H92	0.689400	0.961300	0.660000
C911	C91	0.762800	0.010100	0.612100
C921	C92	0.579300	0.913900	0.586600
C931	C93	0.537000	0.812500	0.553200
H931	H93	0.496300	0.800200	0.526800
H941	H94	0.513900	0.809500	0.589700
C941	C94	0.606600	0.770400	0.548900
H951	H95	0.642500	0.778200	0.579500
H961	H96	0.635500	0.779600	0.515200
C951	C95	0.583300	0.703000	0.548900
C961	C96	0.565300	0.894800	0.489400
Th131	Th13	0.569120	0.402000	0.445230
Th141	Th14	0.547000	0.451810	0.601110
Th151	Th15	0.354570	0.437600	0.505050
O891	O89	0.553100	0.403800	0.347300
O901	O90	0.492100	0.488700	0.320400
O911	O91	0.637900	0.172700	0.004000
O921	O92	0.622500	0.144400	0.092100
O931	O93	0.342000	0.121100	0.086900
O941	O94	0.446400	0.117000	0.141900
O951	O95	0.648700	0.343400	0.167200
O961	O96	0.481600	0.230900	0.063900
O971	O97	0.400000	0.307400	0.224000
O981	O98	0.705000	0.416700	0.416500
O991	O99	0.751200	0.503400	0.450300
O1001	O100	0.676500	0.485300	0.629800
O1011	O101	0.740600	0.540300	0.569100
O1021	O102	0.984300	0.189400	0.563200
O1031	O103	0.863700	0.166300	0.533700
O1041	O104	0.904200	0.551600	0.512500
O1051	O105	0.922900	0.395600	0.632300
O1061	O106	0.949600	0.361200	0.452100
O1071	O107	0.485800	0.393500	0.527000
O1081	O108	0.617700	0.461100	0.518800
O1091	O109	0.419100	0.493200	0.578400
O1101	O110	0.441600	0.444600	0.429200
N251	N25	0.526100	0.321800	0.198500
N261	N26	0.565600	0.289400	0.113500
N271	N27	0.437700	0.271900	0.142600
N281	N28	0.912500	0.454700	0.480400
N291	N29	0.903100	0.474000	0.573100
N301	N30	0.938600	0.376700	0.542600
C971	C97	0.521700	0.438000	0.312300
C981	C98	0.521500	0.413900	0.255500
H971	H97	0.558800	0.438000	0.233400
H981	H98	0.468400	0.419100	0.239900
C991	C99	0.544200	0.347900	0.252900
H991	H99	0.515000	0.324900	0.280900
H1001	H100	0.601100	0.343600	0.260400
C1001	C100	0.584700	0.319500	0.160200
C1011	C101	0.624700	0.290600	0.070100
H1011	H101	0.597400	0.288000	0.034900
H1021	H102	0.652900	0.330000	0.071300
C1021	C102	0.684300	0.239200	0.073800
H1031	H103	0.702800	0.234900	0.111400
H1041	H104	0.730300	0.248400	0.050700
C1031	C103	0.646000	0.180700	0.055400
C1041	C104	0.495000	0.261600	0.104200
C1051	C105	0.356400	0.249000	0.132100
H1051	H105	0.317700	0.279300	0.145200
H1061	H106	0.348600	0.243900	0.092800
C1061	C106	0.342600	0.188000	0.160500
H1071	H107	0.285500	0.180400	0.163900
H1081	H108	0.365600	0.189300	0.197100
C1071	C107	0.380300	0.137400	0.128300
C1081	C108	0.451500	0.301400	0.190500
C1091	C109	0.758500	0.456400	0.423500
C1101	C110	0.836600	0.444300	0.396200
H1091	H109	0.833900	0.458800	0.358500
H1101	H110	0.845900	0.399800	0.395300
C1111	C111	0.905100	0.474700	0.423900
H1111	H111	0.897800	0.519400	0.422900
H1121	H112	0.954200	0.465000	0.404300
C1121	C112	0.905700	0.497000	0.521900
C1131	C113	0.888000	0.515600	0.618900
H1131	H113	0.930500	0.510900	0.645800
H1141	H114	0.889000	0.558200	0.605700
C1141	C114	0.809600	0.503400	0.645700
H1151	H115	0.804800	0.531200	0.677000
H1161	H116	0.810600	0.461300	0.660000
C1151	C115	0.737200	0.510100	0.612100
C1161	C116	0.920700	0.413900	0.586600
C1171	C117	0.963000	0.312500	0.553200
H1171	H117	0.003700	0.300200	0.526800
H1181	H118	0.986100	0.309500	0.589700
C1181	C118	0.893400	0.270400	0.548900
H1191	H119	0.857500	0.278200	0.579500
H1201	H120	0.864500	0.279600	0.515200
C1191	C119	0.916700	0.203000	0.548900
C1201	C120	0.934700	0.394800	0.489400
Th161	Th16	0.930880	0.598000	0.945230
Th171	Th17	0.953000	0.548190	0.101110
Th181	Th18	0.145430	0.562400	0.005050
O1111	O111	0.946900	0.596200	0.847300
O1121	O112	0.007900	0.511300	0.820400
O1131	O113	0.862100	0.827300	0.504000
O1141	O114	0.877500	0.855600	0.592100
O1151	O115	0.158000	0.878900	0.586900
O1161	O116	0.053600	0.883000	0.641900
O1171	O117	0.851300	0.656600	0.667200
O1181	O118	0.018400	0.769100	0.563900
O1191	O119	0.100000	0.692600	0.724000
O1201	O120	0.795000	0.583300	0.916500
O1211	O121	0.748800	0.496600	0.950300
O1221	O122	0.823500	0.514700	0.129800
O1231	O123	0.759400	0.459700	0.069100
O1241	O124	0.515700	0.810600	0.063200
O1251	O125	0.636300	0.833700	0.033700
O1261	O126	0.595800	0.448400	0.012500
O1271	O127	0.577100	0.604400	0.132300
O1281	O128	0.550400	0.638800	0.952100
O1291	O129	0.014200	0.606500	0.027000
O1301	O130	0.882300	0.538900	0.018800
O1311	O131	0.080900	0.506800	0.078400
O1321	O132	0.058400	0.555400	0.929200
N311	N31	0.973900	0.678200	0.698500
N321	N32	0.934400	0.710600	0.613500
N331	N33	0.062300	0.728100	0.642600
N341	N34	0.587500	0.545300	0.980400
N351	N35	0.596900	0.526000	0.073100
N361	N36	0.561400	0.623300	0.042600
C1211	C121	0.978300	0.562000	0.812300
C1221	C122	0.978500	0.586100	0.755500
H1211	H121	0.941200	0.562000	0.733400
H1221	H122	0.031600	0.580900	0.739900
C1231	C123	0.955800	0.652100	0.752900
H1231	H123	0.985000	0.675100	0.780900
H1241	H124	0.898900	0.656400	0.760400
C1241	C124	0.915300	0.680500	0.660200
C1251	C125	0.875300	0.709400	0.570100
H1251	H125	0.902600	0.712000	0.534900
H1261	H126	0.847100	0.670000	0.571300
C1261	C126	0.815700	0.760800	0.573800
H1271	H127	0.797200	0.765100	0.611400
H1281	H128	0.769700	0.751600	0.550700
C1271	C127	0.854000	0.819300	0.555400
C1281	C128	0.005000	0.738400	0.604200
C1291	C129	0.143600	0.751000	0.632100
H1291	H129	0.182300	0.720700	0.645200
H1301	H130	0.151400	0.756100	0.592800
C1301	C130	0.157400	0.812000	0.660500
H1311	H131	0.214500	0.819600	0.663900
H1321	H132	0.134400	0.810700	0.697100
C1311	C131	0.119700	0.862600	0.628300
C1321	C132	0.048500	0.698600	0.690500
C1331	C133	0.741500	0.543600	0.923500
C1341	C134	0.663400	0.555700	0.896200
H1331	H133	0.666100	0.541200	0.858500
H1341	H134	0.654100	0.600200	0.895300
C1351	C135	0.594900	0.525300	0.923900
H1351	H135	0.602200	0.480600	0.922900
H1361	H136	0.545800	0.535000	0.904300
C1361	C136	0.594300	0.503000	0.021900
C1371	C137	0.612000	0.484400	0.118900
H1371	H137	0.569500	0.489100	0.145800
H1381	H138	0.611000	0.441800	0.105700
C1381	C138	0.690400	0.496600	0.145700
H1391	H139	0.695200	0.468800	0.177000
H1401	H140	0.689400	0.538700	0.160000
C1391	C139	0.762800	0.489900	0.112100
C1401	C140	0.579300	0.586100	0.086600
C1411	C141	0.537000	0.687500	0.053200
H1411	H141	0.496300	0.699800	0.026800
H1421	H142	0.513900	0.690500	0.089700
C1421	C142	0.606600	0.729600	0.048900
H1431	H143	0.642500	0.721800	0.079500
H1441	H144	0.635500	0.720400	0.015200
C1431	C143	0.583300	0.797000	0.048900
C1441	C144	0.565300	0.605200	0.989400
Th191	Th19	0.430880	0.902000	0.054770
Th201	Th20	0.453000	0.951810	0.898890
Th211	Th21	0.645430	0.937600	0.994950
O1331	O133	0.446900	0.903800	0.152700
O1341	O134	0.507900	0.988700	0.179600
O1351	O135	0.362100	0.672700	0.496000
O1361	O136	0.377500	0.644400	0.407900
O1371	O137	0.658000	0.621100	0.413100
O1381	O138	0.553600	0.617000	0.358100
O1391	O139	0.351300	0.843400	0.332800
O1401	O140	0.518400	0.730900	0.436100
O1411	O141	0.600000	0.807400	0.276000
O1421	O142	0.295000	0.916700	0.083500
O1431	O143	0.248800	0.003400	0.049700
O1441	O144	0.323500	0.985300	0.870200
O1451	O145	0.259400	0.040300	0.930900
O1461	O146	0.015700	0.689400	0.936800
O1471	O147	0.136300	0.666300	0.966300
O1481	O148	0.095800	0.051600	0.987500
O1491	O149	0.077100	0.895600	0.867700
O1501	O150	0.050400	0.861200	0.047900
O1511	O151	0.514200	0.893500	0.973000
O1521	O152	0.382300	0.961100	0.981200
O1531	O153	0.580900	0.993200	0.921600
O1541	O154	0.558400	0.944600	0.070800
N371	N37	0.473900	0.821800	0.301500
N381	N38	0.434400	0.789400	0.386500
N391	N39	0.562300	0.771900	0.357400
N401	N40	0.087500	0.954700	0.019600
N411	N41	0.096900	0.974000	0.926900
N421	N42	0.061400	0.876700	0.957400
C1451	C145	0.478300	0.938000	0.187700
C1461	C146	0.478500	0.913900	0.244500
H1451	H145	0.441200	0.938000	0.266600
H1461	H146	0.531600	0.919100	0.260100
C1471	C147	0.455800	0.847900	0.247100
H1471	H147	0.485000	0.824900	0.219100
H1481	H148	0.398900	0.843600	0.239600
C1481	C148	0.415300	0.819500	0.339800
C1491	C149	0.375300	0.790600	0.429900
H1491	H149	0.402600	0.788000	0.465100
H1501	H150	0.347100	0.830000	0.428700
C1501	C150	0.315700	0.739200	0.426200
H1511	H151	0.297200	0.734900	0.388600
H1521	H152	0.269700	0.748400	0.449300
C1511	C151	0.354000	0.680700	0.444600
C1521	C152	0.505000	0.761600	0.395800
C1531	C153	0.643600	0.749000	0.367900
H1531	H153	0.682300	0.779300	0.354800
H1541	H154	0.651400	0.743900	0.407200
C1541	C154	0.657400	0.688000	0.339500
H1551	H155	0.714500	0.680400	0.336100
H1561	H156	0.634400	0.689300	0.302900
C1551	C155	0.619700	0.637400	0.371700
C1561	C156	0.548500	0.801400	0.309500
C1571	C157	0.241500	0.956400	0.076500
C1581	C158	0.163400	0.944300	0.103800
H1571	H157	0.166100	0.958800	0.141500
H1581	H158	0.154100	0.899800	0.104700
C1591	C159	0.094900	0.974700	0.076100
H1591	H159	0.102200	0.019400	0.077100
H1601	H160	0.045800	0.965000	0.095700
C1601	C160	0.094300	0.997000	0.978100
C1611	C161	0.112000	0.015600	0.881100
H1611	H161	0.069500	0.010900	0.854200
H1621	H162	0.111000	0.058200	0.894300
C1621	C162	0.190400	0.003400	0.854300
H1631	H163	0.195200	0.031200	0.823000
H1641	H164	0.189400	0.961300	0.840000
C1631	C163	0.262800	0.010100	0.887900
C1641	C164	0.079300	0.913900	0.913400
C1651	C165	0.037000	0.812500	0.946800
H1651	H165	0.996300	0.800200	0.973200
H1661	H166	0.013900	0.809500	0.910300
C1661	C166	0.106600	0.770400	0.951100
H1671	H167	0.142500	0.778200	0.920500
H1681	H168	0.135500	0.779600	0.984800
C1671	C167	0.083300	0.703000	0.951100
C1681	C168	0.065300	0.894800	0.010600
Th221	Th22	0.069120	0.098000	0.554770
Th231	Th23	0.047000	0.048190	0.398890
Th241	Th24	0.854570	0.062400	0.494950
O1551	O155	0.053100	0.096200	0.652700
O1561	O156	0.992100	0.011300	0.679600
O1571	O157	0.137900	0.327300	0.996000
O1581	O158	0.122500	0.355600	0.907900
O1591	O159	0.842000	0.378900	0.913100
O1601	O160	0.946400	0.383000	0.858100
O1611	O161	0.148700	0.156600	0.832800
O1621	O162	0.981600	0.269100	0.936100
O1631	O163	0.900000	0.192600	0.776000
O1641	O164	0.205000	0.083300	0.583500
O1651	O165	0.251200	0.996600	0.549700
O1661	O166	0.176500	0.014700	0.370200
O1671	O167	0.240600	0.959700	0.430900
O1681	O168	0.484300	0.310600	0.436800
O1691	O169	0.363700	0.333700	0.466300
O1701	O170	0.404200	0.948400	0.487500
O1711	O171	0.422900	0.104400	0.367700
O1721	O172	0.449600	0.138800	0.547900
O1731	O173	0.985800	0.106500	0.473000
O1741	O174	0.117700	0.038900	0.481200
O1751	O175	0.919100	0.006800	0.421600
O1761	O176	0.941600	0.055400	0.570800
N431	N43	0.026100	0.178200	0.801500
N441	N44	0.065600	0.210600	0.886500
N451	N45	0.937700	0.228100	0.857400
N461	N46	0.412500	0.045300	0.519600
N471	N47	0.403100	0.026000	0.426900
N481	N48	0.438600	0.123300	0.457400
C1691	C169	0.021700	0.062000	0.687700
C1701	C170	0.021500	0.086100	0.744500
H1691	H169	0.058800	0.062000	0.766600
H1701	H170	0.968400	0.080900	0.760100
C1711	C171	0.044200	0.152100	0.747100
H1711	H171	0.015000	0.175100	0.719100
H1721	H172	0.101100	0.156400	0.739600
C1721	C172	0.084700	0.180500	0.839800
C1731	C173	0.124700	0.209400	0.929900
H1731	H173	0.097400	0.212000	0.965100
H1741	H174	0.152900	0.170000	0.928700
C1741	C174	0.184300	0.260800	0.926200
H1751	H175	0.202800	0.265100	0.888600
H1761	H176	0.230300	0.251600	0.949300
C1751	C175	0.146000	0.319300	0.944600
C1761	C176	0.995000	0.238400	0.895800
C1771	C177	0.856400	0.251000	0.867900
H1771	H177	0.817700	0.220700	0.854800
H1781	H178	0.848600	0.256100	0.907200
C1781	C178	0.842600	0.312000	0.839500
H1791	H179	0.785500	0.319600	0.836100
H1801	H180	0.865600	0.310700	0.802900
C1791	C179	0.880300	0.362600	0.871700
C1801	C180	0.951500	0.198600	0.809500
C1811	C181	0.258500	0.043600	0.576500
C1821	C182	0.336600	0.055700	0.603800
H1811	H181	0.333900	0.041200	0.641500
H1821	H182	0.345900	0.100200	0.604700
C1831	C183	0.405100	0.025300	0.576100
H1831	H183	0.397800	0.980600	0.577100
H1841	H184	0.454200	0.035000	0.595700
C1841	C184	0.405700	0.003000	0.478100
C1851	C185	0.388000	0.984400	0.381100
H1851	H185	0.430500	0.989100	0.354200
H1861	H186	0.389000	0.941800	0.394300
C1861	C186	0.309600	0.996600	0.354300
H1871	H187	0.304800	0.968800	0.323000
H1881	H188	0.310600	0.038700	0.340000
C1871	C187	0.237200	0.989900	0.387900
C1881	C188	0.420700	0.086100	0.413400
C1891	C189	0.463000	0.187500	0.446800
H1891	H189	0.503700	0.199800	0.473200
H1901	H190	0.486100	0.190500	0.410300
C1901	C190	0.393400	0.229600	0.451100
H1911	H191	0.357500	0.221800	0.420500
H1921	H192	0.364500	0.220400	0.484800
C1911	C191	0.416700	0.297000	0.451100
C1921	C192	0.434700	0.105200	0.510600
