data_ASECUY_clean_PM
_symmetry_space_group_name_H-M	'P1'
_cell_length_a	8.553600
_cell_length_b	19.391900
_cell_length_c	44.301400
_cell_angle_alpha	90.000000
_cell_angle_beta	91.111000
_cell_angle_gamma	90.000000
_symmetry_Int_Tables_number 1

loop_
_symmetry_equiv_pos_as_xyz
'x,y,z'

loop_
_atom_site_label
_atom_site_type_symbol
_atom_site_fract_x
_atom_site_fract_y
_atom_site_fract_z
U11	U1	0.080110	0.803850	0.843390
O11	O1	0.012600	0.733300	0.797630
C11	C1	0.688700	0.557500	0.736300
C21	C2	0.548300	0.624300	0.702700
N11	N1	0.652400	0.618900	0.726200
O21	O2	0.163800	0.857100	0.892000
C31	C3	0.157900	0.471800	0.843300
H11	H1	0.236500	0.465600	0.857900
C41	C4	0.188700	0.796600	0.905200
C51	C5	0.117200	0.539800	0.835900
H21	H2	0.152900	0.578000	0.846600
C61	C6	0.518000	0.800500	0.963800
C71	C7	0.204000	0.769900	0.958800
H31	H3	0.098600	0.758000	0.957400
C81	C8	0.437000	0.808600	0.935700
C91	C9	0.276700	0.793700	0.934300
C101	C10	0.527500	0.498800	0.700200
C111	C11	0.971500	0.612000	0.799200
C121	C12	0.628300	0.494900	0.724200
H41	H4	0.656800	0.452500	0.732500
C131	C13	0.868300	0.614400	0.774900
H51	H5	0.839600	0.656900	0.766800
C141	C14	0.949200	0.488100	0.796200
C151	C15	0.987800	0.417200	0.806200
H61	H6	0.947300	0.377700	0.797100
C161	C16	0.368300	0.576100	0.664400
H71	H7	0.318400	0.539100	0.655000
C171	C17	0.094400	0.416300	0.831500
H81	H8	0.120100	0.373800	0.840000
C181	C18	0.481200	0.563300	0.688100
C191	C19	0.506400	0.686100	0.692400
H91	H9	0.551400	0.723200	0.702700
C201	C20	0.023300	0.679300	0.813100
C211	C21	0.473700	0.432900	0.686900
C221	C22	0.333200	0.640900	0.655500
H101	H10	0.258000	0.645800	0.640200
O31	O3	0.144100	0.743700	0.891600
C231	C23	0.403200	0.704700	0.667900
H111	H11	0.383700	0.749300	0.660900
N21	N2	0.841300	0.491600	0.772200
C241	C24	0.768000	0.836700	0.942100
H121	H12	0.875100	0.844600	0.943800
C251	C25	0.684000	0.847100	0.914300
H131	H13	0.737500	0.863900	0.897700
C261	C26	0.288000	0.762800	0.987000
C271	C27	0.018600	0.544000	0.810900
N31	N3	0.440100	0.777000	0.989000
C281	C28	0.680000	0.813900	0.966600
H141	H14	0.729700	0.807400	0.985300
C291	C29	0.525000	0.833100	0.911000
H151	H15	0.475100	0.840000	0.892400
C301	C30	0.805300	0.553100	0.762100
O41	O4	0.277500	0.837700	0.750300
O51	O5	0.067200	0.676700	0.840270
O61	O6	0.482400	0.375600	0.701590
O71	O7	0.429400	0.425900	0.658900
O81	O8	0.279700	0.765900	0.750900
U21	U2	0.580110	0.303850	0.843390
O91	O9	0.512600	0.233300	0.797630
C311	C31	0.188700	0.057500	0.736300
C321	C32	0.048300	0.124300	0.702700
N41	N4	0.152400	0.118900	0.726200
O101	O10	0.663800	0.357100	0.892000
C331	C33	0.657900	0.971800	0.843300
H161	H16	0.736500	0.965600	0.857900
C341	C34	0.688700	0.296600	0.905200
C351	C35	0.617200	0.039800	0.835900
H171	H17	0.652900	0.078000	0.846600
C361	C36	0.018000	0.300500	0.963800
C371	C37	0.704000	0.269900	0.958800
H181	H18	0.598600	0.258000	0.957400
C381	C38	0.937000	0.308600	0.935700
C391	C39	0.776700	0.293700	0.934300
C401	C40	0.027500	0.998800	0.700200
C411	C41	0.471500	0.112000	0.799200
C421	C42	0.128300	0.994900	0.724200
H191	H19	0.156800	0.952500	0.732500
C431	C43	0.368300	0.114400	0.774900
H201	H20	0.339600	0.156900	0.766800
C441	C44	0.449200	0.988100	0.796200
C451	C45	0.487800	0.917200	0.806200
H211	H21	0.447300	0.877700	0.797100
C461	C46	0.868300	0.076100	0.664400
H221	H22	0.818400	0.039100	0.655000
C471	C47	0.594400	0.916300	0.831500
H231	H23	0.620100	0.873800	0.840000
C481	C48	0.981200	0.063300	0.688100
C491	C49	0.006400	0.186100	0.692400
H241	H24	0.051400	0.223200	0.702700
C501	C50	0.523300	0.179300	0.813100
C511	C51	0.973700	0.932900	0.686900
C521	C52	0.833200	0.140900	0.655500
H251	H25	0.758000	0.145800	0.640200
O111	O11	0.644100	0.243700	0.891600
C531	C53	0.903200	0.204700	0.667900
H261	H26	0.883700	0.249300	0.660900
N51	N5	0.341300	0.991600	0.772200
C541	C54	0.268000	0.336700	0.942100
H271	H27	0.375100	0.344600	0.943800
C551	C55	0.184000	0.347100	0.914300
H281	H28	0.237500	0.363900	0.897700
C561	C56	0.788000	0.262800	0.987000
C571	C57	0.518600	0.044000	0.810900
N61	N6	0.940100	0.277000	0.989000
C581	C58	0.180000	0.313900	0.966600
H291	H29	0.229700	0.307400	0.985300
C591	C59	0.025000	0.333100	0.911000
H301	H30	0.975100	0.340000	0.892400
C601	C60	0.305300	0.053100	0.762100
O121	O12	0.777500	0.337700	0.750300
O131	O13	0.567200	0.176700	0.840270
O141	O14	0.982400	0.875600	0.701590
O151	O15	0.929400	0.925900	0.658900
O161	O16	0.779700	0.265900	0.750900
U31	U3	0.919890	0.803850	0.656610
O171	O17	0.987400	0.733300	0.702370
C611	C61	0.311300	0.557500	0.763700
C621	C62	0.451700	0.624300	0.797300
N71	N7	0.347600	0.618900	0.773800
O181	O18	0.836200	0.857100	0.608000
C631	C63	0.842100	0.471800	0.656700
H311	H31	0.763500	0.465600	0.642100
C641	C64	0.811300	0.796600	0.594800
C651	C65	0.882800	0.539800	0.664100
H321	H32	0.847100	0.578000	0.653400
C661	C66	0.482000	0.800500	0.536200
C671	C67	0.796000	0.769900	0.541200
H331	H33	0.901400	0.758000	0.542600
C681	C68	0.563000	0.808600	0.564300
C691	C69	0.723300	0.793700	0.565700
C701	C70	0.472500	0.498800	0.799800
C711	C71	0.028500	0.612000	0.700800
C721	C72	0.371700	0.494900	0.775800
H341	H34	0.343200	0.452500	0.767500
C731	C73	0.131700	0.614400	0.725100
H351	H35	0.160400	0.656900	0.733200
C741	C74	0.050800	0.488100	0.703800
C751	C75	0.012200	0.417200	0.693800
H361	H36	0.052700	0.377700	0.702900
C761	C76	0.631700	0.576100	0.835600
H371	H37	0.681600	0.539100	0.845000
C771	C77	0.905600	0.416300	0.668500
H381	H38	0.879900	0.373800	0.660000
C781	C78	0.518800	0.563300	0.811900
C791	C79	0.493600	0.686100	0.807600
H391	H39	0.448600	0.723200	0.797300
C801	C80	0.976700	0.679300	0.686900
C811	C81	0.526300	0.432900	0.813100
C821	C82	0.666800	0.640900	0.844500
H401	H40	0.742000	0.645800	0.859800
O191	O19	0.855900	0.743700	0.608400
C831	C83	0.596800	0.704700	0.832100
H411	H41	0.616300	0.749300	0.839100
N81	N8	0.158700	0.491600	0.727800
C841	C84	0.232000	0.836700	0.557900
H421	H42	0.124900	0.844600	0.556200
C851	C85	0.316000	0.847100	0.585700
H431	H43	0.262500	0.863900	0.602300
C861	C86	0.712000	0.762800	0.513000
C871	C87	0.981400	0.544000	0.689100
N91	N9	0.559900	0.777000	0.511000
C881	C88	0.320000	0.813900	0.533400
H441	H44	0.270300	0.807400	0.514700
C891	C89	0.475000	0.833100	0.589000
H451	H45	0.524900	0.840000	0.607600
C901	C90	0.194700	0.553100	0.737900
O201	O20	0.722500	0.837700	0.749700
O211	O21	0.932800	0.676700	0.659730
O221	O22	0.517600	0.375600	0.798410
O231	O23	0.570600	0.425900	0.841100
O241	O24	0.720300	0.765900	0.749100
U41	U4	0.419890	0.303850	0.656610
O251	O25	0.487400	0.233300	0.702370
C911	C91	0.811300	0.057500	0.763700
C921	C92	0.951700	0.124300	0.797300
N101	N10	0.847600	0.118900	0.773800
O261	O26	0.336200	0.357100	0.608000
C931	C93	0.342100	0.971800	0.656700
H461	H46	0.263500	0.965600	0.642100
C941	C94	0.311300	0.296600	0.594800
C951	C95	0.382800	0.039800	0.664100
H471	H47	0.347100	0.078000	0.653400
C961	C96	0.982000	0.300500	0.536200
C971	C97	0.296000	0.269900	0.541200
H481	H48	0.401400	0.258000	0.542600
C981	C98	0.063000	0.308600	0.564300
C991	C99	0.223300	0.293700	0.565700
C1001	C100	0.972500	0.998800	0.799800
C1011	C101	0.528500	0.112000	0.700800
C1021	C102	0.871700	0.994900	0.775800
H491	H49	0.843200	0.952500	0.767500
C1031	C103	0.631700	0.114400	0.725100
H501	H50	0.660400	0.156900	0.733200
C1041	C104	0.550800	0.988100	0.703800
C1051	C105	0.512200	0.917200	0.693800
H511	H51	0.552700	0.877700	0.702900
C1061	C106	0.131700	0.076100	0.835600
H521	H52	0.181600	0.039100	0.845000
C1071	C107	0.405600	0.916300	0.668500
H531	H53	0.379900	0.873800	0.660000
C1081	C108	0.018800	0.063300	0.811900
C1091	C109	0.993600	0.186100	0.807600
H541	H54	0.948600	0.223200	0.797300
C1101	C110	0.476700	0.179300	0.686900
C1111	C111	0.026300	0.932900	0.813100
C1121	C112	0.166800	0.140900	0.844500
H551	H55	0.242000	0.145800	0.859800
O271	O27	0.355900	0.243700	0.608400
C1131	C113	0.096800	0.204700	0.832100
H561	H56	0.116300	0.249300	0.839100
N111	N11	0.658700	0.991600	0.727800
C1141	C114	0.732000	0.336700	0.557900
H571	H57	0.624900	0.344600	0.556200
C1151	C115	0.816000	0.347100	0.585700
H581	H58	0.762500	0.363900	0.602300
C1161	C116	0.212000	0.262800	0.513000
C1171	C117	0.481400	0.044000	0.689100
N121	N12	0.059900	0.277000	0.511000
C1181	C118	0.820000	0.313900	0.533400
H591	H59	0.770300	0.307400	0.514700
C1191	C119	0.975000	0.333100	0.589000
H601	H60	0.024900	0.340000	0.607600
C1201	C120	0.694700	0.053100	0.737900
O281	O28	0.222500	0.337700	0.749700
O291	O29	0.432800	0.176700	0.659730
O301	O30	0.017600	0.875600	0.798410
O311	O31	0.070600	0.925900	0.841100
O321	O32	0.220300	0.265900	0.749100
U51	U5	0.919890	0.196150	0.156610
O331	O33	0.987400	0.266700	0.202370
C1211	C121	0.311300	0.442500	0.263700
C1221	C122	0.451700	0.375700	0.297300
N131	N13	0.347600	0.381100	0.273800
O341	O34	0.836200	0.142900	0.108000
C1231	C123	0.842100	0.528200	0.156700
H611	H61	0.763500	0.534400	0.142100
C1241	C124	0.811300	0.203400	0.094800
C1251	C125	0.882800	0.460200	0.164100
H621	H62	0.847100	0.422000	0.153400
C1261	C126	0.482000	0.199500	0.036200
C1271	C127	0.796000	0.230100	0.041200
H631	H63	0.901400	0.242000	0.042600
C1281	C128	0.563000	0.191400	0.064300
C1291	C129	0.723300	0.206300	0.065700
C1301	C130	0.472500	0.501200	0.299800
C1311	C131	0.028500	0.388000	0.200800
C1321	C132	0.371700	0.505100	0.275800
H641	H64	0.343200	0.547500	0.267500
C1331	C133	0.131700	0.385600	0.225100
H651	H65	0.160400	0.343100	0.233200
C1341	C134	0.050800	0.511900	0.203800
C1351	C135	0.012200	0.582800	0.193800
H661	H66	0.052700	0.622300	0.202900
C1361	C136	0.631700	0.423900	0.335600
H671	H67	0.681600	0.460900	0.345000
C1371	C137	0.905600	0.583700	0.168500
H681	H68	0.879900	0.626200	0.160000
C1381	C138	0.518800	0.436700	0.311900
C1391	C139	0.493600	0.313900	0.307600
H691	H69	0.448600	0.276800	0.297300
C1401	C140	0.976700	0.320700	0.186900
C1411	C141	0.526300	0.567100	0.313100
C1421	C142	0.666800	0.359100	0.344500
H701	H70	0.742000	0.354200	0.359800
O351	O35	0.855900	0.256300	0.108400
C1431	C143	0.596800	0.295300	0.332100
H711	H71	0.616300	0.250700	0.339100
N141	N14	0.158700	0.508400	0.227800
C1441	C144	0.232000	0.163300	0.057900
H721	H72	0.124900	0.155400	0.056200
C1451	C145	0.316000	0.152900	0.085700
H731	H73	0.262500	0.136100	0.102300
C1461	C146	0.712000	0.237200	0.013000
C1471	C147	0.981400	0.456000	0.189100
N151	N15	0.559900	0.223000	0.011000
C1481	C148	0.320000	0.186100	0.033400
H741	H74	0.270300	0.192600	0.014700
C1491	C149	0.475000	0.166900	0.089000
H751	H75	0.524900	0.160000	0.107600
C1501	C150	0.194700	0.446900	0.237900
O361	O36	0.722500	0.162300	0.249700
O371	O37	0.932800	0.323300	0.159730
O381	O38	0.517600	0.624400	0.298410
O391	O39	0.570600	0.574100	0.341100
O401	O40	0.720300	0.234100	0.249100
U61	U6	0.419890	0.696150	0.156610
O411	O41	0.487400	0.766700	0.202370
C1511	C151	0.811300	0.942500	0.263700
C1521	C152	0.951700	0.875700	0.297300
N161	N16	0.847600	0.881100	0.273800
O421	O42	0.336200	0.642900	0.108000
C1531	C153	0.342100	0.028200	0.156700
H761	H76	0.263500	0.034400	0.142100
C1541	C154	0.311300	0.703400	0.094800
C1551	C155	0.382800	0.960200	0.164100
H771	H77	0.347100	0.922000	0.153400
C1561	C156	0.982000	0.699500	0.036200
C1571	C157	0.296000	0.730100	0.041200
H781	H78	0.401400	0.742000	0.042600
C1581	C158	0.063000	0.691400	0.064300
C1591	C159	0.223300	0.706300	0.065700
C1601	C160	0.972500	0.001200	0.299800
C1611	C161	0.528500	0.888000	0.200800
C1621	C162	0.871700	0.005100	0.275800
H791	H79	0.843200	0.047500	0.267500
C1631	C163	0.631700	0.885600	0.225100
H801	H80	0.660400	0.843100	0.233200
C1641	C164	0.550800	0.011900	0.203800
C1651	C165	0.512200	0.082800	0.193800
H811	H81	0.552700	0.122300	0.202900
C1661	C166	0.131700	0.923900	0.335600
H821	H82	0.181600	0.960900	0.345000
C1671	C167	0.405600	0.083700	0.168500
H831	H83	0.379900	0.126200	0.160000
C1681	C168	0.018800	0.936700	0.311900
C1691	C169	0.993600	0.813900	0.307600
H841	H84	0.948600	0.776800	0.297300
C1701	C170	0.476700	0.820700	0.186900
C1711	C171	0.026300	0.067100	0.313100
C1721	C172	0.166800	0.859100	0.344500
H851	H85	0.242000	0.854200	0.359800
O431	O43	0.355900	0.756300	0.108400
C1731	C173	0.096800	0.795300	0.332100
H861	H86	0.116300	0.750700	0.339100
N171	N17	0.658700	0.008400	0.227800
C1741	C174	0.732000	0.663300	0.057900
H871	H87	0.624900	0.655400	0.056200
C1751	C175	0.816000	0.652900	0.085700
H881	H88	0.762500	0.636100	0.102300
C1761	C176	0.212000	0.737200	0.013000
C1771	C177	0.481400	0.956000	0.189100
N181	N18	0.059900	0.723000	0.011000
C1781	C178	0.820000	0.686100	0.033400
H891	H89	0.770300	0.692600	0.014700
C1791	C179	0.975000	0.666900	0.089000
H901	H90	0.024900	0.660000	0.107600
C1801	C180	0.694700	0.946900	0.237900
O441	O44	0.222500	0.662300	0.249700
O451	O45	0.432800	0.823300	0.159730
O461	O46	0.017600	0.124400	0.298410
O471	O47	0.070600	0.074100	0.341100
O481	O48	0.220300	0.734100	0.249100
U71	U7	0.080110	0.196150	0.343390
O491	O49	0.012600	0.266700	0.297630
C1811	C181	0.688700	0.442500	0.236300
C1821	C182	0.548300	0.375700	0.202700
N191	N19	0.652400	0.381100	0.226200
O501	O50	0.163800	0.142900	0.392000
C1831	C183	0.157900	0.528200	0.343300
H911	H91	0.236500	0.534400	0.357900
C1841	C184	0.188700	0.203400	0.405200
C1851	C185	0.117200	0.460200	0.335900
H921	H92	0.152900	0.422000	0.346600
C1861	C186	0.518000	0.199500	0.463800
C1871	C187	0.204000	0.230100	0.458800
H931	H93	0.098600	0.242000	0.457400
C1881	C188	0.437000	0.191400	0.435700
C1891	C189	0.276700	0.206300	0.434300
C1901	C190	0.527500	0.501200	0.200200
C1911	C191	0.971500	0.388000	0.299200
C1921	C192	0.628300	0.505100	0.224200
H941	H94	0.656800	0.547500	0.232500
C1931	C193	0.868300	0.385600	0.274900
H951	H95	0.839600	0.343100	0.266800
C1941	C194	0.949200	0.511900	0.296200
C1951	C195	0.987800	0.582800	0.306200
H961	H96	0.947300	0.622300	0.297100
C1961	C196	0.368300	0.423900	0.164400
H971	H97	0.318400	0.460900	0.155000
C1971	C197	0.094400	0.583700	0.331500
H981	H98	0.120100	0.626200	0.340000
C1981	C198	0.481200	0.436700	0.188100
C1991	C199	0.506400	0.313900	0.192400
H991	H99	0.551400	0.276800	0.202700
C2001	C200	0.023300	0.320700	0.313100
C2011	C201	0.473700	0.567100	0.186900
C2021	C202	0.333200	0.359100	0.155500
H1001	H100	0.258000	0.354200	0.140200
O511	O51	0.144100	0.256300	0.391600
C2031	C203	0.403200	0.295300	0.167900
H1011	H101	0.383700	0.250700	0.160900
N201	N20	0.841300	0.508400	0.272200
C2041	C204	0.768000	0.163300	0.442100
H1021	H102	0.875100	0.155400	0.443800
C2051	C205	0.684000	0.152900	0.414300
H1031	H103	0.737500	0.136100	0.397700
C2061	C206	0.288000	0.237200	0.487000
C2071	C207	0.018600	0.456000	0.310900
N211	N21	0.440100	0.223000	0.489000
C2081	C208	0.680000	0.186100	0.466600
H1041	H104	0.729700	0.192600	0.485300
C2091	C209	0.525000	0.166900	0.411000
H1051	H105	0.475100	0.160000	0.392400
C2101	C210	0.805300	0.446900	0.262100
O521	O52	0.277500	0.162300	0.250300
O531	O53	0.067200	0.323300	0.340270
O541	O54	0.482400	0.624400	0.201590
O551	O55	0.429400	0.574100	0.158900
O561	O56	0.279700	0.234100	0.250900
U81	U8	0.580110	0.696150	0.343390
O571	O57	0.512600	0.766700	0.297630
C2111	C211	0.188700	0.942500	0.236300
C2121	C212	0.048300	0.875700	0.202700
N221	N22	0.152400	0.881100	0.226200
O581	O58	0.663800	0.642900	0.392000
C2131	C213	0.657900	0.028200	0.343300
H1061	H106	0.736500	0.034400	0.357900
C2141	C214	0.688700	0.703400	0.405200
C2151	C215	0.617200	0.960200	0.335900
H1071	H107	0.652900	0.922000	0.346600
C2161	C216	0.018000	0.699500	0.463800
C2171	C217	0.704000	0.730100	0.458800
H1081	H108	0.598600	0.742000	0.457400
C2181	C218	0.937000	0.691400	0.435700
C2191	C219	0.776700	0.706300	0.434300
C2201	C220	0.027500	0.001200	0.200200
C2211	C221	0.471500	0.888000	0.299200
C2221	C222	0.128300	0.005100	0.224200
H1091	H109	0.156800	0.047500	0.232500
C2231	C223	0.368300	0.885600	0.274900
H1101	H110	0.339600	0.843100	0.266800
C2241	C224	0.449200	0.011900	0.296200
C2251	C225	0.487800	0.082800	0.306200
H1111	H111	0.447300	0.122300	0.297100
C2261	C226	0.868300	0.923900	0.164400
H1121	H112	0.818400	0.960900	0.155000
C2271	C227	0.594400	0.083700	0.331500
H1131	H113	0.620100	0.126200	0.340000
C2281	C228	0.981200	0.936700	0.188100
C2291	C229	0.006400	0.813900	0.192400
H1141	H114	0.051400	0.776800	0.202700
C2301	C230	0.523300	0.820700	0.313100
C2311	C231	0.973700	0.067100	0.186900
C2321	C232	0.833200	0.859100	0.155500
H1151	H115	0.758000	0.854200	0.140200
O591	O59	0.644100	0.756300	0.391600
C2331	C233	0.903200	0.795300	0.167900
H1161	H116	0.883700	0.750700	0.160900
N231	N23	0.341300	0.008400	0.272200
C2341	C234	0.268000	0.663300	0.442100
H1171	H117	0.375100	0.655400	0.443800
C2351	C235	0.184000	0.652900	0.414300
H1181	H118	0.237500	0.636100	0.397700
C2361	C236	0.788000	0.737200	0.487000
C2371	C237	0.518600	0.956000	0.310900
N241	N24	0.940100	0.723000	0.489000
C2381	C238	0.180000	0.686100	0.466600
H1191	H119	0.229700	0.692600	0.485300
C2391	C239	0.025000	0.666900	0.411000
H1201	H120	0.975100	0.660000	0.392400
C2401	C240	0.305300	0.946900	0.262100
O601	O60	0.777500	0.662300	0.250300
O611	O61	0.567200	0.823300	0.340270
O621	O62	0.982400	0.124400	0.201590
O631	O63	0.929400	0.074100	0.158900
O641	O64	0.779700	0.734100	0.250900
Na11	Na1	0.000000	0.804300	0.750000
Na21	Na2	0.500000	0.304300	0.750000
Na31	Na3	0.000000	0.195700	0.250000
Na41	Na4	0.500000	0.695700	0.250000
