data_ASEJOZ_clean_PM
_symmetry_space_group_name_H-M	'P1'
_cell_length_a	14.561000
_cell_length_b	18.078000
_cell_length_c	12.845000
_cell_angle_alpha	90.000000
_cell_angle_beta	116.602000
_cell_angle_gamma	90.000000
_symmetry_Int_Tables_number 1

loop_
_symmetry_equiv_pos_as_xyz
'x,y,z'

loop_
_atom_site_label
_atom_site_type_symbol
_atom_site_fract_x
_atom_site_fract_y
_atom_site_fract_z
Cd11	Cd1	0.192770	0.478650	0.052320
N11	N1	0.109900	0.366040	0.030000
N21	N2	0.082200	0.355720	0.115900
N31	N3	0.060200	0.285480	0.116900
N41	N4	0.071900	0.248610	0.032600
C11	C1	0.102600	0.299470	0.980500
C21	C2	0.125200	0.285560	0.881100
C31	C3	0.132700	0.343600	0.815400
H11	H1	0.120900	0.391700	0.832200
C41	C4	0.157700	0.330550	0.724000
C51	C5	0.171600	0.258580	0.696600
H21	H2	0.187600	0.249700	0.635300
C61	C6	0.161500	0.199620	0.760200
C71	C7	0.138900	0.213240	0.852600
H31	H3	0.132900	0.173900	0.895800
C81	C8	0.168100	0.395080	0.656600
C91	C9	0.178900	0.121390	0.731800
O11	O1	0.135970	0.457470	0.667400
O21	O2	0.211940	0.385810	0.591950
O31	O3	0.201400	0.112110	0.649800
O41	O4	0.170230	0.069980	0.794000
Cd21	Cd2	0.692770	0.978650	0.052320
N51	N5	0.609900	0.866040	0.030000
N61	N6	0.582200	0.855720	0.115900
N71	N7	0.560200	0.785480	0.116900
N81	N8	0.571900	0.748610	0.032600
C101	C10	0.602600	0.799470	0.980500
C111	C11	0.625200	0.785560	0.881100
C121	C12	0.632700	0.843600	0.815400
H41	H4	0.620900	0.891700	0.832200
C131	C13	0.657700	0.830550	0.724000
C141	C14	0.671600	0.758580	0.696600
H51	H5	0.687600	0.749700	0.635300
C151	C15	0.661500	0.699620	0.760200
C161	C16	0.638900	0.713240	0.852600
H61	H6	0.632900	0.673900	0.895800
C171	C17	0.668100	0.895080	0.656600
C181	C18	0.678900	0.621390	0.731800
O51	O5	0.635970	0.957470	0.667400
O61	O6	0.711940	0.885810	0.591950
O71	O7	0.701400	0.612110	0.649800
O81	O8	0.670230	0.569980	0.794000
Cd31	Cd3	0.807230	0.478650	0.447680
N91	N9	0.890100	0.366040	0.470000
N101	N10	0.917800	0.355720	0.384100
N111	N11	0.939800	0.285480	0.383100
N121	N12	0.928100	0.248610	0.467400
C191	C19	0.897400	0.299470	0.519500
C201	C20	0.874800	0.285560	0.618900
C211	C21	0.867300	0.343600	0.684600
H71	H7	0.879100	0.391700	0.667800
C221	C22	0.842300	0.330550	0.776000
C231	C23	0.828400	0.258580	0.803400
H81	H8	0.812400	0.249700	0.864700
C241	C24	0.838500	0.199620	0.739800
C251	C25	0.861100	0.213240	0.647400
H91	H9	0.867100	0.173900	0.604200
C261	C26	0.831900	0.395080	0.843400
C271	C27	0.821100	0.121390	0.768200
O91	O9	0.864030	0.457470	0.832600
O101	O10	0.788060	0.385810	0.908050
O111	O11	0.798600	0.112110	0.850200
O121	O12	0.829770	0.069980	0.706000
Cd41	Cd4	0.307230	0.978650	0.447680
N131	N13	0.390100	0.866040	0.470000
N141	N14	0.417800	0.855720	0.384100
N151	N15	0.439800	0.785480	0.383100
N161	N16	0.428100	0.748610	0.467400
C281	C28	0.397400	0.799470	0.519500
C291	C29	0.374800	0.785560	0.618900
C301	C30	0.367300	0.843600	0.684600
H101	H10	0.379100	0.891700	0.667800
C311	C31	0.342300	0.830550	0.776000
C321	C32	0.328400	0.758580	0.803400
H111	H11	0.312400	0.749700	0.864700
C331	C33	0.338500	0.699620	0.739800
C341	C34	0.361100	0.713240	0.647400
H121	H12	0.367100	0.673900	0.604200
C351	C35	0.331900	0.895080	0.843400
C361	C36	0.321100	0.621390	0.768200
O131	O13	0.364030	0.957470	0.832600
O141	O14	0.288060	0.885810	0.908050
O151	O15	0.298600	0.612110	0.850200
O161	O16	0.329770	0.569980	0.706000
Cd51	Cd5	0.807230	0.521350	0.947680
N171	N17	0.890100	0.633960	0.970000
N181	N18	0.917800	0.644280	0.884100
N191	N19	0.939800	0.714520	0.883100
N201	N20	0.928100	0.751390	0.967400
C371	C37	0.897400	0.700530	0.019500
C381	C38	0.874800	0.714440	0.118900
C391	C39	0.867300	0.656400	0.184600
H131	H13	0.879100	0.608300	0.167800
C401	C40	0.842300	0.669450	0.276000
C411	C41	0.828400	0.741420	0.303400
H141	H14	0.812400	0.750300	0.364700
C421	C42	0.838500	0.800380	0.239800
C431	C43	0.861100	0.786760	0.147400
H151	H15	0.867100	0.826100	0.104200
C441	C44	0.831900	0.604920	0.343400
C451	C45	0.821100	0.878610	0.268200
O171	O17	0.864030	0.542530	0.332600
O181	O18	0.788060	0.614190	0.408050
O191	O19	0.798600	0.887890	0.350200
O201	O20	0.829770	0.930020	0.206000
Cd61	Cd6	0.307230	0.021350	0.947680
N211	N21	0.390100	0.133960	0.970000
N221	N22	0.417800	0.144280	0.884100
N231	N23	0.439800	0.214520	0.883100
N241	N24	0.428100	0.251390	0.967400
C461	C46	0.397400	0.200530	0.019500
C471	C47	0.374800	0.214440	0.118900
C481	C48	0.367300	0.156400	0.184600
H161	H16	0.379100	0.108300	0.167800
C491	C49	0.342300	0.169450	0.276000
C501	C50	0.328400	0.241420	0.303400
H171	H17	0.312400	0.250300	0.364700
C511	C51	0.338500	0.300380	0.239800
C521	C52	0.361100	0.286760	0.147400
H181	H18	0.367100	0.326100	0.104200
C531	C53	0.331900	0.104920	0.343400
C541	C54	0.321100	0.378610	0.268200
O211	O21	0.364030	0.042530	0.332600
O221	O22	0.288060	0.114190	0.408050
O231	O23	0.298600	0.387890	0.350200
O241	O24	0.329770	0.430020	0.206000
Cd71	Cd7	0.192770	0.521350	0.552320
N251	N25	0.109900	0.633960	0.530000
N261	N26	0.082200	0.644280	0.615900
N271	N27	0.060200	0.714520	0.616900
N281	N28	0.071900	0.751390	0.532600
C551	C55	0.102600	0.700530	0.480500
C561	C56	0.125200	0.714440	0.381100
C571	C57	0.132700	0.656400	0.315400
H191	H19	0.120900	0.608300	0.332200
C581	C58	0.157700	0.669450	0.224000
C591	C59	0.171600	0.741420	0.196600
H201	H20	0.187600	0.750300	0.135300
C601	C60	0.161500	0.800380	0.260200
C611	C61	0.138900	0.786760	0.352600
H211	H21	0.132900	0.826100	0.395800
C621	C62	0.168100	0.604920	0.156600
C631	C63	0.178900	0.878610	0.231800
O251	O25	0.135970	0.542530	0.167400
O261	O26	0.211940	0.614190	0.091950
O271	O27	0.201400	0.887890	0.149800
O281	O28	0.170230	0.930020	0.294000
Cd81	Cd8	0.692770	0.021350	0.552320
N291	N29	0.609900	0.133960	0.530000
N301	N30	0.582200	0.144280	0.615900
N311	N31	0.560200	0.214520	0.616900
N321	N32	0.571900	0.251390	0.532600
C641	C64	0.602600	0.200530	0.480500
C651	C65	0.625200	0.214440	0.381100
C661	C66	0.632700	0.156400	0.315400
H221	H22	0.620900	0.108300	0.332200
C671	C67	0.657700	0.169450	0.224000
C681	C68	0.671600	0.241420	0.196600
H231	H23	0.687600	0.250300	0.135300
C691	C69	0.661500	0.300380	0.260200
C701	C70	0.638900	0.286760	0.352600
H241	H24	0.632900	0.326100	0.395800
C711	C71	0.668100	0.104920	0.156600
C721	C72	0.678900	0.378610	0.231800
O291	O29	0.635970	0.042530	0.167400
O301	O30	0.711940	0.114190	0.091950
O311	O31	0.701400	0.387890	0.149800
O321	O32	0.670230	0.430020	0.294000
Cd91	Cd9	0.000000	0.253330	0.250000
Cd101	Cd10	0.500000	0.753330	0.250000
Cd111	Cd11	0.000000	0.746670	0.750000
Cd121	Cd12	0.500000	0.246670	0.750000
