data_ASINEX_clean_PM
_symmetry_space_group_name_H-M	'P1'
_cell_length_a	74.910000
_cell_length_b	29.614000
_cell_length_c	29.755000
_cell_angle_alpha	90.000000
_cell_angle_beta	90.000000
_cell_angle_gamma	90.000000
_symmetry_Int_Tables_number 1

loop_
_symmetry_equiv_pos_as_xyz
'x,y,z'

loop_
_atom_site_label
_atom_site_type_symbol
_atom_site_fract_x
_atom_site_fract_y
_atom_site_fract_z
C11	C1	0.075200	0.914900	0.456200
H11	H1	0.063200	0.918400	0.466000
C21	C2	0.108070	0.904300	0.428800
H21	H2	0.120000	0.901500	0.418500
C31	C3	0.144180	0.560000	0.383400
C41	C4	0.079600	0.872800	0.434600
H31	H3	0.071400	0.848900	0.429600
C51	C5	0.203980	0.476600	0.505600
H41	H4	0.197700	0.476500	0.533300
C61	C6	0.086920	0.951400	0.464100
C71	C7	0.080290	0.991700	0.488400
C81	C8	0.165960	0.502000	0.438000
C91	C9	0.222620	0.479400	0.503000
H51	H5	0.229100	0.479800	0.530500
C101	C10	0.159260	0.575000	0.405800
H61	H6	0.163000	0.605400	0.402200
C111	C11	0.103460	0.946500	0.451000
H71	H7	0.112100	0.969500	0.455800
C121	C12	0.091940	0.103100	0.641100
H81	H8	0.100000	0.098400	0.665300
C131	C13	0.105310	0.672300	0.263100
C141	C14	0.114450	0.642300	0.296200
C151	C15	0.121350	0.658800	0.335500
H91	H9	0.119500	0.689600	0.342900
C161	C16	0.130680	0.632300	0.363900
H101	H10	0.135100	0.645100	0.391000
C171	C17	0.134050	0.587100	0.355000
C181	C18	0.125590	0.569400	0.316400
H111	H11	0.126600	0.538100	0.310000
C191	C19	0.115830	0.596800	0.287400
H121	H12	0.110200	0.584200	0.261700
C201	C20	0.079030	0.077900	0.572400
C211	C21	0.090310	0.071500	0.610500
H131	H13	0.096700	0.044000	0.613800
C221	C22	0.169150	0.545800	0.433900
H141	H14	0.178700	0.558300	0.451000
C231	C23	0.069800	0.117200	0.569800
H151	H15	0.062200	0.123500	0.545100
C241	C24	0.150470	0.482900	0.413900
H161	H16	0.147600	0.451600	0.415000
C251	C25	0.140780	0.511900	0.390600
H171	H17	0.130300	0.500000	0.376800
C261	C26	0.308740	0.511200	0.466300
C271	C27	0.288130	0.501000	0.465200
C281	C28	0.277990	0.516900	0.429300
H181	H18	0.283500	0.533300	0.405600
C291	C29	0.259910	0.508600	0.428500
H191	H19	0.253000	0.517900	0.403300
C301	C30	0.251510	0.486600	0.464600
C311	C31	0.262310	0.471600	0.499300
H201	H20	0.256700	0.457300	0.524200
C321	C32	0.279900	0.475800	0.500000
H211	H21	0.286800	0.462300	0.523200
C331	C33	0.232000	0.481400	0.464600
C341	C34	0.221730	0.480700	0.424400
H221	H22	0.227400	0.482200	0.395900
C351	C35	0.203930	0.478000	0.427300
H231	H23	0.197300	0.478900	0.400100
C361	C36	0.195300	0.474200	0.464200
C371	C37	0.072030	0.148700	0.605600
H241	H24	0.065500	0.176200	0.604900
C381	C38	0.077690	0.046400	0.534900
C391	C39	0.105480	0.268700	0.667300
C401	C40	0.116750	0.299200	0.637400
C411	C41	0.129460	0.282600	0.608700
H251	H25	0.131800	0.251000	0.607500
C421	C42	0.138560	0.311000	0.582500
H261	H26	0.147000	0.298100	0.562400
C431	C43	0.136910	0.356100	0.581700
C441	C44	0.123480	0.373400	0.610900
H271	H27	0.121000	0.404900	0.611400
C451	C45	0.114290	0.344800	0.638000
H281	H28	0.105800	0.357000	0.658300
C461	C46	0.147540	0.385500	0.553100
C471	C47	0.164250	0.373900	0.534300
H291	H29	0.169500	0.345800	0.542300
C481	C48	0.172760	0.400300	0.506400
H301	H30	0.183600	0.389800	0.493700
C491	C49	0.166730	0.443100	0.494500
C501	C50	0.150700	0.457500	0.513400
H311	H31	0.146300	0.486900	0.506700
C511	C51	0.140950	0.429200	0.542200
H321	H32	0.129900	0.439300	0.554400
N11	N1	0.176050	0.470100	0.463900
N21	N2	0.082940	0.141080	0.639800
N31	N3	0.086970	0.008570	0.527000
N41	N4	0.067750	0.016500	0.472100
N51	N5	0.066210	0.051300	0.501300
N61	N6	0.100350	0.989100	0.554300
H331	H33	0.103400	0.002000	0.579700
H341	H34	0.105600	0.963900	0.545800
N71	N7	0.097990	0.871500	0.421800
O11	O1	0.094520	0.653270	0.235500
O21	O2	0.108170	0.713480	0.265000
O31	O3	0.097750	0.286960	0.699800
O41	O4	0.105630	0.227450	0.657400
O51	O5	0.313770	0.532710	0.435700
O61	O6	0.316700	0.496600	0.499000
Zn11	Zn1	0.087330	0.190710	0.685500
Zn21	Zn2	0.093030	0.271470	0.767900
C521	C52	0.120870	0.337100	0.803600
C531	C53	0.132230	0.369400	0.777300
C541	C54	0.138040	0.356700	0.735000
H351	H35	0.134900	0.328100	0.722800
C551	C55	0.148780	0.387000	0.710400
H361	H36	0.152800	0.379100	0.681100
C561	C56	0.153530	0.428100	0.728500
C571	C57	0.148330	0.440100	0.770900
H371	H37	0.152300	0.467800	0.783600
C581	C58	0.136930	0.411000	0.796100
H381	H38	0.132700	0.419600	0.824900
C591	C59	0.164560	0.461000	0.701600
C601	C60	0.161290	0.466600	0.654700
H391	H39	0.152200	0.449600	0.640100
C611	C61	0.171220	0.496200	0.631500
H401	H40	0.169000	0.500600	0.600400
C621	C62	0.184620	0.520500	0.652400
C631	C63	0.188430	0.514700	0.696600
H411	H41	0.198100	0.530800	0.709500
C641	C64	0.178680	0.486300	0.723000
H421	H42	0.181100	0.483300	0.754200
C651	C65	0.119050	0.760600	0.443200
C661	C66	0.130770	0.729900	0.471100
C671	C67	0.147280	0.723300	0.457900
H431	H43	0.151500	0.736600	0.430900
C681	C68	0.159080	0.695300	0.485500
H441	H44	0.171200	0.692000	0.477100
C691	C69	0.153210	0.674900	0.521100
C701	C70	0.134870	0.680500	0.534400
H451	H45	0.130300	0.666400	0.560700
C711	C71	0.124230	0.707100	0.507500
H461	H46	0.111900	0.709800	0.514500
C721	C72	0.165400	0.644200	0.549000
C731	C73	0.179290	0.623400	0.531600
H471	H47	0.182700	0.631000	0.501800
C741	C74	0.189290	0.590700	0.554100
H481	H48	0.198000	0.572900	0.538900
C751	C75	0.186010	0.585600	0.598700
C761	C76	0.171630	0.609700	0.619800
H491	H49	0.169200	0.604600	0.650700
C771	C77	0.161870	0.638400	0.597500
H501	H50	0.152700	0.655000	0.612000
C781	C78	0.325100	0.483100	0.605500
C791	C79	0.305610	0.496500	0.608300
C801	C80	0.293940	0.468200	0.630900
H511	H51	0.298100	0.441600	0.645300
C811	C81	0.275880	0.479700	0.631900
H521	H52	0.267700	0.460400	0.647000
C821	C82	0.269790	0.517300	0.612200
C831	C83	0.281200	0.546200	0.589800
H531	H53	0.276600	0.572600	0.575800
C841	C84	0.300270	0.536200	0.587700
H541	H54	0.308500	0.555700	0.573100
C851	C85	0.250160	0.528400	0.613900
C861	C86	0.238130	0.492600	0.622100
H551	H55	0.242500	0.462800	0.626400
C871	C87	0.220170	0.500700	0.624000
H561	H56	0.212100	0.476400	0.628500
C881	C88	0.213730	0.544800	0.619300
C891	C89	0.225050	0.578900	0.611700
H571	H57	0.220500	0.608700	0.608700
C901	C90	0.243970	0.571500	0.608100
H581	H58	0.251900	0.595700	0.601800
N81	N8	0.195080	0.553900	0.625200
O71	O7	0.335510	0.504330	0.580300
O81	O8	0.329480	0.450600	0.630800
O91	O9	0.117760	0.298960	0.787200
O101	O10	0.116010	0.350830	0.841000
O111	O11	0.124070	0.777080	0.409000
O121	O12	0.102490	0.768300	0.460600
Zn31	Zn3	0.104480	0.814730	0.387700
C911	C91	0.075200	0.414900	0.956200
H591	H59	0.063200	0.418400	0.966000
C921	C92	0.108070	0.404300	0.928800
H601	H60	0.120000	0.401500	0.918500
C931	C93	0.144180	0.060000	0.883400
C941	C94	0.079600	0.372800	0.934600
H611	H61	0.071400	0.348900	0.929600
C951	C95	0.203980	0.976600	0.005600
H621	H62	0.197700	0.976500	0.033300
C961	C96	0.086920	0.451400	0.964100
C971	C97	0.080290	0.491700	0.988400
C981	C98	0.165960	0.002000	0.938000
C991	C99	0.222620	0.979400	0.003000
H631	H63	0.229100	0.979800	0.030500
C1001	C100	0.159260	0.075000	0.905800
H641	H64	0.163000	0.105400	0.902200
C1011	C101	0.103460	0.446500	0.951000
H651	H65	0.112100	0.469500	0.955800
C1021	C102	0.091940	0.603100	0.141100
H661	H66	0.100000	0.598400	0.165300
C1031	C103	0.105310	0.172300	0.763100
C1041	C104	0.114450	0.142300	0.796200
C1051	C105	0.121350	0.158800	0.835500
H671	H67	0.119500	0.189600	0.842900
C1061	C106	0.130680	0.132300	0.863900
H681	H68	0.135100	0.145100	0.891000
C1071	C107	0.134050	0.087100	0.855000
C1081	C108	0.125590	0.069400	0.816400
H691	H69	0.126600	0.038100	0.810000
C1091	C109	0.115830	0.096800	0.787400
H701	H70	0.110200	0.084200	0.761700
C1101	C110	0.079030	0.577900	0.072400
C1111	C111	0.090310	0.571500	0.110500
H711	H71	0.096700	0.544000	0.113800
C1121	C112	0.169150	0.045800	0.933900
H721	H72	0.178700	0.058300	0.951000
C1131	C113	0.069800	0.617200	0.069800
H731	H73	0.062200	0.623500	0.045100
C1141	C114	0.150470	0.982900	0.913900
H741	H74	0.147600	0.951600	0.915000
C1151	C115	0.140780	0.011900	0.890600
H751	H75	0.130300	0.000000	0.876800
C1161	C116	0.308740	0.011200	0.966300
C1171	C117	0.288130	0.001000	0.965200
C1181	C118	0.277990	0.016900	0.929300
H761	H76	0.283500	0.033300	0.905600
C1191	C119	0.259910	0.008600	0.928500
H771	H77	0.253000	0.017900	0.903300
C1201	C120	0.251510	0.986600	0.964600
C1211	C121	0.262310	0.971600	0.999300
H781	H78	0.256700	0.957300	0.024200
C1221	C122	0.279900	0.975800	0.000000
H791	H79	0.286800	0.962300	0.023200
C1231	C123	0.232000	0.981400	0.964600
C1241	C124	0.221730	0.980700	0.924400
H801	H80	0.227400	0.982200	0.895900
C1251	C125	0.203930	0.978000	0.927300
H811	H81	0.197300	0.978900	0.900100
C1261	C126	0.195300	0.974200	0.964200
C1271	C127	0.072030	0.648700	0.105600
H821	H82	0.065500	0.676200	0.104900
C1281	C128	0.077690	0.546400	0.034900
C1291	C129	0.105480	0.768700	0.167300
C1301	C130	0.116750	0.799200	0.137400
C1311	C131	0.129460	0.782600	0.108700
H831	H83	0.131800	0.751000	0.107500
C1321	C132	0.138560	0.811000	0.082500
H841	H84	0.147000	0.798100	0.062400
C1331	C133	0.136910	0.856100	0.081700
C1341	C134	0.123480	0.873400	0.110900
H851	H85	0.121000	0.904900	0.111400
C1351	C135	0.114290	0.844800	0.138000
H861	H86	0.105800	0.857000	0.158300
C1361	C136	0.147540	0.885500	0.053100
C1371	C137	0.164250	0.873900	0.034300
H871	H87	0.169500	0.845800	0.042300
C1381	C138	0.172760	0.900300	0.006400
H881	H88	0.183600	0.889800	0.993700
C1391	C139	0.166730	0.943100	0.994500
C1401	C140	0.150700	0.957500	0.013400
H891	H89	0.146300	0.986900	0.006700
C1411	C141	0.140950	0.929200	0.042200
H901	H90	0.129900	0.939300	0.054400
N91	N9	0.176050	0.970100	0.963900
N101	N10	0.082940	0.641080	0.139800
N111	N11	0.086970	0.508570	0.027000
N121	N12	0.067750	0.516500	0.972100
N131	N13	0.066210	0.551300	0.001300
N141	N14	0.100350	0.489100	0.054300
H911	H91	0.103400	0.502000	0.079700
H921	H92	0.105600	0.463900	0.045800
N151	N15	0.097990	0.371500	0.921800
O131	O13	0.094520	0.153270	0.735500
O141	O14	0.108170	0.213480	0.765000
O151	O15	0.097750	0.786960	0.199800
O161	O16	0.105630	0.727450	0.157400
O171	O17	0.313770	0.032710	0.935700
O181	O18	0.316700	0.996600	0.999000
Zn41	Zn4	0.087330	0.690710	0.185500
Zn51	Zn5	0.093030	0.771470	0.267900
C1421	C142	0.120870	0.837100	0.303600
C1431	C143	0.132230	0.869400	0.277300
C1441	C144	0.138040	0.856700	0.235000
H931	H93	0.134900	0.828100	0.222800
C1451	C145	0.148780	0.887000	0.210400
H941	H94	0.152800	0.879100	0.181100
C1461	C146	0.153530	0.928100	0.228500
C1471	C147	0.148330	0.940100	0.270900
H951	H95	0.152300	0.967800	0.283600
C1481	C148	0.136930	0.911000	0.296100
H961	H96	0.132700	0.919600	0.324900
C1491	C149	0.164560	0.961000	0.201600
C1501	C150	0.161290	0.966600	0.154700
H971	H97	0.152200	0.949600	0.140100
C1511	C151	0.171220	0.996200	0.131500
H981	H98	0.169000	0.000600	0.100400
C1521	C152	0.184620	0.020500	0.152400
C1531	C153	0.188430	0.014700	0.196600
H991	H99	0.198100	0.030800	0.209500
C1541	C154	0.178680	0.986300	0.223000
H1001	H100	0.181100	0.983300	0.254200
C1551	C155	0.119050	0.260600	0.943200
C1561	C156	0.130770	0.229900	0.971100
C1571	C157	0.147280	0.223300	0.957900
H1011	H101	0.151500	0.236600	0.930900
C1581	C158	0.159080	0.195300	0.985500
H1021	H102	0.171200	0.192000	0.977100
C1591	C159	0.153210	0.174900	0.021100
C1601	C160	0.134870	0.180500	0.034400
H1031	H103	0.130300	0.166400	0.060700
C1611	C161	0.124230	0.207100	0.007500
H1041	H104	0.111900	0.209800	0.014500
C1621	C162	0.165400	0.144200	0.049000
C1631	C163	0.179290	0.123400	0.031600
H1051	H105	0.182700	0.131000	0.001800
C1641	C164	0.189290	0.090700	0.054100
H1061	H106	0.198000	0.072900	0.038900
C1651	C165	0.186010	0.085600	0.098700
C1661	C166	0.171630	0.109700	0.119800
H1071	H107	0.169200	0.104600	0.150700
C1671	C167	0.161870	0.138400	0.097500
H1081	H108	0.152700	0.155000	0.112000
C1681	C168	0.325100	0.983100	0.105500
C1691	C169	0.305610	0.996500	0.108300
C1701	C170	0.293940	0.968200	0.130900
H1091	H109	0.298100	0.941600	0.145300
C1711	C171	0.275880	0.979700	0.131900
H1101	H110	0.267700	0.960400	0.147000
C1721	C172	0.269790	0.017300	0.112200
C1731	C173	0.281200	0.046200	0.089800
H1111	H111	0.276600	0.072600	0.075800
C1741	C174	0.300270	0.036200	0.087700
H1121	H112	0.308500	0.055700	0.073100
C1751	C175	0.250160	0.028400	0.113900
C1761	C176	0.238130	0.992600	0.122100
H1131	H113	0.242500	0.962800	0.126400
C1771	C177	0.220170	0.000700	0.124000
H1141	H114	0.212100	0.976400	0.128500
C1781	C178	0.213730	0.044800	0.119300
C1791	C179	0.225050	0.078900	0.111700
H1151	H115	0.220500	0.108700	0.108700
C1801	C180	0.243970	0.071500	0.108100
H1161	H116	0.251900	0.095700	0.101800
N161	N16	0.195080	0.053900	0.125200
O191	O19	0.335510	0.004330	0.080300
O201	O20	0.329480	0.950600	0.130800
O211	O21	0.117760	0.798960	0.287200
O221	O22	0.116010	0.850830	0.341000
O231	O23	0.124070	0.277080	0.909000
O241	O24	0.102490	0.268300	0.960600
Zn61	Zn6	0.104480	0.314730	0.887700
C1811	C181	0.575200	0.914900	0.956200
H1171	H117	0.563200	0.918400	0.966000
C1821	C182	0.608070	0.904300	0.928800
H1181	H118	0.620000	0.901500	0.918500
C1831	C183	0.644180	0.560000	0.883400
C1841	C184	0.579600	0.872800	0.934600
H1191	H119	0.571400	0.848900	0.929600
C1851	C185	0.703980	0.476600	0.005600
H1201	H120	0.697700	0.476500	0.033300
C1861	C186	0.586920	0.951400	0.964100
C1871	C187	0.580290	0.991700	0.988400
C1881	C188	0.665960	0.502000	0.938000
C1891	C189	0.722620	0.479400	0.003000
H1211	H121	0.729100	0.479800	0.030500
C1901	C190	0.659260	0.575000	0.905800
H1221	H122	0.663000	0.605400	0.902200
C1911	C191	0.603460	0.946500	0.951000
H1231	H123	0.612100	0.969500	0.955800
C1921	C192	0.591940	0.103100	0.141100
H1241	H124	0.600000	0.098400	0.165300
C1931	C193	0.605310	0.672300	0.763100
C1941	C194	0.614450	0.642300	0.796200
C1951	C195	0.621350	0.658800	0.835500
H1251	H125	0.619500	0.689600	0.842900
C1961	C196	0.630680	0.632300	0.863900
H1261	H126	0.635100	0.645100	0.891000
C1971	C197	0.634050	0.587100	0.855000
C1981	C198	0.625590	0.569400	0.816400
H1271	H127	0.626600	0.538100	0.810000
C1991	C199	0.615830	0.596800	0.787400
H1281	H128	0.610200	0.584200	0.761700
C2001	C200	0.579030	0.077900	0.072400
C2011	C201	0.590310	0.071500	0.110500
H1291	H129	0.596700	0.044000	0.113800
C2021	C202	0.669150	0.545800	0.933900
H1301	H130	0.678700	0.558300	0.951000
C2031	C203	0.569800	0.117200	0.069800
H1311	H131	0.562200	0.123500	0.045100
C2041	C204	0.650470	0.482900	0.913900
H1321	H132	0.647600	0.451600	0.915000
C2051	C205	0.640780	0.511900	0.890600
H1331	H133	0.630300	0.500000	0.876800
C2061	C206	0.808740	0.511200	0.966300
C2071	C207	0.788130	0.501000	0.965200
C2081	C208	0.777990	0.516900	0.929300
H1341	H134	0.783500	0.533300	0.905600
C2091	C209	0.759910	0.508600	0.928500
H1351	H135	0.753000	0.517900	0.903300
C2101	C210	0.751510	0.486600	0.964600
C2111	C211	0.762310	0.471600	0.999300
H1361	H136	0.756700	0.457300	0.024200
C2121	C212	0.779900	0.475800	0.000000
H1371	H137	0.786800	0.462300	0.023200
C2131	C213	0.732000	0.481400	0.964600
C2141	C214	0.721730	0.480700	0.924400
H1381	H138	0.727400	0.482200	0.895900
C2151	C215	0.703930	0.478000	0.927300
H1391	H139	0.697300	0.478900	0.900100
C2161	C216	0.695300	0.474200	0.964200
C2171	C217	0.572030	0.148700	0.105600
H1401	H140	0.565500	0.176200	0.104900
C2181	C218	0.577690	0.046400	0.034900
C2191	C219	0.605480	0.268700	0.167300
C2201	C220	0.616750	0.299200	0.137400
C2211	C221	0.629460	0.282600	0.108700
H1411	H141	0.631800	0.251000	0.107500
C2221	C222	0.638560	0.311000	0.082500
H1421	H142	0.647000	0.298100	0.062400
C2231	C223	0.636910	0.356100	0.081700
C2241	C224	0.623480	0.373400	0.110900
H1431	H143	0.621000	0.404900	0.111400
C2251	C225	0.614290	0.344800	0.138000
H1441	H144	0.605800	0.357000	0.158300
C2261	C226	0.647540	0.385500	0.053100
C2271	C227	0.664250	0.373900	0.034300
H1451	H145	0.669500	0.345800	0.042300
C2281	C228	0.672760	0.400300	0.006400
H1461	H146	0.683600	0.389800	0.993700
C2291	C229	0.666730	0.443100	0.994500
C2301	C230	0.650700	0.457500	0.013400
H1471	H147	0.646300	0.486900	0.006700
C2311	C231	0.640950	0.429200	0.042200
H1481	H148	0.629900	0.439300	0.054400
N171	N17	0.676050	0.470100	0.963900
N181	N18	0.582940	0.141080	0.139800
N191	N19	0.586970	0.008570	0.027000
N201	N20	0.567750	0.016500	0.972100
N211	N21	0.566210	0.051300	0.001300
N221	N22	0.600350	0.989100	0.054300
H1491	H149	0.603400	0.002000	0.079700
H1501	H150	0.605600	0.963900	0.045800
N231	N23	0.597990	0.871500	0.921800
O251	O25	0.594520	0.653270	0.735500
O261	O26	0.608170	0.713480	0.765000
O271	O27	0.597750	0.286960	0.199800
O281	O28	0.605630	0.227450	0.157400
O291	O29	0.813770	0.532710	0.935700
O301	O30	0.816700	0.496600	0.999000
Zn71	Zn7	0.587330	0.190710	0.185500
Zn81	Zn8	0.593030	0.271470	0.267900
C2321	C232	0.620870	0.337100	0.303600
C2331	C233	0.632230	0.369400	0.277300
C2341	C234	0.638040	0.356700	0.235000
H1511	H151	0.634900	0.328100	0.222800
C2351	C235	0.648780	0.387000	0.210400
H1521	H152	0.652800	0.379100	0.181100
C2361	C236	0.653530	0.428100	0.228500
C2371	C237	0.648330	0.440100	0.270900
H1531	H153	0.652300	0.467800	0.283600
C2381	C238	0.636930	0.411000	0.296100
H1541	H154	0.632700	0.419600	0.324900
C2391	C239	0.664560	0.461000	0.201600
C2401	C240	0.661290	0.466600	0.154700
H1551	H155	0.652200	0.449600	0.140100
C2411	C241	0.671220	0.496200	0.131500
H1561	H156	0.669000	0.500600	0.100400
C2421	C242	0.684620	0.520500	0.152400
C2431	C243	0.688430	0.514700	0.196600
H1571	H157	0.698100	0.530800	0.209500
C2441	C244	0.678680	0.486300	0.223000
H1581	H158	0.681100	0.483300	0.254200
C2451	C245	0.619050	0.760600	0.943200
C2461	C246	0.630770	0.729900	0.971100
C2471	C247	0.647280	0.723300	0.957900
H1591	H159	0.651500	0.736600	0.930900
C2481	C248	0.659080	0.695300	0.985500
H1601	H160	0.671200	0.692000	0.977100
C2491	C249	0.653210	0.674900	0.021100
C2501	C250	0.634870	0.680500	0.034400
H1611	H161	0.630300	0.666400	0.060700
C2511	C251	0.624230	0.707100	0.007500
H1621	H162	0.611900	0.709800	0.014500
C2521	C252	0.665400	0.644200	0.049000
C2531	C253	0.679290	0.623400	0.031600
H1631	H163	0.682700	0.631000	0.001800
C2541	C254	0.689290	0.590700	0.054100
H1641	H164	0.698000	0.572900	0.038900
C2551	C255	0.686010	0.585600	0.098700
C2561	C256	0.671630	0.609700	0.119800
H1651	H165	0.669200	0.604600	0.150700
C2571	C257	0.661870	0.638400	0.097500
H1661	H166	0.652700	0.655000	0.112000
C2581	C258	0.825100	0.483100	0.105500
C2591	C259	0.805610	0.496500	0.108300
C2601	C260	0.793940	0.468200	0.130900
H1671	H167	0.798100	0.441600	0.145300
C2611	C261	0.775880	0.479700	0.131900
H1681	H168	0.767700	0.460400	0.147000
C2621	C262	0.769790	0.517300	0.112200
C2631	C263	0.781200	0.546200	0.089800
H1691	H169	0.776600	0.572600	0.075800
C2641	C264	0.800270	0.536200	0.087700
H1701	H170	0.808500	0.555700	0.073100
C2651	C265	0.750160	0.528400	0.113900
C2661	C266	0.738130	0.492600	0.122100
H1711	H171	0.742500	0.462800	0.126400
C2671	C267	0.720170	0.500700	0.124000
H1721	H172	0.712100	0.476400	0.128500
C2681	C268	0.713730	0.544800	0.119300
C2691	C269	0.725050	0.578900	0.111700
H1731	H173	0.720500	0.608700	0.108700
C2701	C270	0.743970	0.571500	0.108100
H1741	H174	0.751900	0.595700	0.101800
N241	N24	0.695080	0.553900	0.125200
O311	O31	0.835510	0.504330	0.080300
O321	O32	0.829480	0.450600	0.130800
O331	O33	0.617760	0.298960	0.287200
O341	O34	0.616010	0.350830	0.341000
O351	O35	0.624070	0.777080	0.909000
O361	O36	0.602490	0.768300	0.960600
Zn91	Zn9	0.604480	0.814730	0.887700
C2711	C271	0.575200	0.414900	0.456200
H1751	H175	0.563200	0.418400	0.466000
C2721	C272	0.608070	0.404300	0.428800
H1761	H176	0.620000	0.401500	0.418500
C2731	C273	0.644180	0.060000	0.383400
C2741	C274	0.579600	0.372800	0.434600
H1771	H177	0.571400	0.348900	0.429600
C2751	C275	0.703980	0.976600	0.505600
H1781	H178	0.697700	0.976500	0.533300
C2761	C276	0.586920	0.451400	0.464100
C2771	C277	0.580290	0.491700	0.488400
C2781	C278	0.665960	0.002000	0.438000
C2791	C279	0.722620	0.979400	0.503000
H1791	H179	0.729100	0.979800	0.530500
C2801	C280	0.659260	0.075000	0.405800
H1801	H180	0.663000	0.105400	0.402200
C2811	C281	0.603460	0.446500	0.451000
H1811	H181	0.612100	0.469500	0.455800
C2821	C282	0.591940	0.603100	0.641100
H1821	H182	0.600000	0.598400	0.665300
C2831	C283	0.605310	0.172300	0.263100
C2841	C284	0.614450	0.142300	0.296200
C2851	C285	0.621350	0.158800	0.335500
H1831	H183	0.619500	0.189600	0.342900
C2861	C286	0.630680	0.132300	0.363900
H1841	H184	0.635100	0.145100	0.391000
C2871	C287	0.634050	0.087100	0.355000
C2881	C288	0.625590	0.069400	0.316400
H1851	H185	0.626600	0.038100	0.310000
C2891	C289	0.615830	0.096800	0.287400
H1861	H186	0.610200	0.084200	0.261700
C2901	C290	0.579030	0.577900	0.572400
C2911	C291	0.590310	0.571500	0.610500
H1871	H187	0.596700	0.544000	0.613800
C2921	C292	0.669150	0.045800	0.433900
H1881	H188	0.678700	0.058300	0.451000
C2931	C293	0.569800	0.617200	0.569800
H1891	H189	0.562200	0.623500	0.545100
C2941	C294	0.650470	0.982900	0.413900
H1901	H190	0.647600	0.951600	0.415000
C2951	C295	0.640780	0.011900	0.390600
H1911	H191	0.630300	0.000000	0.376800
C2961	C296	0.808740	0.011200	0.466300
C2971	C297	0.788130	0.001000	0.465200
C2981	C298	0.777990	0.016900	0.429300
H1921	H192	0.783500	0.033300	0.405600
C2991	C299	0.759910	0.008600	0.428500
H1931	H193	0.753000	0.017900	0.403300
C3001	C300	0.751510	0.986600	0.464600
C3011	C301	0.762310	0.971600	0.499300
H1941	H194	0.756700	0.957300	0.524200
C3021	C302	0.779900	0.975800	0.500000
H1951	H195	0.786800	0.962300	0.523200
C3031	C303	0.732000	0.981400	0.464600
C3041	C304	0.721730	0.980700	0.424400
H1961	H196	0.727400	0.982200	0.395900
C3051	C305	0.703930	0.978000	0.427300
H1971	H197	0.697300	0.978900	0.400100
C3061	C306	0.695300	0.974200	0.464200
C3071	C307	0.572030	0.648700	0.605600
H1981	H198	0.565500	0.676200	0.604900
C3081	C308	0.577690	0.546400	0.534900
C3091	C309	0.605480	0.768700	0.667300
C3101	C310	0.616750	0.799200	0.637400
C3111	C311	0.629460	0.782600	0.608700
H1991	H199	0.631800	0.751000	0.607500
C3121	C312	0.638560	0.811000	0.582500
H2001	H200	0.647000	0.798100	0.562400
C3131	C313	0.636910	0.856100	0.581700
C3141	C314	0.623480	0.873400	0.610900
H2011	H201	0.621000	0.904900	0.611400
C3151	C315	0.614290	0.844800	0.638000
H2021	H202	0.605800	0.857000	0.658300
C3161	C316	0.647540	0.885500	0.553100
C3171	C317	0.664250	0.873900	0.534300
H2031	H203	0.669500	0.845800	0.542300
C3181	C318	0.672760	0.900300	0.506400
H2041	H204	0.683600	0.889800	0.493700
C3191	C319	0.666730	0.943100	0.494500
C3201	C320	0.650700	0.957500	0.513400
H2051	H205	0.646300	0.986900	0.506700
C3211	C321	0.640950	0.929200	0.542200
H2061	H206	0.629900	0.939300	0.554400
N251	N25	0.676050	0.970100	0.463900
N261	N26	0.582940	0.641080	0.639800
N271	N27	0.586970	0.508570	0.527000
N281	N28	0.567750	0.516500	0.472100
N291	N29	0.566210	0.551300	0.501300
N301	N30	0.600350	0.489100	0.554300
H2071	H207	0.603400	0.502000	0.579700
H2081	H208	0.605600	0.463900	0.545800
N311	N31	0.597990	0.371500	0.421800
O371	O37	0.594520	0.153270	0.235500
O381	O38	0.608170	0.213480	0.265000
O391	O39	0.597750	0.786960	0.699800
O401	O40	0.605630	0.727450	0.657400
O411	O41	0.813770	0.032710	0.435700
O421	O42	0.816700	0.996600	0.499000
Zn101	Zn10	0.587330	0.690710	0.685500
Zn111	Zn11	0.593030	0.771470	0.767900
C3221	C322	0.620870	0.837100	0.803600
C3231	C323	0.632230	0.869400	0.777300
C3241	C324	0.638040	0.856700	0.735000
H2091	H209	0.634900	0.828100	0.722800
C3251	C325	0.648780	0.887000	0.710400
H2101	H210	0.652800	0.879100	0.681100
C3261	C326	0.653530	0.928100	0.728500
C3271	C327	0.648330	0.940100	0.770900
H2111	H211	0.652300	0.967800	0.783600
C3281	C328	0.636930	0.911000	0.796100
H2121	H212	0.632700	0.919600	0.824900
C3291	C329	0.664560	0.961000	0.701600
C3301	C330	0.661290	0.966600	0.654700
H2131	H213	0.652200	0.949600	0.640100
C3311	C331	0.671220	0.996200	0.631500
H2141	H214	0.669000	0.000600	0.600400
C3321	C332	0.684620	0.020500	0.652400
C3331	C333	0.688430	0.014700	0.696600
H2151	H215	0.698100	0.030800	0.709500
C3341	C334	0.678680	0.986300	0.723000
H2161	H216	0.681100	0.983300	0.754200
C3351	C335	0.619050	0.260600	0.443200
C3361	C336	0.630770	0.229900	0.471100
C3371	C337	0.647280	0.223300	0.457900
H2171	H217	0.651500	0.236600	0.430900
C3381	C338	0.659080	0.195300	0.485500
H2181	H218	0.671200	0.192000	0.477100
C3391	C339	0.653210	0.174900	0.521100
C3401	C340	0.634870	0.180500	0.534400
H2191	H219	0.630300	0.166400	0.560700
C3411	C341	0.624230	0.207100	0.507500
H2201	H220	0.611900	0.209800	0.514500
C3421	C342	0.665400	0.144200	0.549000
C3431	C343	0.679290	0.123400	0.531600
H2211	H221	0.682700	0.131000	0.501800
C3441	C344	0.689290	0.090700	0.554100
H2221	H222	0.698000	0.072900	0.538900
C3451	C345	0.686010	0.085600	0.598700
C3461	C346	0.671630	0.109700	0.619800
H2231	H223	0.669200	0.104600	0.650700
C3471	C347	0.661870	0.138400	0.597500
H2241	H224	0.652700	0.155000	0.612000
C3481	C348	0.825100	0.983100	0.605500
C3491	C349	0.805610	0.996500	0.608300
C3501	C350	0.793940	0.968200	0.630900
H2251	H225	0.798100	0.941600	0.645300
C3511	C351	0.775880	0.979700	0.631900
H2261	H226	0.767700	0.960400	0.647000
C3521	C352	0.769790	0.017300	0.612200
C3531	C353	0.781200	0.046200	0.589800
H2271	H227	0.776600	0.072600	0.575800
C3541	C354	0.800270	0.036200	0.587700
H2281	H228	0.808500	0.055700	0.573100
C3551	C355	0.750160	0.028400	0.613900
C3561	C356	0.738130	0.992600	0.622100
H2291	H229	0.742500	0.962800	0.626400
C3571	C357	0.720170	0.000700	0.624000
H2301	H230	0.712100	0.976400	0.628500
C3581	C358	0.713730	0.044800	0.619300
C3591	C359	0.725050	0.078900	0.611700
H2311	H231	0.720500	0.108700	0.608700
C3601	C360	0.743970	0.071500	0.608100
H2321	H232	0.751900	0.095700	0.601800
N321	N32	0.695080	0.053900	0.625200
O431	O43	0.835510	0.004330	0.580300
O441	O44	0.829480	0.950600	0.630800
O451	O45	0.617760	0.798960	0.787200
O461	O46	0.616010	0.850830	0.841000
O471	O47	0.624070	0.277080	0.409000
O481	O48	0.602490	0.268300	0.460600
Zn121	Zn12	0.604480	0.314730	0.387700
C3611	C361	0.325200	0.335100	0.706200
H2331	H233	0.313200	0.331600	0.716000
C3621	C362	0.358070	0.345700	0.678800
H2341	H234	0.370000	0.348500	0.668500
C3631	C363	0.394180	0.690000	0.633400
C3641	C364	0.329600	0.377200	0.684600
H2351	H235	0.321400	0.401100	0.679600
C3651	C365	0.453980	0.773400	0.755600
H2361	H236	0.447700	0.773500	0.783300
C3661	C366	0.336920	0.298600	0.714100
C3671	C367	0.330290	0.258300	0.738400
C3681	C368	0.415960	0.748000	0.688000
C3691	C369	0.472620	0.770600	0.753000
H2371	H237	0.479100	0.770200	0.780500
C3701	C370	0.409260	0.675000	0.655800
H2381	H238	0.413000	0.644600	0.652200
C3711	C371	0.353460	0.303500	0.701000
H2391	H239	0.362100	0.280500	0.705800
C3721	C372	0.341940	0.146900	0.891100
H2401	H240	0.350000	0.151600	0.915300
C3731	C373	0.355310	0.577700	0.513100
C3741	C374	0.364450	0.607700	0.546200
C3751	C375	0.371350	0.591200	0.585500
H2411	H241	0.369500	0.560400	0.592900
C3761	C376	0.380680	0.617700	0.613900
H2421	H242	0.385100	0.604900	0.641000
C3771	C377	0.384050	0.662900	0.605000
C3781	C378	0.375590	0.680600	0.566400
H2431	H243	0.376600	0.711900	0.560000
C3791	C379	0.365830	0.653200	0.537400
H2441	H244	0.360200	0.665800	0.511700
C3801	C380	0.329030	0.172100	0.822400
C3811	C381	0.340310	0.178500	0.860500
H2451	H245	0.346700	0.206000	0.863800
C3821	C382	0.419150	0.704200	0.683900
H2461	H246	0.428700	0.691700	0.701000
C3831	C383	0.319800	0.132800	0.819800
H2471	H247	0.312200	0.126500	0.795100
C3841	C384	0.400470	0.767100	0.663900
H2481	H248	0.397600	0.798400	0.665000
C3851	C385	0.390780	0.738100	0.640600
H2491	H249	0.380300	0.750000	0.626800
C3861	C386	0.558740	0.738800	0.716300
C3871	C387	0.538130	0.749000	0.715200
C3881	C388	0.527990	0.733100	0.679300
H2501	H250	0.533500	0.716700	0.655600
C3891	C389	0.509910	0.741400	0.678500
H2511	H251	0.503000	0.732100	0.653300
C3901	C390	0.501510	0.763400	0.714600
C3911	C391	0.512310	0.778400	0.749300
H2521	H252	0.506700	0.792700	0.774200
C3921	C392	0.529900	0.774200	0.750000
H2531	H253	0.536800	0.787700	0.773200
C3931	C393	0.482000	0.768600	0.714600
C3941	C394	0.471730	0.769300	0.674400
H2541	H254	0.477400	0.767800	0.645900
C3951	C395	0.453930	0.772000	0.677300
H2551	H255	0.447300	0.771100	0.650100
C3961	C396	0.445300	0.775800	0.714200
C3971	C397	0.322030	0.101300	0.855600
H2561	H256	0.315500	0.073800	0.854900
C3981	C398	0.327690	0.203600	0.784900
C3991	C399	0.355480	0.981300	0.917300
C4001	C400	0.366750	0.950800	0.887400
C4011	C401	0.379460	0.967400	0.858700
H2571	H257	0.381800	0.999000	0.857500
C4021	C402	0.388560	0.939000	0.832500
H2581	H258	0.397000	0.951900	0.812400
C4031	C403	0.386910	0.893900	0.831700
C4041	C404	0.373480	0.876600	0.860900
H2591	H259	0.371000	0.845100	0.861400
C4051	C405	0.364290	0.905200	0.888000
H2601	H260	0.355800	0.893000	0.908300
C4061	C406	0.397540	0.864500	0.803100
C4071	C407	0.414250	0.876100	0.784300
H2611	H261	0.419500	0.904200	0.792300
C4081	C408	0.422760	0.849700	0.756400
H2621	H262	0.433600	0.860200	0.743700
C4091	C409	0.416730	0.806900	0.744500
C4101	C410	0.400700	0.792500	0.763400
H2631	H263	0.396300	0.763100	0.756700
C4111	C411	0.390950	0.820800	0.792200
H2641	H264	0.379900	0.810700	0.804400
N331	N33	0.426050	0.779900	0.713900
N341	N34	0.332940	0.108920	0.889800
N351	N35	0.336970	0.241430	0.777000
N361	N36	0.317750	0.233500	0.722100
N371	N37	0.316210	0.198700	0.751300
N381	N38	0.350350	0.260900	0.804300
H2651	H265	0.353400	0.248000	0.829700
H2661	H266	0.355600	0.286100	0.795800
N391	N39	0.347990	0.378500	0.671800
O491	O49	0.344520	0.596730	0.485500
O501	O50	0.358170	0.536520	0.515000
O511	O51	0.347750	0.963040	0.949800
O521	O52	0.355630	0.022550	0.907400
O531	O53	0.563770	0.717290	0.685700
O541	O54	0.566700	0.753400	0.749000
Zn131	Zn13	0.337330	0.059290	0.935500
Zn141	Zn14	0.343030	0.978530	0.017900
C4121	C412	0.370870	0.912900	0.053600
C4131	C413	0.382230	0.880600	0.027300
C4141	C414	0.388040	0.893300	0.985000
H2671	H267	0.384900	0.921900	0.972800
C4151	C415	0.398780	0.863000	0.960400
H2681	H268	0.402800	0.870900	0.931100
C4161	C416	0.403530	0.821900	0.978500
C4171	C417	0.398330	0.809900	0.020900
H2691	H269	0.402300	0.782200	0.033600
C4181	C418	0.386930	0.839000	0.046100
H2701	H270	0.382700	0.830400	0.074900
C4191	C419	0.414560	0.789000	0.951600
C4201	C420	0.411290	0.783400	0.904700
H2711	H271	0.402200	0.800400	0.890100
C4211	C421	0.421220	0.753800	0.881500
H2721	H272	0.419000	0.749400	0.850400
C4221	C422	0.434620	0.729500	0.902400
C4231	C423	0.438430	0.735300	0.946600
H2731	H273	0.448100	0.719200	0.959500
C4241	C424	0.428680	0.763700	0.973000
H2741	H274	0.431100	0.766700	0.004200
C4251	C425	0.369050	0.489400	0.693200
C4261	C426	0.380770	0.520100	0.721100
C4271	C427	0.397280	0.526700	0.707900
H2751	H275	0.401500	0.513400	0.680900
C4281	C428	0.409080	0.554700	0.735500
H2761	H276	0.421200	0.558000	0.727100
C4291	C429	0.403210	0.575100	0.771100
C4301	C430	0.384870	0.569500	0.784400
H2771	H277	0.380300	0.583600	0.810700
C4311	C431	0.374230	0.542900	0.757500
H2781	H278	0.361900	0.540200	0.764500
C4321	C432	0.415400	0.605800	0.799000
C4331	C433	0.429290	0.626600	0.781600
H2791	H279	0.432700	0.619000	0.751800
C4341	C434	0.439290	0.659300	0.804100
H2801	H280	0.448000	0.677100	0.788900
C4351	C435	0.436010	0.664400	0.848700
C4361	C436	0.421630	0.640300	0.869800
H2811	H281	0.419200	0.645400	0.900700
C4371	C437	0.411870	0.611600	0.847500
H2821	H282	0.402700	0.595000	0.862000
C4381	C438	0.575100	0.766900	0.855500
C4391	C439	0.555610	0.753500	0.858300
C4401	C440	0.543940	0.781800	0.880900
H2831	H283	0.548100	0.808400	0.895300
C4411	C441	0.525880	0.770300	0.881900
H2841	H284	0.517700	0.789600	0.897000
C4421	C442	0.519790	0.732700	0.862200
C4431	C443	0.531200	0.703800	0.839800
H2851	H285	0.526600	0.677400	0.825800
C4441	C444	0.550270	0.713800	0.837700
H2861	H286	0.558500	0.694300	0.823100
C4451	C445	0.500160	0.721600	0.863900
C4461	C446	0.488130	0.757400	0.872100
H2871	H287	0.492500	0.787200	0.876400
C4471	C447	0.470170	0.749300	0.874000
H2881	H288	0.462100	0.773600	0.878500
C4481	C448	0.463730	0.705200	0.869300
C4491	C449	0.475050	0.671100	0.861700
H2891	H289	0.470500	0.641300	0.858700
C4501	C450	0.493970	0.678500	0.858100
H2901	H290	0.501900	0.654300	0.851800
N401	N40	0.445080	0.696100	0.875200
O551	O55	0.585510	0.745670	0.830300
O561	O56	0.579480	0.799400	0.880800
O571	O57	0.367760	0.951040	0.037200
O581	O58	0.366010	0.899170	0.091000
O591	O59	0.374070	0.472920	0.659000
O601	O60	0.352490	0.481700	0.710600
Zn151	Zn15	0.354480	0.435270	0.637700
C4511	C451	0.325200	0.835100	0.206200
H2911	H291	0.313200	0.831600	0.216000
C4521	C452	0.358070	0.845700	0.178800
H2921	H292	0.370000	0.848500	0.168500
C4531	C453	0.394180	0.190000	0.133400
C4541	C454	0.329600	0.877200	0.184600
H2931	H293	0.321400	0.901100	0.179600
C4551	C455	0.453980	0.273400	0.255600
H2941	H294	0.447700	0.273500	0.283300
C4561	C456	0.336920	0.798600	0.214100
C4571	C457	0.330290	0.758300	0.238400
C4581	C458	0.415960	0.248000	0.188000
C4591	C459	0.472620	0.270600	0.253000
H2951	H295	0.479100	0.270200	0.280500
C4601	C460	0.409260	0.175000	0.155800
H2961	H296	0.413000	0.144600	0.152200
C4611	C461	0.353460	0.803500	0.201000
H2971	H297	0.362100	0.780500	0.205800
C4621	C462	0.341940	0.646900	0.391100
H2981	H298	0.350000	0.651600	0.415300
C4631	C463	0.355310	0.077700	0.013100
C4641	C464	0.364450	0.107700	0.046200
C4651	C465	0.371350	0.091200	0.085500
H2991	H299	0.369500	0.060400	0.092900
C4661	C466	0.380680	0.117700	0.113900
H3001	H300	0.385100	0.104900	0.141000
C4671	C467	0.384050	0.162900	0.105000
C4681	C468	0.375590	0.180600	0.066400
H3011	H301	0.376600	0.211900	0.060000
C4691	C469	0.365830	0.153200	0.037400
H3021	H302	0.360200	0.165800	0.011700
C4701	C470	0.329030	0.672100	0.322400
C4711	C471	0.340310	0.678500	0.360500
H3031	H303	0.346700	0.706000	0.363800
C4721	C472	0.419150	0.204200	0.183900
H3041	H304	0.428700	0.191700	0.201000
C4731	C473	0.319800	0.632800	0.319800
H3051	H305	0.312200	0.626500	0.295100
C4741	C474	0.400470	0.267100	0.163900
H3061	H306	0.397600	0.298400	0.165000
C4751	C475	0.390780	0.238100	0.140600
H3071	H307	0.380300	0.250000	0.126800
C4761	C476	0.558740	0.238800	0.216300
C4771	C477	0.538130	0.249000	0.215200
C4781	C478	0.527990	0.233100	0.179300
H3081	H308	0.533500	0.216700	0.155600
C4791	C479	0.509910	0.241400	0.178500
H3091	H309	0.503000	0.232100	0.153300
C4801	C480	0.501510	0.263400	0.214600
C4811	C481	0.512310	0.278400	0.249300
H3101	H310	0.506700	0.292700	0.274200
C4821	C482	0.529900	0.274200	0.250000
H3111	H311	0.536800	0.287700	0.273200
C4831	C483	0.482000	0.268600	0.214600
C4841	C484	0.471730	0.269300	0.174400
H3121	H312	0.477400	0.267800	0.145900
C4851	C485	0.453930	0.272000	0.177300
H3131	H313	0.447300	0.271100	0.150100
C4861	C486	0.445300	0.275800	0.214200
C4871	C487	0.322030	0.601300	0.355600
H3141	H314	0.315500	0.573800	0.354900
C4881	C488	0.327690	0.703600	0.284900
C4891	C489	0.355480	0.481300	0.417300
C4901	C490	0.366750	0.450800	0.387400
C4911	C491	0.379460	0.467400	0.358700
H3151	H315	0.381800	0.499000	0.357500
C4921	C492	0.388560	0.439000	0.332500
H3161	H316	0.397000	0.451900	0.312400
C4931	C493	0.386910	0.393900	0.331700
C4941	C494	0.373480	0.376600	0.360900
H3171	H317	0.371000	0.345100	0.361400
C4951	C495	0.364290	0.405200	0.388000
H3181	H318	0.355800	0.393000	0.408300
C4961	C496	0.397540	0.364500	0.303100
C4971	C497	0.414250	0.376100	0.284300
H3191	H319	0.419500	0.404200	0.292300
C4981	C498	0.422760	0.349700	0.256400
H3201	H320	0.433600	0.360200	0.243700
C4991	C499	0.416730	0.306900	0.244500
C5001	C500	0.400700	0.292500	0.263400
H3211	H321	0.396300	0.263100	0.256700
C5011	C501	0.390950	0.320800	0.292200
H3221	H322	0.379900	0.310700	0.304400
N411	N41	0.426050	0.279900	0.213900
N421	N42	0.332940	0.608920	0.389800
N431	N43	0.336970	0.741430	0.277000
N441	N44	0.317750	0.733500	0.222100
N451	N45	0.316210	0.698700	0.251300
N461	N46	0.350350	0.760900	0.304300
H3231	H323	0.353400	0.748000	0.329700
H3241	H324	0.355600	0.786100	0.295800
N471	N47	0.347990	0.878500	0.171800
O611	O61	0.344520	0.096730	0.985500
O621	O62	0.358170	0.036520	0.015000
O631	O63	0.347750	0.463040	0.449800
O641	O64	0.355630	0.522550	0.407400
O651	O65	0.563770	0.217290	0.185700
O661	O66	0.566700	0.253400	0.249000
Zn161	Zn16	0.337330	0.559290	0.435500
Zn171	Zn17	0.343030	0.478530	0.517900
C5021	C502	0.370870	0.412900	0.553600
C5031	C503	0.382230	0.380600	0.527300
C5041	C504	0.388040	0.393300	0.485000
H3251	H325	0.384900	0.421900	0.472800
C5051	C505	0.398780	0.363000	0.460400
H3261	H326	0.402800	0.370900	0.431100
C5061	C506	0.403530	0.321900	0.478500
C5071	C507	0.398330	0.309900	0.520900
H3271	H327	0.402300	0.282200	0.533600
C5081	C508	0.386930	0.339000	0.546100
H3281	H328	0.382700	0.330400	0.574900
C5091	C509	0.414560	0.289000	0.451600
C5101	C510	0.411290	0.283400	0.404700
H3291	H329	0.402200	0.300400	0.390100
C5111	C511	0.421220	0.253800	0.381500
H3301	H330	0.419000	0.249400	0.350400
C5121	C512	0.434620	0.229500	0.402400
C5131	C513	0.438430	0.235300	0.446600
H3311	H331	0.448100	0.219200	0.459500
C5141	C514	0.428680	0.263700	0.473000
H3321	H332	0.431100	0.266700	0.504200
C5151	C515	0.369050	0.989400	0.193200
C5161	C516	0.380770	0.020100	0.221100
C5171	C517	0.397280	0.026700	0.207900
H3331	H333	0.401500	0.013400	0.180900
C5181	C518	0.409080	0.054700	0.235500
H3341	H334	0.421200	0.058000	0.227100
C5191	C519	0.403210	0.075100	0.271100
C5201	C520	0.384870	0.069500	0.284400
H3351	H335	0.380300	0.083600	0.310700
C5211	C521	0.374230	0.042900	0.257500
H3361	H336	0.361900	0.040200	0.264500
C5221	C522	0.415400	0.105800	0.299000
C5231	C523	0.429290	0.126600	0.281600
H3371	H337	0.432700	0.119000	0.251800
C5241	C524	0.439290	0.159300	0.304100
H3381	H338	0.448000	0.177100	0.288900
C5251	C525	0.436010	0.164400	0.348700
C5261	C526	0.421630	0.140300	0.369800
H3391	H339	0.419200	0.145400	0.400700
C5271	C527	0.411870	0.111600	0.347500
H3401	H340	0.402700	0.095000	0.362000
C5281	C528	0.575100	0.266900	0.355500
C5291	C529	0.555610	0.253500	0.358300
C5301	C530	0.543940	0.281800	0.380900
H3411	H341	0.548100	0.308400	0.395300
C5311	C531	0.525880	0.270300	0.381900
H3421	H342	0.517700	0.289600	0.397000
C5321	C532	0.519790	0.232700	0.362200
C5331	C533	0.531200	0.203800	0.339800
H3431	H343	0.526600	0.177400	0.325800
C5341	C534	0.550270	0.213800	0.337700
H3441	H344	0.558500	0.194300	0.323100
C5351	C535	0.500160	0.221600	0.363900
C5361	C536	0.488130	0.257400	0.372100
H3451	H345	0.492500	0.287200	0.376400
C5371	C537	0.470170	0.249300	0.374000
H3461	H346	0.462100	0.273600	0.378500
C5381	C538	0.463730	0.205200	0.369300
C5391	C539	0.475050	0.171100	0.361700
H3471	H347	0.470500	0.141300	0.358700
C5401	C540	0.493970	0.178500	0.358100
H3481	H348	0.501900	0.154300	0.351800
N481	N48	0.445080	0.196100	0.375200
O671	O67	0.585510	0.245670	0.330300
O681	O68	0.579480	0.299400	0.380800
O691	O69	0.367760	0.451040	0.537200
O701	O70	0.366010	0.399170	0.591000
O711	O71	0.374070	0.972920	0.159000
O721	O72	0.352490	0.981700	0.210600
Zn181	Zn18	0.354480	0.935270	0.137700
C5411	C541	0.825200	0.335100	0.206200
H3491	H349	0.813200	0.331600	0.216000
C5421	C542	0.858070	0.345700	0.178800
H3501	H350	0.870000	0.348500	0.168500
C5431	C543	0.894180	0.690000	0.133400
C5441	C544	0.829600	0.377200	0.184600
H3511	H351	0.821400	0.401100	0.179600
C5451	C545	0.953980	0.773400	0.255600
H3521	H352	0.947700	0.773500	0.283300
C5461	C546	0.836920	0.298600	0.214100
C5471	C547	0.830290	0.258300	0.238400
C5481	C548	0.915960	0.748000	0.188000
C5491	C549	0.972620	0.770600	0.253000
H3531	H353	0.979100	0.770200	0.280500
C5501	C550	0.909260	0.675000	0.155800
H3541	H354	0.913000	0.644600	0.152200
C5511	C551	0.853460	0.303500	0.201000
H3551	H355	0.862100	0.280500	0.205800
C5521	C552	0.841940	0.146900	0.391100
H3561	H356	0.850000	0.151600	0.415300
C5531	C553	0.855310	0.577700	0.013100
C5541	C554	0.864450	0.607700	0.046200
C5551	C555	0.871350	0.591200	0.085500
H3571	H357	0.869500	0.560400	0.092900
C5561	C556	0.880680	0.617700	0.113900
H3581	H358	0.885100	0.604900	0.141000
C5571	C557	0.884050	0.662900	0.105000
C5581	C558	0.875590	0.680600	0.066400
H3591	H359	0.876600	0.711900	0.060000
C5591	C559	0.865830	0.653200	0.037400
H3601	H360	0.860200	0.665800	0.011700
C5601	C560	0.829030	0.172100	0.322400
C5611	C561	0.840310	0.178500	0.360500
H3611	H361	0.846700	0.206000	0.363800
C5621	C562	0.919150	0.704200	0.183900
H3621	H362	0.928700	0.691700	0.201000
C5631	C563	0.819800	0.132800	0.319800
H3631	H363	0.812200	0.126500	0.295100
C5641	C564	0.900470	0.767100	0.163900
H3641	H364	0.897600	0.798400	0.165000
C5651	C565	0.890780	0.738100	0.140600
H3651	H365	0.880300	0.750000	0.126800
C5661	C566	0.058740	0.738800	0.216300
C5671	C567	0.038130	0.749000	0.215200
C5681	C568	0.027990	0.733100	0.179300
H3661	H366	0.033500	0.716700	0.155600
C5691	C569	0.009910	0.741400	0.178500
H3671	H367	0.003000	0.732100	0.153300
C5701	C570	0.001510	0.763400	0.214600
C5711	C571	0.012310	0.778400	0.249300
H3681	H368	0.006700	0.792700	0.274200
C5721	C572	0.029900	0.774200	0.250000
H3691	H369	0.036800	0.787700	0.273200
C5731	C573	0.982000	0.768600	0.214600
C5741	C574	0.971730	0.769300	0.174400
H3701	H370	0.977400	0.767800	0.145900
C5751	C575	0.953930	0.772000	0.177300
H3711	H371	0.947300	0.771100	0.150100
C5761	C576	0.945300	0.775800	0.214200
C5771	C577	0.822030	0.101300	0.355600
H3721	H372	0.815500	0.073800	0.354900
C5781	C578	0.827690	0.203600	0.284900
C5791	C579	0.855480	0.981300	0.417300
C5801	C580	0.866750	0.950800	0.387400
C5811	C581	0.879460	0.967400	0.358700
H3731	H373	0.881800	0.999000	0.357500
C5821	C582	0.888560	0.939000	0.332500
H3741	H374	0.897000	0.951900	0.312400
C5831	C583	0.886910	0.893900	0.331700
C5841	C584	0.873480	0.876600	0.360900
H3751	H375	0.871000	0.845100	0.361400
C5851	C585	0.864290	0.905200	0.388000
H3761	H376	0.855800	0.893000	0.408300
C5861	C586	0.897540	0.864500	0.303100
C5871	C587	0.914250	0.876100	0.284300
H3771	H377	0.919500	0.904200	0.292300
C5881	C588	0.922760	0.849700	0.256400
H3781	H378	0.933600	0.860200	0.243700
C5891	C589	0.916730	0.806900	0.244500
C5901	C590	0.900700	0.792500	0.263400
H3791	H379	0.896300	0.763100	0.256700
C5911	C591	0.890950	0.820800	0.292200
H3801	H380	0.879900	0.810700	0.304400
N491	N49	0.926050	0.779900	0.213900
N501	N50	0.832940	0.108920	0.389800
N511	N51	0.836970	0.241430	0.277000
N521	N52	0.817750	0.233500	0.222100
N531	N53	0.816210	0.198700	0.251300
N541	N54	0.850350	0.260900	0.304300
H3811	H381	0.853400	0.248000	0.329700
H3821	H382	0.855600	0.286100	0.295800
N551	N55	0.847990	0.378500	0.171800
O731	O73	0.844520	0.596730	0.985500
O741	O74	0.858170	0.536520	0.015000
O751	O75	0.847750	0.963040	0.449800
O761	O76	0.855630	0.022550	0.407400
O771	O77	0.063770	0.717290	0.185700
O781	O78	0.066700	0.753400	0.249000
Zn191	Zn19	0.837330	0.059290	0.435500
Zn201	Zn20	0.843030	0.978530	0.517900
C5921	C592	0.870870	0.912900	0.553600
C5931	C593	0.882230	0.880600	0.527300
C5941	C594	0.888040	0.893300	0.485000
H3831	H383	0.884900	0.921900	0.472800
C5951	C595	0.898780	0.863000	0.460400
H3841	H384	0.902800	0.870900	0.431100
C5961	C596	0.903530	0.821900	0.478500
C5971	C597	0.898330	0.809900	0.520900
H3851	H385	0.902300	0.782200	0.533600
C5981	C598	0.886930	0.839000	0.546100
H3861	H386	0.882700	0.830400	0.574900
C5991	C599	0.914560	0.789000	0.451600
C6001	C600	0.911290	0.783400	0.404700
H3871	H387	0.902200	0.800400	0.390100
C6011	C601	0.921220	0.753800	0.381500
H3881	H388	0.919000	0.749400	0.350400
C6021	C602	0.934620	0.729500	0.402400
C6031	C603	0.938430	0.735300	0.446600
H3891	H389	0.948100	0.719200	0.459500
C6041	C604	0.928680	0.763700	0.473000
H3901	H390	0.931100	0.766700	0.504200
C6051	C605	0.869050	0.489400	0.193200
C6061	C606	0.880770	0.520100	0.221100
C6071	C607	0.897280	0.526700	0.207900
H3911	H391	0.901500	0.513400	0.180900
C6081	C608	0.909080	0.554700	0.235500
H3921	H392	0.921200	0.558000	0.227100
C6091	C609	0.903210	0.575100	0.271100
C6101	C610	0.884870	0.569500	0.284400
H3931	H393	0.880300	0.583600	0.310700
C6111	C611	0.874230	0.542900	0.257500
H3941	H394	0.861900	0.540200	0.264500
C6121	C612	0.915400	0.605800	0.299000
C6131	C613	0.929290	0.626600	0.281600
H3951	H395	0.932700	0.619000	0.251800
C6141	C614	0.939290	0.659300	0.304100
H3961	H396	0.948000	0.677100	0.288900
C6151	C615	0.936010	0.664400	0.348700
C6161	C616	0.921630	0.640300	0.369800
H3971	H397	0.919200	0.645400	0.400700
C6171	C617	0.911870	0.611600	0.347500
H3981	H398	0.902700	0.595000	0.362000
C6181	C618	0.075100	0.766900	0.355500
C6191	C619	0.055610	0.753500	0.358300
C6201	C620	0.043940	0.781800	0.380900
H3991	H399	0.048100	0.808400	0.395300
C6211	C621	0.025880	0.770300	0.381900
H4001	H400	0.017700	0.789600	0.397000
C6221	C622	0.019790	0.732700	0.362200
C6231	C623	0.031200	0.703800	0.339800
H4011	H401	0.026600	0.677400	0.325800
C6241	C624	0.050270	0.713800	0.337700
H4021	H402	0.058500	0.694300	0.323100
C6251	C625	0.000160	0.721600	0.363900
C6261	C626	0.988130	0.757400	0.372100
H4031	H403	0.992500	0.787200	0.376400
C6271	C627	0.970170	0.749300	0.374000
H4041	H404	0.962100	0.773600	0.378500
C6281	C628	0.963730	0.705200	0.369300
C6291	C629	0.975050	0.671100	0.361700
H4051	H405	0.970500	0.641300	0.358700
C6301	C630	0.993970	0.678500	0.358100
H4061	H406	0.001900	0.654300	0.351800
N561	N56	0.945080	0.696100	0.375200
O791	O79	0.085510	0.745670	0.330300
O801	O80	0.079480	0.799400	0.380800
O811	O81	0.867760	0.951040	0.537200
O821	O82	0.866010	0.899170	0.591000
O831	O83	0.874070	0.472920	0.159000
O841	O84	0.852490	0.481700	0.210600
Zn211	Zn21	0.854480	0.435270	0.137700
C6311	C631	0.825200	0.835100	0.706200
H4071	H407	0.813200	0.831600	0.716000
C6321	C632	0.858070	0.845700	0.678800
H4081	H408	0.870000	0.848500	0.668500
C6331	C633	0.894180	0.190000	0.633400
C6341	C634	0.829600	0.877200	0.684600
H4091	H409	0.821400	0.901100	0.679600
C6351	C635	0.953980	0.273400	0.755600
H4101	H410	0.947700	0.273500	0.783300
C6361	C636	0.836920	0.798600	0.714100
C6371	C637	0.830290	0.758300	0.738400
C6381	C638	0.915960	0.248000	0.688000
C6391	C639	0.972620	0.270600	0.753000
H4111	H411	0.979100	0.270200	0.780500
C6401	C640	0.909260	0.175000	0.655800
H4121	H412	0.913000	0.144600	0.652200
C6411	C641	0.853460	0.803500	0.701000
H4131	H413	0.862100	0.780500	0.705800
C6421	C642	0.841940	0.646900	0.891100
H4141	H414	0.850000	0.651600	0.915300
C6431	C643	0.855310	0.077700	0.513100
C6441	C644	0.864450	0.107700	0.546200
C6451	C645	0.871350	0.091200	0.585500
H4151	H415	0.869500	0.060400	0.592900
C6461	C646	0.880680	0.117700	0.613900
H4161	H416	0.885100	0.104900	0.641000
C6471	C647	0.884050	0.162900	0.605000
C6481	C648	0.875590	0.180600	0.566400
H4171	H417	0.876600	0.211900	0.560000
C6491	C649	0.865830	0.153200	0.537400
H4181	H418	0.860200	0.165800	0.511700
C6501	C650	0.829030	0.672100	0.822400
C6511	C651	0.840310	0.678500	0.860500
H4191	H419	0.846700	0.706000	0.863800
C6521	C652	0.919150	0.204200	0.683900
H4201	H420	0.928700	0.191700	0.701000
C6531	C653	0.819800	0.632800	0.819800
H4211	H421	0.812200	0.626500	0.795100
C6541	C654	0.900470	0.267100	0.663900
H4221	H422	0.897600	0.298400	0.665000
C6551	C655	0.890780	0.238100	0.640600
H4231	H423	0.880300	0.250000	0.626800
C6561	C656	0.058740	0.238800	0.716300
C6571	C657	0.038130	0.249000	0.715200
C6581	C658	0.027990	0.233100	0.679300
H4241	H424	0.033500	0.216700	0.655600
C6591	C659	0.009910	0.241400	0.678500
H4251	H425	0.003000	0.232100	0.653300
C6601	C660	0.001510	0.263400	0.714600
C6611	C661	0.012310	0.278400	0.749300
H4261	H426	0.006700	0.292700	0.774200
C6621	C662	0.029900	0.274200	0.750000
H4271	H427	0.036800	0.287700	0.773200
C6631	C663	0.982000	0.268600	0.714600
C6641	C664	0.971730	0.269300	0.674400
H4281	H428	0.977400	0.267800	0.645900
C6651	C665	0.953930	0.272000	0.677300
H4291	H429	0.947300	0.271100	0.650100
C6661	C666	0.945300	0.275800	0.714200
C6671	C667	0.822030	0.601300	0.855600
H4301	H430	0.815500	0.573800	0.854900
C6681	C668	0.827690	0.703600	0.784900
C6691	C669	0.855480	0.481300	0.917300
C6701	C670	0.866750	0.450800	0.887400
C6711	C671	0.879460	0.467400	0.858700
H4311	H431	0.881800	0.499000	0.857500
C6721	C672	0.888560	0.439000	0.832500
H4321	H432	0.897000	0.451900	0.812400
C6731	C673	0.886910	0.393900	0.831700
C6741	C674	0.873480	0.376600	0.860900
H4331	H433	0.871000	0.345100	0.861400
C6751	C675	0.864290	0.405200	0.888000
H4341	H434	0.855800	0.393000	0.908300
C6761	C676	0.897540	0.364500	0.803100
C6771	C677	0.914250	0.376100	0.784300
H4351	H435	0.919500	0.404200	0.792300
C6781	C678	0.922760	0.349700	0.756400
H4361	H436	0.933600	0.360200	0.743700
C6791	C679	0.916730	0.306900	0.744500
C6801	C680	0.900700	0.292500	0.763400
H4371	H437	0.896300	0.263100	0.756700
C6811	C681	0.890950	0.320800	0.792200
H4381	H438	0.879900	0.310700	0.804400
N571	N57	0.926050	0.279900	0.713900
N581	N58	0.832940	0.608920	0.889800
N591	N59	0.836970	0.741430	0.777000
N601	N60	0.817750	0.733500	0.722100
N611	N61	0.816210	0.698700	0.751300
N621	N62	0.850350	0.760900	0.804300
H4391	H439	0.853400	0.748000	0.829700
H4401	H440	0.855600	0.786100	0.795800
N631	N63	0.847990	0.878500	0.671800
O851	O85	0.844520	0.096730	0.485500
O861	O86	0.858170	0.036520	0.515000
O871	O87	0.847750	0.463040	0.949800
O881	O88	0.855630	0.522550	0.907400
O891	O89	0.063770	0.217290	0.685700
O901	O90	0.066700	0.253400	0.749000
Zn221	Zn22	0.837330	0.559290	0.935500
Zn231	Zn23	0.843030	0.478530	0.017900
C6821	C682	0.870870	0.412900	0.053600
C6831	C683	0.882230	0.380600	0.027300
C6841	C684	0.888040	0.393300	0.985000
H4411	H441	0.884900	0.421900	0.972800
C6851	C685	0.898780	0.363000	0.960400
H4421	H442	0.902800	0.370900	0.931100
C6861	C686	0.903530	0.321900	0.978500
C6871	C687	0.898330	0.309900	0.020900
H4431	H443	0.902300	0.282200	0.033600
C6881	C688	0.886930	0.339000	0.046100
H4441	H444	0.882700	0.330400	0.074900
C6891	C689	0.914560	0.289000	0.951600
C6901	C690	0.911290	0.283400	0.904700
H4451	H445	0.902200	0.300400	0.890100
C6911	C691	0.921220	0.253800	0.881500
H4461	H446	0.919000	0.249400	0.850400
C6921	C692	0.934620	0.229500	0.902400
C6931	C693	0.938430	0.235300	0.946600
H4471	H447	0.948100	0.219200	0.959500
C6941	C694	0.928680	0.263700	0.973000
H4481	H448	0.931100	0.266700	0.004200
C6951	C695	0.869050	0.989400	0.693200
C6961	C696	0.880770	0.020100	0.721100
C6971	C697	0.897280	0.026700	0.707900
H4491	H449	0.901500	0.013400	0.680900
C6981	C698	0.909080	0.054700	0.735500
H4501	H450	0.921200	0.058000	0.727100
C6991	C699	0.903210	0.075100	0.771100
C7001	C700	0.884870	0.069500	0.784400
H4511	H451	0.880300	0.083600	0.810700
C7011	C701	0.874230	0.042900	0.757500
H4521	H452	0.861900	0.040200	0.764500
C7021	C702	0.915400	0.105800	0.799000
C7031	C703	0.929290	0.126600	0.781600
H4531	H453	0.932700	0.119000	0.751800
C7041	C704	0.939290	0.159300	0.804100
H4541	H454	0.948000	0.177100	0.788900
C7051	C705	0.936010	0.164400	0.848700
C7061	C706	0.921630	0.140300	0.869800
H4551	H455	0.919200	0.145400	0.900700
C7071	C707	0.911870	0.111600	0.847500
H4561	H456	0.902700	0.095000	0.862000
C7081	C708	0.075100	0.266900	0.855500
C7091	C709	0.055610	0.253500	0.858300
C7101	C710	0.043940	0.281800	0.880900
H4571	H457	0.048100	0.308400	0.895300
C7111	C711	0.025880	0.270300	0.881900
H4581	H458	0.017700	0.289600	0.897000
C7121	C712	0.019790	0.232700	0.862200
C7131	C713	0.031200	0.203800	0.839800
H4591	H459	0.026600	0.177400	0.825800
C7141	C714	0.050270	0.213800	0.837700
H4601	H460	0.058500	0.194300	0.823100
C7151	C715	0.000160	0.221600	0.863900
C7161	C716	0.988130	0.257400	0.872100
H4611	H461	0.992500	0.287200	0.876400
C7171	C717	0.970170	0.249300	0.874000
H4621	H462	0.962100	0.273600	0.878500
C7181	C718	0.963730	0.205200	0.869300
C7191	C719	0.975050	0.171100	0.861700
H4631	H463	0.970500	0.141300	0.858700
C7201	C720	0.993970	0.178500	0.858100
H4641	H464	0.001900	0.154300	0.851800
N641	N64	0.945080	0.196100	0.875200
O911	O91	0.085510	0.245670	0.830300
O921	O92	0.079480	0.299400	0.880800
O931	O93	0.867760	0.451040	0.037200
O941	O94	0.866010	0.399170	0.091000
O951	O95	0.874070	0.972920	0.659000
O961	O96	0.852490	0.981700	0.710600
Zn241	Zn24	0.854480	0.935270	0.637700
C7211	C721	0.924800	0.085100	0.456200
H4651	H465	0.936800	0.081600	0.466000
C7221	C722	0.891930	0.095700	0.428800
H4661	H466	0.880000	0.098500	0.418500
C7231	C723	0.855820	0.440000	0.383400
C7241	C724	0.920400	0.127200	0.434600
H4671	H467	0.928600	0.151100	0.429600
C7251	C725	0.796020	0.523400	0.505600
H4681	H468	0.802300	0.523500	0.533300
C7261	C726	0.913080	0.048600	0.464100
C7271	C727	0.919710	0.008300	0.488400
C7281	C728	0.834040	0.498000	0.438000
C7291	C729	0.777380	0.520600	0.503000
H4691	H469	0.770900	0.520200	0.530500
C7301	C730	0.840740	0.425000	0.405800
H4701	H470	0.837000	0.394600	0.402200
C7311	C731	0.896540	0.053500	0.451000
H4711	H471	0.887900	0.030500	0.455800
C7321	C732	0.908060	0.896900	0.641100
H4721	H472	0.900000	0.901600	0.665300
C7331	C733	0.894690	0.327700	0.263100
C7341	C734	0.885550	0.357700	0.296200
C7351	C735	0.878650	0.341200	0.335500
H4731	H473	0.880500	0.310400	0.342900
C7361	C736	0.869320	0.367700	0.363900
H4741	H474	0.864900	0.354900	0.391000
C7371	C737	0.865950	0.412900	0.355000
C7381	C738	0.874410	0.430600	0.316400
H4751	H475	0.873400	0.461900	0.310000
C7391	C739	0.884170	0.403200	0.287400
H4761	H476	0.889800	0.415800	0.261700
C7401	C740	0.920970	0.922100	0.572400
C7411	C741	0.909690	0.928500	0.610500
H4771	H477	0.903300	0.956000	0.613800
C7421	C742	0.830850	0.454200	0.433900
H4781	H478	0.821300	0.441700	0.451000
C7431	C743	0.930200	0.882800	0.569800
H4791	H479	0.937800	0.876500	0.545100
C7441	C744	0.849530	0.517100	0.413900
H4801	H480	0.852400	0.548400	0.415000
C7451	C745	0.859220	0.488100	0.390600
H4811	H481	0.869700	0.500000	0.376800
C7461	C746	0.691260	0.488800	0.466300
C7471	C747	0.711870	0.499000	0.465200
C7481	C748	0.722010	0.483100	0.429300
H4821	H482	0.716500	0.466700	0.405600
C7491	C749	0.740090	0.491400	0.428500
H4831	H483	0.747000	0.482100	0.403300
C7501	C750	0.748490	0.513400	0.464600
C7511	C751	0.737690	0.528400	0.499300
H4841	H484	0.743300	0.542700	0.524200
C7521	C752	0.720100	0.524200	0.500000
H4851	H485	0.713200	0.537700	0.523200
C7531	C753	0.768000	0.518600	0.464600
C7541	C754	0.778270	0.519300	0.424400
H4861	H486	0.772600	0.517800	0.395900
C7551	C755	0.796070	0.522000	0.427300
H4871	H487	0.802700	0.521100	0.400100
C7561	C756	0.804700	0.525800	0.464200
C7571	C757	0.927970	0.851300	0.605600
H4881	H488	0.934500	0.823800	0.604900
C7581	C758	0.922310	0.953600	0.534900
C7591	C759	0.894520	0.731300	0.667300
C7601	C760	0.883250	0.700800	0.637400
C7611	C761	0.870540	0.717400	0.608700
H4891	H489	0.868200	0.749000	0.607500
C7621	C762	0.861440	0.689000	0.582500
H4901	H490	0.853000	0.701900	0.562400
C7631	C763	0.863090	0.643900	0.581700
C7641	C764	0.876520	0.626600	0.610900
H4911	H491	0.879000	0.595100	0.611400
C7651	C765	0.885710	0.655200	0.638000
H4921	H492	0.894200	0.643000	0.658300
C7661	C766	0.852460	0.614500	0.553100
C7671	C767	0.835750	0.626100	0.534300
H4931	H493	0.830500	0.654200	0.542300
C7681	C768	0.827240	0.599700	0.506400
H4941	H494	0.816400	0.610200	0.493700
C7691	C769	0.833270	0.556900	0.494500
C7701	C770	0.849300	0.542500	0.513400
H4951	H495	0.853700	0.513100	0.506700
C7711	C771	0.859050	0.570800	0.542200
H4961	H496	0.870100	0.560700	0.554400
N651	N65	0.823950	0.529900	0.463900
N661	N66	0.917060	0.858920	0.639800
N671	N67	0.913030	0.991430	0.527000
N681	N68	0.932250	0.983500	0.472100
N691	N69	0.933790	0.948700	0.501300
N701	N70	0.899650	0.010900	0.554300
H4971	H497	0.896600	0.998000	0.579700
H4981	H498	0.894400	0.036100	0.545800
N711	N71	0.902010	0.128500	0.421800
O971	O97	0.905480	0.346730	0.235500
O981	O98	0.891830	0.286520	0.265000
O991	O99	0.902250	0.713040	0.699800
O1001	O100	0.894370	0.772550	0.657400
O1011	O101	0.686230	0.467290	0.435700
O1021	O102	0.683300	0.503400	0.499000
Zn251	Zn25	0.912670	0.809290	0.685500
Zn261	Zn26	0.906970	0.728530	0.767900
C7721	C772	0.879130	0.662900	0.803600
C7731	C773	0.867770	0.630600	0.777300
C7741	C774	0.861960	0.643300	0.735000
H4991	H499	0.865100	0.671900	0.722800
C7751	C775	0.851220	0.613000	0.710400
H5001	H500	0.847200	0.620900	0.681100
C7761	C776	0.846470	0.571900	0.728500
C7771	C777	0.851670	0.559900	0.770900
H5011	H501	0.847700	0.532200	0.783600
C7781	C778	0.863070	0.589000	0.796100
H5021	H502	0.867300	0.580400	0.824900
C7791	C779	0.835440	0.539000	0.701600
C7801	C780	0.838710	0.533400	0.654700
H5031	H503	0.847800	0.550400	0.640100
C7811	C781	0.828780	0.503800	0.631500
H5041	H504	0.831000	0.499400	0.600400
C7821	C782	0.815380	0.479500	0.652400
C7831	C783	0.811570	0.485300	0.696600
H5051	H505	0.801900	0.469200	0.709500
C7841	C784	0.821320	0.513700	0.723000
H5061	H506	0.818900	0.516700	0.754200
C7851	C785	0.880950	0.239400	0.443200
C7861	C786	0.869230	0.270100	0.471100
C7871	C787	0.852720	0.276700	0.457900
H5071	H507	0.848500	0.263400	0.430900
C7881	C788	0.840920	0.304700	0.485500
H5081	H508	0.828800	0.308000	0.477100
C7891	C789	0.846790	0.325100	0.521100
C7901	C790	0.865130	0.319500	0.534400
H5091	H509	0.869700	0.333600	0.560700
C7911	C791	0.875770	0.292900	0.507500
H5101	H510	0.888100	0.290200	0.514500
C7921	C792	0.834600	0.355800	0.549000
C7931	C793	0.820710	0.376600	0.531600
H5111	H511	0.817300	0.369000	0.501800
C7941	C794	0.810710	0.409300	0.554100
H5121	H512	0.802000	0.427100	0.538900
C7951	C795	0.813990	0.414400	0.598700
C7961	C796	0.828370	0.390300	0.619800
H5131	H513	0.830800	0.395400	0.650700
C7971	C797	0.838130	0.361600	0.597500
H5141	H514	0.847300	0.345000	0.612000
C7981	C798	0.674900	0.516900	0.605500
C7991	C799	0.694390	0.503500	0.608300
C8001	C800	0.706060	0.531800	0.630900
H5151	H515	0.701900	0.558400	0.645300
C8011	C801	0.724120	0.520300	0.631900
H5161	H516	0.732300	0.539600	0.647000
C8021	C802	0.730210	0.482700	0.612200
C8031	C803	0.718800	0.453800	0.589800
H5171	H517	0.723400	0.427400	0.575800
C8041	C804	0.699730	0.463800	0.587700
H5181	H518	0.691500	0.444300	0.573100
C8051	C805	0.749840	0.471600	0.613900
C8061	C806	0.761870	0.507400	0.622100
H5191	H519	0.757500	0.537200	0.626400
C8071	C807	0.779830	0.499300	0.624000
H5201	H520	0.787900	0.523600	0.628500
C8081	C808	0.786270	0.455200	0.619300
C8091	C809	0.774950	0.421100	0.611700
H5211	H521	0.779500	0.391300	0.608700
C8101	C810	0.756030	0.428500	0.608100
H5221	H522	0.748100	0.404300	0.601800
N721	N72	0.804920	0.446100	0.625200
O1031	O103	0.664490	0.495670	0.580300
O1041	O104	0.670520	0.549400	0.630800
O1051	O105	0.882240	0.701040	0.787200
O1061	O106	0.883990	0.649170	0.841000
O1071	O107	0.875930	0.222920	0.409000
O1081	O108	0.897510	0.231700	0.460600
Zn271	Zn27	0.895520	0.185270	0.387700
C8111	C811	0.924800	0.585100	0.956200
H5231	H523	0.936800	0.581600	0.966000
C8121	C812	0.891930	0.595700	0.928800
H5241	H524	0.880000	0.598500	0.918500
C8131	C813	0.855820	0.940000	0.883400
C8141	C814	0.920400	0.627200	0.934600
H5251	H525	0.928600	0.651100	0.929600
C8151	C815	0.796020	0.023400	0.005600
H5261	H526	0.802300	0.023500	0.033300
C8161	C816	0.913080	0.548600	0.964100
C8171	C817	0.919710	0.508300	0.988400
C8181	C818	0.834040	0.998000	0.938000
C8191	C819	0.777380	0.020600	0.003000
H5271	H527	0.770900	0.020200	0.030500
C8201	C820	0.840740	0.925000	0.905800
H5281	H528	0.837000	0.894600	0.902200
C8211	C821	0.896540	0.553500	0.951000
H5291	H529	0.887900	0.530500	0.955800
C8221	C822	0.908060	0.396900	0.141100
H5301	H530	0.900000	0.401600	0.165300
C8231	C823	0.894690	0.827700	0.763100
C8241	C824	0.885550	0.857700	0.796200
C8251	C825	0.878650	0.841200	0.835500
H5311	H531	0.880500	0.810400	0.842900
C8261	C826	0.869320	0.867700	0.863900
H5321	H532	0.864900	0.854900	0.891000
C8271	C827	0.865950	0.912900	0.855000
C8281	C828	0.874410	0.930600	0.816400
H5331	H533	0.873400	0.961900	0.810000
C8291	C829	0.884170	0.903200	0.787400
H5341	H534	0.889800	0.915800	0.761700
C8301	C830	0.920970	0.422100	0.072400
C8311	C831	0.909690	0.428500	0.110500
H5351	H535	0.903300	0.456000	0.113800
C8321	C832	0.830850	0.954200	0.933900
H5361	H536	0.821300	0.941700	0.951000
C8331	C833	0.930200	0.382800	0.069800
H5371	H537	0.937800	0.376500	0.045100
C8341	C834	0.849530	0.017100	0.913900
H5381	H538	0.852400	0.048400	0.915000
C8351	C835	0.859220	0.988100	0.890600
H5391	H539	0.869700	0.000000	0.876800
C8361	C836	0.691260	0.988800	0.966300
C8371	C837	0.711870	0.999000	0.965200
C8381	C838	0.722010	0.983100	0.929300
H5401	H540	0.716500	0.966700	0.905600
C8391	C839	0.740090	0.991400	0.928500
H5411	H541	0.747000	0.982100	0.903300
C8401	C840	0.748490	0.013400	0.964600
C8411	C841	0.737690	0.028400	0.999300
H5421	H542	0.743300	0.042700	0.024200
C8421	C842	0.720100	0.024200	0.000000
H5431	H543	0.713200	0.037700	0.023200
C8431	C843	0.768000	0.018600	0.964600
C8441	C844	0.778270	0.019300	0.924400
H5441	H544	0.772600	0.017800	0.895900
C8451	C845	0.796070	0.022000	0.927300
H5451	H545	0.802700	0.021100	0.900100
C8461	C846	0.804700	0.025800	0.964200
C8471	C847	0.927970	0.351300	0.105600
H5461	H546	0.934500	0.323800	0.104900
C8481	C848	0.922310	0.453600	0.034900
C8491	C849	0.894520	0.231300	0.167300
C8501	C850	0.883250	0.200800	0.137400
C8511	C851	0.870540	0.217400	0.108700
H5471	H547	0.868200	0.249000	0.107500
C8521	C852	0.861440	0.189000	0.082500
H5481	H548	0.853000	0.201900	0.062400
C8531	C853	0.863090	0.143900	0.081700
C8541	C854	0.876520	0.126600	0.110900
H5491	H549	0.879000	0.095100	0.111400
C8551	C855	0.885710	0.155200	0.138000
H5501	H550	0.894200	0.143000	0.158300
C8561	C856	0.852460	0.114500	0.053100
C8571	C857	0.835750	0.126100	0.034300
H5511	H551	0.830500	0.154200	0.042300
C8581	C858	0.827240	0.099700	0.006400
H5521	H552	0.816400	0.110200	0.993700
C8591	C859	0.833270	0.056900	0.994500
C8601	C860	0.849300	0.042500	0.013400
H5531	H553	0.853700	0.013100	0.006700
C8611	C861	0.859050	0.070800	0.042200
H5541	H554	0.870100	0.060700	0.054400
N731	N73	0.823950	0.029900	0.963900
N741	N74	0.917060	0.358920	0.139800
N751	N75	0.913030	0.491430	0.027000
N761	N76	0.932250	0.483500	0.972100
N771	N77	0.933790	0.448700	0.001300
N781	N78	0.899650	0.510900	0.054300
H5551	H555	0.896600	0.498000	0.079700
H5561	H556	0.894400	0.536100	0.045800
N791	N79	0.902010	0.628500	0.921800
O1091	O109	0.905480	0.846730	0.735500
O1101	O110	0.891830	0.786520	0.765000
O1111	O111	0.902250	0.213040	0.199800
O1121	O112	0.894370	0.272550	0.157400
O1131	O113	0.686230	0.967290	0.935700
O1141	O114	0.683300	0.003400	0.999000
Zn281	Zn28	0.912670	0.309290	0.185500
Zn291	Zn29	0.906970	0.228530	0.267900
C8621	C862	0.879130	0.162900	0.303600
C8631	C863	0.867770	0.130600	0.277300
C8641	C864	0.861960	0.143300	0.235000
H5571	H557	0.865100	0.171900	0.222800
C8651	C865	0.851220	0.113000	0.210400
H5581	H558	0.847200	0.120900	0.181100
C8661	C866	0.846470	0.071900	0.228500
C8671	C867	0.851670	0.059900	0.270900
H5591	H559	0.847700	0.032200	0.283600
C8681	C868	0.863070	0.089000	0.296100
H5601	H560	0.867300	0.080400	0.324900
C8691	C869	0.835440	0.039000	0.201600
C8701	C870	0.838710	0.033400	0.154700
H5611	H561	0.847800	0.050400	0.140100
C8711	C871	0.828780	0.003800	0.131500
H5621	H562	0.831000	0.999400	0.100400
C8721	C872	0.815380	0.979500	0.152400
C8731	C873	0.811570	0.985300	0.196600
H5631	H563	0.801900	0.969200	0.209500
C8741	C874	0.821320	0.013700	0.223000
H5641	H564	0.818900	0.016700	0.254200
C8751	C875	0.880950	0.739400	0.943200
C8761	C876	0.869230	0.770100	0.971100
C8771	C877	0.852720	0.776700	0.957900
H5651	H565	0.848500	0.763400	0.930900
C8781	C878	0.840920	0.804700	0.985500
H5661	H566	0.828800	0.808000	0.977100
C8791	C879	0.846790	0.825100	0.021100
C8801	C880	0.865130	0.819500	0.034400
H5671	H567	0.869700	0.833600	0.060700
C8811	C881	0.875770	0.792900	0.007500
H5681	H568	0.888100	0.790200	0.014500
C8821	C882	0.834600	0.855800	0.049000
C8831	C883	0.820710	0.876600	0.031600
H5691	H569	0.817300	0.869000	0.001800
C8841	C884	0.810710	0.909300	0.054100
H5701	H570	0.802000	0.927100	0.038900
C8851	C885	0.813990	0.914400	0.098700
C8861	C886	0.828370	0.890300	0.119800
H5711	H571	0.830800	0.895400	0.150700
C8871	C887	0.838130	0.861600	0.097500
H5721	H572	0.847300	0.845000	0.112000
C8881	C888	0.674900	0.016900	0.105500
C8891	C889	0.694390	0.003500	0.108300
C8901	C890	0.706060	0.031800	0.130900
H5731	H573	0.701900	0.058400	0.145300
C8911	C891	0.724120	0.020300	0.131900
H5741	H574	0.732300	0.039600	0.147000
C8921	C892	0.730210	0.982700	0.112200
C8931	C893	0.718800	0.953800	0.089800
H5751	H575	0.723400	0.927400	0.075800
C8941	C894	0.699730	0.963800	0.087700
H5761	H576	0.691500	0.944300	0.073100
C8951	C895	0.749840	0.971600	0.113900
C8961	C896	0.761870	0.007400	0.122100
H5771	H577	0.757500	0.037200	0.126400
C8971	C897	0.779830	0.999300	0.124000
H5781	H578	0.787900	0.023600	0.128500
C8981	C898	0.786270	0.955200	0.119300
C8991	C899	0.774950	0.921100	0.111700
H5791	H579	0.779500	0.891300	0.108700
C9001	C900	0.756030	0.928500	0.108100
H5801	H580	0.748100	0.904300	0.101800
N801	N80	0.804920	0.946100	0.125200
O1151	O115	0.664490	0.995670	0.080300
O1161	O116	0.670520	0.049400	0.130800
O1171	O117	0.882240	0.201040	0.287200
O1181	O118	0.883990	0.149170	0.341000
O1191	O119	0.875930	0.722920	0.909000
O1201	O120	0.897510	0.731700	0.960600
Zn301	Zn30	0.895520	0.685270	0.887700
C9011	C901	0.424800	0.085100	0.956200
H5811	H581	0.436800	0.081600	0.966000
C9021	C902	0.391930	0.095700	0.928800
H5821	H582	0.380000	0.098500	0.918500
C9031	C903	0.355820	0.440000	0.883400
C9041	C904	0.420400	0.127200	0.934600
H5831	H583	0.428600	0.151100	0.929600
C9051	C905	0.296020	0.523400	0.005600
H5841	H584	0.302300	0.523500	0.033300
C9061	C906	0.413080	0.048600	0.964100
C9071	C907	0.419710	0.008300	0.988400
C9081	C908	0.334040	0.498000	0.938000
C9091	C909	0.277380	0.520600	0.003000
H5851	H585	0.270900	0.520200	0.030500
C9101	C910	0.340740	0.425000	0.905800
H5861	H586	0.337000	0.394600	0.902200
C9111	C911	0.396540	0.053500	0.951000
H5871	H587	0.387900	0.030500	0.955800
C9121	C912	0.408060	0.896900	0.141100
H5881	H588	0.400000	0.901600	0.165300
C9131	C913	0.394690	0.327700	0.763100
C9141	C914	0.385550	0.357700	0.796200
C9151	C915	0.378650	0.341200	0.835500
H5891	H589	0.380500	0.310400	0.842900
C9161	C916	0.369320	0.367700	0.863900
H5901	H590	0.364900	0.354900	0.891000
C9171	C917	0.365950	0.412900	0.855000
C9181	C918	0.374410	0.430600	0.816400
H5911	H591	0.373400	0.461900	0.810000
C9191	C919	0.384170	0.403200	0.787400
H5921	H592	0.389800	0.415800	0.761700
C9201	C920	0.420970	0.922100	0.072400
C9211	C921	0.409690	0.928500	0.110500
H5931	H593	0.403300	0.956000	0.113800
C9221	C922	0.330850	0.454200	0.933900
H5941	H594	0.321300	0.441700	0.951000
C9231	C923	0.430200	0.882800	0.069800
H5951	H595	0.437800	0.876500	0.045100
C9241	C924	0.349530	0.517100	0.913900
H5961	H596	0.352400	0.548400	0.915000
C9251	C925	0.359220	0.488100	0.890600
H5971	H597	0.369700	0.500000	0.876800
C9261	C926	0.191260	0.488800	0.966300
C9271	C927	0.211870	0.499000	0.965200
C9281	C928	0.222010	0.483100	0.929300
H5981	H598	0.216500	0.466700	0.905600
C9291	C929	0.240090	0.491400	0.928500
H5991	H599	0.247000	0.482100	0.903300
C9301	C930	0.248490	0.513400	0.964600
C9311	C931	0.237690	0.528400	0.999300
H6001	H600	0.243300	0.542700	0.024200
C9321	C932	0.220100	0.524200	0.000000
H6011	H601	0.213200	0.537700	0.023200
C9331	C933	0.268000	0.518600	0.964600
C9341	C934	0.278270	0.519300	0.924400
H6021	H602	0.272600	0.517800	0.895900
C9351	C935	0.296070	0.522000	0.927300
H6031	H603	0.302700	0.521100	0.900100
C9361	C936	0.304700	0.525800	0.964200
C9371	C937	0.427970	0.851300	0.105600
H6041	H604	0.434500	0.823800	0.104900
C9381	C938	0.422310	0.953600	0.034900
C9391	C939	0.394520	0.731300	0.167300
C9401	C940	0.383250	0.700800	0.137400
C9411	C941	0.370540	0.717400	0.108700
H6051	H605	0.368200	0.749000	0.107500
C9421	C942	0.361440	0.689000	0.082500
H6061	H606	0.353000	0.701900	0.062400
C9431	C943	0.363090	0.643900	0.081700
C9441	C944	0.376520	0.626600	0.110900
H6071	H607	0.379000	0.595100	0.111400
C9451	C945	0.385710	0.655200	0.138000
H6081	H608	0.394200	0.643000	0.158300
C9461	C946	0.352460	0.614500	0.053100
C9471	C947	0.335750	0.626100	0.034300
H6091	H609	0.330500	0.654200	0.042300
C9481	C948	0.327240	0.599700	0.006400
H6101	H610	0.316400	0.610200	0.993700
C9491	C949	0.333270	0.556900	0.994500
C9501	C950	0.349300	0.542500	0.013400
H6111	H611	0.353700	0.513100	0.006700
C9511	C951	0.359050	0.570800	0.042200
H6121	H612	0.370100	0.560700	0.054400
N811	N81	0.323950	0.529900	0.963900
N821	N82	0.417060	0.858920	0.139800
N831	N83	0.413030	0.991430	0.027000
N841	N84	0.432250	0.983500	0.972100
N851	N85	0.433790	0.948700	0.001300
N861	N86	0.399650	0.010900	0.054300
H6131	H613	0.396600	0.998000	0.079700
H6141	H614	0.394400	0.036100	0.045800
N871	N87	0.402010	0.128500	0.921800
O1211	O121	0.405480	0.346730	0.735500
O1221	O122	0.391830	0.286520	0.765000
O1231	O123	0.402250	0.713040	0.199800
O1241	O124	0.394370	0.772550	0.157400
O1251	O125	0.186230	0.467290	0.935700
O1261	O126	0.183300	0.503400	0.999000
Zn311	Zn31	0.412670	0.809290	0.185500
Zn321	Zn32	0.406970	0.728530	0.267900
C9521	C952	0.379130	0.662900	0.303600
C9531	C953	0.367770	0.630600	0.277300
C9541	C954	0.361960	0.643300	0.235000
H6151	H615	0.365100	0.671900	0.222800
C9551	C955	0.351220	0.613000	0.210400
H6161	H616	0.347200	0.620900	0.181100
C9561	C956	0.346470	0.571900	0.228500
C9571	C957	0.351670	0.559900	0.270900
H6171	H617	0.347700	0.532200	0.283600
C9581	C958	0.363070	0.589000	0.296100
H6181	H618	0.367300	0.580400	0.324900
C9591	C959	0.335440	0.539000	0.201600
C9601	C960	0.338710	0.533400	0.154700
H6191	H619	0.347800	0.550400	0.140100
C9611	C961	0.328780	0.503800	0.131500
H6201	H620	0.331000	0.499400	0.100400
C9621	C962	0.315380	0.479500	0.152400
C9631	C963	0.311570	0.485300	0.196600
H6211	H621	0.301900	0.469200	0.209500
C9641	C964	0.321320	0.513700	0.223000
H6221	H622	0.318900	0.516700	0.254200
C9651	C965	0.380950	0.239400	0.943200
C9661	C966	0.369230	0.270100	0.971100
C9671	C967	0.352720	0.276700	0.957900
H6231	H623	0.348500	0.263400	0.930900
C9681	C968	0.340920	0.304700	0.985500
H6241	H624	0.328800	0.308000	0.977100
C9691	C969	0.346790	0.325100	0.021100
C9701	C970	0.365130	0.319500	0.034400
H6251	H625	0.369700	0.333600	0.060700
C9711	C971	0.375770	0.292900	0.007500
H6261	H626	0.388100	0.290200	0.014500
C9721	C972	0.334600	0.355800	0.049000
C9731	C973	0.320710	0.376600	0.031600
H6271	H627	0.317300	0.369000	0.001800
C9741	C974	0.310710	0.409300	0.054100
H6281	H628	0.302000	0.427100	0.038900
C9751	C975	0.313990	0.414400	0.098700
C9761	C976	0.328370	0.390300	0.119800
H6291	H629	0.330800	0.395400	0.150700
C9771	C977	0.338130	0.361600	0.097500
H6301	H630	0.347300	0.345000	0.112000
C9781	C978	0.174900	0.516900	0.105500
C9791	C979	0.194390	0.503500	0.108300
C9801	C980	0.206060	0.531800	0.130900
H6311	H631	0.201900	0.558400	0.145300
C9811	C981	0.224120	0.520300	0.131900
H6321	H632	0.232300	0.539600	0.147000
C9821	C982	0.230210	0.482700	0.112200
C9831	C983	0.218800	0.453800	0.089800
H6331	H633	0.223400	0.427400	0.075800
C9841	C984	0.199730	0.463800	0.087700
H6341	H634	0.191500	0.444300	0.073100
C9851	C985	0.249840	0.471600	0.113900
C9861	C986	0.261870	0.507400	0.122100
H6351	H635	0.257500	0.537200	0.126400
C9871	C987	0.279830	0.499300	0.124000
H6361	H636	0.287900	0.523600	0.128500
C9881	C988	0.286270	0.455200	0.119300
C9891	C989	0.274950	0.421100	0.111700
H6371	H637	0.279500	0.391300	0.108700
C9901	C990	0.256030	0.428500	0.108100
H6381	H638	0.248100	0.404300	0.101800
N881	N88	0.304920	0.446100	0.125200
O1271	O127	0.164490	0.495670	0.080300
O1281	O128	0.170520	0.549400	0.130800
O1291	O129	0.382240	0.701040	0.287200
O1301	O130	0.383990	0.649170	0.341000
O1311	O131	0.375930	0.222920	0.909000
O1321	O132	0.397510	0.231700	0.960600
Zn331	Zn33	0.395520	0.185270	0.887700
C9911	C991	0.424800	0.585100	0.456200
H6391	H639	0.436800	0.581600	0.466000
C9921	C992	0.391930	0.595700	0.428800
H6401	H640	0.380000	0.598500	0.418500
C9931	C993	0.355820	0.940000	0.383400
C9941	C994	0.420400	0.627200	0.434600
H6411	H641	0.428600	0.651100	0.429600
C9951	C995	0.296020	0.023400	0.505600
H6421	H642	0.302300	0.023500	0.533300
C9961	C996	0.413080	0.548600	0.464100
C9971	C997	0.419710	0.508300	0.488400
C9981	C998	0.334040	0.998000	0.438000
C9991	C999	0.277380	0.020600	0.503000
H6431	H643	0.270900	0.020200	0.530500
C10001	C1000	0.340740	0.925000	0.405800
H6441	H644	0.337000	0.894600	0.402200
C10011	C1001	0.396540	0.553500	0.451000
H6451	H645	0.387900	0.530500	0.455800
C10021	C1002	0.408060	0.396900	0.641100
H6461	H646	0.400000	0.401600	0.665300
C10031	C1003	0.394690	0.827700	0.263100
C10041	C1004	0.385550	0.857700	0.296200
C10051	C1005	0.378650	0.841200	0.335500
H6471	H647	0.380500	0.810400	0.342900
C10061	C1006	0.369320	0.867700	0.363900
H6481	H648	0.364900	0.854900	0.391000
C10071	C1007	0.365950	0.912900	0.355000
C10081	C1008	0.374410	0.930600	0.316400
H6491	H649	0.373400	0.961900	0.310000
C10091	C1009	0.384170	0.903200	0.287400
H6501	H650	0.389800	0.915800	0.261700
C10101	C1010	0.420970	0.422100	0.572400
C10111	C1011	0.409690	0.428500	0.610500
H6511	H651	0.403300	0.456000	0.613800
C10121	C1012	0.330850	0.954200	0.433900
H6521	H652	0.321300	0.941700	0.451000
C10131	C1013	0.430200	0.382800	0.569800
H6531	H653	0.437800	0.376500	0.545100
C10141	C1014	0.349530	0.017100	0.413900
H6541	H654	0.352400	0.048400	0.415000
C10151	C1015	0.359220	0.988100	0.390600
H6551	H655	0.369700	0.000000	0.376800
C10161	C1016	0.191260	0.988800	0.466300
C10171	C1017	0.211870	0.999000	0.465200
C10181	C1018	0.222010	0.983100	0.429300
H6561	H656	0.216500	0.966700	0.405600
C10191	C1019	0.240090	0.991400	0.428500
H6571	H657	0.247000	0.982100	0.403300
C10201	C1020	0.248490	0.013400	0.464600
C10211	C1021	0.237690	0.028400	0.499300
H6581	H658	0.243300	0.042700	0.524200
C10221	C1022	0.220100	0.024200	0.500000
H6591	H659	0.213200	0.037700	0.523200
C10231	C1023	0.268000	0.018600	0.464600
C10241	C1024	0.278270	0.019300	0.424400
H6601	H660	0.272600	0.017800	0.395900
C10251	C1025	0.296070	0.022000	0.427300
H6611	H661	0.302700	0.021100	0.400100
C10261	C1026	0.304700	0.025800	0.464200
C10271	C1027	0.427970	0.351300	0.605600
H6621	H662	0.434500	0.323800	0.604900
C10281	C1028	0.422310	0.453600	0.534900
C10291	C1029	0.394520	0.231300	0.667300
C10301	C1030	0.383250	0.200800	0.637400
C10311	C1031	0.370540	0.217400	0.608700
H6631	H663	0.368200	0.249000	0.607500
C10321	C1032	0.361440	0.189000	0.582500
H6641	H664	0.353000	0.201900	0.562400
C10331	C1033	0.363090	0.143900	0.581700
C10341	C1034	0.376520	0.126600	0.610900
H6651	H665	0.379000	0.095100	0.611400
C10351	C1035	0.385710	0.155200	0.638000
H6661	H666	0.394200	0.143000	0.658300
C10361	C1036	0.352460	0.114500	0.553100
C10371	C1037	0.335750	0.126100	0.534300
H6671	H667	0.330500	0.154200	0.542300
C10381	C1038	0.327240	0.099700	0.506400
H6681	H668	0.316400	0.110200	0.493700
C10391	C1039	0.333270	0.056900	0.494500
C10401	C1040	0.349300	0.042500	0.513400
H6691	H669	0.353700	0.013100	0.506700
C10411	C1041	0.359050	0.070800	0.542200
H6701	H670	0.370100	0.060700	0.554400
N891	N89	0.323950	0.029900	0.463900
N901	N90	0.417060	0.358920	0.639800
N911	N91	0.413030	0.491430	0.527000
N921	N92	0.432250	0.483500	0.472100
N931	N93	0.433790	0.448700	0.501300
N941	N94	0.399650	0.510900	0.554300
H6711	H671	0.396600	0.498000	0.579700
H6721	H672	0.394400	0.536100	0.545800
N951	N95	0.402010	0.628500	0.421800
O1331	O133	0.405480	0.846730	0.235500
O1341	O134	0.391830	0.786520	0.265000
O1351	O135	0.402250	0.213040	0.699800
O1361	O136	0.394370	0.272550	0.657400
O1371	O137	0.186230	0.967290	0.435700
O1381	O138	0.183300	0.003400	0.499000
Zn341	Zn34	0.412670	0.309290	0.685500
Zn351	Zn35	0.406970	0.228530	0.767900
C10421	C1042	0.379130	0.162900	0.803600
C10431	C1043	0.367770	0.130600	0.777300
C10441	C1044	0.361960	0.143300	0.735000
H6731	H673	0.365100	0.171900	0.722800
C10451	C1045	0.351220	0.113000	0.710400
H6741	H674	0.347200	0.120900	0.681100
C10461	C1046	0.346470	0.071900	0.728500
C10471	C1047	0.351670	0.059900	0.770900
H6751	H675	0.347700	0.032200	0.783600
C10481	C1048	0.363070	0.089000	0.796100
H6761	H676	0.367300	0.080400	0.824900
C10491	C1049	0.335440	0.039000	0.701600
C10501	C1050	0.338710	0.033400	0.654700
H6771	H677	0.347800	0.050400	0.640100
C10511	C1051	0.328780	0.003800	0.631500
H6781	H678	0.331000	0.999400	0.600400
C10521	C1052	0.315380	0.979500	0.652400
C10531	C1053	0.311570	0.985300	0.696600
H6791	H679	0.301900	0.969200	0.709500
C10541	C1054	0.321320	0.013700	0.723000
H6801	H680	0.318900	0.016700	0.754200
C10551	C1055	0.380950	0.739400	0.443200
C10561	C1056	0.369230	0.770100	0.471100
C10571	C1057	0.352720	0.776700	0.457900
H6811	H681	0.348500	0.763400	0.430900
C10581	C1058	0.340920	0.804700	0.485500
H6821	H682	0.328800	0.808000	0.477100
C10591	C1059	0.346790	0.825100	0.521100
C10601	C1060	0.365130	0.819500	0.534400
H6831	H683	0.369700	0.833600	0.560700
C10611	C1061	0.375770	0.792900	0.507500
H6841	H684	0.388100	0.790200	0.514500
C10621	C1062	0.334600	0.855800	0.549000
C10631	C1063	0.320710	0.876600	0.531600
H6851	H685	0.317300	0.869000	0.501800
C10641	C1064	0.310710	0.909300	0.554100
H6861	H686	0.302000	0.927100	0.538900
C10651	C1065	0.313990	0.914400	0.598700
C10661	C1066	0.328370	0.890300	0.619800
H6871	H687	0.330800	0.895400	0.650700
C10671	C1067	0.338130	0.861600	0.597500
H6881	H688	0.347300	0.845000	0.612000
C10681	C1068	0.174900	0.016900	0.605500
C10691	C1069	0.194390	0.003500	0.608300
C10701	C1070	0.206060	0.031800	0.630900
H6891	H689	0.201900	0.058400	0.645300
C10711	C1071	0.224120	0.020300	0.631900
H6901	H690	0.232300	0.039600	0.647000
C10721	C1072	0.230210	0.982700	0.612200
C10731	C1073	0.218800	0.953800	0.589800
H6911	H691	0.223400	0.927400	0.575800
C10741	C1074	0.199730	0.963800	0.587700
H6921	H692	0.191500	0.944300	0.573100
C10751	C1075	0.249840	0.971600	0.613900
C10761	C1076	0.261870	0.007400	0.622100
H6931	H693	0.257500	0.037200	0.626400
C10771	C1077	0.279830	0.999300	0.624000
H6941	H694	0.287900	0.023600	0.628500
C10781	C1078	0.286270	0.955200	0.619300
C10791	C1079	0.274950	0.921100	0.611700
H6951	H695	0.279500	0.891300	0.608700
C10801	C1080	0.256030	0.928500	0.608100
H6961	H696	0.248100	0.904300	0.601800
N961	N96	0.304920	0.946100	0.625200
O1391	O139	0.164490	0.995670	0.580300
O1401	O140	0.170520	0.049400	0.630800
O1411	O141	0.382240	0.201040	0.787200
O1421	O142	0.383990	0.149170	0.841000
O1431	O143	0.375930	0.722920	0.409000
O1441	O144	0.397510	0.731700	0.460600
Zn361	Zn36	0.395520	0.685270	0.387700
C10811	C1081	0.174800	0.164900	0.706200
H6971	H697	0.186800	0.168400	0.716000
C10821	C1082	0.141930	0.154300	0.678800
H6981	H698	0.130000	0.151500	0.668500
C10831	C1083	0.105820	0.810000	0.633400
C10841	C1084	0.170400	0.122800	0.684600
H6991	H699	0.178600	0.098900	0.679600
C10851	C1085	0.046020	0.726600	0.755600
H7001	H700	0.052300	0.726500	0.783300
C10861	C1086	0.163080	0.201400	0.714100
C10871	C1087	0.169710	0.241700	0.738400
C10881	C1088	0.084040	0.752000	0.688000
C10891	C1089	0.027380	0.729400	0.753000
H7011	H701	0.020900	0.729800	0.780500
C10901	C1090	0.090740	0.825000	0.655800
H7021	H702	0.087000	0.855400	0.652200
C10911	C1091	0.146540	0.196500	0.701000
H7031	H703	0.137900	0.219500	0.705800
C10921	C1092	0.158060	0.353100	0.891100
H7041	H704	0.150000	0.348400	0.915300
C10931	C1093	0.144690	0.922300	0.513100
C10941	C1094	0.135550	0.892300	0.546200
C10951	C1095	0.128650	0.908800	0.585500
H7051	H705	0.130500	0.939600	0.592900
C10961	C1096	0.119320	0.882300	0.613900
H7061	H706	0.114900	0.895100	0.641000
C10971	C1097	0.115950	0.837100	0.605000
C10981	C1098	0.124410	0.819400	0.566400
H7071	H707	0.123400	0.788100	0.560000
C10991	C1099	0.134170	0.846800	0.537400
H7081	H708	0.139800	0.834200	0.511700
C11001	C1100	0.170970	0.327900	0.822400
C11011	C1101	0.159690	0.321500	0.860500
H7091	H709	0.153300	0.294000	0.863800
C11021	C1102	0.080850	0.795800	0.683900
H7101	H710	0.071300	0.808300	0.701000
C11031	C1103	0.180200	0.367200	0.819800
H7111	H711	0.187800	0.373500	0.795100
C11041	C1104	0.099530	0.732900	0.663900
H7121	H712	0.102400	0.701600	0.665000
C11051	C1105	0.109220	0.761900	0.640600
H7131	H713	0.119700	0.750000	0.626800
C11061	C1106	0.941260	0.761200	0.716300
C11071	C1107	0.961870	0.751000	0.715200
C11081	C1108	0.972010	0.766900	0.679300
H7141	H714	0.966500	0.783300	0.655600
C11091	C1109	0.990090	0.758600	0.678500
H7151	H715	0.997000	0.767900	0.653300
C11101	C1110	0.998490	0.736600	0.714600
C11111	C1111	0.987690	0.721600	0.749300
H7161	H716	0.993300	0.707300	0.774200
C11121	C1112	0.970100	0.725800	0.750000
H7171	H717	0.963200	0.712300	0.773200
C11131	C1113	0.018000	0.731400	0.714600
C11141	C1114	0.028270	0.730700	0.674400
H7181	H718	0.022600	0.732200	0.645900
C11151	C1115	0.046070	0.728000	0.677300
H7191	H719	0.052700	0.728900	0.650100
C11161	C1116	0.054700	0.724200	0.714200
C11171	C1117	0.177970	0.398700	0.855600
H7201	H720	0.184500	0.426200	0.854900
C11181	C1118	0.172310	0.296400	0.784900
C11191	C1119	0.144520	0.518700	0.917300
C11201	C1120	0.133250	0.549200	0.887400
C11211	C1121	0.120540	0.532600	0.858700
H7211	H721	0.118200	0.501000	0.857500
C11221	C1122	0.111440	0.561000	0.832500
H7221	H722	0.103000	0.548100	0.812400
C11231	C1123	0.113090	0.606100	0.831700
C11241	C1124	0.126520	0.623400	0.860900
H7231	H723	0.129000	0.654900	0.861400
C11251	C1125	0.135710	0.594800	0.888000
H7241	H724	0.144200	0.607000	0.908300
C11261	C1126	0.102460	0.635500	0.803100
C11271	C1127	0.085750	0.623900	0.784300
H7251	H725	0.080500	0.595800	0.792300
C11281	C1128	0.077240	0.650300	0.756400
H7261	H726	0.066400	0.639800	0.743700
C11291	C1129	0.083270	0.693100	0.744500
C11301	C1130	0.099300	0.707500	0.763400
H7271	H727	0.103700	0.736900	0.756700
C11311	C1131	0.109050	0.679200	0.792200
H7281	H728	0.120100	0.689300	0.804400
N971	N97	0.073950	0.720100	0.713900
N981	N98	0.167060	0.391080	0.889800
N991	N99	0.163030	0.258570	0.777000
N1001	N100	0.182250	0.266500	0.722100
N1011	N101	0.183790	0.301300	0.751300
N1021	N102	0.149650	0.239100	0.804300
H7291	H729	0.146600	0.252000	0.829700
H7301	H730	0.144400	0.213900	0.795800
N1031	N103	0.152010	0.121500	0.671800
O1451	O145	0.155480	0.903270	0.485500
O1461	O146	0.141830	0.963480	0.515000
O1471	O147	0.152250	0.536960	0.949800
O1481	O148	0.144370	0.477450	0.907400
O1491	O149	0.936230	0.782710	0.685700
O1501	O150	0.933300	0.746600	0.749000
Zn371	Zn37	0.162670	0.440710	0.935500
Zn381	Zn38	0.156970	0.521470	0.017900
C11321	C1132	0.129130	0.587100	0.053600
C11331	C1133	0.117770	0.619400	0.027300
C11341	C1134	0.111960	0.606700	0.985000
H7311	H731	0.115100	0.578100	0.972800
C11351	C1135	0.101220	0.637000	0.960400
H7321	H732	0.097200	0.629100	0.931100
C11361	C1136	0.096470	0.678100	0.978500
C11371	C1137	0.101670	0.690100	0.020900
H7331	H733	0.097700	0.717800	0.033600
C11381	C1138	0.113070	0.661000	0.046100
H7341	H734	0.117300	0.669600	0.074900
C11391	C1139	0.085440	0.711000	0.951600
C11401	C1140	0.088710	0.716600	0.904700
H7351	H735	0.097800	0.699600	0.890100
C11411	C1141	0.078780	0.746200	0.881500
H7361	H736	0.081000	0.750600	0.850400
C11421	C1142	0.065380	0.770500	0.902400
C11431	C1143	0.061570	0.764700	0.946600
H7371	H737	0.051900	0.780800	0.959500
C11441	C1144	0.071320	0.736300	0.973000
H7381	H738	0.068900	0.733300	0.004200
C11451	C1145	0.130950	0.010600	0.693200
C11461	C1146	0.119230	0.979900	0.721100
C11471	C1147	0.102720	0.973300	0.707900
H7391	H739	0.098500	0.986600	0.680900
C11481	C1148	0.090920	0.945300	0.735500
H7401	H740	0.078800	0.942000	0.727100
C11491	C1149	0.096790	0.924900	0.771100
C11501	C1150	0.115130	0.930500	0.784400
H7411	H741	0.119700	0.916400	0.810700
C11511	C1151	0.125770	0.957100	0.757500
H7421	H742	0.138100	0.959800	0.764500
C11521	C1152	0.084600	0.894200	0.799000
C11531	C1153	0.070710	0.873400	0.781600
H7431	H743	0.067300	0.881000	0.751800
C11541	C1154	0.060710	0.840700	0.804100
H7441	H744	0.052000	0.822900	0.788900
C11551	C1155	0.063990	0.835600	0.848700
C11561	C1156	0.078370	0.859700	0.869800
H7451	H745	0.080800	0.854600	0.900700
C11571	C1157	0.088130	0.888400	0.847500
H7461	H746	0.097300	0.905000	0.862000
C11581	C1158	0.924900	0.733100	0.855500
C11591	C1159	0.944390	0.746500	0.858300
C11601	C1160	0.956060	0.718200	0.880900
H7471	H747	0.951900	0.691600	0.895300
C11611	C1161	0.974120	0.729700	0.881900
H7481	H748	0.982300	0.710400	0.897000
C11621	C1162	0.980210	0.767300	0.862200
C11631	C1163	0.968800	0.796200	0.839800
H7491	H749	0.973400	0.822600	0.825800
C11641	C1164	0.949730	0.786200	0.837700
H7501	H750	0.941500	0.805700	0.823100
C11651	C1165	0.999840	0.778400	0.863900
C11661	C1166	0.011870	0.742600	0.872100
H7511	H751	0.007500	0.712800	0.876400
C11671	C1167	0.029830	0.750700	0.874000
H7521	H752	0.037900	0.726400	0.878500
C11681	C1168	0.036270	0.794800	0.869300
C11691	C1169	0.024950	0.828900	0.861700
H7531	H753	0.029500	0.858700	0.858700
C11701	C1170	0.006030	0.821500	0.858100
H7541	H754	0.998100	0.845700	0.851800
N1041	N104	0.054920	0.803900	0.875200
O1511	O151	0.914490	0.754330	0.830300
O1521	O152	0.920520	0.700600	0.880800
O1531	O153	0.132240	0.548960	0.037200
O1541	O154	0.133990	0.600830	0.091000
O1551	O155	0.125930	0.027080	0.659000
O1561	O156	0.147510	0.018300	0.710600
Zn391	Zn39	0.145520	0.064730	0.637700
C11711	C1171	0.174800	0.664900	0.206200
H7551	H755	0.186800	0.668400	0.216000
C11721	C1172	0.141930	0.654300	0.178800
H7561	H756	0.130000	0.651500	0.168500
C11731	C1173	0.105820	0.310000	0.133400
C11741	C1174	0.170400	0.622800	0.184600
H7571	H757	0.178600	0.598900	0.179600
C11751	C1175	0.046020	0.226600	0.255600
H7581	H758	0.052300	0.226500	0.283300
C11761	C1176	0.163080	0.701400	0.214100
C11771	C1177	0.169710	0.741700	0.238400
C11781	C1178	0.084040	0.252000	0.188000
C11791	C1179	0.027380	0.229400	0.253000
H7591	H759	0.020900	0.229800	0.280500
C11801	C1180	0.090740	0.325000	0.155800
H7601	H760	0.087000	0.355400	0.152200
C11811	C1181	0.146540	0.696500	0.201000
H7611	H761	0.137900	0.719500	0.205800
C11821	C1182	0.158060	0.853100	0.391100
H7621	H762	0.150000	0.848400	0.415300
C11831	C1183	0.144690	0.422300	0.013100
C11841	C1184	0.135550	0.392300	0.046200
C11851	C1185	0.128650	0.408800	0.085500
H7631	H763	0.130500	0.439600	0.092900
C11861	C1186	0.119320	0.382300	0.113900
H7641	H764	0.114900	0.395100	0.141000
C11871	C1187	0.115950	0.337100	0.105000
C11881	C1188	0.124410	0.319400	0.066400
H7651	H765	0.123400	0.288100	0.060000
C11891	C1189	0.134170	0.346800	0.037400
H7661	H766	0.139800	0.334200	0.011700
C11901	C1190	0.170970	0.827900	0.322400
C11911	C1191	0.159690	0.821500	0.360500
H7671	H767	0.153300	0.794000	0.363800
C11921	C1192	0.080850	0.295800	0.183900
H7681	H768	0.071300	0.308300	0.201000
C11931	C1193	0.180200	0.867200	0.319800
H7691	H769	0.187800	0.873500	0.295100
C11941	C1194	0.099530	0.232900	0.163900
H7701	H770	0.102400	0.201600	0.165000
C11951	C1195	0.109220	0.261900	0.140600
H7711	H771	0.119700	0.250000	0.126800
C11961	C1196	0.941260	0.261200	0.216300
C11971	C1197	0.961870	0.251000	0.215200
C11981	C1198	0.972010	0.266900	0.179300
H7721	H772	0.966500	0.283300	0.155600
C11991	C1199	0.990090	0.258600	0.178500
H7731	H773	0.997000	0.267900	0.153300
C12001	C1200	0.998490	0.236600	0.214600
C12011	C1201	0.987690	0.221600	0.249300
H7741	H774	0.993300	0.207300	0.274200
C12021	C1202	0.970100	0.225800	0.250000
H7751	H775	0.963200	0.212300	0.273200
C12031	C1203	0.018000	0.231400	0.214600
C12041	C1204	0.028270	0.230700	0.174400
H7761	H776	0.022600	0.232200	0.145900
C12051	C1205	0.046070	0.228000	0.177300
H7771	H777	0.052700	0.228900	0.150100
C12061	C1206	0.054700	0.224200	0.214200
C12071	C1207	0.177970	0.898700	0.355600
H7781	H778	0.184500	0.926200	0.354900
C12081	C1208	0.172310	0.796400	0.284900
C12091	C1209	0.144520	0.018700	0.417300
C12101	C1210	0.133250	0.049200	0.387400
C12111	C1211	0.120540	0.032600	0.358700
H7791	H779	0.118200	0.001000	0.357500
C12121	C1212	0.111440	0.061000	0.332500
H7801	H780	0.103000	0.048100	0.312400
C12131	C1213	0.113090	0.106100	0.331700
C12141	C1214	0.126520	0.123400	0.360900
H7811	H781	0.129000	0.154900	0.361400
C12151	C1215	0.135710	0.094800	0.388000
H7821	H782	0.144200	0.107000	0.408300
C12161	C1216	0.102460	0.135500	0.303100
C12171	C1217	0.085750	0.123900	0.284300
H7831	H783	0.080500	0.095800	0.292300
C12181	C1218	0.077240	0.150300	0.256400
H7841	H784	0.066400	0.139800	0.243700
C12191	C1219	0.083270	0.193100	0.244500
C12201	C1220	0.099300	0.207500	0.263400
H7851	H785	0.103700	0.236900	0.256700
C12211	C1221	0.109050	0.179200	0.292200
H7861	H786	0.120100	0.189300	0.304400
N1051	N105	0.073950	0.220100	0.213900
N1061	N106	0.167060	0.891080	0.389800
N1071	N107	0.163030	0.758570	0.277000
N1081	N108	0.182250	0.766500	0.222100
N1091	N109	0.183790	0.801300	0.251300
N1101	N110	0.149650	0.739100	0.304300
H7871	H787	0.146600	0.752000	0.329700
H7881	H788	0.144400	0.713900	0.295800
N1111	N111	0.152010	0.621500	0.171800
O1571	O157	0.155480	0.403270	0.985500
O1581	O158	0.141830	0.463480	0.015000
O1591	O159	0.152250	0.036960	0.449800
O1601	O160	0.144370	0.977450	0.407400
O1611	O161	0.936230	0.282710	0.185700
O1621	O162	0.933300	0.246600	0.249000
Zn401	Zn40	0.162670	0.940710	0.435500
Zn411	Zn41	0.156970	0.021470	0.517900
C12221	C1222	0.129130	0.087100	0.553600
C12231	C1223	0.117770	0.119400	0.527300
C12241	C1224	0.111960	0.106700	0.485000
H7891	H789	0.115100	0.078100	0.472800
C12251	C1225	0.101220	0.137000	0.460400
H7901	H790	0.097200	0.129100	0.431100
C12261	C1226	0.096470	0.178100	0.478500
C12271	C1227	0.101670	0.190100	0.520900
H7911	H791	0.097700	0.217800	0.533600
C12281	C1228	0.113070	0.161000	0.546100
H7921	H792	0.117300	0.169600	0.574900
C12291	C1229	0.085440	0.211000	0.451600
C12301	C1230	0.088710	0.216600	0.404700
H7931	H793	0.097800	0.199600	0.390100
C12311	C1231	0.078780	0.246200	0.381500
H7941	H794	0.081000	0.250600	0.350400
C12321	C1232	0.065380	0.270500	0.402400
C12331	C1233	0.061570	0.264700	0.446600
H7951	H795	0.051900	0.280800	0.459500
C12341	C1234	0.071320	0.236300	0.473000
H7961	H796	0.068900	0.233300	0.504200
C12351	C1235	0.130950	0.510600	0.193200
C12361	C1236	0.119230	0.479900	0.221100
C12371	C1237	0.102720	0.473300	0.207900
H7971	H797	0.098500	0.486600	0.180900
C12381	C1238	0.090920	0.445300	0.235500
H7981	H798	0.078800	0.442000	0.227100
C12391	C1239	0.096790	0.424900	0.271100
C12401	C1240	0.115130	0.430500	0.284400
H7991	H799	0.119700	0.416400	0.310700
C12411	C1241	0.125770	0.457100	0.257500
H8001	H800	0.138100	0.459800	0.264500
C12421	C1242	0.084600	0.394200	0.299000
C12431	C1243	0.070710	0.373400	0.281600
H8011	H801	0.067300	0.381000	0.251800
C12441	C1244	0.060710	0.340700	0.304100
H8021	H802	0.052000	0.322900	0.288900
C12451	C1245	0.063990	0.335600	0.348700
C12461	C1246	0.078370	0.359700	0.369800
H8031	H803	0.080800	0.354600	0.400700
C12471	C1247	0.088130	0.388400	0.347500
H8041	H804	0.097300	0.405000	0.362000
C12481	C1248	0.924900	0.233100	0.355500
C12491	C1249	0.944390	0.246500	0.358300
C12501	C1250	0.956060	0.218200	0.380900
H8051	H805	0.951900	0.191600	0.395300
C12511	C1251	0.974120	0.229700	0.381900
H8061	H806	0.982300	0.210400	0.397000
C12521	C1252	0.980210	0.267300	0.362200
C12531	C1253	0.968800	0.296200	0.339800
H8071	H807	0.973400	0.322600	0.325800
C12541	C1254	0.949730	0.286200	0.337700
H8081	H808	0.941500	0.305700	0.323100
C12551	C1255	0.999840	0.278400	0.363900
C12561	C1256	0.011870	0.242600	0.372100
H8091	H809	0.007500	0.212800	0.376400
C12571	C1257	0.029830	0.250700	0.374000
H8101	H810	0.037900	0.226400	0.378500
C12581	C1258	0.036270	0.294800	0.369300
C12591	C1259	0.024950	0.328900	0.361700
H8111	H811	0.029500	0.358700	0.358700
C12601	C1260	0.006030	0.321500	0.358100
H8121	H812	0.998100	0.345700	0.351800
N1121	N112	0.054920	0.303900	0.375200
O1631	O163	0.914490	0.254330	0.330300
O1641	O164	0.920520	0.200600	0.380800
O1651	O165	0.132240	0.048960	0.537200
O1661	O166	0.133990	0.100830	0.591000
O1671	O167	0.125930	0.527080	0.159000
O1681	O168	0.147510	0.518300	0.210600
Zn421	Zn42	0.145520	0.564730	0.137700
C12611	C1261	0.674800	0.164900	0.206200
H8131	H813	0.686800	0.168400	0.216000
C12621	C1262	0.641930	0.154300	0.178800
H8141	H814	0.630000	0.151500	0.168500
C12631	C1263	0.605820	0.810000	0.133400
C12641	C1264	0.670400	0.122800	0.184600
H8151	H815	0.678600	0.098900	0.179600
C12651	C1265	0.546020	0.726600	0.255600
H8161	H816	0.552300	0.726500	0.283300
C12661	C1266	0.663080	0.201400	0.214100
C12671	C1267	0.669710	0.241700	0.238400
C12681	C1268	0.584040	0.752000	0.188000
C12691	C1269	0.527380	0.729400	0.253000
H8171	H817	0.520900	0.729800	0.280500
C12701	C1270	0.590740	0.825000	0.155800
H8181	H818	0.587000	0.855400	0.152200
C12711	C1271	0.646540	0.196500	0.201000
H8191	H819	0.637900	0.219500	0.205800
C12721	C1272	0.658060	0.353100	0.391100
H8201	H820	0.650000	0.348400	0.415300
C12731	C1273	0.644690	0.922300	0.013100
C12741	C1274	0.635550	0.892300	0.046200
C12751	C1275	0.628650	0.908800	0.085500
H8211	H821	0.630500	0.939600	0.092900
C12761	C1276	0.619320	0.882300	0.113900
H8221	H822	0.614900	0.895100	0.141000
C12771	C1277	0.615950	0.837100	0.105000
C12781	C1278	0.624410	0.819400	0.066400
H8231	H823	0.623400	0.788100	0.060000
C12791	C1279	0.634170	0.846800	0.037400
H8241	H824	0.639800	0.834200	0.011700
C12801	C1280	0.670970	0.327900	0.322400
C12811	C1281	0.659690	0.321500	0.360500
H8251	H825	0.653300	0.294000	0.363800
C12821	C1282	0.580850	0.795800	0.183900
H8261	H826	0.571300	0.808300	0.201000
C12831	C1283	0.680200	0.367200	0.319800
H8271	H827	0.687800	0.373500	0.295100
C12841	C1284	0.599530	0.732900	0.163900
H8281	H828	0.602400	0.701600	0.165000
C12851	C1285	0.609220	0.761900	0.140600
H8291	H829	0.619700	0.750000	0.126800
C12861	C1286	0.441260	0.761200	0.216300
C12871	C1287	0.461870	0.751000	0.215200
C12881	C1288	0.472010	0.766900	0.179300
H8301	H830	0.466500	0.783300	0.155600
C12891	C1289	0.490090	0.758600	0.178500
H8311	H831	0.497000	0.767900	0.153300
C12901	C1290	0.498490	0.736600	0.214600
C12911	C1291	0.487690	0.721600	0.249300
H8321	H832	0.493300	0.707300	0.274200
C12921	C1292	0.470100	0.725800	0.250000
H8331	H833	0.463200	0.712300	0.273200
C12931	C1293	0.518000	0.731400	0.214600
C12941	C1294	0.528270	0.730700	0.174400
H8341	H834	0.522600	0.732200	0.145900
C12951	C1295	0.546070	0.728000	0.177300
H8351	H835	0.552700	0.728900	0.150100
C12961	C1296	0.554700	0.724200	0.214200
C12971	C1297	0.677970	0.398700	0.355600
H8361	H836	0.684500	0.426200	0.354900
C12981	C1298	0.672310	0.296400	0.284900
C12991	C1299	0.644520	0.518700	0.417300
C13001	C1300	0.633250	0.549200	0.387400
C13011	C1301	0.620540	0.532600	0.358700
H8371	H837	0.618200	0.501000	0.357500
C13021	C1302	0.611440	0.561000	0.332500
H8381	H838	0.603000	0.548100	0.312400
C13031	C1303	0.613090	0.606100	0.331700
C13041	C1304	0.626520	0.623400	0.360900
H8391	H839	0.629000	0.654900	0.361400
C13051	C1305	0.635710	0.594800	0.388000
H8401	H840	0.644200	0.607000	0.408300
C13061	C1306	0.602460	0.635500	0.303100
C13071	C1307	0.585750	0.623900	0.284300
H8411	H841	0.580500	0.595800	0.292300
C13081	C1308	0.577240	0.650300	0.256400
H8421	H842	0.566400	0.639800	0.243700
C13091	C1309	0.583270	0.693100	0.244500
C13101	C1310	0.599300	0.707500	0.263400
H8431	H843	0.603700	0.736900	0.256700
C13111	C1311	0.609050	0.679200	0.292200
H8441	H844	0.620100	0.689300	0.304400
N1131	N113	0.573950	0.720100	0.213900
N1141	N114	0.667060	0.391080	0.389800
N1151	N115	0.663030	0.258570	0.277000
N1161	N116	0.682250	0.266500	0.222100
N1171	N117	0.683790	0.301300	0.251300
N1181	N118	0.649650	0.239100	0.304300
H8451	H845	0.646600	0.252000	0.329700
H8461	H846	0.644400	0.213900	0.295800
N1191	N119	0.652010	0.121500	0.171800
O1691	O169	0.655480	0.903270	0.985500
O1701	O170	0.641830	0.963480	0.015000
O1711	O171	0.652250	0.536960	0.449800
O1721	O172	0.644370	0.477450	0.407400
O1731	O173	0.436230	0.782710	0.185700
O1741	O174	0.433300	0.746600	0.249000
Zn431	Zn43	0.662670	0.440710	0.435500
Zn441	Zn44	0.656970	0.521470	0.517900
C13121	C1312	0.629130	0.587100	0.553600
C13131	C1313	0.617770	0.619400	0.527300
C13141	C1314	0.611960	0.606700	0.485000
H8471	H847	0.615100	0.578100	0.472800
C13151	C1315	0.601220	0.637000	0.460400
H8481	H848	0.597200	0.629100	0.431100
C13161	C1316	0.596470	0.678100	0.478500
C13171	C1317	0.601670	0.690100	0.520900
H8491	H849	0.597700	0.717800	0.533600
C13181	C1318	0.613070	0.661000	0.546100
H8501	H850	0.617300	0.669600	0.574900
C13191	C1319	0.585440	0.711000	0.451600
C13201	C1320	0.588710	0.716600	0.404700
H8511	H851	0.597800	0.699600	0.390100
C13211	C1321	0.578780	0.746200	0.381500
H8521	H852	0.581000	0.750600	0.350400
C13221	C1322	0.565380	0.770500	0.402400
C13231	C1323	0.561570	0.764700	0.446600
H8531	H853	0.551900	0.780800	0.459500
C13241	C1324	0.571320	0.736300	0.473000
H8541	H854	0.568900	0.733300	0.504200
C13251	C1325	0.630950	0.010600	0.193200
C13261	C1326	0.619230	0.979900	0.221100
C13271	C1327	0.602720	0.973300	0.207900
H8551	H855	0.598500	0.986600	0.180900
C13281	C1328	0.590920	0.945300	0.235500
H8561	H856	0.578800	0.942000	0.227100
C13291	C1329	0.596790	0.924900	0.271100
C13301	C1330	0.615130	0.930500	0.284400
H8571	H857	0.619700	0.916400	0.310700
C13311	C1331	0.625770	0.957100	0.257500
H8581	H858	0.638100	0.959800	0.264500
C13321	C1332	0.584600	0.894200	0.299000
C13331	C1333	0.570710	0.873400	0.281600
H8591	H859	0.567300	0.881000	0.251800
C13341	C1334	0.560710	0.840700	0.304100
H8601	H860	0.552000	0.822900	0.288900
C13351	C1335	0.563990	0.835600	0.348700
C13361	C1336	0.578370	0.859700	0.369800
H8611	H861	0.580800	0.854600	0.400700
C13371	C1337	0.588130	0.888400	0.347500
H8621	H862	0.597300	0.905000	0.362000
C13381	C1338	0.424900	0.733100	0.355500
C13391	C1339	0.444390	0.746500	0.358300
C13401	C1340	0.456060	0.718200	0.380900
H8631	H863	0.451900	0.691600	0.395300
C13411	C1341	0.474120	0.729700	0.381900
H8641	H864	0.482300	0.710400	0.397000
C13421	C1342	0.480210	0.767300	0.362200
C13431	C1343	0.468800	0.796200	0.339800
H8651	H865	0.473400	0.822600	0.325800
C13441	C1344	0.449730	0.786200	0.337700
H8661	H866	0.441500	0.805700	0.323100
C13451	C1345	0.499840	0.778400	0.363900
C13461	C1346	0.511870	0.742600	0.372100
H8671	H867	0.507500	0.712800	0.376400
C13471	C1347	0.529830	0.750700	0.374000
H8681	H868	0.537900	0.726400	0.378500
C13481	C1348	0.536270	0.794800	0.369300
C13491	C1349	0.524950	0.828900	0.361700
H8691	H869	0.529500	0.858700	0.358700
C13501	C1350	0.506030	0.821500	0.358100
H8701	H870	0.498100	0.845700	0.351800
N1201	N120	0.554920	0.803900	0.375200
O1751	O175	0.414490	0.754330	0.330300
O1761	O176	0.420520	0.700600	0.380800
O1771	O177	0.632240	0.548960	0.537200
O1781	O178	0.633990	0.600830	0.591000
O1791	O179	0.625930	0.027080	0.159000
O1801	O180	0.647510	0.018300	0.210600
Zn451	Zn45	0.645520	0.064730	0.137700
C13511	C1351	0.674800	0.664900	0.706200
H8711	H871	0.686800	0.668400	0.716000
C13521	C1352	0.641930	0.654300	0.678800
H8721	H872	0.630000	0.651500	0.668500
C13531	C1353	0.605820	0.310000	0.633400
C13541	C1354	0.670400	0.622800	0.684600
H8731	H873	0.678600	0.598900	0.679600
C13551	C1355	0.546020	0.226600	0.755600
H8741	H874	0.552300	0.226500	0.783300
C13561	C1356	0.663080	0.701400	0.714100
C13571	C1357	0.669710	0.741700	0.738400
C13581	C1358	0.584040	0.252000	0.688000
C13591	C1359	0.527380	0.229400	0.753000
H8751	H875	0.520900	0.229800	0.780500
C13601	C1360	0.590740	0.325000	0.655800
H8761	H876	0.587000	0.355400	0.652200
C13611	C1361	0.646540	0.696500	0.701000
H8771	H877	0.637900	0.719500	0.705800
C13621	C1362	0.658060	0.853100	0.891100
H8781	H878	0.650000	0.848400	0.915300
C13631	C1363	0.644690	0.422300	0.513100
C13641	C1364	0.635550	0.392300	0.546200
C13651	C1365	0.628650	0.408800	0.585500
H8791	H879	0.630500	0.439600	0.592900
C13661	C1366	0.619320	0.382300	0.613900
H8801	H880	0.614900	0.395100	0.641000
C13671	C1367	0.615950	0.337100	0.605000
C13681	C1368	0.624410	0.319400	0.566400
H8811	H881	0.623400	0.288100	0.560000
C13691	C1369	0.634170	0.346800	0.537400
H8821	H882	0.639800	0.334200	0.511700
C13701	C1370	0.670970	0.827900	0.822400
C13711	C1371	0.659690	0.821500	0.860500
H8831	H883	0.653300	0.794000	0.863800
C13721	C1372	0.580850	0.295800	0.683900
H8841	H884	0.571300	0.308300	0.701000
C13731	C1373	0.680200	0.867200	0.819800
H8851	H885	0.687800	0.873500	0.795100
C13741	C1374	0.599530	0.232900	0.663900
H8861	H886	0.602400	0.201600	0.665000
C13751	C1375	0.609220	0.261900	0.640600
H8871	H887	0.619700	0.250000	0.626800
C13761	C1376	0.441260	0.261200	0.716300
C13771	C1377	0.461870	0.251000	0.715200
C13781	C1378	0.472010	0.266900	0.679300
H8881	H888	0.466500	0.283300	0.655600
C13791	C1379	0.490090	0.258600	0.678500
H8891	H889	0.497000	0.267900	0.653300
C13801	C1380	0.498490	0.236600	0.714600
C13811	C1381	0.487690	0.221600	0.749300
H8901	H890	0.493300	0.207300	0.774200
C13821	C1382	0.470100	0.225800	0.750000
H8911	H891	0.463200	0.212300	0.773200
C13831	C1383	0.518000	0.231400	0.714600
C13841	C1384	0.528270	0.230700	0.674400
H8921	H892	0.522600	0.232200	0.645900
C13851	C1385	0.546070	0.228000	0.677300
H8931	H893	0.552700	0.228900	0.650100
C13861	C1386	0.554700	0.224200	0.714200
C13871	C1387	0.677970	0.898700	0.855600
H8941	H894	0.684500	0.926200	0.854900
C13881	C1388	0.672310	0.796400	0.784900
C13891	C1389	0.644520	0.018700	0.917300
C13901	C1390	0.633250	0.049200	0.887400
C13911	C1391	0.620540	0.032600	0.858700
H8951	H895	0.618200	0.001000	0.857500
C13921	C1392	0.611440	0.061000	0.832500
H8961	H896	0.603000	0.048100	0.812400
C13931	C1393	0.613090	0.106100	0.831700
C13941	C1394	0.626520	0.123400	0.860900
H8971	H897	0.629000	0.154900	0.861400
C13951	C1395	0.635710	0.094800	0.888000
H8981	H898	0.644200	0.107000	0.908300
C13961	C1396	0.602460	0.135500	0.803100
C13971	C1397	0.585750	0.123900	0.784300
H8991	H899	0.580500	0.095800	0.792300
C13981	C1398	0.577240	0.150300	0.756400
H9001	H900	0.566400	0.139800	0.743700
C13991	C1399	0.583270	0.193100	0.744500
C14001	C1400	0.599300	0.207500	0.763400
H9011	H901	0.603700	0.236900	0.756700
C14011	C1401	0.609050	0.179200	0.792200
H9021	H902	0.620100	0.189300	0.804400
N1211	N121	0.573950	0.220100	0.713900
N1221	N122	0.667060	0.891080	0.889800
N1231	N123	0.663030	0.758570	0.777000
N1241	N124	0.682250	0.766500	0.722100
N1251	N125	0.683790	0.801300	0.751300
N1261	N126	0.649650	0.739100	0.804300
H9031	H903	0.646600	0.752000	0.829700
H9041	H904	0.644400	0.713900	0.795800
N1271	N127	0.652010	0.621500	0.671800
O1811	O181	0.655480	0.403270	0.485500
O1821	O182	0.641830	0.463480	0.515000
O1831	O183	0.652250	0.036960	0.949800
O1841	O184	0.644370	0.977450	0.907400
O1851	O185	0.436230	0.282710	0.685700
O1861	O186	0.433300	0.246600	0.749000
Zn461	Zn46	0.662670	0.940710	0.935500
Zn471	Zn47	0.656970	0.021470	0.017900
C14021	C1402	0.629130	0.087100	0.053600
C14031	C1403	0.617770	0.119400	0.027300
C14041	C1404	0.611960	0.106700	0.985000
H9051	H905	0.615100	0.078100	0.972800
C14051	C1405	0.601220	0.137000	0.960400
H9061	H906	0.597200	0.129100	0.931100
C14061	C1406	0.596470	0.178100	0.978500
C14071	C1407	0.601670	0.190100	0.020900
H9071	H907	0.597700	0.217800	0.033600
C14081	C1408	0.613070	0.161000	0.046100
H9081	H908	0.617300	0.169600	0.074900
C14091	C1409	0.585440	0.211000	0.951600
C14101	C1410	0.588710	0.216600	0.904700
H9091	H909	0.597800	0.199600	0.890100
C14111	C1411	0.578780	0.246200	0.881500
H9101	H910	0.581000	0.250600	0.850400
C14121	C1412	0.565380	0.270500	0.902400
C14131	C1413	0.561570	0.264700	0.946600
H9111	H911	0.551900	0.280800	0.959500
C14141	C1414	0.571320	0.236300	0.973000
H9121	H912	0.568900	0.233300	0.004200
C14151	C1415	0.630950	0.510600	0.693200
C14161	C1416	0.619230	0.479900	0.721100
C14171	C1417	0.602720	0.473300	0.707900
H9131	H913	0.598500	0.486600	0.680900
C14181	C1418	0.590920	0.445300	0.735500
H9141	H914	0.578800	0.442000	0.727100
C14191	C1419	0.596790	0.424900	0.771100
C14201	C1420	0.615130	0.430500	0.784400
H9151	H915	0.619700	0.416400	0.810700
C14211	C1421	0.625770	0.457100	0.757500
H9161	H916	0.638100	0.459800	0.764500
C14221	C1422	0.584600	0.394200	0.799000
C14231	C1423	0.570710	0.373400	0.781600
H9171	H917	0.567300	0.381000	0.751800
C14241	C1424	0.560710	0.340700	0.804100
H9181	H918	0.552000	0.322900	0.788900
C14251	C1425	0.563990	0.335600	0.848700
C14261	C1426	0.578370	0.359700	0.869800
H9191	H919	0.580800	0.354600	0.900700
C14271	C1427	0.588130	0.388400	0.847500
H9201	H920	0.597300	0.405000	0.862000
C14281	C1428	0.424900	0.233100	0.855500
C14291	C1429	0.444390	0.246500	0.858300
C14301	C1430	0.456060	0.218200	0.880900
H9211	H921	0.451900	0.191600	0.895300
C14311	C1431	0.474120	0.229700	0.881900
H9221	H922	0.482300	0.210400	0.897000
C14321	C1432	0.480210	0.267300	0.862200
C14331	C1433	0.468800	0.296200	0.839800
H9231	H923	0.473400	0.322600	0.825800
C14341	C1434	0.449730	0.286200	0.837700
H9241	H924	0.441500	0.305700	0.823100
C14351	C1435	0.499840	0.278400	0.863900
C14361	C1436	0.511870	0.242600	0.872100
H9251	H925	0.507500	0.212800	0.876400
C14371	C1437	0.529830	0.250700	0.874000
H9261	H926	0.537900	0.226400	0.878500
C14381	C1438	0.536270	0.294800	0.869300
C14391	C1439	0.524950	0.328900	0.861700
H9271	H927	0.529500	0.358700	0.858700
C14401	C1440	0.506030	0.321500	0.858100
H9281	H928	0.498100	0.345700	0.851800
N1281	N128	0.554920	0.303900	0.875200
O1871	O187	0.414490	0.254330	0.830300
O1881	O188	0.420520	0.200600	0.880800
O1891	O189	0.632240	0.048960	0.037200
O1901	O190	0.633990	0.100830	0.091000
O1911	O191	0.625930	0.527080	0.659000
O1921	O192	0.647510	0.518300	0.710600
Zn481	Zn48	0.645520	0.564730	0.637700
