data_ASINIB_clean_PM
_symmetry_space_group_name_H-M	'P1'
_cell_length_a	75.033000
_cell_length_b	29.380000
_cell_length_c	29.569000
_cell_angle_alpha	90.000000
_cell_angle_beta	90.000000
_cell_angle_gamma	90.000000
_symmetry_Int_Tables_number 1

loop_
_symmetry_equiv_pos_as_xyz
'x,y,z'

loop_
_atom_site_label
_atom_site_type_symbol
_atom_site_fract_x
_atom_site_fract_y
_atom_site_fract_z
C11	C1	0.929720	0.127100	0.128300
H11	H1	0.933100	0.120300	0.098000
C21	C2	0.865230	0.407600	0.235900
H21	H2	0.857200	0.395200	0.257500
C31	C3	0.939400	0.158000	0.153000
H31	H3	0.948800	0.174100	0.138600
C41	C4	0.919920	0.206000	0.029700
H41	H4	0.929600	0.193000	0.046100
C51	C5	0.871640	0.091700	0.931400
H51	H5	0.870000	0.060500	0.938900
C61	C6	0.866000	0.154300	0.884500
H61	H6	0.859800	0.167000	0.859400
C71	C7	0.916990	0.310100	0.089300
C81	C8	0.855780	0.483400	0.265000
C91	C9	0.879560	0.466700	0.208400
H71	H7	0.882400	0.498300	0.209500
C101	C10	0.916360	0.248800	0.035200
C111	C11	0.945740	0.277000	0.061800
C121	C12	0.855370	0.078500	0.862500
C131	C13	0.922340	0.349700	0.101900
H81	H8	0.933300	0.360100	0.089900
C141	C14	0.050490	0.214100	0.186200
H91	H9	0.059100	0.194800	0.172600
C151	C15	0.086700	0.951400	0.811000
C161	C16	0.037930	0.250100	0.063800
C171	C17	0.030160	0.275100	0.098200
H101	H10	0.037000	0.286900	0.122500
C181	C18	0.887170	0.341100	0.395800
H111	H11	0.883600	0.334100	0.425800
C191	C19	0.901050	0.294300	0.110200
H121	H12	0.896900	0.264300	0.104200
C201	C20	0.874360	0.376900	0.207900
H131	H13	0.871900	0.345200	0.208700
C211	C21	0.888970	0.441700	0.179800
H141	H14	0.897100	0.455800	0.159600
C221	C22	0.020150	0.234200	0.208900
C231	C23	0.875960	0.182300	0.912700
H151	H15	0.877200	0.213700	0.905600
C241	C24	0.866950	0.452900	0.234900
C251	C25	0.894710	0.193200	0.979900
C261	C26	0.898110	0.311700	0.369700
H161	H16	0.901700	0.283100	0.381600
C271	C27	0.903380	0.324400	0.327600
C281	C28	0.028660	0.233600	0.029000
H171	H17	0.034400	0.216900	0.005600
C291	C29	0.031470	0.202200	0.186000
H181	H18	0.027000	0.175500	0.171800
C301	C30	0.914680	0.290300	0.299500
C311	C31	0.935990	0.166700	0.198100
C321	C32	0.898320	0.361800	0.309100
H191	H19	0.901500	0.369000	0.278800
C331	C33	0.071610	0.149900	0.952600
H201	H20	0.065200	0.177800	0.951300
C341	C34	0.913570	0.378000	0.130900
H211	H21	0.918800	0.406600	0.137900
C351	C35	0.079870	0.990600	0.836200
C361	C36	0.075460	0.268700	0.203000
C371	C37	0.001380	0.264900	0.060300
C381	C38	0.091330	0.102600	0.989000
H221	H22	0.099300	0.097200	0.013400
C391	C39	0.880250	0.022600	0.069000
C401	C40	0.044550	0.278800	0.232100
H231	H23	0.049000	0.302600	0.250600
C411	C41	0.058180	0.239900	0.063900
C421	C42	0.903380	0.075700	0.118000
C431	C43	0.865030	0.106600	0.893000
C441	C44	0.935040	0.230000	0.249000
C451	C45	0.911760	0.281900	0.254900
H241	H24	0.902200	0.297400	0.240700
C461	C46	0.079120	0.076700	0.919900
C471	C47	0.000020	0.222100	0.211800
C481	C48	0.089620	0.071700	0.957700
H251	H25	0.096000	0.044000	0.961200
C491	C49	0.884070	0.164800	0.951100
C501	C50	0.963710	0.206100	0.218100
C511	C51	0.069860	0.116400	0.917500
H261	H26	0.062200	0.122100	0.892600
C521	C52	0.892180	0.320800	0.137600
H271	H27	0.881400	0.309300	0.150200
C531	C53	0.077660	0.048200	0.882900
C541	C54	0.915660	0.106700	0.146600
C551	C55	0.938050	0.236900	0.290800
H281	H28	0.947900	0.221100	0.303400
C561	C56	0.920940	0.255000	0.231000
H291	H29	0.918100	0.251700	0.199900
C571	C57	0.973390	0.272000	0.100800
H301	H30	0.979700	0.273000	0.128600
C581	C58	0.910090	0.177900	0.000300
H311	H31	0.914100	0.147900	0.994400
C591	C59	0.026190	0.268900	0.230900
H321	H32	0.018100	0.288200	0.246500
C601	C60	0.900650	0.269300	0.010300
H331	H33	0.898000	0.300900	0.011800
C611	C61	0.891030	0.240800	0.986800
H341	H34	0.880600	0.252700	0.972800
C621	C62	0.104700	0.944400	0.803500
H351	H35	0.113800	0.963500	0.815800
C631	C63	0.972370	0.271300	0.021900
H361	H36	0.978500	0.271700	0.993700
C641	C64	0.887970	0.391400	0.334800
H371	H37	0.885000	0.420500	0.323000
C651	C65	0.928870	0.264000	0.319100
H381	H38	0.931600	0.265600	0.350400
C661	C66	0.897620	0.367000	0.150400
C671	C67	0.982210	0.268000	0.063800
C681	C68	0.988500	0.257800	0.219400
H391	H39	0.993000	0.287800	0.222500
C691	C69	0.075600	0.916900	0.796000
H401	H40	0.063200	0.923300	0.799200
C701	C70	0.885060	0.071400	0.130500
H411	H41	0.880300	0.087100	0.155900
C711	C71	0.871000	0.413300	0.401600
C721	C72	0.921980	0.142600	0.217900
H421	H42	0.919400	0.147000	0.249100
C731	C73	0.108600	0.904700	0.774800
H431	H43	0.119500	0.905300	0.758300
C741	C74	0.882230	0.379800	0.374900
C751	C75	0.079200	0.874000	0.777100
H441	H44	0.070400	0.852100	0.770000
C761	C76	0.886890	0.394400	0.179500
C771	C77	0.993970	0.179400	0.204100
H451	H45	0.002000	0.155300	0.197500
C781	C78	0.898540	0.028600	0.056500
H461	H46	0.903200	0.013300	0.030800
C791	C79	0.009580	0.242100	0.027900
H471	H47	0.002800	0.230900	0.003200
C801	C80	0.055390	0.254000	0.206800
C811	C81	0.954210	0.275200	0.101400
H481	H48	0.947800	0.275900	0.129200
C821	C82	0.911990	0.113500	0.193800
H491	H49	0.902500	0.097400	0.207900
C831	C83	0.954120	0.273900	0.023400
H501	H50	0.947500	0.273400	0.996000
C841	C84	0.870370	0.992600	0.040800
C851	C85	0.974400	0.171600	0.206300
H511	H51	0.969600	0.142500	0.199500
C861	C86	0.880790	0.118700	0.961100
H521	H52	0.885000	0.106200	0.988700
C871	C87	0.909450	0.056800	0.082100
H531	H53	0.921400	0.062200	0.072900
C881	C88	0.874710	0.044200	0.104600
H541	H54	0.862600	0.040700	0.113000
C891	C89	0.970280	0.250000	0.222600
H551	H55	0.962400	0.274700	0.227800
C901	C90	0.012150	0.282100	0.095800
H561	H56	0.006600	0.299300	0.119100
N11	N1	0.087080	0.007700	0.875400
N21	N2	0.082560	0.140500	0.987700
N31	N3	0.066940	0.052300	0.847500
N41	N4	0.099930	0.989400	0.902400
H571	H57	0.104700	0.963000	0.895400
H581	H58	0.103400	0.004000	0.926800
N51	N5	0.098200	0.867300	0.769600
N61	N6	0.068020	0.018700	0.818400
N71	N7	0.925930	0.283100	0.060200
N81	N8	0.945190	0.199300	0.222900
O11	O1	0.874250	0.973200	0.007100
O21	O2	0.854940	0.523700	0.255000
O31	O3	0.848150	0.463000	0.297800
O41	O4	0.085190	0.245400	0.177000
O51	O5	0.857870	0.036700	0.863300
O61	O6	0.079620	0.298500	0.229800
O71	O7	0.844710	0.097700	0.833500
O81	O8	0.867280	0.451400	0.386500
O91	O9	0.866000	0.400700	0.440800
O101	O10	0.066200	0.254400	0.096900
O111	O11	0.852550	0.984600	0.057100
O121	O12	0.063710	0.217200	0.034400
Cu11	Cu1	0.086950	0.190670	0.034000
Cu21	Cu2	0.104460	0.313610	0.236100
Cu31	Cu3	0.093000	0.271680	0.116060
C911	C91	0.929720	0.627100	0.628300
H591	H59	0.933100	0.620300	0.598000
C921	C92	0.865230	0.907600	0.735900
H601	H60	0.857200	0.895200	0.757500
C931	C93	0.939400	0.658000	0.653000
H611	H61	0.948800	0.674100	0.638600
C941	C94	0.919920	0.706000	0.529700
H621	H62	0.929600	0.693000	0.546100
C951	C95	0.871640	0.591700	0.431400
H631	H63	0.870000	0.560500	0.438900
C961	C96	0.866000	0.654300	0.384500
H641	H64	0.859800	0.667000	0.359400
C971	C97	0.916990	0.810100	0.589300
C981	C98	0.855780	0.983400	0.765000
C991	C99	0.879560	0.966700	0.708400
H651	H65	0.882400	0.998300	0.709500
C1001	C100	0.916360	0.748800	0.535200
C1011	C101	0.945740	0.777000	0.561800
C1021	C102	0.855370	0.578500	0.362500
C1031	C103	0.922340	0.849700	0.601900
H661	H66	0.933300	0.860100	0.589900
C1041	C104	0.050490	0.714100	0.686200
H671	H67	0.059100	0.694800	0.672600
C1051	C105	0.086700	0.451400	0.311000
C1061	C106	0.037930	0.750100	0.563800
C1071	C107	0.030160	0.775100	0.598200
H681	H68	0.037000	0.786900	0.622500
C1081	C108	0.887170	0.841100	0.895800
H691	H69	0.883600	0.834100	0.925800
C1091	C109	0.901050	0.794300	0.610200
H701	H70	0.896900	0.764300	0.604200
C1101	C110	0.874360	0.876900	0.707900
H711	H71	0.871900	0.845200	0.708700
C1111	C111	0.888970	0.941700	0.679800
H721	H72	0.897100	0.955800	0.659600
C1121	C112	0.020150	0.734200	0.708900
C1131	C113	0.875960	0.682300	0.412700
H731	H73	0.877200	0.713700	0.405600
C1141	C114	0.866950	0.952900	0.734900
C1151	C115	0.894710	0.693200	0.479900
C1161	C116	0.898110	0.811700	0.869700
H741	H74	0.901700	0.783100	0.881600
C1171	C117	0.903380	0.824400	0.827600
C1181	C118	0.028660	0.733600	0.529000
H751	H75	0.034400	0.716900	0.505600
C1191	C119	0.031470	0.702200	0.686000
H761	H76	0.027000	0.675500	0.671800
C1201	C120	0.914680	0.790300	0.799500
C1211	C121	0.935990	0.666700	0.698100
C1221	C122	0.898320	0.861800	0.809100
H771	H77	0.901500	0.869000	0.778800
C1231	C123	0.071610	0.649900	0.452600
H781	H78	0.065200	0.677800	0.451300
C1241	C124	0.913570	0.878000	0.630900
H791	H79	0.918800	0.906600	0.637900
C1251	C125	0.079870	0.490600	0.336200
C1261	C126	0.075460	0.768700	0.703000
C1271	C127	0.001380	0.764900	0.560300
C1281	C128	0.091330	0.602600	0.489000
H801	H80	0.099300	0.597200	0.513400
C1291	C129	0.880250	0.522600	0.569000
C1301	C130	0.044550	0.778800	0.732100
H811	H81	0.049000	0.802600	0.750600
C1311	C131	0.058180	0.739900	0.563900
C1321	C132	0.903380	0.575700	0.618000
C1331	C133	0.865030	0.606600	0.393000
C1341	C134	0.935040	0.730000	0.749000
C1351	C135	0.911760	0.781900	0.754900
H821	H82	0.902200	0.797400	0.740700
C1361	C136	0.079120	0.576700	0.419900
C1371	C137	0.000020	0.722100	0.711800
C1381	C138	0.089620	0.571700	0.457700
H831	H83	0.096000	0.544000	0.461200
C1391	C139	0.884070	0.664800	0.451100
C1401	C140	0.963710	0.706100	0.718100
C1411	C141	0.069860	0.616400	0.417500
H841	H84	0.062200	0.622100	0.392600
C1421	C142	0.892180	0.820800	0.637600
H851	H85	0.881400	0.809300	0.650200
C1431	C143	0.077660	0.548200	0.382900
C1441	C144	0.915660	0.606700	0.646600
C1451	C145	0.938050	0.736900	0.790800
H861	H86	0.947900	0.721100	0.803400
C1461	C146	0.920940	0.755000	0.731000
H871	H87	0.918100	0.751700	0.699900
C1471	C147	0.973390	0.772000	0.600800
H881	H88	0.979700	0.773000	0.628600
C1481	C148	0.910090	0.677900	0.500300
H891	H89	0.914100	0.647900	0.494400
C1491	C149	0.026190	0.768900	0.730900
H901	H90	0.018100	0.788200	0.746500
C1501	C150	0.900650	0.769300	0.510300
H911	H91	0.898000	0.800900	0.511800
C1511	C151	0.891030	0.740800	0.486800
H921	H92	0.880600	0.752700	0.472800
C1521	C152	0.104700	0.444400	0.303500
H931	H93	0.113800	0.463500	0.315800
C1531	C153	0.972370	0.771300	0.521900
H941	H94	0.978500	0.771700	0.493700
C1541	C154	0.887970	0.891400	0.834800
H951	H95	0.885000	0.920500	0.823000
C1551	C155	0.928870	0.764000	0.819100
H961	H96	0.931600	0.765600	0.850400
C1561	C156	0.897620	0.867000	0.650400
C1571	C157	0.982210	0.768000	0.563800
C1581	C158	0.988500	0.757800	0.719400
H971	H97	0.993000	0.787800	0.722500
C1591	C159	0.075600	0.416900	0.296000
H981	H98	0.063200	0.423300	0.299200
C1601	C160	0.885060	0.571400	0.630500
H991	H99	0.880300	0.587100	0.655900
C1611	C161	0.871000	0.913300	0.901600
C1621	C162	0.921980	0.642600	0.717900
H1001	H100	0.919400	0.647000	0.749100
C1631	C163	0.108600	0.404700	0.274800
H1011	H101	0.119500	0.405300	0.258300
C1641	C164	0.882230	0.879800	0.874900
C1651	C165	0.079200	0.374000	0.277100
H1021	H102	0.070400	0.352100	0.270000
C1661	C166	0.886890	0.894400	0.679500
C1671	C167	0.993970	0.679400	0.704100
H1031	H103	0.002000	0.655300	0.697500
C1681	C168	0.898540	0.528600	0.556500
H1041	H104	0.903200	0.513300	0.530800
C1691	C169	0.009580	0.742100	0.527900
H1051	H105	0.002800	0.730900	0.503200
C1701	C170	0.055390	0.754000	0.706800
C1711	C171	0.954210	0.775200	0.601400
H1061	H106	0.947800	0.775900	0.629200
C1721	C172	0.911990	0.613500	0.693800
H1071	H107	0.902500	0.597400	0.707900
C1731	C173	0.954120	0.773900	0.523400
H1081	H108	0.947500	0.773400	0.496000
C1741	C174	0.870370	0.492600	0.540800
C1751	C175	0.974400	0.671600	0.706300
H1091	H109	0.969600	0.642500	0.699500
C1761	C176	0.880790	0.618700	0.461100
H1101	H110	0.885000	0.606200	0.488700
C1771	C177	0.909450	0.556800	0.582100
H1111	H111	0.921400	0.562200	0.572900
C1781	C178	0.874710	0.544200	0.604600
H1121	H112	0.862600	0.540700	0.613000
C1791	C179	0.970280	0.750000	0.722600
H1131	H113	0.962400	0.774700	0.727800
C1801	C180	0.012150	0.782100	0.595800
H1141	H114	0.006600	0.799300	0.619100
N91	N9	0.087080	0.507700	0.375400
N101	N10	0.082560	0.640500	0.487700
N111	N11	0.066940	0.552300	0.347500
N121	N12	0.099930	0.489400	0.402400
H1151	H115	0.104700	0.463000	0.395400
H1161	H116	0.103400	0.504000	0.426800
N131	N13	0.098200	0.367300	0.269600
N141	N14	0.068020	0.518700	0.318400
N151	N15	0.925930	0.783100	0.560200
N161	N16	0.945190	0.699300	0.722900
O131	O13	0.874250	0.473200	0.507100
O141	O14	0.854940	0.023700	0.755000
O151	O15	0.848150	0.963000	0.797800
O161	O16	0.085190	0.745400	0.677000
O171	O17	0.857870	0.536700	0.363300
O181	O18	0.079620	0.798500	0.729800
O191	O19	0.844710	0.597700	0.333500
O201	O20	0.867280	0.951400	0.886500
O211	O21	0.866000	0.900700	0.940800
O221	O22	0.066200	0.754400	0.596900
O231	O23	0.852550	0.484600	0.557100
O241	O24	0.063710	0.717200	0.534400
Cu41	Cu4	0.086950	0.690670	0.534000
Cu51	Cu5	0.104460	0.813610	0.736100
Cu61	Cu6	0.093000	0.771680	0.616060
C1811	C181	0.429720	0.127100	0.628300
H1171	H117	0.433100	0.120300	0.598000
C1821	C182	0.365230	0.407600	0.735900
H1181	H118	0.357200	0.395200	0.757500
C1831	C183	0.439400	0.158000	0.653000
H1191	H119	0.448800	0.174100	0.638600
C1841	C184	0.419920	0.206000	0.529700
H1201	H120	0.429600	0.193000	0.546100
C1851	C185	0.371640	0.091700	0.431400
H1211	H121	0.370000	0.060500	0.438900
C1861	C186	0.366000	0.154300	0.384500
H1221	H122	0.359800	0.167000	0.359400
C1871	C187	0.416990	0.310100	0.589300
C1881	C188	0.355780	0.483400	0.765000
C1891	C189	0.379560	0.466700	0.708400
H1231	H123	0.382400	0.498300	0.709500
C1901	C190	0.416360	0.248800	0.535200
C1911	C191	0.445740	0.277000	0.561800
C1921	C192	0.355370	0.078500	0.362500
C1931	C193	0.422340	0.349700	0.601900
H1241	H124	0.433300	0.360100	0.589900
C1941	C194	0.550490	0.214100	0.686200
H1251	H125	0.559100	0.194800	0.672600
C1951	C195	0.586700	0.951400	0.311000
C1961	C196	0.537930	0.250100	0.563800
C1971	C197	0.530160	0.275100	0.598200
H1261	H126	0.537000	0.286900	0.622500
C1981	C198	0.387170	0.341100	0.895800
H1271	H127	0.383600	0.334100	0.925800
C1991	C199	0.401050	0.294300	0.610200
H1281	H128	0.396900	0.264300	0.604200
C2001	C200	0.374360	0.376900	0.707900
H1291	H129	0.371900	0.345200	0.708700
C2011	C201	0.388970	0.441700	0.679800
H1301	H130	0.397100	0.455800	0.659600
C2021	C202	0.520150	0.234200	0.708900
C2031	C203	0.375960	0.182300	0.412700
H1311	H131	0.377200	0.213700	0.405600
C2041	C204	0.366950	0.452900	0.734900
C2051	C205	0.394710	0.193200	0.479900
C2061	C206	0.398110	0.311700	0.869700
H1321	H132	0.401700	0.283100	0.881600
C2071	C207	0.403380	0.324400	0.827600
C2081	C208	0.528660	0.233600	0.529000
H1331	H133	0.534400	0.216900	0.505600
C2091	C209	0.531470	0.202200	0.686000
H1341	H134	0.527000	0.175500	0.671800
C2101	C210	0.414680	0.290300	0.799500
C2111	C211	0.435990	0.166700	0.698100
C2121	C212	0.398320	0.361800	0.809100
H1351	H135	0.401500	0.369000	0.778800
C2131	C213	0.571610	0.149900	0.452600
H1361	H136	0.565200	0.177800	0.451300
C2141	C214	0.413570	0.378000	0.630900
H1371	H137	0.418800	0.406600	0.637900
C2151	C215	0.579870	0.990600	0.336200
C2161	C216	0.575460	0.268700	0.703000
C2171	C217	0.501380	0.264900	0.560300
C2181	C218	0.591330	0.102600	0.489000
H1381	H138	0.599300	0.097200	0.513400
C2191	C219	0.380250	0.022600	0.569000
C2201	C220	0.544550	0.278800	0.732100
H1391	H139	0.549000	0.302600	0.750600
C2211	C221	0.558180	0.239900	0.563900
C2221	C222	0.403380	0.075700	0.618000
C2231	C223	0.365030	0.106600	0.393000
C2241	C224	0.435040	0.230000	0.749000
C2251	C225	0.411760	0.281900	0.754900
H1401	H140	0.402200	0.297400	0.740700
C2261	C226	0.579120	0.076700	0.419900
C2271	C227	0.500020	0.222100	0.711800
C2281	C228	0.589620	0.071700	0.457700
H1411	H141	0.596000	0.044000	0.461200
C2291	C229	0.384070	0.164800	0.451100
C2301	C230	0.463710	0.206100	0.718100
C2311	C231	0.569860	0.116400	0.417500
H1421	H142	0.562200	0.122100	0.392600
C2321	C232	0.392180	0.320800	0.637600
H1431	H143	0.381400	0.309300	0.650200
C2331	C233	0.577660	0.048200	0.382900
C2341	C234	0.415660	0.106700	0.646600
C2351	C235	0.438050	0.236900	0.790800
H1441	H144	0.447900	0.221100	0.803400
C2361	C236	0.420940	0.255000	0.731000
H1451	H145	0.418100	0.251700	0.699900
C2371	C237	0.473390	0.272000	0.600800
H1461	H146	0.479700	0.273000	0.628600
C2381	C238	0.410090	0.177900	0.500300
H1471	H147	0.414100	0.147900	0.494400
C2391	C239	0.526190	0.268900	0.730900
H1481	H148	0.518100	0.288200	0.746500
C2401	C240	0.400650	0.269300	0.510300
H1491	H149	0.398000	0.300900	0.511800
C2411	C241	0.391030	0.240800	0.486800
H1501	H150	0.380600	0.252700	0.472800
C2421	C242	0.604700	0.944400	0.303500
H1511	H151	0.613800	0.963500	0.315800
C2431	C243	0.472370	0.271300	0.521900
H1521	H152	0.478500	0.271700	0.493700
C2441	C244	0.387970	0.391400	0.834800
H1531	H153	0.385000	0.420500	0.823000
C2451	C245	0.428870	0.264000	0.819100
H1541	H154	0.431600	0.265600	0.850400
C2461	C246	0.397620	0.367000	0.650400
C2471	C247	0.482210	0.268000	0.563800
C2481	C248	0.488500	0.257800	0.719400
H1551	H155	0.493000	0.287800	0.722500
C2491	C249	0.575600	0.916900	0.296000
H1561	H156	0.563200	0.923300	0.299200
C2501	C250	0.385060	0.071400	0.630500
H1571	H157	0.380300	0.087100	0.655900
C2511	C251	0.371000	0.413300	0.901600
C2521	C252	0.421980	0.142600	0.717900
H1581	H158	0.419400	0.147000	0.749100
C2531	C253	0.608600	0.904700	0.274800
H1591	H159	0.619500	0.905300	0.258300
C2541	C254	0.382230	0.379800	0.874900
C2551	C255	0.579200	0.874000	0.277100
H1601	H160	0.570400	0.852100	0.270000
C2561	C256	0.386890	0.394400	0.679500
C2571	C257	0.493970	0.179400	0.704100
H1611	H161	0.502000	0.155300	0.697500
C2581	C258	0.398540	0.028600	0.556500
H1621	H162	0.403200	0.013300	0.530800
C2591	C259	0.509580	0.242100	0.527900
H1631	H163	0.502800	0.230900	0.503200
C2601	C260	0.555390	0.254000	0.706800
C2611	C261	0.454210	0.275200	0.601400
H1641	H164	0.447800	0.275900	0.629200
C2621	C262	0.411990	0.113500	0.693800
H1651	H165	0.402500	0.097400	0.707900
C2631	C263	0.454120	0.273900	0.523400
H1661	H166	0.447500	0.273400	0.496000
C2641	C264	0.370370	0.992600	0.540800
C2651	C265	0.474400	0.171600	0.706300
H1671	H167	0.469600	0.142500	0.699500
C2661	C266	0.380790	0.118700	0.461100
H1681	H168	0.385000	0.106200	0.488700
C2671	C267	0.409450	0.056800	0.582100
H1691	H169	0.421400	0.062200	0.572900
C2681	C268	0.374710	0.044200	0.604600
H1701	H170	0.362600	0.040700	0.613000
C2691	C269	0.470280	0.250000	0.722600
H1711	H171	0.462400	0.274700	0.727800
C2701	C270	0.512150	0.282100	0.595800
H1721	H172	0.506600	0.299300	0.619100
N171	N17	0.587080	0.007700	0.375400
N181	N18	0.582560	0.140500	0.487700
N191	N19	0.566940	0.052300	0.347500
N201	N20	0.599930	0.989400	0.402400
H1731	H173	0.604700	0.963000	0.395400
H1741	H174	0.603400	0.004000	0.426800
N211	N21	0.598200	0.867300	0.269600
N221	N22	0.568020	0.018700	0.318400
N231	N23	0.425930	0.283100	0.560200
N241	N24	0.445190	0.199300	0.722900
O251	O25	0.374250	0.973200	0.507100
O261	O26	0.354940	0.523700	0.755000
O271	O27	0.348150	0.463000	0.797800
O281	O28	0.585190	0.245400	0.677000
O291	O29	0.357870	0.036700	0.363300
O301	O30	0.579620	0.298500	0.729800
O311	O31	0.344710	0.097700	0.333500
O321	O32	0.367280	0.451400	0.886500
O331	O33	0.366000	0.400700	0.940800
O341	O34	0.566200	0.254400	0.596900
O351	O35	0.352550	0.984600	0.557100
O361	O36	0.563710	0.217200	0.534400
Cu71	Cu7	0.586950	0.190670	0.534000
Cu81	Cu8	0.604460	0.313610	0.736100
Cu91	Cu9	0.593000	0.271680	0.616060
C2711	C271	0.429720	0.627100	0.128300
H1751	H175	0.433100	0.620300	0.098000
C2721	C272	0.365230	0.907600	0.235900
H1761	H176	0.357200	0.895200	0.257500
C2731	C273	0.439400	0.658000	0.153000
H1771	H177	0.448800	0.674100	0.138600
C2741	C274	0.419920	0.706000	0.029700
H1781	H178	0.429600	0.693000	0.046100
C2751	C275	0.371640	0.591700	0.931400
H1791	H179	0.370000	0.560500	0.938900
C2761	C276	0.366000	0.654300	0.884500
H1801	H180	0.359800	0.667000	0.859400
C2771	C277	0.416990	0.810100	0.089300
C2781	C278	0.355780	0.983400	0.265000
C2791	C279	0.379560	0.966700	0.208400
H1811	H181	0.382400	0.998300	0.209500
C2801	C280	0.416360	0.748800	0.035200
C2811	C281	0.445740	0.777000	0.061800
C2821	C282	0.355370	0.578500	0.862500
C2831	C283	0.422340	0.849700	0.101900
H1821	H182	0.433300	0.860100	0.089900
C2841	C284	0.550490	0.714100	0.186200
H1831	H183	0.559100	0.694800	0.172600
C2851	C285	0.586700	0.451400	0.811000
C2861	C286	0.537930	0.750100	0.063800
C2871	C287	0.530160	0.775100	0.098200
H1841	H184	0.537000	0.786900	0.122500
C2881	C288	0.387170	0.841100	0.395800
H1851	H185	0.383600	0.834100	0.425800
C2891	C289	0.401050	0.794300	0.110200
H1861	H186	0.396900	0.764300	0.104200
C2901	C290	0.374360	0.876900	0.207900
H1871	H187	0.371900	0.845200	0.208700
C2911	C291	0.388970	0.941700	0.179800
H1881	H188	0.397100	0.955800	0.159600
C2921	C292	0.520150	0.734200	0.208900
C2931	C293	0.375960	0.682300	0.912700
H1891	H189	0.377200	0.713700	0.905600
C2941	C294	0.366950	0.952900	0.234900
C2951	C295	0.394710	0.693200	0.979900
C2961	C296	0.398110	0.811700	0.369700
H1901	H190	0.401700	0.783100	0.381600
C2971	C297	0.403380	0.824400	0.327600
C2981	C298	0.528660	0.733600	0.029000
H1911	H191	0.534400	0.716900	0.005600
C2991	C299	0.531470	0.702200	0.186000
H1921	H192	0.527000	0.675500	0.171800
C3001	C300	0.414680	0.790300	0.299500
C3011	C301	0.435990	0.666700	0.198100
C3021	C302	0.398320	0.861800	0.309100
H1931	H193	0.401500	0.869000	0.278800
C3031	C303	0.571610	0.649900	0.952600
H1941	H194	0.565200	0.677800	0.951300
C3041	C304	0.413570	0.878000	0.130900
H1951	H195	0.418800	0.906600	0.137900
C3051	C305	0.579870	0.490600	0.836200
C3061	C306	0.575460	0.768700	0.203000
C3071	C307	0.501380	0.764900	0.060300
C3081	C308	0.591330	0.602600	0.989000
H1961	H196	0.599300	0.597200	0.013400
C3091	C309	0.380250	0.522600	0.069000
C3101	C310	0.544550	0.778800	0.232100
H1971	H197	0.549000	0.802600	0.250600
C3111	C311	0.558180	0.739900	0.063900
C3121	C312	0.403380	0.575700	0.118000
C3131	C313	0.365030	0.606600	0.893000
C3141	C314	0.435040	0.730000	0.249000
C3151	C315	0.411760	0.781900	0.254900
H1981	H198	0.402200	0.797400	0.240700
C3161	C316	0.579120	0.576700	0.919900
C3171	C317	0.500020	0.722100	0.211800
C3181	C318	0.589620	0.571700	0.957700
H1991	H199	0.596000	0.544000	0.961200
C3191	C319	0.384070	0.664800	0.951100
C3201	C320	0.463710	0.706100	0.218100
C3211	C321	0.569860	0.616400	0.917500
H2001	H200	0.562200	0.622100	0.892600
C3221	C322	0.392180	0.820800	0.137600
H2011	H201	0.381400	0.809300	0.150200
C3231	C323	0.577660	0.548200	0.882900
C3241	C324	0.415660	0.606700	0.146600
C3251	C325	0.438050	0.736900	0.290800
H2021	H202	0.447900	0.721100	0.303400
C3261	C326	0.420940	0.755000	0.231000
H2031	H203	0.418100	0.751700	0.199900
C3271	C327	0.473390	0.772000	0.100800
H2041	H204	0.479700	0.773000	0.128600
C3281	C328	0.410090	0.677900	0.000300
H2051	H205	0.414100	0.647900	0.994400
C3291	C329	0.526190	0.768900	0.230900
H2061	H206	0.518100	0.788200	0.246500
C3301	C330	0.400650	0.769300	0.010300
H2071	H207	0.398000	0.800900	0.011800
C3311	C331	0.391030	0.740800	0.986800
H2081	H208	0.380600	0.752700	0.972800
C3321	C332	0.604700	0.444400	0.803500
H2091	H209	0.613800	0.463500	0.815800
C3331	C333	0.472370	0.771300	0.021900
H2101	H210	0.478500	0.771700	0.993700
C3341	C334	0.387970	0.891400	0.334800
H2111	H211	0.385000	0.920500	0.323000
C3351	C335	0.428870	0.764000	0.319100
H2121	H212	0.431600	0.765600	0.350400
C3361	C336	0.397620	0.867000	0.150400
C3371	C337	0.482210	0.768000	0.063800
C3381	C338	0.488500	0.757800	0.219400
H2131	H213	0.493000	0.787800	0.222500
C3391	C339	0.575600	0.416900	0.796000
H2141	H214	0.563200	0.423300	0.799200
C3401	C340	0.385060	0.571400	0.130500
H2151	H215	0.380300	0.587100	0.155900
C3411	C341	0.371000	0.913300	0.401600
C3421	C342	0.421980	0.642600	0.217900
H2161	H216	0.419400	0.647000	0.249100
C3431	C343	0.608600	0.404700	0.774800
H2171	H217	0.619500	0.405300	0.758300
C3441	C344	0.382230	0.879800	0.374900
C3451	C345	0.579200	0.374000	0.777100
H2181	H218	0.570400	0.352100	0.770000
C3461	C346	0.386890	0.894400	0.179500
C3471	C347	0.493970	0.679400	0.204100
H2191	H219	0.502000	0.655300	0.197500
C3481	C348	0.398540	0.528600	0.056500
H2201	H220	0.403200	0.513300	0.030800
C3491	C349	0.509580	0.742100	0.027900
H2211	H221	0.502800	0.730900	0.003200
C3501	C350	0.555390	0.754000	0.206800
C3511	C351	0.454210	0.775200	0.101400
H2221	H222	0.447800	0.775900	0.129200
C3521	C352	0.411990	0.613500	0.193800
H2231	H223	0.402500	0.597400	0.207900
C3531	C353	0.454120	0.773900	0.023400
H2241	H224	0.447500	0.773400	0.996000
C3541	C354	0.370370	0.492600	0.040800
C3551	C355	0.474400	0.671600	0.206300
H2251	H225	0.469600	0.642500	0.199500
C3561	C356	0.380790	0.618700	0.961100
H2261	H226	0.385000	0.606200	0.988700
C3571	C357	0.409450	0.556800	0.082100
H2271	H227	0.421400	0.562200	0.072900
C3581	C358	0.374710	0.544200	0.104600
H2281	H228	0.362600	0.540700	0.113000
C3591	C359	0.470280	0.750000	0.222600
H2291	H229	0.462400	0.774700	0.227800
C3601	C360	0.512150	0.782100	0.095800
H2301	H230	0.506600	0.799300	0.119100
N251	N25	0.587080	0.507700	0.875400
N261	N26	0.582560	0.640500	0.987700
N271	N27	0.566940	0.552300	0.847500
N281	N28	0.599930	0.489400	0.902400
H2311	H231	0.604700	0.463000	0.895400
H2321	H232	0.603400	0.504000	0.926800
N291	N29	0.598200	0.367300	0.769600
N301	N30	0.568020	0.518700	0.818400
N311	N31	0.425930	0.783100	0.060200
N321	N32	0.445190	0.699300	0.222900
O371	O37	0.374250	0.473200	0.007100
O381	O38	0.354940	0.023700	0.255000
O391	O39	0.348150	0.963000	0.297800
O401	O40	0.585190	0.745400	0.177000
O411	O41	0.357870	0.536700	0.863300
O421	O42	0.579620	0.798500	0.229800
O431	O43	0.344710	0.597700	0.833500
O441	O44	0.367280	0.951400	0.386500
O451	O45	0.366000	0.900700	0.440800
O461	O46	0.566200	0.754400	0.096900
O471	O47	0.352550	0.484600	0.057100
O481	O48	0.563710	0.717200	0.034400
Cu101	Cu10	0.586950	0.690670	0.034000
Cu111	Cu11	0.604460	0.813610	0.236100
Cu121	Cu12	0.593000	0.771680	0.116060
C3611	C361	0.179720	0.122900	0.378300
H2331	H233	0.183100	0.129700	0.348000
C3621	C362	0.115230	0.842400	0.485900
H2341	H234	0.107200	0.854800	0.507500
C3631	C363	0.189400	0.092000	0.403000
H2351	H235	0.198800	0.075900	0.388600
C3641	C364	0.169920	0.044000	0.279700
H2361	H236	0.179600	0.057000	0.296100
C3651	C365	0.121640	0.158300	0.181400
H2371	H237	0.120000	0.189500	0.188900
C3661	C366	0.116000	0.095700	0.134500
H2381	H238	0.109800	0.083000	0.109400
C3671	C367	0.166990	0.939900	0.339300
C3681	C368	0.105780	0.766600	0.515000
C3691	C369	0.129560	0.783300	0.458400
H2391	H239	0.132400	0.751700	0.459500
C3701	C370	0.166360	0.001200	0.285200
C3711	C371	0.195740	0.973000	0.311800
C3721	C372	0.105370	0.171500	0.112500
C3731	C373	0.172340	0.900300	0.351900
H2401	H240	0.183300	0.889900	0.339900
C3741	C374	0.300490	0.035900	0.436200
H2411	H241	0.309100	0.055200	0.422600
C3751	C375	0.336700	0.298600	0.061000
C3761	C376	0.287930	0.999900	0.313800
C3771	C377	0.280160	0.974900	0.348200
H2421	H242	0.287000	0.963100	0.372500
C3781	C378	0.137170	0.908900	0.645800
H2431	H243	0.133600	0.915900	0.675800
C3791	C379	0.151050	0.955700	0.360200
H2441	H244	0.146900	0.985700	0.354200
C3801	C380	0.124360	0.873100	0.457900
H2451	H245	0.121900	0.904800	0.458700
C3811	C381	0.138970	0.808300	0.429800
H2461	H246	0.147100	0.794200	0.409600
C3821	C382	0.270150	0.015800	0.458900
C3831	C383	0.125960	0.067700	0.162700
H2471	H247	0.127200	0.036300	0.155600
C3841	C384	0.116950	0.797100	0.484900
C3851	C385	0.144710	0.056800	0.229900
C3861	C386	0.148110	0.938300	0.619700
H2481	H248	0.151700	0.966900	0.631600
C3871	C387	0.153380	0.925600	0.577600
C3881	C388	0.278660	0.016400	0.279000
H2491	H249	0.284400	0.033100	0.255600
C3891	C389	0.281470	0.047800	0.436000
H2501	H250	0.277000	0.074500	0.421800
C3901	C390	0.164680	0.959700	0.549500
C3911	C391	0.185990	0.083300	0.448100
C3921	C392	0.148320	0.888200	0.559100
H2511	H251	0.151500	0.881000	0.528800
C3931	C393	0.321610	0.100100	0.202600
H2521	H252	0.315200	0.072200	0.201300
C3941	C394	0.163570	0.872000	0.380900
H2531	H253	0.168800	0.843400	0.387900
C3951	C395	0.329870	0.259400	0.086200
C3961	C396	0.325460	0.981300	0.453000
C3971	C397	0.251380	0.985100	0.310300
C3981	C398	0.341330	0.147400	0.239000
H2541	H254	0.349300	0.152800	0.263400
C3991	C399	0.130250	0.227400	0.319000
C4001	C400	0.294550	0.971200	0.482100
H2551	H255	0.299000	0.947400	0.500600
C4011	C401	0.308180	0.010100	0.313900
C4021	C402	0.153380	0.174300	0.368000
C4031	C403	0.115030	0.143400	0.143000
C4041	C404	0.185040	0.020000	0.499000
C4051	C405	0.161760	0.968100	0.504900
H2561	H256	0.152200	0.952600	0.490700
C4061	C406	0.329120	0.173300	0.169900
C4071	C407	0.250020	0.027900	0.461800
C4081	C408	0.339620	0.178300	0.207700
H2571	H257	0.346000	0.206000	0.211200
C4091	C409	0.134070	0.085200	0.201100
C4101	C410	0.213710	0.043900	0.468100
C4111	C411	0.319860	0.133600	0.167500
H2581	H258	0.312200	0.127900	0.142600
C4121	C412	0.142180	0.929200	0.387600
H2591	H259	0.131400	0.940700	0.400200
C4131	C413	0.327660	0.201800	0.132900
C4141	C414	0.165660	0.143300	0.396600
C4151	C415	0.188050	0.013100	0.540800
H2601	H260	0.197900	0.028900	0.553400
C4161	C416	0.170940	0.995000	0.481000
H2611	H261	0.168100	0.998300	0.449900
C4171	C417	0.223390	0.978000	0.350800
H2621	H262	0.229700	0.977000	0.378600
C4181	C418	0.160090	0.072100	0.250300
H2631	H263	0.164100	0.102100	0.244400
C4191	C419	0.276190	0.981100	0.480900
H2641	H264	0.268100	0.961800	0.496500
C4201	C420	0.150650	0.980700	0.260300
H2651	H265	0.148000	0.949100	0.261800
C4211	C421	0.141030	0.009200	0.236800
H2661	H266	0.130600	0.997300	0.222800
C4221	C422	0.354700	0.305600	0.053500
H2671	H267	0.363800	0.286500	0.065800
C4231	C423	0.222370	0.978700	0.271900
H2681	H268	0.228500	0.978300	0.243700
C4241	C424	0.137970	0.858600	0.584800
H2691	H269	0.135000	0.829500	0.573000
C4251	C425	0.178870	0.986000	0.569100
H2701	H270	0.181600	0.984400	0.600400
C4261	C426	0.147620	0.883000	0.400400
C4271	C427	0.232210	0.982000	0.313800
C4281	C428	0.238500	0.992200	0.469400
H2711	H271	0.243000	0.962200	0.472500
C4291	C429	0.325600	0.333100	0.046000
H2721	H272	0.313200	0.326700	0.049200
C4301	C430	0.135060	0.178600	0.380500
H2731	H273	0.130300	0.162900	0.405900
C4311	C431	0.121000	0.836700	0.651600
C4321	C432	0.171980	0.107400	0.467900
H2741	H274	0.169400	0.103000	0.499100
C4331	C433	0.358600	0.345300	0.024800
H2751	H275	0.369500	0.344700	0.008300
C4341	C434	0.132230	0.870200	0.624900
C4351	C435	0.329200	0.376000	0.027100
H2761	H276	0.320400	0.397900	0.020000
C4361	C436	0.136890	0.855600	0.429500
C4371	C437	0.243970	0.070600	0.454100
H2771	H277	0.252000	0.094700	0.447500
C4381	C438	0.148540	0.221400	0.306500
H2781	H278	0.153200	0.236700	0.280800
C4391	C439	0.259580	0.007900	0.277900
H2791	H279	0.252800	0.019100	0.253200
C4401	C440	0.305390	0.996000	0.456800
C4411	C441	0.204210	0.974800	0.351400
H2801	H280	0.197800	0.974100	0.379200
C4421	C442	0.161990	0.136500	0.443800
H2811	H281	0.152500	0.152600	0.457900
C4431	C443	0.204120	0.976100	0.273400
H2821	H282	0.197500	0.976600	0.246000
C4441	C444	0.120370	0.257400	0.290800
C4451	C445	0.224400	0.078400	0.456300
H2831	H283	0.219600	0.107500	0.449500
C4461	C446	0.130790	0.131300	0.211100
H2841	H284	0.135000	0.143800	0.238700
C4471	C447	0.159450	0.193200	0.332100
H2851	H285	0.171400	0.187800	0.322900
C4481	C448	0.124710	0.205800	0.354600
H2861	H286	0.112600	0.209300	0.363000
C4491	C449	0.220280	0.000000	0.472600
H2871	H287	0.212400	0.975300	0.477800
C4501	C450	0.262150	0.967900	0.345800
H2881	H288	0.256600	0.950700	0.369100
N331	N33	0.337080	0.242300	0.125400
N341	N34	0.332560	0.109500	0.237700
N351	N35	0.316940	0.197700	0.097500
N361	N36	0.349930	0.260600	0.152400
H2891	H289	0.354700	0.287000	0.145400
H2901	H290	0.353400	0.246000	0.176800
N371	N37	0.348200	0.382700	0.019600
N381	N38	0.318020	0.231300	0.068400
N391	N39	0.175930	0.966900	0.310200
N401	N40	0.195190	0.050700	0.472900
O491	O49	0.124250	0.276800	0.257100
O501	O50	0.104940	0.726300	0.505000
O511	O51	0.098150	0.787000	0.547800
O521	O52	0.335190	0.004600	0.427000
O531	O53	0.107870	0.213300	0.113300
O541	O54	0.329620	0.951500	0.479800
O551	O55	0.094710	0.152300	0.083500
O561	O56	0.117280	0.798600	0.636500
O571	O57	0.116000	0.849300	0.690800
O581	O58	0.316200	0.995600	0.346900
O591	O59	0.102550	0.265400	0.307100
O601	O60	0.313710	0.032800	0.284400
Cu131	Cu13	0.336950	0.059330	0.284000
Cu141	Cu14	0.354460	0.936390	0.486100
Cu151	Cu15	0.343000	0.978320	0.366060
C4511	C451	0.179720	0.622900	0.878300
H2911	H291	0.183100	0.629700	0.848000
C4521	C452	0.115230	0.342400	0.985900
H2921	H292	0.107200	0.354800	0.007500
C4531	C453	0.189400	0.592000	0.903000
H2931	H293	0.198800	0.575900	0.888600
C4541	C454	0.169920	0.544000	0.779700
H2941	H294	0.179600	0.557000	0.796100
C4551	C455	0.121640	0.658300	0.681400
H2951	H295	0.120000	0.689500	0.688900
C4561	C456	0.116000	0.595700	0.634500
H2961	H296	0.109800	0.583000	0.609400
C4571	C457	0.166990	0.439900	0.839300
C4581	C458	0.105780	0.266600	0.015000
C4591	C459	0.129560	0.283300	0.958400
H2971	H297	0.132400	0.251700	0.959500
C4601	C460	0.166360	0.501200	0.785200
C4611	C461	0.195740	0.473000	0.811800
C4621	C462	0.105370	0.671500	0.612500
C4631	C463	0.172340	0.400300	0.851900
H2981	H298	0.183300	0.389900	0.839900
C4641	C464	0.300490	0.535900	0.936200
H2991	H299	0.309100	0.555200	0.922600
C4651	C465	0.336700	0.798600	0.561000
C4661	C466	0.287930	0.499900	0.813800
C4671	C467	0.280160	0.474900	0.848200
H3001	H300	0.287000	0.463100	0.872500
C4681	C468	0.137170	0.408900	0.145800
H3011	H301	0.133600	0.415900	0.175800
C4691	C469	0.151050	0.455700	0.860200
H3021	H302	0.146900	0.485700	0.854200
C4701	C470	0.124360	0.373100	0.957900
H3031	H303	0.121900	0.404800	0.958700
C4711	C471	0.138970	0.308300	0.929800
H3041	H304	0.147100	0.294200	0.909600
C4721	C472	0.270150	0.515800	0.958900
C4731	C473	0.125960	0.567700	0.662700
H3051	H305	0.127200	0.536300	0.655600
C4741	C474	0.116950	0.297100	0.984900
C4751	C475	0.144710	0.556800	0.729900
C4761	C476	0.148110	0.438300	0.119700
H3061	H306	0.151700	0.466900	0.131600
C4771	C477	0.153380	0.425600	0.077600
C4781	C478	0.278660	0.516400	0.779000
H3071	H307	0.284400	0.533100	0.755600
C4791	C479	0.281470	0.547800	0.936000
H3081	H308	0.277000	0.574500	0.921800
C4801	C480	0.164680	0.459700	0.049500
C4811	C481	0.185990	0.583300	0.948100
C4821	C482	0.148320	0.388200	0.059100
H3091	H309	0.151500	0.381000	0.028800
C4831	C483	0.321610	0.600100	0.702600
H3101	H310	0.315200	0.572200	0.701300
C4841	C484	0.163570	0.372000	0.880900
H3111	H311	0.168800	0.343400	0.887900
C4851	C485	0.329870	0.759400	0.586200
C4861	C486	0.325460	0.481300	0.953000
C4871	C487	0.251380	0.485100	0.810300
C4881	C488	0.341330	0.647400	0.739000
H3121	H312	0.349300	0.652800	0.763400
C4891	C489	0.130250	0.727400	0.819000
C4901	C490	0.294550	0.471200	0.982100
H3131	H313	0.299000	0.447400	0.000600
C4911	C491	0.308180	0.510100	0.813900
C4921	C492	0.153380	0.674300	0.868000
C4931	C493	0.115030	0.643400	0.643000
C4941	C494	0.185040	0.520000	0.999000
C4951	C495	0.161760	0.468100	0.004900
H3141	H314	0.152200	0.452600	0.990700
C4961	C496	0.329120	0.673300	0.669900
C4971	C497	0.250020	0.527900	0.961800
C4981	C498	0.339620	0.678300	0.707700
H3151	H315	0.346000	0.706000	0.711200
C4991	C499	0.134070	0.585200	0.701100
C5001	C500	0.213710	0.543900	0.968100
C5011	C501	0.319860	0.633600	0.667500
H3161	H316	0.312200	0.627900	0.642600
C5021	C502	0.142180	0.429200	0.887600
H3171	H317	0.131400	0.440700	0.900200
C5031	C503	0.327660	0.701800	0.632900
C5041	C504	0.165660	0.643300	0.896600
C5051	C505	0.188050	0.513100	0.040800
H3181	H318	0.197900	0.528900	0.053400
C5061	C506	0.170940	0.495000	0.981000
H3191	H319	0.168100	0.498300	0.949900
C5071	C507	0.223390	0.478000	0.850800
H3201	H320	0.229700	0.477000	0.878600
C5081	C508	0.160090	0.572100	0.750300
H3211	H321	0.164100	0.602100	0.744400
C5091	C509	0.276190	0.481100	0.980900
H3221	H322	0.268100	0.461800	0.996500
C5101	C510	0.150650	0.480700	0.760300
H3231	H323	0.148000	0.449100	0.761800
C5111	C511	0.141030	0.509200	0.736800
H3241	H324	0.130600	0.497300	0.722800
C5121	C512	0.354700	0.805600	0.553500
H3251	H325	0.363800	0.786500	0.565800
C5131	C513	0.222370	0.478700	0.771900
H3261	H326	0.228500	0.478300	0.743700
C5141	C514	0.137970	0.358600	0.084800
H3271	H327	0.135000	0.329500	0.073000
C5151	C515	0.178870	0.486000	0.069100
H3281	H328	0.181600	0.484400	0.100400
C5161	C516	0.147620	0.383000	0.900400
C5171	C517	0.232210	0.482000	0.813800
C5181	C518	0.238500	0.492200	0.969400
H3291	H329	0.243000	0.462200	0.972500
C5191	C519	0.325600	0.833100	0.546000
H3301	H330	0.313200	0.826700	0.549200
C5201	C520	0.135060	0.678600	0.880500
H3311	H331	0.130300	0.662900	0.905900
C5211	C521	0.121000	0.336700	0.151600
C5221	C522	0.171980	0.607400	0.967900
H3321	H332	0.169400	0.603000	0.999100
C5231	C523	0.358600	0.845300	0.524800
H3331	H333	0.369500	0.844700	0.508300
C5241	C524	0.132230	0.370200	0.124900
C5251	C525	0.329200	0.876000	0.527100
H3341	H334	0.320400	0.897900	0.520000
C5261	C526	0.136890	0.355600	0.929500
C5271	C527	0.243970	0.570600	0.954100
H3351	H335	0.252000	0.594700	0.947500
C5281	C528	0.148540	0.721400	0.806500
H3361	H336	0.153200	0.736700	0.780800
C5291	C529	0.259580	0.507900	0.777900
H3371	H337	0.252800	0.519100	0.753200
C5301	C530	0.305390	0.496000	0.956800
C5311	C531	0.204210	0.474800	0.851400
H3381	H338	0.197800	0.474100	0.879200
C5321	C532	0.161990	0.636500	0.943800
H3391	H339	0.152500	0.652600	0.957900
C5331	C533	0.204120	0.476100	0.773400
H3401	H340	0.197500	0.476600	0.746000
C5341	C534	0.120370	0.757400	0.790800
C5351	C535	0.224400	0.578400	0.956300
H3411	H341	0.219600	0.607500	0.949500
C5361	C536	0.130790	0.631300	0.711100
H3421	H342	0.135000	0.643800	0.738700
C5371	C537	0.159450	0.693200	0.832100
H3431	H343	0.171400	0.687800	0.822900
C5381	C538	0.124710	0.705800	0.854600
H3441	H344	0.112600	0.709300	0.863000
C5391	C539	0.220280	0.500000	0.972600
H3451	H345	0.212400	0.475300	0.977800
C5401	C540	0.262150	0.467900	0.845800
H3461	H346	0.256600	0.450700	0.869100
N411	N41	0.337080	0.742300	0.625400
N421	N42	0.332560	0.609500	0.737700
N431	N43	0.316940	0.697700	0.597500
N441	N44	0.349930	0.760600	0.652400
H3471	H347	0.354700	0.787000	0.645400
H3481	H348	0.353400	0.746000	0.676800
N451	N45	0.348200	0.882700	0.519600
N461	N46	0.318020	0.731300	0.568400
N471	N47	0.175930	0.466900	0.810200
N481	N48	0.195190	0.550700	0.972900
O611	O61	0.124250	0.776800	0.757100
O621	O62	0.104940	0.226300	0.005000
O631	O63	0.098150	0.287000	0.047800
O641	O64	0.335190	0.504600	0.927000
O651	O65	0.107870	0.713300	0.613300
O661	O66	0.329620	0.451500	0.979800
O671	O67	0.094710	0.652300	0.583500
O681	O68	0.117280	0.298600	0.136500
O691	O69	0.116000	0.349300	0.190800
O701	O70	0.316200	0.495600	0.846900
O711	O71	0.102550	0.765400	0.807100
O721	O72	0.313710	0.532800	0.784400
Cu161	Cu16	0.336950	0.559330	0.784000
Cu171	Cu17	0.354460	0.436390	0.986100
Cu181	Cu18	0.343000	0.478320	0.866060
C5411	C541	0.679720	0.122900	0.878300
H3491	H349	0.683100	0.129700	0.848000
C5421	C542	0.615230	0.842400	0.985900
H3501	H350	0.607200	0.854800	0.007500
C5431	C543	0.689400	0.092000	0.903000
H3511	H351	0.698800	0.075900	0.888600
C5441	C544	0.669920	0.044000	0.779700
H3521	H352	0.679600	0.057000	0.796100
C5451	C545	0.621640	0.158300	0.681400
H3531	H353	0.620000	0.189500	0.688900
C5461	C546	0.616000	0.095700	0.634500
H3541	H354	0.609800	0.083000	0.609400
C5471	C547	0.666990	0.939900	0.839300
C5481	C548	0.605780	0.766600	0.015000
C5491	C549	0.629560	0.783300	0.958400
H3551	H355	0.632400	0.751700	0.959500
C5501	C550	0.666360	0.001200	0.785200
C5511	C551	0.695740	0.973000	0.811800
C5521	C552	0.605370	0.171500	0.612500
C5531	C553	0.672340	0.900300	0.851900
H3561	H356	0.683300	0.889900	0.839900
C5541	C554	0.800490	0.035900	0.936200
H3571	H357	0.809100	0.055200	0.922600
C5551	C555	0.836700	0.298600	0.561000
C5561	C556	0.787930	0.999900	0.813800
C5571	C557	0.780160	0.974900	0.848200
H3581	H358	0.787000	0.963100	0.872500
C5581	C558	0.637170	0.908900	0.145800
H3591	H359	0.633600	0.915900	0.175800
C5591	C559	0.651050	0.955700	0.860200
H3601	H360	0.646900	0.985700	0.854200
C5601	C560	0.624360	0.873100	0.957900
H3611	H361	0.621900	0.904800	0.958700
C5611	C561	0.638970	0.808300	0.929800
H3621	H362	0.647100	0.794200	0.909600
C5621	C562	0.770150	0.015800	0.958900
C5631	C563	0.625960	0.067700	0.662700
H3631	H363	0.627200	0.036300	0.655600
C5641	C564	0.616950	0.797100	0.984900
C5651	C565	0.644710	0.056800	0.729900
C5661	C566	0.648110	0.938300	0.119700
H3641	H364	0.651700	0.966900	0.131600
C5671	C567	0.653380	0.925600	0.077600
C5681	C568	0.778660	0.016400	0.779000
H3651	H365	0.784400	0.033100	0.755600
C5691	C569	0.781470	0.047800	0.936000
H3661	H366	0.777000	0.074500	0.921800
C5701	C570	0.664680	0.959700	0.049500
C5711	C571	0.685990	0.083300	0.948100
C5721	C572	0.648320	0.888200	0.059100
H3671	H367	0.651500	0.881000	0.028800
C5731	C573	0.821610	0.100100	0.702600
H3681	H368	0.815200	0.072200	0.701300
C5741	C574	0.663570	0.872000	0.880900
H3691	H369	0.668800	0.843400	0.887900
C5751	C575	0.829870	0.259400	0.586200
C5761	C576	0.825460	0.981300	0.953000
C5771	C577	0.751380	0.985100	0.810300
C5781	C578	0.841330	0.147400	0.739000
H3701	H370	0.849300	0.152800	0.763400
C5791	C579	0.630250	0.227400	0.819000
C5801	C580	0.794550	0.971200	0.982100
H3711	H371	0.799000	0.947400	0.000600
C5811	C581	0.808180	0.010100	0.813900
C5821	C582	0.653380	0.174300	0.868000
C5831	C583	0.615030	0.143400	0.643000
C5841	C584	0.685040	0.020000	0.999000
C5851	C585	0.661760	0.968100	0.004900
H3721	H372	0.652200	0.952600	0.990700
C5861	C586	0.829120	0.173300	0.669900
C5871	C587	0.750020	0.027900	0.961800
C5881	C588	0.839620	0.178300	0.707700
H3731	H373	0.846000	0.206000	0.711200
C5891	C589	0.634070	0.085200	0.701100
C5901	C590	0.713710	0.043900	0.968100
C5911	C591	0.819860	0.133600	0.667500
H3741	H374	0.812200	0.127900	0.642600
C5921	C592	0.642180	0.929200	0.887600
H3751	H375	0.631400	0.940700	0.900200
C5931	C593	0.827660	0.201800	0.632900
C5941	C594	0.665660	0.143300	0.896600
C5951	C595	0.688050	0.013100	0.040800
H3761	H376	0.697900	0.028900	0.053400
C5961	C596	0.670940	0.995000	0.981000
H3771	H377	0.668100	0.998300	0.949900
C5971	C597	0.723390	0.978000	0.850800
H3781	H378	0.729700	0.977000	0.878600
C5981	C598	0.660090	0.072100	0.750300
H3791	H379	0.664100	0.102100	0.744400
C5991	C599	0.776190	0.981100	0.980900
H3801	H380	0.768100	0.961800	0.996500
C6001	C600	0.650650	0.980700	0.760300
H3811	H381	0.648000	0.949100	0.761800
C6011	C601	0.641030	0.009200	0.736800
H3821	H382	0.630600	0.997300	0.722800
C6021	C602	0.854700	0.305600	0.553500
H3831	H383	0.863800	0.286500	0.565800
C6031	C603	0.722370	0.978700	0.771900
H3841	H384	0.728500	0.978300	0.743700
C6041	C604	0.637970	0.858600	0.084800
H3851	H385	0.635000	0.829500	0.073000
C6051	C605	0.678870	0.986000	0.069100
H3861	H386	0.681600	0.984400	0.100400
C6061	C606	0.647620	0.883000	0.900400
C6071	C607	0.732210	0.982000	0.813800
C6081	C608	0.738500	0.992200	0.969400
H3871	H387	0.743000	0.962200	0.972500
C6091	C609	0.825600	0.333100	0.546000
H3881	H388	0.813200	0.326700	0.549200
C6101	C610	0.635060	0.178600	0.880500
H3891	H389	0.630300	0.162900	0.905900
C6111	C611	0.621000	0.836700	0.151600
C6121	C612	0.671980	0.107400	0.967900
H3901	H390	0.669400	0.103000	0.999100
C6131	C613	0.858600	0.345300	0.524800
H3911	H391	0.869500	0.344700	0.508300
C6141	C614	0.632230	0.870200	0.124900
C6151	C615	0.829200	0.376000	0.527100
H3921	H392	0.820400	0.397900	0.520000
C6161	C616	0.636890	0.855600	0.929500
C6171	C617	0.743970	0.070600	0.954100
H3931	H393	0.752000	0.094700	0.947500
C6181	C618	0.648540	0.221400	0.806500
H3941	H394	0.653200	0.236700	0.780800
C6191	C619	0.759580	0.007900	0.777900
H3951	H395	0.752800	0.019100	0.753200
C6201	C620	0.805390	0.996000	0.956800
C6211	C621	0.704210	0.974800	0.851400
H3961	H396	0.697800	0.974100	0.879200
C6221	C622	0.661990	0.136500	0.943800
H3971	H397	0.652500	0.152600	0.957900
C6231	C623	0.704120	0.976100	0.773400
H3981	H398	0.697500	0.976600	0.746000
C6241	C624	0.620370	0.257400	0.790800
C6251	C625	0.724400	0.078400	0.956300
H3991	H399	0.719600	0.107500	0.949500
C6261	C626	0.630790	0.131300	0.711100
H4001	H400	0.635000	0.143800	0.738700
C6271	C627	0.659450	0.193200	0.832100
H4011	H401	0.671400	0.187800	0.822900
C6281	C628	0.624710	0.205800	0.854600
H4021	H402	0.612600	0.209300	0.863000
C6291	C629	0.720280	0.000000	0.972600
H4031	H403	0.712400	0.975300	0.977800
C6301	C630	0.762150	0.967900	0.845800
H4041	H404	0.756600	0.950700	0.869100
N491	N49	0.837080	0.242300	0.625400
N501	N50	0.832560	0.109500	0.737700
N511	N51	0.816940	0.197700	0.597500
N521	N52	0.849930	0.260600	0.652400
H4051	H405	0.854700	0.287000	0.645400
H4061	H406	0.853400	0.246000	0.676800
N531	N53	0.848200	0.382700	0.519600
N541	N54	0.818020	0.231300	0.568400
N551	N55	0.675930	0.966900	0.810200
N561	N56	0.695190	0.050700	0.972900
O731	O73	0.624250	0.276800	0.757100
O741	O74	0.604940	0.726300	0.005000
O751	O75	0.598150	0.787000	0.047800
O761	O76	0.835190	0.004600	0.927000
O771	O77	0.607870	0.213300	0.613300
O781	O78	0.829620	0.951500	0.979800
O791	O79	0.594710	0.152300	0.583500
O801	O80	0.617280	0.798600	0.136500
O811	O81	0.616000	0.849300	0.190800
O821	O82	0.816200	0.995600	0.846900
O831	O83	0.602550	0.265400	0.807100
O841	O84	0.813710	0.032800	0.784400
Cu191	Cu19	0.836950	0.059330	0.784000
Cu201	Cu20	0.854460	0.936390	0.986100
Cu211	Cu21	0.843000	0.978320	0.866060
C6311	C631	0.679720	0.622900	0.378300
H4071	H407	0.683100	0.629700	0.348000
C6321	C632	0.615230	0.342400	0.485900
H4081	H408	0.607200	0.354800	0.507500
C6331	C633	0.689400	0.592000	0.403000
H4091	H409	0.698800	0.575900	0.388600
C6341	C634	0.669920	0.544000	0.279700
H4101	H410	0.679600	0.557000	0.296100
C6351	C635	0.621640	0.658300	0.181400
H4111	H411	0.620000	0.689500	0.188900
C6361	C636	0.616000	0.595700	0.134500
H4121	H412	0.609800	0.583000	0.109400
C6371	C637	0.666990	0.439900	0.339300
C6381	C638	0.605780	0.266600	0.515000
C6391	C639	0.629560	0.283300	0.458400
H4131	H413	0.632400	0.251700	0.459500
C6401	C640	0.666360	0.501200	0.285200
C6411	C641	0.695740	0.473000	0.311800
C6421	C642	0.605370	0.671500	0.112500
C6431	C643	0.672340	0.400300	0.351900
H4141	H414	0.683300	0.389900	0.339900
C6441	C644	0.800490	0.535900	0.436200
H4151	H415	0.809100	0.555200	0.422600
C6451	C645	0.836700	0.798600	0.061000
C6461	C646	0.787930	0.499900	0.313800
C6471	C647	0.780160	0.474900	0.348200
H4161	H416	0.787000	0.463100	0.372500
C6481	C648	0.637170	0.408900	0.645800
H4171	H417	0.633600	0.415900	0.675800
C6491	C649	0.651050	0.455700	0.360200
H4181	H418	0.646900	0.485700	0.354200
C6501	C650	0.624360	0.373100	0.457900
H4191	H419	0.621900	0.404800	0.458700
C6511	C651	0.638970	0.308300	0.429800
H4201	H420	0.647100	0.294200	0.409600
C6521	C652	0.770150	0.515800	0.458900
C6531	C653	0.625960	0.567700	0.162700
H4211	H421	0.627200	0.536300	0.155600
C6541	C654	0.616950	0.297100	0.484900
C6551	C655	0.644710	0.556800	0.229900
C6561	C656	0.648110	0.438300	0.619700
H4221	H422	0.651700	0.466900	0.631600
C6571	C657	0.653380	0.425600	0.577600
C6581	C658	0.778660	0.516400	0.279000
H4231	H423	0.784400	0.533100	0.255600
C6591	C659	0.781470	0.547800	0.436000
H4241	H424	0.777000	0.574500	0.421800
C6601	C660	0.664680	0.459700	0.549500
C6611	C661	0.685990	0.583300	0.448100
C6621	C662	0.648320	0.388200	0.559100
H4251	H425	0.651500	0.381000	0.528800
C6631	C663	0.821610	0.600100	0.202600
H4261	H426	0.815200	0.572200	0.201300
C6641	C664	0.663570	0.372000	0.380900
H4271	H427	0.668800	0.343400	0.387900
C6651	C665	0.829870	0.759400	0.086200
C6661	C666	0.825460	0.481300	0.453000
C6671	C667	0.751380	0.485100	0.310300
C6681	C668	0.841330	0.647400	0.239000
H4281	H428	0.849300	0.652800	0.263400
C6691	C669	0.630250	0.727400	0.319000
C6701	C670	0.794550	0.471200	0.482100
H4291	H429	0.799000	0.447400	0.500600
C6711	C671	0.808180	0.510100	0.313900
C6721	C672	0.653380	0.674300	0.368000
C6731	C673	0.615030	0.643400	0.143000
C6741	C674	0.685040	0.520000	0.499000
C6751	C675	0.661760	0.468100	0.504900
H4301	H430	0.652200	0.452600	0.490700
C6761	C676	0.829120	0.673300	0.169900
C6771	C677	0.750020	0.527900	0.461800
C6781	C678	0.839620	0.678300	0.207700
H4311	H431	0.846000	0.706000	0.211200
C6791	C679	0.634070	0.585200	0.201100
C6801	C680	0.713710	0.543900	0.468100
C6811	C681	0.819860	0.633600	0.167500
H4321	H432	0.812200	0.627900	0.142600
C6821	C682	0.642180	0.429200	0.387600
H4331	H433	0.631400	0.440700	0.400200
C6831	C683	0.827660	0.701800	0.132900
C6841	C684	0.665660	0.643300	0.396600
C6851	C685	0.688050	0.513100	0.540800
H4341	H434	0.697900	0.528900	0.553400
C6861	C686	0.670940	0.495000	0.481000
H4351	H435	0.668100	0.498300	0.449900
C6871	C687	0.723390	0.478000	0.350800
H4361	H436	0.729700	0.477000	0.378600
C6881	C688	0.660090	0.572100	0.250300
H4371	H437	0.664100	0.602100	0.244400
C6891	C689	0.776190	0.481100	0.480900
H4381	H438	0.768100	0.461800	0.496500
C6901	C690	0.650650	0.480700	0.260300
H4391	H439	0.648000	0.449100	0.261800
C6911	C691	0.641030	0.509200	0.236800
H4401	H440	0.630600	0.497300	0.222800
C6921	C692	0.854700	0.805600	0.053500
H4411	H441	0.863800	0.786500	0.065800
C6931	C693	0.722370	0.478700	0.271900
H4421	H442	0.728500	0.478300	0.243700
C6941	C694	0.637970	0.358600	0.584800
H4431	H443	0.635000	0.329500	0.573000
C6951	C695	0.678870	0.486000	0.569100
H4441	H444	0.681600	0.484400	0.600400
C6961	C696	0.647620	0.383000	0.400400
C6971	C697	0.732210	0.482000	0.313800
C6981	C698	0.738500	0.492200	0.469400
H4451	H445	0.743000	0.462200	0.472500
C6991	C699	0.825600	0.833100	0.046000
H4461	H446	0.813200	0.826700	0.049200
C7001	C700	0.635060	0.678600	0.380500
H4471	H447	0.630300	0.662900	0.405900
C7011	C701	0.621000	0.336700	0.651600
C7021	C702	0.671980	0.607400	0.467900
H4481	H448	0.669400	0.603000	0.499100
C7031	C703	0.858600	0.845300	0.024800
H4491	H449	0.869500	0.844700	0.008300
C7041	C704	0.632230	0.370200	0.624900
C7051	C705	0.829200	0.876000	0.027100
H4501	H450	0.820400	0.897900	0.020000
C7061	C706	0.636890	0.355600	0.429500
C7071	C707	0.743970	0.570600	0.454100
H4511	H451	0.752000	0.594700	0.447500
C7081	C708	0.648540	0.721400	0.306500
H4521	H452	0.653200	0.736700	0.280800
C7091	C709	0.759580	0.507900	0.277900
H4531	H453	0.752800	0.519100	0.253200
C7101	C710	0.805390	0.496000	0.456800
C7111	C711	0.704210	0.474800	0.351400
H4541	H454	0.697800	0.474100	0.379200
C7121	C712	0.661990	0.636500	0.443800
H4551	H455	0.652500	0.652600	0.457900
C7131	C713	0.704120	0.476100	0.273400
H4561	H456	0.697500	0.476600	0.246000
C7141	C714	0.620370	0.757400	0.290800
C7151	C715	0.724400	0.578400	0.456300
H4571	H457	0.719600	0.607500	0.449500
C7161	C716	0.630790	0.631300	0.211100
H4581	H458	0.635000	0.643800	0.238700
C7171	C717	0.659450	0.693200	0.332100
H4591	H459	0.671400	0.687800	0.322900
C7181	C718	0.624710	0.705800	0.354600
H4601	H460	0.612600	0.709300	0.363000
C7191	C719	0.720280	0.500000	0.472600
H4611	H461	0.712400	0.475300	0.477800
C7201	C720	0.762150	0.467900	0.345800
H4621	H462	0.756600	0.450700	0.369100
N571	N57	0.837080	0.742300	0.125400
N581	N58	0.832560	0.609500	0.237700
N591	N59	0.816940	0.697700	0.097500
N601	N60	0.849930	0.760600	0.152400
H4631	H463	0.854700	0.787000	0.145400
H4641	H464	0.853400	0.746000	0.176800
N611	N61	0.848200	0.882700	0.019600
N621	N62	0.818020	0.731300	0.068400
N631	N63	0.675930	0.466900	0.310200
N641	N64	0.695190	0.550700	0.472900
O851	O85	0.624250	0.776800	0.257100
O861	O86	0.604940	0.226300	0.505000
O871	O87	0.598150	0.287000	0.547800
O881	O88	0.835190	0.504600	0.427000
O891	O89	0.607870	0.713300	0.113300
O901	O90	0.829620	0.451500	0.479800
O911	O91	0.594710	0.652300	0.083500
O921	O92	0.617280	0.298600	0.636500
O931	O93	0.616000	0.349300	0.690800
O941	O94	0.816200	0.495600	0.346900
O951	O95	0.602550	0.765400	0.307100
O961	O96	0.813710	0.532800	0.284400
Cu221	Cu22	0.836950	0.559330	0.284000
Cu231	Cu23	0.854460	0.436390	0.486100
Cu241	Cu24	0.843000	0.478320	0.366060
C7211	C721	0.070280	0.872900	0.128300
H4651	H465	0.066900	0.879700	0.098000
C7221	C722	0.134770	0.592400	0.235900
H4661	H466	0.142800	0.604800	0.257500
C7231	C723	0.060600	0.842000	0.153000
H4671	H467	0.051200	0.825900	0.138600
C7241	C724	0.080080	0.794000	0.029700
H4681	H468	0.070400	0.807000	0.046100
C7251	C725	0.128360	0.908300	0.931400
H4691	H469	0.130000	0.939500	0.938900
C7261	C726	0.134000	0.845700	0.884500
H4701	H470	0.140200	0.833000	0.859400
C7271	C727	0.083010	0.689900	0.089300
C7281	C728	0.144220	0.516600	0.265000
C7291	C729	0.120440	0.533300	0.208400
H4711	H471	0.117600	0.501700	0.209500
C7301	C730	0.083640	0.751200	0.035200
C7311	C731	0.054260	0.723000	0.061800
C7321	C732	0.144630	0.921500	0.862500
C7331	C733	0.077660	0.650300	0.101900
H4721	H472	0.066700	0.639900	0.089900
C7341	C734	0.949510	0.785900	0.186200
H4731	H473	0.940900	0.805200	0.172600
C7351	C735	0.913300	0.048600	0.811000
C7361	C736	0.962070	0.749900	0.063800
C7371	C737	0.969840	0.724900	0.098200
H4741	H474	0.963000	0.713100	0.122500
C7381	C738	0.112830	0.658900	0.395800
H4751	H475	0.116400	0.665900	0.425800
C7391	C739	0.098950	0.705700	0.110200
H4761	H476	0.103100	0.735700	0.104200
C7401	C740	0.125640	0.623100	0.207900
H4771	H477	0.128100	0.654800	0.208700
C7411	C741	0.111030	0.558300	0.179800
H4781	H478	0.102900	0.544200	0.159600
C7421	C742	0.979850	0.765800	0.208900
C7431	C743	0.124040	0.817700	0.912700
H4791	H479	0.122800	0.786300	0.905600
C7441	C744	0.133050	0.547100	0.234900
C7451	C745	0.105290	0.806800	0.979900
C7461	C746	0.101890	0.688300	0.369700
H4801	H480	0.098300	0.716900	0.381600
C7471	C747	0.096620	0.675600	0.327600
C7481	C748	0.971340	0.766400	0.029000
H4811	H481	0.965600	0.783100	0.005600
C7491	C749	0.968530	0.797800	0.186000
H4821	H482	0.973000	0.824500	0.171800
C7501	C750	0.085320	0.709700	0.299500
C7511	C751	0.064010	0.833300	0.198100
C7521	C752	0.101680	0.638200	0.309100
H4831	H483	0.098500	0.631000	0.278800
C7531	C753	0.928390	0.850100	0.952600
H4841	H484	0.934800	0.822200	0.951300
C7541	C754	0.086430	0.622000	0.130900
H4851	H485	0.081200	0.593400	0.137900
C7551	C755	0.920130	0.009400	0.836200
C7561	C756	0.924540	0.731300	0.203000
C7571	C757	0.998620	0.735100	0.060300
C7581	C758	0.908670	0.897400	0.989000
H4861	H486	0.900700	0.902800	0.013400
C7591	C759	0.119750	0.977400	0.069000
C7601	C760	0.955450	0.721200	0.232100
H4871	H487	0.951000	0.697400	0.250600
C7611	C761	0.941820	0.760100	0.063900
C7621	C762	0.096620	0.924300	0.118000
C7631	C763	0.134970	0.893400	0.893000
C7641	C764	0.064960	0.770000	0.249000
C7651	C765	0.088240	0.718100	0.254900
H4881	H488	0.097800	0.702600	0.240700
C7661	C766	0.920880	0.923300	0.919900
C7671	C767	0.999980	0.777900	0.211800
C7681	C768	0.910380	0.928300	0.957700
H4891	H489	0.904000	0.956000	0.961200
C7691	C769	0.115930	0.835200	0.951100
C7701	C770	0.036290	0.793900	0.218100
C7711	C771	0.930140	0.883600	0.917500
H4901	H490	0.937800	0.877900	0.892600
C7721	C772	0.107820	0.679200	0.137600
H4911	H491	0.118600	0.690700	0.150200
C7731	C773	0.922340	0.951800	0.882900
C7741	C774	0.084340	0.893300	0.146600
C7751	C775	0.061950	0.763100	0.290800
H4921	H492	0.052100	0.778900	0.303400
C7761	C776	0.079060	0.745000	0.231000
H4931	H493	0.081900	0.748300	0.199900
C7771	C777	0.026610	0.728000	0.100800
H4941	H494	0.020300	0.727000	0.128600
C7781	C778	0.089910	0.822100	0.000300
H4951	H495	0.085900	0.852100	0.994400
C7791	C779	0.973810	0.731100	0.230900
H4961	H496	0.981900	0.711800	0.246500
C7801	C780	0.099350	0.730700	0.010300
H4971	H497	0.102000	0.699100	0.011800
C7811	C781	0.108970	0.759200	0.986800
H4981	H498	0.119400	0.747300	0.972800
C7821	C782	0.895300	0.055600	0.803500
H4991	H499	0.886200	0.036500	0.815800
C7831	C783	0.027630	0.728700	0.021900
H5001	H500	0.021500	0.728300	0.993700
C7841	C784	0.112030	0.608600	0.334800
H5011	H501	0.115000	0.579500	0.323000
C7851	C785	0.071130	0.736000	0.319100
H5021	H502	0.068400	0.734400	0.350400
C7861	C786	0.102380	0.633000	0.150400
C7871	C787	0.017790	0.732000	0.063800
C7881	C788	0.011500	0.742200	0.219400
H5031	H503	0.007000	0.712200	0.222500
C7891	C789	0.924400	0.083100	0.796000
H5041	H504	0.936800	0.076700	0.799200
C7901	C790	0.114940	0.928600	0.130500
H5051	H505	0.119700	0.912900	0.155900
C7911	C791	0.129000	0.586700	0.401600
C7921	C792	0.078020	0.857400	0.217900
H5061	H506	0.080600	0.853000	0.249100
C7931	C793	0.891400	0.095300	0.774800
H5071	H507	0.880500	0.094700	0.758300
C7941	C794	0.117770	0.620200	0.374900
C7951	C795	0.920800	0.126000	0.777100
H5081	H508	0.929600	0.147900	0.770000
C7961	C796	0.113110	0.605600	0.179500
C7971	C797	0.006030	0.820600	0.204100
H5091	H509	0.998000	0.844700	0.197500
C7981	C798	0.101460	0.971400	0.056500
H5101	H510	0.096800	0.986700	0.030800
C7991	C799	0.990420	0.757900	0.027900
H5111	H511	0.997200	0.769100	0.003200
C8001	C800	0.944610	0.746000	0.206800
C8011	C801	0.045790	0.724800	0.101400
H5121	H512	0.052200	0.724100	0.129200
C8021	C802	0.088010	0.886500	0.193800
H5131	H513	0.097500	0.902600	0.207900
C8031	C803	0.045880	0.726100	0.023400
H5141	H514	0.052500	0.726600	0.996000
C8041	C804	0.129630	0.007400	0.040800
C8051	C805	0.025600	0.828400	0.206300
H5151	H515	0.030400	0.857500	0.199500
C8061	C806	0.119210	0.881300	0.961100
H5161	H516	0.115000	0.893800	0.988700
C8071	C807	0.090550	0.943200	0.082100
H5171	H517	0.078600	0.937800	0.072900
C8081	C808	0.125290	0.955800	0.104600
H5181	H518	0.137400	0.959300	0.113000
C8091	C809	0.029720	0.750000	0.222600
H5191	H519	0.037600	0.725300	0.227800
C8101	C810	0.987850	0.717900	0.095800
H5201	H520	0.993400	0.700700	0.119100
N651	N65	0.912920	0.992300	0.875400
N661	N66	0.917440	0.859500	0.987700
N671	N67	0.933060	0.947700	0.847500
N681	N68	0.900070	0.010600	0.902400
H5211	H521	0.895300	0.037000	0.895400
H5221	H522	0.896600	0.996000	0.926800
N691	N69	0.901800	0.132700	0.769600
N701	N70	0.931980	0.981300	0.818400
N711	N71	0.074070	0.716900	0.060200
N721	N72	0.054810	0.800700	0.222900
O971	O97	0.125750	0.026800	0.007100
O981	O98	0.145060	0.476300	0.255000
O991	O99	0.151850	0.537000	0.297800
O1001	O100	0.914810	0.754600	0.177000
O1011	O101	0.142130	0.963300	0.863300
O1021	O102	0.920380	0.701500	0.229800
O1031	O103	0.155290	0.902300	0.833500
O1041	O104	0.132720	0.548600	0.386500
O1051	O105	0.134000	0.599300	0.440800
O1061	O106	0.933800	0.745600	0.096900
O1071	O107	0.147450	0.015400	0.057100
O1081	O108	0.936290	0.782800	0.034400
Cu251	Cu25	0.913060	0.809330	0.034000
Cu261	Cu26	0.895540	0.686390	0.236100
Cu271	Cu27	0.907000	0.728320	0.116060
C8111	C811	0.070280	0.372900	0.628300
H5231	H523	0.066900	0.379700	0.598000
C8121	C812	0.134770	0.092400	0.735900
H5241	H524	0.142800	0.104800	0.757500
C8131	C813	0.060600	0.342000	0.653000
H5251	H525	0.051200	0.325900	0.638600
C8141	C814	0.080080	0.294000	0.529700
H5261	H526	0.070400	0.307000	0.546100
C8151	C815	0.128360	0.408300	0.431400
H5271	H527	0.130000	0.439500	0.438900
C8161	C816	0.134000	0.345700	0.384500
H5281	H528	0.140200	0.333000	0.359400
C8171	C817	0.083010	0.189900	0.589300
C8181	C818	0.144220	0.016600	0.765000
C8191	C819	0.120440	0.033300	0.708400
H5291	H529	0.117600	0.001700	0.709500
C8201	C820	0.083640	0.251200	0.535200
C8211	C821	0.054260	0.223000	0.561800
C8221	C822	0.144630	0.421500	0.362500
C8231	C823	0.077660	0.150300	0.601900
H5301	H530	0.066700	0.139900	0.589900
C8241	C824	0.949510	0.285900	0.686200
H5311	H531	0.940900	0.305200	0.672600
C8251	C825	0.913300	0.548600	0.311000
C8261	C826	0.962070	0.249900	0.563800
C8271	C827	0.969840	0.224900	0.598200
H5321	H532	0.963000	0.213100	0.622500
C8281	C828	0.112830	0.158900	0.895800
H5331	H533	0.116400	0.165900	0.925800
C8291	C829	0.098950	0.205700	0.610200
H5341	H534	0.103100	0.235700	0.604200
C8301	C830	0.125640	0.123100	0.707900
H5351	H535	0.128100	0.154800	0.708700
C8311	C831	0.111030	0.058300	0.679800
H5361	H536	0.102900	0.044200	0.659600
C8321	C832	0.979850	0.265800	0.708900
C8331	C833	0.124040	0.317700	0.412700
H5371	H537	0.122800	0.286300	0.405600
C8341	C834	0.133050	0.047100	0.734900
C8351	C835	0.105290	0.306800	0.479900
C8361	C836	0.101890	0.188300	0.869700
H5381	H538	0.098300	0.216900	0.881600
C8371	C837	0.096620	0.175600	0.827600
C8381	C838	0.971340	0.266400	0.529000
H5391	H539	0.965600	0.283100	0.505600
C8391	C839	0.968530	0.297800	0.686000
H5401	H540	0.973000	0.324500	0.671800
C8401	C840	0.085320	0.209700	0.799500
C8411	C841	0.064010	0.333300	0.698100
C8421	C842	0.101680	0.138200	0.809100
H5411	H541	0.098500	0.131000	0.778800
C8431	C843	0.928390	0.350100	0.452600
H5421	H542	0.934800	0.322200	0.451300
C8441	C844	0.086430	0.122000	0.630900
H5431	H543	0.081200	0.093400	0.637900
C8451	C845	0.920130	0.509400	0.336200
C8461	C846	0.924540	0.231300	0.703000
C8471	C847	0.998620	0.235100	0.560300
C8481	C848	0.908670	0.397400	0.489000
H5441	H544	0.900700	0.402800	0.513400
C8491	C849	0.119750	0.477400	0.569000
C8501	C850	0.955450	0.221200	0.732100
H5451	H545	0.951000	0.197400	0.750600
C8511	C851	0.941820	0.260100	0.563900
C8521	C852	0.096620	0.424300	0.618000
C8531	C853	0.134970	0.393400	0.393000
C8541	C854	0.064960	0.270000	0.749000
C8551	C855	0.088240	0.218100	0.754900
H5461	H546	0.097800	0.202600	0.740700
C8561	C856	0.920880	0.423300	0.419900
C8571	C857	0.999980	0.277900	0.711800
C8581	C858	0.910380	0.428300	0.457700
H5471	H547	0.904000	0.456000	0.461200
C8591	C859	0.115930	0.335200	0.451100
C8601	C860	0.036290	0.293900	0.718100
C8611	C861	0.930140	0.383600	0.417500
H5481	H548	0.937800	0.377900	0.392600
C8621	C862	0.107820	0.179200	0.637600
H5491	H549	0.118600	0.190700	0.650200
C8631	C863	0.922340	0.451800	0.382900
C8641	C864	0.084340	0.393300	0.646600
C8651	C865	0.061950	0.263100	0.790800
H5501	H550	0.052100	0.278900	0.803400
C8661	C866	0.079060	0.245000	0.731000
H5511	H551	0.081900	0.248300	0.699900
C8671	C867	0.026610	0.228000	0.600800
H5521	H552	0.020300	0.227000	0.628600
C8681	C868	0.089910	0.322100	0.500300
H5531	H553	0.085900	0.352100	0.494400
C8691	C869	0.973810	0.231100	0.730900
H5541	H554	0.981900	0.211800	0.746500
C8701	C870	0.099350	0.230700	0.510300
H5551	H555	0.102000	0.199100	0.511800
C8711	C871	0.108970	0.259200	0.486800
H5561	H556	0.119400	0.247300	0.472800
C8721	C872	0.895300	0.555600	0.303500
H5571	H557	0.886200	0.536500	0.315800
C8731	C873	0.027630	0.228700	0.521900
H5581	H558	0.021500	0.228300	0.493700
C8741	C874	0.112030	0.108600	0.834800
H5591	H559	0.115000	0.079500	0.823000
C8751	C875	0.071130	0.236000	0.819100
H5601	H560	0.068400	0.234400	0.850400
C8761	C876	0.102380	0.133000	0.650400
C8771	C877	0.017790	0.232000	0.563800
C8781	C878	0.011500	0.242200	0.719400
H5611	H561	0.007000	0.212200	0.722500
C8791	C879	0.924400	0.583100	0.296000
H5621	H562	0.936800	0.576700	0.299200
C8801	C880	0.114940	0.428600	0.630500
H5631	H563	0.119700	0.412900	0.655900
C8811	C881	0.129000	0.086700	0.901600
C8821	C882	0.078020	0.357400	0.717900
H5641	H564	0.080600	0.353000	0.749100
C8831	C883	0.891400	0.595300	0.274800
H5651	H565	0.880500	0.594700	0.258300
C8841	C884	0.117770	0.120200	0.874900
C8851	C885	0.920800	0.626000	0.277100
H5661	H566	0.929600	0.647900	0.270000
C8861	C886	0.113110	0.105600	0.679500
C8871	C887	0.006030	0.320600	0.704100
H5671	H567	0.998000	0.344700	0.697500
C8881	C888	0.101460	0.471400	0.556500
H5681	H568	0.096800	0.486700	0.530800
C8891	C889	0.990420	0.257900	0.527900
H5691	H569	0.997200	0.269100	0.503200
C8901	C890	0.944610	0.246000	0.706800
C8911	C891	0.045790	0.224800	0.601400
H5701	H570	0.052200	0.224100	0.629200
C8921	C892	0.088010	0.386500	0.693800
H5711	H571	0.097500	0.402600	0.707900
C8931	C893	0.045880	0.226100	0.523400
H5721	H572	0.052500	0.226600	0.496000
C8941	C894	0.129630	0.507400	0.540800
C8951	C895	0.025600	0.328400	0.706300
H5731	H573	0.030400	0.357500	0.699500
C8961	C896	0.119210	0.381300	0.461100
H5741	H574	0.115000	0.393800	0.488700
C8971	C897	0.090550	0.443200	0.582100
H5751	H575	0.078600	0.437800	0.572900
C8981	C898	0.125290	0.455800	0.604600
H5761	H576	0.137400	0.459300	0.613000
C8991	C899	0.029720	0.250000	0.722600
H5771	H577	0.037600	0.225300	0.727800
C9001	C900	0.987850	0.217900	0.595800
H5781	H578	0.993400	0.200700	0.619100
N731	N73	0.912920	0.492300	0.375400
N741	N74	0.917440	0.359500	0.487700
N751	N75	0.933060	0.447700	0.347500
N761	N76	0.900070	0.510600	0.402400
H5791	H579	0.895300	0.537000	0.395400
H5801	H580	0.896600	0.496000	0.426800
N771	N77	0.901800	0.632700	0.269600
N781	N78	0.931980	0.481300	0.318400
N791	N79	0.074070	0.216900	0.560200
N801	N80	0.054810	0.300700	0.722900
O1091	O109	0.125750	0.526800	0.507100
O1101	O110	0.145060	0.976300	0.755000
O1111	O111	0.151850	0.037000	0.797800
O1121	O112	0.914810	0.254600	0.677000
O1131	O113	0.142130	0.463300	0.363300
O1141	O114	0.920380	0.201500	0.729800
O1151	O115	0.155290	0.402300	0.333500
O1161	O116	0.132720	0.048600	0.886500
O1171	O117	0.134000	0.099300	0.940800
O1181	O118	0.933800	0.245600	0.596900
O1191	O119	0.147450	0.515400	0.557100
O1201	O120	0.936290	0.282800	0.534400
Cu281	Cu28	0.913060	0.309330	0.534000
Cu291	Cu29	0.895540	0.186390	0.736100
Cu301	Cu30	0.907000	0.228320	0.616060
C9011	C901	0.570280	0.872900	0.628300
H5811	H581	0.566900	0.879700	0.598000
C9021	C902	0.634770	0.592400	0.735900
H5821	H582	0.642800	0.604800	0.757500
C9031	C903	0.560600	0.842000	0.653000
H5831	H583	0.551200	0.825900	0.638600
C9041	C904	0.580080	0.794000	0.529700
H5841	H584	0.570400	0.807000	0.546100
C9051	C905	0.628360	0.908300	0.431400
H5851	H585	0.630000	0.939500	0.438900
C9061	C906	0.634000	0.845700	0.384500
H5861	H586	0.640200	0.833000	0.359400
C9071	C907	0.583010	0.689900	0.589300
C9081	C908	0.644220	0.516600	0.765000
C9091	C909	0.620440	0.533300	0.708400
H5871	H587	0.617600	0.501700	0.709500
C9101	C910	0.583640	0.751200	0.535200
C9111	C911	0.554260	0.723000	0.561800
C9121	C912	0.644630	0.921500	0.362500
C9131	C913	0.577660	0.650300	0.601900
H5881	H588	0.566700	0.639900	0.589900
C9141	C914	0.449510	0.785900	0.686200
H5891	H589	0.440900	0.805200	0.672600
C9151	C915	0.413300	0.048600	0.311000
C9161	C916	0.462070	0.749900	0.563800
C9171	C917	0.469840	0.724900	0.598200
H5901	H590	0.463000	0.713100	0.622500
C9181	C918	0.612830	0.658900	0.895800
H5911	H591	0.616400	0.665900	0.925800
C9191	C919	0.598950	0.705700	0.610200
H5921	H592	0.603100	0.735700	0.604200
C9201	C920	0.625640	0.623100	0.707900
H5931	H593	0.628100	0.654800	0.708700
C9211	C921	0.611030	0.558300	0.679800
H5941	H594	0.602900	0.544200	0.659600
C9221	C922	0.479850	0.765800	0.708900
C9231	C923	0.624040	0.817700	0.412700
H5951	H595	0.622800	0.786300	0.405600
C9241	C924	0.633050	0.547100	0.734900
C9251	C925	0.605290	0.806800	0.479900
C9261	C926	0.601890	0.688300	0.869700
H5961	H596	0.598300	0.716900	0.881600
C9271	C927	0.596620	0.675600	0.827600
C9281	C928	0.471340	0.766400	0.529000
H5971	H597	0.465600	0.783100	0.505600
C9291	C929	0.468530	0.797800	0.686000
H5981	H598	0.473000	0.824500	0.671800
C9301	C930	0.585320	0.709700	0.799500
C9311	C931	0.564010	0.833300	0.698100
C9321	C932	0.601680	0.638200	0.809100
H5991	H599	0.598500	0.631000	0.778800
C9331	C933	0.428390	0.850100	0.452600
H6001	H600	0.434800	0.822200	0.451300
C9341	C934	0.586430	0.622000	0.630900
H6011	H601	0.581200	0.593400	0.637900
C9351	C935	0.420130	0.009400	0.336200
C9361	C936	0.424540	0.731300	0.703000
C9371	C937	0.498620	0.735100	0.560300
C9381	C938	0.408670	0.897400	0.489000
H6021	H602	0.400700	0.902800	0.513400
C9391	C939	0.619750	0.977400	0.569000
C9401	C940	0.455450	0.721200	0.732100
H6031	H603	0.451000	0.697400	0.750600
C9411	C941	0.441820	0.760100	0.563900
C9421	C942	0.596620	0.924300	0.618000
C9431	C943	0.634970	0.893400	0.393000
C9441	C944	0.564960	0.770000	0.749000
C9451	C945	0.588240	0.718100	0.754900
H6041	H604	0.597800	0.702600	0.740700
C9461	C946	0.420880	0.923300	0.419900
C9471	C947	0.499980	0.777900	0.711800
C9481	C948	0.410380	0.928300	0.457700
H6051	H605	0.404000	0.956000	0.461200
C9491	C949	0.615930	0.835200	0.451100
C9501	C950	0.536290	0.793900	0.718100
C9511	C951	0.430140	0.883600	0.417500
H6061	H606	0.437800	0.877900	0.392600
C9521	C952	0.607820	0.679200	0.637600
H6071	H607	0.618600	0.690700	0.650200
C9531	C953	0.422340	0.951800	0.382900
C9541	C954	0.584340	0.893300	0.646600
C9551	C955	0.561950	0.763100	0.790800
H6081	H608	0.552100	0.778900	0.803400
C9561	C956	0.579060	0.745000	0.731000
H6091	H609	0.581900	0.748300	0.699900
C9571	C957	0.526610	0.728000	0.600800
H6101	H610	0.520300	0.727000	0.628600
C9581	C958	0.589910	0.822100	0.500300
H6111	H611	0.585900	0.852100	0.494400
C9591	C959	0.473810	0.731100	0.730900
H6121	H612	0.481900	0.711800	0.746500
C9601	C960	0.599350	0.730700	0.510300
H6131	H613	0.602000	0.699100	0.511800
C9611	C961	0.608970	0.759200	0.486800
H6141	H614	0.619400	0.747300	0.472800
C9621	C962	0.395300	0.055600	0.303500
H6151	H615	0.386200	0.036500	0.315800
C9631	C963	0.527630	0.728700	0.521900
H6161	H616	0.521500	0.728300	0.493700
C9641	C964	0.612030	0.608600	0.834800
H6171	H617	0.615000	0.579500	0.823000
C9651	C965	0.571130	0.736000	0.819100
H6181	H618	0.568400	0.734400	0.850400
C9661	C966	0.602380	0.633000	0.650400
C9671	C967	0.517790	0.732000	0.563800
C9681	C968	0.511500	0.742200	0.719400
H6191	H619	0.507000	0.712200	0.722500
C9691	C969	0.424400	0.083100	0.296000
H6201	H620	0.436800	0.076700	0.299200
C9701	C970	0.614940	0.928600	0.630500
H6211	H621	0.619700	0.912900	0.655900
C9711	C971	0.629000	0.586700	0.901600
C9721	C972	0.578020	0.857400	0.717900
H6221	H622	0.580600	0.853000	0.749100
C9731	C973	0.391400	0.095300	0.274800
H6231	H623	0.380500	0.094700	0.258300
C9741	C974	0.617770	0.620200	0.874900
C9751	C975	0.420800	0.126000	0.277100
H6241	H624	0.429600	0.147900	0.270000
C9761	C976	0.613110	0.605600	0.679500
C9771	C977	0.506030	0.820600	0.704100
H6251	H625	0.498000	0.844700	0.697500
C9781	C978	0.601460	0.971400	0.556500
H6261	H626	0.596800	0.986700	0.530800
C9791	C979	0.490420	0.757900	0.527900
H6271	H627	0.497200	0.769100	0.503200
C9801	C980	0.444610	0.746000	0.706800
C9811	C981	0.545790	0.724800	0.601400
H6281	H628	0.552200	0.724100	0.629200
C9821	C982	0.588010	0.886500	0.693800
H6291	H629	0.597500	0.902600	0.707900
C9831	C983	0.545880	0.726100	0.523400
H6301	H630	0.552500	0.726600	0.496000
C9841	C984	0.629630	0.007400	0.540800
C9851	C985	0.525600	0.828400	0.706300
H6311	H631	0.530400	0.857500	0.699500
C9861	C986	0.619210	0.881300	0.461100
H6321	H632	0.615000	0.893800	0.488700
C9871	C987	0.590550	0.943200	0.582100
H6331	H633	0.578600	0.937800	0.572900
C9881	C988	0.625290	0.955800	0.604600
H6341	H634	0.637400	0.959300	0.613000
C9891	C989	0.529720	0.750000	0.722600
H6351	H635	0.537600	0.725300	0.727800
C9901	C990	0.487850	0.717900	0.595800
H6361	H636	0.493400	0.700700	0.619100
N811	N81	0.412920	0.992300	0.375400
N821	N82	0.417440	0.859500	0.487700
N831	N83	0.433060	0.947700	0.347500
N841	N84	0.400070	0.010600	0.402400
H6371	H637	0.395300	0.037000	0.395400
H6381	H638	0.396600	0.996000	0.426800
N851	N85	0.401800	0.132700	0.269600
N861	N86	0.431980	0.981300	0.318400
N871	N87	0.574070	0.716900	0.560200
N881	N88	0.554810	0.800700	0.722900
O1211	O121	0.625750	0.026800	0.507100
O1221	O122	0.645060	0.476300	0.755000
O1231	O123	0.651850	0.537000	0.797800
O1241	O124	0.414810	0.754600	0.677000
O1251	O125	0.642130	0.963300	0.363300
O1261	O126	0.420380	0.701500	0.729800
O1271	O127	0.655290	0.902300	0.333500
O1281	O128	0.632720	0.548600	0.886500
O1291	O129	0.634000	0.599300	0.940800
O1301	O130	0.433800	0.745600	0.596900
O1311	O131	0.647450	0.015400	0.557100
O1321	O132	0.436290	0.782800	0.534400
Cu311	Cu31	0.413050	0.809330	0.534000
Cu321	Cu32	0.395540	0.686390	0.736100
Cu331	Cu33	0.407000	0.728320	0.616060
C9911	C991	0.570280	0.372900	0.128300
H6391	H639	0.566900	0.379700	0.098000
C9921	C992	0.634770	0.092400	0.235900
H6401	H640	0.642800	0.104800	0.257500
C9931	C993	0.560600	0.342000	0.153000
H6411	H641	0.551200	0.325900	0.138600
C9941	C994	0.580080	0.294000	0.029700
H6421	H642	0.570400	0.307000	0.046100
C9951	C995	0.628360	0.408300	0.931400
H6431	H643	0.630000	0.439500	0.938900
C9961	C996	0.634000	0.345700	0.884500
H6441	H644	0.640200	0.333000	0.859400
C9971	C997	0.583010	0.189900	0.089300
C9981	C998	0.644220	0.016600	0.265000
C9991	C999	0.620440	0.033300	0.208400
H6451	H645	0.617600	0.001700	0.209500
C10001	C1000	0.583640	0.251200	0.035200
C10011	C1001	0.554260	0.223000	0.061800
C10021	C1002	0.644630	0.421500	0.862500
C10031	C1003	0.577660	0.150300	0.101900
H6461	H646	0.566700	0.139900	0.089900
C10041	C1004	0.449510	0.285900	0.186200
H6471	H647	0.440900	0.305200	0.172600
C10051	C1005	0.413300	0.548600	0.811000
C10061	C1006	0.462070	0.249900	0.063800
C10071	C1007	0.469840	0.224900	0.098200
H6481	H648	0.463000	0.213100	0.122500
C10081	C1008	0.612830	0.158900	0.395800
H6491	H649	0.616400	0.165900	0.425800
C10091	C1009	0.598950	0.205700	0.110200
H6501	H650	0.603100	0.235700	0.104200
C10101	C1010	0.625640	0.123100	0.207900
H6511	H651	0.628100	0.154800	0.208700
C10111	C1011	0.611030	0.058300	0.179800
H6521	H652	0.602900	0.044200	0.159600
C10121	C1012	0.479850	0.265800	0.208900
C10131	C1013	0.624040	0.317700	0.912700
H6531	H653	0.622800	0.286300	0.905600
C10141	C1014	0.633050	0.047100	0.234900
C10151	C1015	0.605290	0.306800	0.979900
C10161	C1016	0.601890	0.188300	0.369700
H6541	H654	0.598300	0.216900	0.381600
C10171	C1017	0.596620	0.175600	0.327600
C10181	C1018	0.471340	0.266400	0.029000
H6551	H655	0.465600	0.283100	0.005600
C10191	C1019	0.468530	0.297800	0.186000
H6561	H656	0.473000	0.324500	0.171800
C10201	C1020	0.585320	0.209700	0.299500
C10211	C1021	0.564010	0.333300	0.198100
C10221	C1022	0.601680	0.138200	0.309100
H6571	H657	0.598500	0.131000	0.278800
C10231	C1023	0.428390	0.350100	0.952600
H6581	H658	0.434800	0.322200	0.951300
C10241	C1024	0.586430	0.122000	0.130900
H6591	H659	0.581200	0.093400	0.137900
C10251	C1025	0.420130	0.509400	0.836200
C10261	C1026	0.424540	0.231300	0.203000
C10271	C1027	0.498620	0.235100	0.060300
C10281	C1028	0.408670	0.397400	0.989000
H6601	H660	0.400700	0.402800	0.013400
C10291	C1029	0.619750	0.477400	0.069000
C10301	C1030	0.455450	0.221200	0.232100
H6611	H661	0.451000	0.197400	0.250600
C10311	C1031	0.441820	0.260100	0.063900
C10321	C1032	0.596620	0.424300	0.118000
C10331	C1033	0.634970	0.393400	0.893000
C10341	C1034	0.564960	0.270000	0.249000
C10351	C1035	0.588240	0.218100	0.254900
H6621	H662	0.597800	0.202600	0.240700
C10361	C1036	0.420880	0.423300	0.919900
C10371	C1037	0.499980	0.277900	0.211800
C10381	C1038	0.410380	0.428300	0.957700
H6631	H663	0.404000	0.456000	0.961200
C10391	C1039	0.615930	0.335200	0.951100
C10401	C1040	0.536290	0.293900	0.218100
C10411	C1041	0.430140	0.383600	0.917500
H6641	H664	0.437800	0.377900	0.892600
C10421	C1042	0.607820	0.179200	0.137600
H6651	H665	0.618600	0.190700	0.150200
C10431	C1043	0.422340	0.451800	0.882900
C10441	C1044	0.584340	0.393300	0.146600
C10451	C1045	0.561950	0.263100	0.290800
H6661	H666	0.552100	0.278900	0.303400
C10461	C1046	0.579060	0.245000	0.231000
H6671	H667	0.581900	0.248300	0.199900
C10471	C1047	0.526610	0.228000	0.100800
H6681	H668	0.520300	0.227000	0.128600
C10481	C1048	0.589910	0.322100	0.000300
H6691	H669	0.585900	0.352100	0.994400
C10491	C1049	0.473810	0.231100	0.230900
H6701	H670	0.481900	0.211800	0.246500
C10501	C1050	0.599350	0.230700	0.010300
H6711	H671	0.602000	0.199100	0.011800
C10511	C1051	0.608970	0.259200	0.986800
H6721	H672	0.619400	0.247300	0.972800
C10521	C1052	0.395300	0.555600	0.803500
H6731	H673	0.386200	0.536500	0.815800
C10531	C1053	0.527630	0.228700	0.021900
H6741	H674	0.521500	0.228300	0.993700
C10541	C1054	0.612030	0.108600	0.334800
H6751	H675	0.615000	0.079500	0.323000
C10551	C1055	0.571130	0.236000	0.319100
H6761	H676	0.568400	0.234400	0.350400
C10561	C1056	0.602380	0.133000	0.150400
C10571	C1057	0.517790	0.232000	0.063800
C10581	C1058	0.511500	0.242200	0.219400
H6771	H677	0.507000	0.212200	0.222500
C10591	C1059	0.424400	0.583100	0.796000
H6781	H678	0.436800	0.576700	0.799200
C10601	C1060	0.614940	0.428600	0.130500
H6791	H679	0.619700	0.412900	0.155900
C10611	C1061	0.629000	0.086700	0.401600
C10621	C1062	0.578020	0.357400	0.217900
H6801	H680	0.580600	0.353000	0.249100
C10631	C1063	0.391400	0.595300	0.774800
H6811	H681	0.380500	0.594700	0.758300
C10641	C1064	0.617770	0.120200	0.374900
C10651	C1065	0.420800	0.626000	0.777100
H6821	H682	0.429600	0.647900	0.770000
C10661	C1066	0.613110	0.105600	0.179500
C10671	C1067	0.506030	0.320600	0.204100
H6831	H683	0.498000	0.344700	0.197500
C10681	C1068	0.601460	0.471400	0.056500
H6841	H684	0.596800	0.486700	0.030800
C10691	C1069	0.490420	0.257900	0.027900
H6851	H685	0.497200	0.269100	0.003200
C10701	C1070	0.444610	0.246000	0.206800
C10711	C1071	0.545790	0.224800	0.101400
H6861	H686	0.552200	0.224100	0.129200
C10721	C1072	0.588010	0.386500	0.193800
H6871	H687	0.597500	0.402600	0.207900
C10731	C1073	0.545880	0.226100	0.023400
H6881	H688	0.552500	0.226600	0.996000
C10741	C1074	0.629630	0.507400	0.040800
C10751	C1075	0.525600	0.328400	0.206300
H6891	H689	0.530400	0.357500	0.199500
C10761	C1076	0.619210	0.381300	0.961100
H6901	H690	0.615000	0.393800	0.988700
C10771	C1077	0.590550	0.443200	0.082100
H6911	H691	0.578600	0.437800	0.072900
C10781	C1078	0.625290	0.455800	0.104600
H6921	H692	0.637400	0.459300	0.113000
C10791	C1079	0.529720	0.250000	0.222600
H6931	H693	0.537600	0.225300	0.227800
C10801	C1080	0.487850	0.217900	0.095800
H6941	H694	0.493400	0.200700	0.119100
N891	N89	0.412920	0.492300	0.875400
N901	N90	0.417440	0.359500	0.987700
N911	N91	0.433060	0.447700	0.847500
N921	N92	0.400070	0.510600	0.902400
H6951	H695	0.395300	0.537000	0.895400
H6961	H696	0.396600	0.496000	0.926800
N931	N93	0.401800	0.632700	0.769600
N941	N94	0.431980	0.481300	0.818400
N951	N95	0.574070	0.216900	0.060200
N961	N96	0.554810	0.300700	0.222900
O1331	O133	0.625750	0.526800	0.007100
O1341	O134	0.645060	0.976300	0.255000
O1351	O135	0.651850	0.037000	0.297800
O1361	O136	0.414810	0.254600	0.177000
O1371	O137	0.642130	0.463300	0.863300
O1381	O138	0.420380	0.201500	0.229800
O1391	O139	0.655290	0.402300	0.833500
O1401	O140	0.632720	0.048600	0.386500
O1411	O141	0.634000	0.099300	0.440800
O1421	O142	0.433800	0.245600	0.096900
O1431	O143	0.647450	0.515400	0.057100
O1441	O144	0.436290	0.282800	0.034400
Cu341	Cu34	0.413050	0.309330	0.034000
Cu351	Cu35	0.395540	0.186390	0.236100
Cu361	Cu36	0.407000	0.228320	0.116060
C10811	C1081	0.320280	0.377100	0.378300
H6971	H697	0.316900	0.370300	0.348000
C10821	C1082	0.384770	0.657600	0.485900
H6981	H698	0.392800	0.645200	0.507500
C10831	C1083	0.310600	0.408000	0.403000
H6991	H699	0.301200	0.424100	0.388600
C10841	C1084	0.330080	0.456000	0.279700
H7001	H700	0.320400	0.443000	0.296100
C10851	C1085	0.378360	0.341700	0.181400
H7011	H701	0.380000	0.310500	0.188900
C10861	C1086	0.384000	0.404300	0.134500
H7021	H702	0.390200	0.417000	0.109400
C10871	C1087	0.333010	0.560100	0.339300
C10881	C1088	0.394220	0.733400	0.515000
C10891	C1089	0.370440	0.716700	0.458400
H7031	H703	0.367600	0.748300	0.459500
C10901	C1090	0.333640	0.498800	0.285200
C10911	C1091	0.304260	0.527000	0.311800
C10921	C1092	0.394630	0.328500	0.112500
C10931	C1093	0.327660	0.599700	0.351900
H7041	H704	0.316700	0.610100	0.339900
C10941	C1094	0.199510	0.464100	0.436200
H7051	H705	0.190900	0.444800	0.422600
C10951	C1095	0.163300	0.201400	0.061000
C10961	C1096	0.212070	0.500100	0.313800
C10971	C1097	0.219840	0.525100	0.348200
H7061	H706	0.213000	0.536900	0.372500
C10981	C1098	0.362830	0.591100	0.645800
H7071	H707	0.366400	0.584100	0.675800
C10991	C1099	0.348950	0.544300	0.360200
H7081	H708	0.353100	0.514300	0.354200
C11001	C1100	0.375640	0.626900	0.457900
H7091	H709	0.378100	0.595200	0.458700
C11011	C1101	0.361030	0.691700	0.429800
H7101	H710	0.352900	0.705800	0.409600
C11021	C1102	0.229850	0.484200	0.458900
C11031	C1103	0.374040	0.432300	0.162700
H7111	H711	0.372800	0.463700	0.155600
C11041	C1104	0.383050	0.702900	0.484900
C11051	C1105	0.355290	0.443200	0.229900
C11061	C1106	0.351890	0.561700	0.619700
H7121	H712	0.348300	0.533100	0.631600
C11071	C1107	0.346620	0.574400	0.577600
C11081	C1108	0.221340	0.483600	0.279000
H7131	H713	0.215600	0.466900	0.255600
C11091	C1109	0.218530	0.452200	0.436000
H7141	H714	0.223000	0.425500	0.421800
C11101	C1110	0.335320	0.540300	0.549500
C11111	C1111	0.314010	0.416700	0.448100
C11121	C1112	0.351680	0.611800	0.559100
H7151	H715	0.348500	0.619000	0.528800
C11131	C1113	0.178390	0.399900	0.202600
H7161	H716	0.184800	0.427800	0.201300
C11141	C1114	0.336430	0.628000	0.380900
H7171	H717	0.331200	0.656600	0.387900
C11151	C1115	0.170130	0.240600	0.086200
C11161	C1116	0.174540	0.518700	0.453000
C11171	C1117	0.248620	0.514900	0.310300
C11181	C1118	0.158670	0.352600	0.239000
H7181	H718	0.150700	0.347200	0.263400
C11191	C1119	0.369750	0.272600	0.319000
C11201	C1120	0.205450	0.528800	0.482100
H7191	H719	0.201000	0.552600	0.500600
C11211	C1121	0.191820	0.489900	0.313900
C11221	C1122	0.346620	0.325700	0.368000
C11231	C1123	0.384970	0.356600	0.143000
C11241	C1124	0.314960	0.480000	0.499000
C11251	C1125	0.338240	0.531900	0.504900
H7201	H720	0.347800	0.547400	0.490700
C11261	C1126	0.170880	0.326700	0.169900
C11271	C1127	0.249980	0.472100	0.461800
C11281	C1128	0.160380	0.321700	0.207700
H7211	H721	0.154000	0.294000	0.211200
C11291	C1129	0.365930	0.414800	0.201100
C11301	C1130	0.286290	0.456100	0.468100
C11311	C1131	0.180140	0.366400	0.167500
H7221	H722	0.187800	0.372100	0.142600
C11321	C1132	0.357820	0.570800	0.387600
H7231	H723	0.368600	0.559300	0.400200
C11331	C1133	0.172340	0.298200	0.132900
C11341	C1134	0.334340	0.356700	0.396600
C11351	C1135	0.311950	0.486900	0.540800
H7241	H724	0.302100	0.471100	0.553400
C11361	C1136	0.329060	0.505000	0.481000
H7251	H725	0.331900	0.501700	0.449900
C11371	C1137	0.276610	0.522000	0.350800
H7261	H726	0.270300	0.523000	0.378600
C11381	C1138	0.339910	0.427900	0.250300
H7271	H727	0.335900	0.397900	0.244400
C11391	C1139	0.223810	0.518900	0.480900
H7281	H728	0.231900	0.538200	0.496500
C11401	C1140	0.349350	0.519300	0.260300
H7291	H729	0.352000	0.550900	0.261800
C11411	C1141	0.358970	0.490800	0.236800
H7301	H730	0.369400	0.502700	0.222800
C11421	C1142	0.145300	0.194400	0.053500
H7311	H731	0.136200	0.213500	0.065800
C11431	C1143	0.277630	0.521300	0.271900
H7321	H732	0.271500	0.521700	0.243700
C11441	C1144	0.362030	0.641400	0.584800
H7331	H733	0.365000	0.670500	0.573000
C11451	C1145	0.321130	0.514000	0.569100
H7341	H734	0.318400	0.515600	0.600400
C11461	C1146	0.352380	0.617000	0.400400
C11471	C1147	0.267790	0.518000	0.313800
C11481	C1148	0.261500	0.507800	0.469400
H7351	H735	0.257000	0.537800	0.472500
C11491	C1149	0.174400	0.166900	0.046000
H7361	H736	0.186800	0.173300	0.049200
C11501	C1150	0.364940	0.321400	0.380500
H7371	H737	0.369700	0.337100	0.405900
C11511	C1151	0.379000	0.663300	0.651600
C11521	C1152	0.328020	0.392600	0.467900
H7381	H738	0.330600	0.397000	0.499100
C11531	C1153	0.141400	0.154700	0.024800
H7391	H739	0.130500	0.155300	0.008300
C11541	C1154	0.367770	0.629800	0.624900
C11551	C1155	0.170800	0.124000	0.027100
H7401	H740	0.179600	0.102100	0.020000
C11561	C1156	0.363110	0.644400	0.429500
C11571	C1157	0.256030	0.429400	0.454100
H7411	H741	0.248000	0.405300	0.447500
C11581	C1158	0.351460	0.278600	0.306500
H7421	H742	0.346800	0.263300	0.280800
C11591	C1159	0.240420	0.492100	0.277900
H7431	H743	0.247200	0.480900	0.253200
C11601	C1160	0.194610	0.504000	0.456800
C11611	C1161	0.295790	0.525200	0.351400
H7441	H744	0.302200	0.525900	0.379200
C11621	C1162	0.338010	0.363500	0.443800
H7451	H745	0.347500	0.347400	0.457900
C11631	C1163	0.295880	0.523900	0.273400
H7461	H746	0.302500	0.523400	0.246000
C11641	C1164	0.379630	0.242600	0.290800
C11651	C1165	0.275600	0.421600	0.456300
H7471	H747	0.280400	0.392500	0.449500
C11661	C1166	0.369210	0.368700	0.211100
H7481	H748	0.365000	0.356200	0.238700
C11671	C1167	0.340550	0.306800	0.332100
H7491	H749	0.328600	0.312200	0.322900
C11681	C1168	0.375290	0.294200	0.354600
H7501	H750	0.387400	0.290700	0.363000
C11691	C1169	0.279720	0.500000	0.472600
H7511	H751	0.287600	0.524700	0.477800
C11701	C1170	0.237850	0.532100	0.345800
H7521	H752	0.243400	0.549300	0.369100
N971	N97	0.162920	0.257700	0.125400
N981	N98	0.167440	0.390500	0.237700
N991	N99	0.183060	0.302300	0.097500
N1001	N100	0.150070	0.239400	0.152400
H7531	H753	0.145300	0.213000	0.145400
H7541	H754	0.146600	0.254000	0.176800
N1011	N101	0.151800	0.117300	0.019600
N1021	N102	0.181980	0.268700	0.068400
N1031	N103	0.324070	0.533100	0.310200
N1041	N104	0.304810	0.449300	0.472900
O1451	O145	0.375750	0.223200	0.257100
O1461	O146	0.395060	0.773700	0.505000
O1471	O147	0.401850	0.713000	0.547800
O1481	O148	0.164810	0.495400	0.427000
O1491	O149	0.392130	0.286700	0.113300
O1501	O150	0.170380	0.548500	0.479800
O1511	O151	0.405290	0.347700	0.083500
O1521	O152	0.382720	0.701400	0.636500
O1531	O153	0.384000	0.650700	0.690800
O1541	O154	0.183800	0.504400	0.346900
O1551	O155	0.397450	0.234600	0.307100
O1561	O156	0.186290	0.467200	0.284400
Cu371	Cu37	0.163050	0.440670	0.284000
Cu381	Cu38	0.145540	0.563610	0.486100
Cu391	Cu39	0.157000	0.521680	0.366060
C11711	C1171	0.320280	0.877100	0.878300
H7551	H755	0.316900	0.870300	0.848000
C11721	C1172	0.384770	0.157600	0.985900
H7561	H756	0.392800	0.145200	0.007500
C11731	C1173	0.310600	0.908000	0.903000
H7571	H757	0.301200	0.924100	0.888600
C11741	C1174	0.330080	0.956000	0.779700
H7581	H758	0.320400	0.943000	0.796100
C11751	C1175	0.378360	0.841700	0.681400
H7591	H759	0.380000	0.810500	0.688900
C11761	C1176	0.384000	0.904300	0.634500
H7601	H760	0.390200	0.917000	0.609400
C11771	C1177	0.333010	0.060100	0.839300
C11781	C1178	0.394220	0.233400	0.015000
C11791	C1179	0.370440	0.216700	0.958400
H7611	H761	0.367600	0.248300	0.959500
C11801	C1180	0.333640	0.998800	0.785200
C11811	C1181	0.304260	0.027000	0.811800
C11821	C1182	0.394630	0.828500	0.612500
C11831	C1183	0.327660	0.099700	0.851900
H7621	H762	0.316700	0.110100	0.839900
C11841	C1184	0.199510	0.964100	0.936200
H7631	H763	0.190900	0.944800	0.922600
C11851	C1185	0.163300	0.701400	0.561000
C11861	C1186	0.212070	0.000100	0.813800
C11871	C1187	0.219840	0.025100	0.848200
H7641	H764	0.213000	0.036900	0.872500
C11881	C1188	0.362830	0.091100	0.145800
H7651	H765	0.366400	0.084100	0.175800
C11891	C1189	0.348950	0.044300	0.860200
H7661	H766	0.353100	0.014300	0.854200
C11901	C1190	0.375640	0.126900	0.957900
H7671	H767	0.378100	0.095200	0.958700
C11911	C1191	0.361030	0.191700	0.929800
H7681	H768	0.352900	0.205800	0.909600
C11921	C1192	0.229850	0.984200	0.958900
C11931	C1193	0.374040	0.932300	0.662700
H7691	H769	0.372800	0.963700	0.655600
C11941	C1194	0.383050	0.202900	0.984900
C11951	C1195	0.355290	0.943200	0.729900
C11961	C1196	0.351890	0.061700	0.119700
H7701	H770	0.348300	0.033100	0.131600
C11971	C1197	0.346620	0.074400	0.077600
C11981	C1198	0.221340	0.983600	0.779000
H7711	H771	0.215600	0.966900	0.755600
C11991	C1199	0.218530	0.952200	0.936000
H7721	H772	0.223000	0.925500	0.921800
C12001	C1200	0.335320	0.040300	0.049500
C12011	C1201	0.314010	0.916700	0.948100
C12021	C1202	0.351680	0.111800	0.059100
H7731	H773	0.348500	0.119000	0.028800
C12031	C1203	0.178390	0.899900	0.702600
H7741	H774	0.184800	0.927800	0.701300
C12041	C1204	0.336430	0.128000	0.880900
H7751	H775	0.331200	0.156600	0.887900
C12051	C1205	0.170130	0.740600	0.586200
C12061	C1206	0.174540	0.018700	0.953000
C12071	C1207	0.248620	0.014900	0.810300
C12081	C1208	0.158670	0.852600	0.739000
H7761	H776	0.150700	0.847200	0.763400
C12091	C1209	0.369750	0.772600	0.819000
C12101	C1210	0.205450	0.028800	0.982100
H7771	H777	0.201000	0.052600	0.000600
C12111	C1211	0.191820	0.989900	0.813900
C12121	C1212	0.346620	0.825700	0.868000
C12131	C1213	0.384970	0.856600	0.643000
C12141	C1214	0.314960	0.980000	0.999000
C12151	C1215	0.338240	0.031900	0.004900
H7781	H778	0.347800	0.047400	0.990700
C12161	C1216	0.170880	0.826700	0.669900
C12171	C1217	0.249980	0.972100	0.961800
C12181	C1218	0.160380	0.821700	0.707700
H7791	H779	0.154000	0.794000	0.711200
C12191	C1219	0.365930	0.914800	0.701100
C12201	C1220	0.286290	0.956100	0.968100
C12211	C1221	0.180140	0.866400	0.667500
H7801	H780	0.187800	0.872100	0.642600
C12221	C1222	0.357820	0.070800	0.887600
H7811	H781	0.368600	0.059300	0.900200
C12231	C1223	0.172340	0.798200	0.632900
C12241	C1224	0.334340	0.856700	0.896600
C12251	C1225	0.311950	0.986900	0.040800
H7821	H782	0.302100	0.971100	0.053400
C12261	C1226	0.329060	0.005000	0.981000
H7831	H783	0.331900	0.001700	0.949900
C12271	C1227	0.276610	0.022000	0.850800
H7841	H784	0.270300	0.023000	0.878600
C12281	C1228	0.339910	0.927900	0.750300
H7851	H785	0.335900	0.897900	0.744400
C12291	C1229	0.223810	0.018900	0.980900
H7861	H786	0.231900	0.038200	0.996500
C12301	C1230	0.349350	0.019300	0.760300
H7871	H787	0.352000	0.050900	0.761800
C12311	C1231	0.358970	0.990800	0.736800
H7881	H788	0.369400	0.002700	0.722800
C12321	C1232	0.145300	0.694400	0.553500
H7891	H789	0.136200	0.713500	0.565800
C12331	C1233	0.277630	0.021300	0.771900
H7901	H790	0.271500	0.021700	0.743700
C12341	C1234	0.362030	0.141400	0.084800
H7911	H791	0.365000	0.170500	0.073000
C12351	C1235	0.321130	0.014000	0.069100
H7921	H792	0.318400	0.015600	0.100400
C12361	C1236	0.352380	0.117000	0.900400
C12371	C1237	0.267790	0.018000	0.813800
C12381	C1238	0.261500	0.007800	0.969400
H7931	H793	0.257000	0.037800	0.972500
C12391	C1239	0.174400	0.666900	0.546000
H7941	H794	0.186800	0.673300	0.549200
C12401	C1240	0.364940	0.821400	0.880500
H7951	H795	0.369700	0.837100	0.905900
C12411	C1241	0.379000	0.163300	0.151600
C12421	C1242	0.328020	0.892600	0.967900
H7961	H796	0.330600	0.897000	0.999100
C12431	C1243	0.141400	0.654700	0.524800
H7971	H797	0.130500	0.655300	0.508300
C12441	C1244	0.367770	0.129800	0.124900
C12451	C1245	0.170800	0.624000	0.527100
H7981	H798	0.179600	0.602100	0.520000
C12461	C1246	0.363110	0.144400	0.929500
C12471	C1247	0.256030	0.929400	0.954100
H7991	H799	0.248000	0.905300	0.947500
C12481	C1248	0.351460	0.778600	0.806500
H8001	H800	0.346800	0.763300	0.780800
C12491	C1249	0.240420	0.992100	0.777900
H8011	H801	0.247200	0.980900	0.753200
C12501	C1250	0.194610	0.004000	0.956800
C12511	C1251	0.295790	0.025200	0.851400
H8021	H802	0.302200	0.025900	0.879200
C12521	C1252	0.338010	0.863500	0.943800
H8031	H803	0.347500	0.847400	0.957900
C12531	C1253	0.295880	0.023900	0.773400
H8041	H804	0.302500	0.023400	0.746000
C12541	C1254	0.379630	0.742600	0.790800
C12551	C1255	0.275600	0.921600	0.956300
H8051	H805	0.280400	0.892500	0.949500
C12561	C1256	0.369210	0.868700	0.711100
H8061	H806	0.365000	0.856200	0.738700
C12571	C1257	0.340550	0.806800	0.832100
H8071	H807	0.328600	0.812200	0.822900
C12581	C1258	0.375290	0.794200	0.854600
H8081	H808	0.387400	0.790700	0.863000
C12591	C1259	0.279720	0.000000	0.972600
H8091	H809	0.287600	0.024700	0.977800
C12601	C1260	0.237850	0.032100	0.845800
H8101	H810	0.243400	0.049300	0.869100
N1051	N105	0.162920	0.757700	0.625400
N1061	N106	0.167440	0.890500	0.737700
N1071	N107	0.183060	0.802300	0.597500
N1081	N108	0.150070	0.739400	0.652400
H8111	H811	0.145300	0.713000	0.645400
H8121	H812	0.146600	0.754000	0.676800
N1091	N109	0.151800	0.617300	0.519600
N1101	N110	0.181980	0.768700	0.568400
N1111	N111	0.324070	0.033100	0.810200
N1121	N112	0.304810	0.949300	0.972900
O1571	O157	0.375750	0.723200	0.757100
O1581	O158	0.395060	0.273700	0.005000
O1591	O159	0.401850	0.213000	0.047800
O1601	O160	0.164810	0.995400	0.927000
O1611	O161	0.392130	0.786700	0.613300
O1621	O162	0.170380	0.048500	0.979800
O1631	O163	0.405290	0.847700	0.583500
O1641	O164	0.382720	0.201400	0.136500
O1651	O165	0.384000	0.150700	0.190800
O1661	O166	0.183800	0.004400	0.846900
O1671	O167	0.397450	0.734600	0.807100
O1681	O168	0.186290	0.967200	0.784400
Cu401	Cu40	0.163050	0.940670	0.784000
Cu411	Cu41	0.145540	0.063610	0.986100
Cu421	Cu42	0.157000	0.021680	0.866060
C12611	C1261	0.820280	0.377100	0.878300
H8131	H813	0.816900	0.370300	0.848000
C12621	C1262	0.884770	0.657600	0.985900
H8141	H814	0.892800	0.645200	0.007500
C12631	C1263	0.810600	0.408000	0.903000
H8151	H815	0.801200	0.424100	0.888600
C12641	C1264	0.830080	0.456000	0.779700
H8161	H816	0.820400	0.443000	0.796100
C12651	C1265	0.878360	0.341700	0.681400
H8171	H817	0.880000	0.310500	0.688900
C12661	C1266	0.884000	0.404300	0.634500
H8181	H818	0.890200	0.417000	0.609400
C12671	C1267	0.833010	0.560100	0.839300
C12681	C1268	0.894220	0.733400	0.015000
C12691	C1269	0.870440	0.716700	0.958400
H8191	H819	0.867600	0.748300	0.959500
C12701	C1270	0.833640	0.498800	0.785200
C12711	C1271	0.804260	0.527000	0.811800
C12721	C1272	0.894630	0.328500	0.612500
C12731	C1273	0.827660	0.599700	0.851900
H8201	H820	0.816700	0.610100	0.839900
C12741	C1274	0.699510	0.464100	0.936200
H8211	H821	0.690900	0.444800	0.922600
C12751	C1275	0.663300	0.201400	0.561000
C12761	C1276	0.712070	0.500100	0.813800
C12771	C1277	0.719840	0.525100	0.848200
H8221	H822	0.713000	0.536900	0.872500
C12781	C1278	0.862830	0.591100	0.145800
H8231	H823	0.866400	0.584100	0.175800
C12791	C1279	0.848950	0.544300	0.860200
H8241	H824	0.853100	0.514300	0.854200
C12801	C1280	0.875640	0.626900	0.957900
H8251	H825	0.878100	0.595200	0.958700
C12811	C1281	0.861030	0.691700	0.929800
H8261	H826	0.852900	0.705800	0.909600
C12821	C1282	0.729850	0.484200	0.958900
C12831	C1283	0.874040	0.432300	0.662700
H8271	H827	0.872800	0.463700	0.655600
C12841	C1284	0.883050	0.702900	0.984900
C12851	C1285	0.855290	0.443200	0.729900
C12861	C1286	0.851890	0.561700	0.119700
H8281	H828	0.848300	0.533100	0.131600
C12871	C1287	0.846620	0.574400	0.077600
C12881	C1288	0.721340	0.483600	0.779000
H8291	H829	0.715600	0.466900	0.755600
C12891	C1289	0.718530	0.452200	0.936000
H8301	H830	0.723000	0.425500	0.921800
C12901	C1290	0.835320	0.540300	0.049500
C12911	C1291	0.814010	0.416700	0.948100
C12921	C1292	0.851680	0.611800	0.059100
H8311	H831	0.848500	0.619000	0.028800
C12931	C1293	0.678390	0.399900	0.702600
H8321	H832	0.684800	0.427800	0.701300
C12941	C1294	0.836430	0.628000	0.880900
H8331	H833	0.831200	0.656600	0.887900
C12951	C1295	0.670130	0.240600	0.586200
C12961	C1296	0.674540	0.518700	0.953000
C12971	C1297	0.748620	0.514900	0.810300
C12981	C1298	0.658670	0.352600	0.739000
H8341	H834	0.650700	0.347200	0.763400
C12991	C1299	0.869750	0.272600	0.819000
C13001	C1300	0.705450	0.528800	0.982100
H8351	H835	0.701000	0.552600	0.000600
C13011	C1301	0.691820	0.489900	0.813900
C13021	C1302	0.846620	0.325700	0.868000
C13031	C1303	0.884970	0.356600	0.643000
C13041	C1304	0.814960	0.480000	0.999000
C13051	C1305	0.838240	0.531900	0.004900
H8361	H836	0.847800	0.547400	0.990700
C13061	C1306	0.670880	0.326700	0.669900
C13071	C1307	0.749980	0.472100	0.961800
C13081	C1308	0.660380	0.321700	0.707700
H8371	H837	0.654000	0.294000	0.711200
C13091	C1309	0.865930	0.414800	0.701100
C13101	C1310	0.786290	0.456100	0.968100
C13111	C1311	0.680140	0.366400	0.667500
H8381	H838	0.687800	0.372100	0.642600
C13121	C1312	0.857820	0.570800	0.887600
H8391	H839	0.868600	0.559300	0.900200
C13131	C1313	0.672340	0.298200	0.632900
C13141	C1314	0.834340	0.356700	0.896600
C13151	C1315	0.811950	0.486900	0.040800
H8401	H840	0.802100	0.471100	0.053400
C13161	C1316	0.829060	0.505000	0.981000
H8411	H841	0.831900	0.501700	0.949900
C13171	C1317	0.776610	0.522000	0.850800
H8421	H842	0.770300	0.523000	0.878600
C13181	C1318	0.839910	0.427900	0.750300
H8431	H843	0.835900	0.397900	0.744400
C13191	C1319	0.723810	0.518900	0.980900
H8441	H844	0.731900	0.538200	0.996500
C13201	C1320	0.849350	0.519300	0.760300
H8451	H845	0.852000	0.550900	0.761800
C13211	C1321	0.858970	0.490800	0.736800
H8461	H846	0.869400	0.502700	0.722800
C13221	C1322	0.645300	0.194400	0.553500
H8471	H847	0.636200	0.213500	0.565800
C13231	C1323	0.777630	0.521300	0.771900
H8481	H848	0.771500	0.521700	0.743700
C13241	C1324	0.862030	0.641400	0.084800
H8491	H849	0.865000	0.670500	0.073000
C13251	C1325	0.821130	0.514000	0.069100
H8501	H850	0.818400	0.515600	0.100400
C13261	C1326	0.852380	0.617000	0.900400
C13271	C1327	0.767790	0.518000	0.813800
C13281	C1328	0.761500	0.507800	0.969400
H8511	H851	0.757000	0.537800	0.972500
C13291	C1329	0.674400	0.166900	0.546000
H8521	H852	0.686800	0.173300	0.549200
C13301	C1330	0.864940	0.321400	0.880500
H8531	H853	0.869700	0.337100	0.905900
C13311	C1331	0.879000	0.663300	0.151600
C13321	C1332	0.828020	0.392600	0.967900
H8541	H854	0.830600	0.397000	0.999100
C13331	C1333	0.641400	0.154700	0.524800
H8551	H855	0.630500	0.155300	0.508300
C13341	C1334	0.867770	0.629800	0.124900
C13351	C1335	0.670800	0.124000	0.527100
H8561	H856	0.679600	0.102100	0.520000
C13361	C1336	0.863110	0.644400	0.929500
C13371	C1337	0.756030	0.429400	0.954100
H8571	H857	0.748000	0.405300	0.947500
C13381	C1338	0.851460	0.278600	0.806500
H8581	H858	0.846800	0.263300	0.780800
C13391	C1339	0.740420	0.492100	0.777900
H8591	H859	0.747200	0.480900	0.753200
C13401	C1340	0.694610	0.504000	0.956800
C13411	C1341	0.795790	0.525200	0.851400
H8601	H860	0.802200	0.525900	0.879200
C13421	C1342	0.838010	0.363500	0.943800
H8611	H861	0.847500	0.347400	0.957900
C13431	C1343	0.795880	0.523900	0.773400
H8621	H862	0.802500	0.523400	0.746000
C13441	C1344	0.879630	0.242600	0.790800
C13451	C1345	0.775600	0.421600	0.956300
H8631	H863	0.780400	0.392500	0.949500
C13461	C1346	0.869210	0.368700	0.711100
H8641	H864	0.865000	0.356200	0.738700
C13471	C1347	0.840550	0.306800	0.832100
H8651	H865	0.828600	0.312200	0.822900
C13481	C1348	0.875290	0.294200	0.854600
H8661	H866	0.887400	0.290700	0.863000
C13491	C1349	0.779720	0.500000	0.972600
H8671	H867	0.787600	0.524700	0.977800
C13501	C1350	0.737850	0.532100	0.845800
H8681	H868	0.743400	0.549300	0.869100
N1131	N113	0.662920	0.257700	0.625400
N1141	N114	0.667440	0.390500	0.737700
N1151	N115	0.683060	0.302300	0.597500
N1161	N116	0.650070	0.239400	0.652400
H8691	H869	0.645300	0.213000	0.645400
H8701	H870	0.646600	0.254000	0.676800
N1171	N117	0.651800	0.117300	0.519600
N1181	N118	0.681980	0.268700	0.568400
N1191	N119	0.824070	0.533100	0.810200
N1201	N120	0.804810	0.449300	0.972900
O1691	O169	0.875750	0.223200	0.757100
O1701	O170	0.895060	0.773700	0.005000
O1711	O171	0.901850	0.713000	0.047800
O1721	O172	0.664810	0.495400	0.927000
O1731	O173	0.892130	0.286700	0.613300
O1741	O174	0.670380	0.548500	0.979800
O1751	O175	0.905290	0.347700	0.583500
O1761	O176	0.882720	0.701400	0.136500
O1771	O177	0.884000	0.650700	0.190800
O1781	O178	0.683800	0.504400	0.846900
O1791	O179	0.897450	0.234600	0.807100
O1801	O180	0.686290	0.467200	0.784400
Cu431	Cu43	0.663050	0.440670	0.784000
Cu441	Cu44	0.645540	0.563610	0.986100
Cu451	Cu45	0.657000	0.521680	0.866060
C13511	C1351	0.820280	0.877100	0.378300
H8711	H871	0.816900	0.870300	0.348000
C13521	C1352	0.884770	0.157600	0.485900
H8721	H872	0.892800	0.145200	0.507500
C13531	C1353	0.810600	0.908000	0.403000
H8731	H873	0.801200	0.924100	0.388600
C13541	C1354	0.830080	0.956000	0.279700
H8741	H874	0.820400	0.943000	0.296100
C13551	C1355	0.878360	0.841700	0.181400
H8751	H875	0.880000	0.810500	0.188900
C13561	C1356	0.884000	0.904300	0.134500
H8761	H876	0.890200	0.917000	0.109400
C13571	C1357	0.833010	0.060100	0.339300
C13581	C1358	0.894220	0.233400	0.515000
C13591	C1359	0.870440	0.216700	0.458400
H8771	H877	0.867600	0.248300	0.459500
C13601	C1360	0.833640	0.998800	0.285200
C13611	C1361	0.804260	0.027000	0.311800
C13621	C1362	0.894630	0.828500	0.112500
C13631	C1363	0.827660	0.099700	0.351900
H8781	H878	0.816700	0.110100	0.339900
C13641	C1364	0.699510	0.964100	0.436200
H8791	H879	0.690900	0.944800	0.422600
C13651	C1365	0.663300	0.701400	0.061000
C13661	C1366	0.712070	0.000100	0.313800
C13671	C1367	0.719840	0.025100	0.348200
H8801	H880	0.713000	0.036900	0.372500
C13681	C1368	0.862830	0.091100	0.645800
H8811	H881	0.866400	0.084100	0.675800
C13691	C1369	0.848950	0.044300	0.360200
H8821	H882	0.853100	0.014300	0.354200
C13701	C1370	0.875640	0.126900	0.457900
H8831	H883	0.878100	0.095200	0.458700
C13711	C1371	0.861030	0.191700	0.429800
H8841	H884	0.852900	0.205800	0.409600
C13721	C1372	0.729850	0.984200	0.458900
C13731	C1373	0.874040	0.932300	0.162700
H8851	H885	0.872800	0.963700	0.155600
C13741	C1374	0.883050	0.202900	0.484900
C13751	C1375	0.855290	0.943200	0.229900
C13761	C1376	0.851890	0.061700	0.619700
H8861	H886	0.848300	0.033100	0.631600
C13771	C1377	0.846620	0.074400	0.577600
C13781	C1378	0.721340	0.983600	0.279000
H8871	H887	0.715600	0.966900	0.255600
C13791	C1379	0.718530	0.952200	0.436000
H8881	H888	0.723000	0.925500	0.421800
C13801	C1380	0.835320	0.040300	0.549500
C13811	C1381	0.814010	0.916700	0.448100
C13821	C1382	0.851680	0.111800	0.559100
H8891	H889	0.848500	0.119000	0.528800
C13831	C1383	0.678390	0.899900	0.202600
H8901	H890	0.684800	0.927800	0.201300
C13841	C1384	0.836430	0.128000	0.380900
H8911	H891	0.831200	0.156600	0.387900
C13851	C1385	0.670130	0.740600	0.086200
C13861	C1386	0.674540	0.018700	0.453000
C13871	C1387	0.748620	0.014900	0.310300
C13881	C1388	0.658670	0.852600	0.239000
H8921	H892	0.650700	0.847200	0.263400
C13891	C1389	0.869750	0.772600	0.319000
C13901	C1390	0.705450	0.028800	0.482100
H8931	H893	0.701000	0.052600	0.500600
C13911	C1391	0.691820	0.989900	0.313900
C13921	C1392	0.846620	0.825700	0.368000
C13931	C1393	0.884970	0.856600	0.143000
C13941	C1394	0.814960	0.980000	0.499000
C13951	C1395	0.838240	0.031900	0.504900
H8941	H894	0.847800	0.047400	0.490700
C13961	C1396	0.670880	0.826700	0.169900
C13971	C1397	0.749980	0.972100	0.461800
C13981	C1398	0.660380	0.821700	0.207700
H8951	H895	0.654000	0.794000	0.211200
C13991	C1399	0.865930	0.914800	0.201100
C14001	C1400	0.786290	0.956100	0.468100
C14011	C1401	0.680140	0.866400	0.167500
H8961	H896	0.687800	0.872100	0.142600
C14021	C1402	0.857820	0.070800	0.387600
H8971	H897	0.868600	0.059300	0.400200
C14031	C1403	0.672340	0.798200	0.132900
C14041	C1404	0.834340	0.856700	0.396600
C14051	C1405	0.811950	0.986900	0.540800
H8981	H898	0.802100	0.971100	0.553400
C14061	C1406	0.829060	0.005000	0.481000
H8991	H899	0.831900	0.001700	0.449900
C14071	C1407	0.776610	0.022000	0.350800
H9001	H900	0.770300	0.023000	0.378600
C14081	C1408	0.839910	0.927900	0.250300
H9011	H901	0.835900	0.897900	0.244400
C14091	C1409	0.723810	0.018900	0.480900
H9021	H902	0.731900	0.038200	0.496500
C14101	C1410	0.849350	0.019300	0.260300
H9031	H903	0.852000	0.050900	0.261800
C14111	C1411	0.858970	0.990800	0.236800
H9041	H904	0.869400	0.002700	0.222800
C14121	C1412	0.645300	0.694400	0.053500
H9051	H905	0.636200	0.713500	0.065800
C14131	C1413	0.777630	0.021300	0.271900
H9061	H906	0.771500	0.021700	0.243700
C14141	C1414	0.862030	0.141400	0.584800
H9071	H907	0.865000	0.170500	0.573000
C14151	C1415	0.821130	0.014000	0.569100
H9081	H908	0.818400	0.015600	0.600400
C14161	C1416	0.852380	0.117000	0.400400
C14171	C1417	0.767790	0.018000	0.313800
C14181	C1418	0.761500	0.007800	0.469400
H9091	H909	0.757000	0.037800	0.472500
C14191	C1419	0.674400	0.666900	0.046000
H9101	H910	0.686800	0.673300	0.049200
C14201	C1420	0.864940	0.821400	0.380500
H9111	H911	0.869700	0.837100	0.405900
C14211	C1421	0.879000	0.163300	0.651600
C14221	C1422	0.828020	0.892600	0.467900
H9121	H912	0.830600	0.897000	0.499100
C14231	C1423	0.641400	0.654700	0.024800
H9131	H913	0.630500	0.655300	0.008300
C14241	C1424	0.867770	0.129800	0.624900
C14251	C1425	0.670800	0.624000	0.027100
H9141	H914	0.679600	0.602100	0.020000
C14261	C1426	0.863110	0.144400	0.429500
C14271	C1427	0.756030	0.929400	0.454100
H9151	H915	0.748000	0.905300	0.447500
C14281	C1428	0.851460	0.778600	0.306500
H9161	H916	0.846800	0.763300	0.280800
C14291	C1429	0.740420	0.992100	0.277900
H9171	H917	0.747200	0.980900	0.253200
C14301	C1430	0.694610	0.004000	0.456800
C14311	C1431	0.795790	0.025200	0.351400
H9181	H918	0.802200	0.025900	0.379200
C14321	C1432	0.838010	0.863500	0.443800
H9191	H919	0.847500	0.847400	0.457900
C14331	C1433	0.795880	0.023900	0.273400
H9201	H920	0.802500	0.023400	0.246000
C14341	C1434	0.879630	0.742600	0.290800
C14351	C1435	0.775600	0.921600	0.456300
H9211	H921	0.780400	0.892500	0.449500
C14361	C1436	0.869210	0.868700	0.211100
H9221	H922	0.865000	0.856200	0.238700
C14371	C1437	0.840550	0.806800	0.332100
H9231	H923	0.828600	0.812200	0.322900
C14381	C1438	0.875290	0.794200	0.354600
H9241	H924	0.887400	0.790700	0.363000
C14391	C1439	0.779720	0.000000	0.472600
H9251	H925	0.787600	0.024700	0.477800
C14401	C1440	0.737850	0.032100	0.345800
H9261	H926	0.743400	0.049300	0.369100
N1211	N121	0.662920	0.757700	0.125400
N1221	N122	0.667440	0.890500	0.237700
N1231	N123	0.683060	0.802300	0.097500
N1241	N124	0.650070	0.739400	0.152400
H9271	H927	0.645300	0.713000	0.145400
H9281	H928	0.646600	0.754000	0.176800
N1251	N125	0.651800	0.617300	0.019600
N1261	N126	0.681980	0.768700	0.068400
N1271	N127	0.824070	0.033100	0.310200
N1281	N128	0.804810	0.949300	0.472900
O1811	O181	0.875750	0.723200	0.257100
O1821	O182	0.895060	0.273700	0.505000
O1831	O183	0.901850	0.213000	0.547800
O1841	O184	0.664810	0.995400	0.427000
O1851	O185	0.892130	0.786700	0.113300
O1861	O186	0.670380	0.048500	0.479800
O1871	O187	0.905290	0.847700	0.083500
O1881	O188	0.882720	0.201400	0.636500
O1891	O189	0.884000	0.150700	0.690800
O1901	O190	0.683800	0.004400	0.346900
O1911	O191	0.897450	0.734600	0.307100
O1921	O192	0.686290	0.967200	0.284400
Cu461	Cu46	0.663050	0.940670	0.284000
Cu471	Cu47	0.645540	0.063610	0.486100
Cu481	Cu48	0.657000	0.021680	0.366060
