data_ASINAT_clean_PM
_symmetry_space_group_name_H-M	'P1'
_cell_length_a	21.007000
_cell_length_b	21.099000
_cell_length_c	21.240000
_cell_angle_alpha	63.477000
_cell_angle_beta	63.691000
_cell_angle_gamma	84.660000
_symmetry_Int_Tables_number 1

loop_
_symmetry_equiv_pos_as_xyz
'x,y,z'

loop_
_atom_site_label
_atom_site_type_symbol
_atom_site_fract_x
_atom_site_fract_y
_atom_site_fract_z
Zn11	Zn1	0.038200	0.437340	0.339500
O11	O1	0.099510	0.474200	0.217200
O21	O2	0.097210	0.295580	0.442800
O31	O3	0.934140	0.428100	0.356300
O41	O4	0.069350	0.357700	0.287900
O51	O5	0.947810	0.386200	0.464000
O61	O6	0.109610	0.415800	0.382700
N11	N1	0.022300	0.775900	0.358800
N21	N2	0.049300	0.018100	0.359400
C11	C1	0.010900	0.670800	0.333500
C21	C2	0.221400	0.364100	0.561500
N31	N3	0.963900	0.847700	0.296500
C31	C3	0.997600	0.742900	0.329400
N41	N4	0.070100	0.755100	0.391800
H11	H1	0.087800	0.784900	0.399000
H21	H2	0.081700	0.712600	0.404700
N51	N5	0.375600	0.369800	0.722500
C41	C4	0.149700	0.359100	0.479900
C51	C5	0.015600	0.900500	0.348000
C61	C6	0.681400	0.383600	0.562500
C71	C7	0.203200	0.426500	0.515300
H31	H3	0.214200	0.469800	0.512400
N61	N6	0.031600	0.538200	0.334900
C81	C8	0.262100	0.365500	0.602500
C91	C9	0.101500	0.412200	0.223100
C101	C10	0.999800	0.840400	0.336000
C111	C11	0.202800	0.300400	0.565800
H41	H4	0.215500	0.258500	0.596100
N71	N7	0.964400	0.784300	0.292000
C121	C12	0.908300	0.403100	0.429700
C131	C13	0.025700	0.616300	0.390000
H51	H5	0.029900	0.623100	0.428300
C141	C14	0.223300	0.387700	0.011100
C151	C15	0.034100	0.550600	0.388500
H61	H6	0.041900	0.513400	0.428300
C161	C16	0.601000	0.378600	0.607600
C171	C17	0.338100	0.370400	0.680900
C181	C18	0.048300	0.953300	0.407800
H71	H7	0.059000	0.946600	0.448200
C191	C19	0.562800	0.333900	0.684200
H81	H8	0.586700	0.304000	0.711700
C201	C20	0.712500	0.403500	0.481200
H91	H9	0.683200	0.413000	0.456500
C211	C21	0.167700	0.424400	0.472600
H101	H10	0.156800	0.466200	0.440200
C221	C22	0.116000	0.357200	0.431200
C231	C23	0.489900	0.421800	0.606400
H111	H11	0.465500	0.451900	0.579500
C241	C24	0.264900	0.379200	0.939300
C251	C25	0.340800	0.371600	0.796200
C261	C26	0.797700	0.371200	0.557900
H121	H12	0.826000	0.358600	0.584100
C271	C27	0.723300	0.367200	0.599900
H131	H13	0.702500	0.353200	0.653700
C281	C28	0.017200	0.590300	0.281000
H141	H14	0.014300	0.581700	0.243000
C291	C29	0.785900	0.409300	0.437500
H151	H15	0.806400	0.422700	0.383900
C301	C30	0.013200	0.969500	0.295100
H161	H16	0.000000	0.976900	0.256100
C311	C31	0.356700	0.327700	0.642200
H171	H17	0.394200	0.300500	0.642100
C321	C32	0.371000	0.408500	0.818000
H181	H18	0.417100	0.432700	0.783600
C331	C33	0.230200	0.450500	0.012900
H191	H19	0.263900	0.487500	0.967500
C341	C34	0.143800	0.404000	0.148700
C351	C35	0.284100	0.411500	0.678400
H201	H20	0.272700	0.440700	0.703200
C361	C36	0.453600	0.376100	0.683200
C371	C37	0.489400	0.330200	0.724200
H211	H21	0.464400	0.297900	0.777200
C381	C38	0.175700	0.329900	0.080600
H221	H22	0.170400	0.286200	0.081400
C391	C39	0.032700	0.893000	0.404600
H231	H23	0.034000	0.847900	0.441100
C401	C40	0.828800	0.394000	0.477500
C411	C41	0.166500	0.296400	0.527400
H241	H24	0.153500	0.252500	0.533000
C421	C42	0.234100	0.339900	0.919200
H251	H25	0.188000	0.315700	0.953600
C431	C43	0.317800	0.326300	0.603300
H261	H26	0.330200	0.298000	0.577400
C441	C44	0.335800	0.410700	0.888200
H271	H27	0.359200	0.433600	0.902200
C451	C45	0.006400	0.656800	0.278000
H281	H28	0.996100	0.692000	0.238900
C461	C46	0.135800	0.338900	0.149400
H291	H29	0.104000	0.300900	0.195500
C471	C47	0.563200	0.424400	0.566800
H301	H30	0.588000	0.456100	0.513600
C481	C48	0.246200	0.410100	0.639500
H311	H31	0.210000	0.438900	0.637800
C491	C49	0.272100	0.336600	0.847800
H321	H32	0.250800	0.310600	0.834900
C501	C50	0.190600	0.462900	0.077800
H331	H33	0.194500	0.507700	0.075000
C511	C51	0.030800	0.025700	0.303000
H341	H34	0.030100	0.071700	0.267500
Zn21	Zn2	0.101170	0.273850	0.359890
Zn31	Zn3	0.086080	0.109950	0.350640
O71	O7	0.998760	0.230300	0.414300
O81	O8	0.137310	0.177300	0.375600
O91	O9	0.107910	0.061000	0.448700
O101	O10	0.137100	0.158800	0.232600
O111	O11	0.993680	0.148400	0.375600
C521	C52	0.138200	0.117800	0.432700
C531	C53	0.735600	0.159700	0.531100
C541	C54	0.177400	0.119500	0.475900
N81	N8	0.428900	0.121400	0.696300
C551	C55	0.885900	0.176100	0.453600
C561	C56	0.266100	0.177000	0.480800
H351	H35	0.299200	0.216500	0.458100
C571	C57	0.964500	0.185900	0.411500
C581	C58	0.301300	0.130900	0.992200
C591	C59	0.771300	0.110500	0.506900
H361	H36	0.745300	0.071400	0.515900
C601	C60	0.777100	0.218400	0.515600
H371	H37	0.754400	0.252900	0.530600
C611	C61	0.306600	0.158800	0.862400
H381	H38	0.265900	0.181500	0.874500
C621	C62	0.302000	0.119400	0.589900
C631	C63	0.257700	0.121000	0.550300
C641	C64	0.845600	0.118500	0.469100
H391	H39	0.868600	0.084200	0.453900
C651	C65	0.655900	0.152200	0.571600
C661	C66	0.427200	0.091600	0.823800
H401	H40	0.466700	0.067100	0.812500
C671	C67	0.547600	0.179200	0.654200
H411	H41	0.525400	0.204000	0.683400
C681	C68	0.540000	0.097900	0.607500
H421	H42	0.513600	0.068000	0.603600
C691	C69	0.506300	0.132300	0.652900
C701	C70	0.335800	0.128800	0.915800
C711	C71	0.197900	0.142700	0.093800
H431	H43	0.149700	0.149000	0.113000
C721	C72	0.204700	0.061100	0.587400
H441	H44	0.195900	0.023300	0.636300
C731	C73	0.233900	0.134100	0.139000
C741	C74	0.613000	0.108500	0.568200
H451	H45	0.635400	0.085200	0.537300
C751	C75	0.387000	0.120800	0.660400
C761	C76	0.227900	0.176800	0.443800
H461	H46	0.235600	0.215800	0.396100
C771	C77	0.231000	0.141900	0.024400
H471	H47	0.205200	0.149000	0.996200
C781	C78	0.368700	0.159000	0.548000
H481	H48	0.386500	0.186000	0.493700
C791	C79	0.395800	0.097600	0.892100
H491	H49	0.417200	0.078700	0.925600
C801	C80	0.337800	0.154900	0.792200
H501	H50	0.317200	0.174100	0.757800
C811	C81	0.166500	0.061600	0.547400
H511	H51	0.133200	0.022500	0.569100
C821	C82	0.397900	0.123300	0.772300
O121	O12	0.220600	0.103700	0.265400
C831	C83	0.409700	0.160700	0.582200
H521	H52	0.453700	0.189500	0.551400
C841	C84	0.304100	0.122900	0.107200
H531	H53	0.330200	0.115900	0.135000
C851	C85	0.197400	0.133000	0.216700
C861	C86	0.337000	0.121800	0.036000
H541	H54	0.384900	0.114600	0.016500
C871	C87	0.850300	0.225400	0.478800
H551	H55	0.876600	0.263900	0.470500
C881	C88	0.321000	0.076800	0.708100
H561	H56	0.305900	0.047100	0.761600
C891	C89	0.278500	0.080100	0.670100
H571	H57	0.232800	0.054600	0.700800
C901	C90	0.618700	0.188600	0.613900
H581	H58	0.644600	0.221600	0.614500
Zn41	Zn4	0.961800	0.562660	0.660500
O131	O13	0.900490	0.525800	0.782800
O141	O14	0.902790	0.704420	0.557200
O151	O15	0.065860	0.571900	0.643700
O161	O16	0.930650	0.642300	0.712100
O171	O17	0.052190	0.613800	0.536000
O181	O18	0.890390	0.584200	0.617300
N91	N9	0.977700	0.224100	0.641200
N101	N10	0.950700	0.981900	0.640600
C911	C91	0.989100	0.329200	0.666500
C921	C92	0.778600	0.635900	0.438500
N111	N11	0.036100	0.152300	0.703500
C931	C93	0.002400	0.257100	0.670600
N121	N12	0.929900	0.244900	0.608200
H591	H59	0.912200	0.215100	0.601000
H601	H60	0.918300	0.287400	0.595300
N131	N13	0.624400	0.630200	0.277500
C941	C94	0.850300	0.640900	0.520100
C951	C95	0.984400	0.099500	0.652000
C961	C96	0.318600	0.616400	0.437500
C971	C97	0.796800	0.573500	0.484700
H611	H61	0.785800	0.530200	0.487600
N141	N14	0.968400	0.461800	0.665100
C981	C98	0.737900	0.634500	0.397500
C991	C99	0.898500	0.587800	0.776900
C1001	C100	0.000200	0.159600	0.664000
C1011	C101	0.797200	0.699600	0.434200
H621	H62	0.784500	0.741500	0.403900
N151	N15	0.035600	0.215700	0.708000
C1021	C102	0.091700	0.596900	0.570300
C1031	C103	0.974300	0.383700	0.610000
H631	H63	0.970100	0.376900	0.571700
C1041	C104	0.776700	0.612300	0.988900
C1051	C105	0.965900	0.449400	0.611500
H641	H64	0.958100	0.486600	0.571700
C1061	C106	0.399000	0.621400	0.392400
C1071	C107	0.661900	0.629600	0.319100
C1081	C108	0.951700	0.046700	0.592200
H651	H65	0.941000	0.053400	0.551800
C1091	C109	0.437200	0.666100	0.315800
H661	H66	0.413300	0.696000	0.288300
C1101	C110	0.287500	0.596500	0.518800
H671	H67	0.316800	0.587000	0.543500
C1111	C111	0.832300	0.575600	0.527400
H681	H68	0.843200	0.533800	0.559800
C1121	C112	0.884000	0.642800	0.568800
C1131	C113	0.510100	0.578200	0.393600
H691	H69	0.534500	0.548100	0.420500
C1141	C114	0.735100	0.620800	0.060700
C1151	C115	0.659200	0.628400	0.203800
C1161	C116	0.202300	0.628800	0.442100
H701	H70	0.174000	0.641400	0.415900
C1171	C117	0.276700	0.632800	0.400100
H711	H71	0.297500	0.646800	0.346300
C1181	C118	0.982800	0.409700	0.719000
H721	H72	0.985700	0.418300	0.757000
C1191	C119	0.214100	0.590700	0.562500
H731	H73	0.193600	0.577300	0.616100
C1201	C120	0.986800	0.030500	0.704900
H741	H74	0.000000	0.023100	0.743900
C1211	C121	0.643300	0.672300	0.357800
H751	H75	0.605800	0.699500	0.357900
C1221	C122	0.629000	0.591500	0.182000
H761	H76	0.582900	0.567300	0.216400
C1231	C123	0.769800	0.549500	0.987100
H771	H77	0.736100	0.512500	0.032500
C1241	C124	0.856200	0.596000	0.851300
C1251	C125	0.715900	0.588500	0.321600
H781	H78	0.727300	0.559300	0.296800
C1261	C126	0.546400	0.623900	0.316800
C1271	C127	0.510600	0.669800	0.275800
H791	H79	0.535600	0.702100	0.222800
C1281	C128	0.824300	0.670100	0.919400
H801	H80	0.829600	0.713800	0.918600
C1291	C129	0.967300	0.107000	0.595400
H811	H81	0.966000	0.152100	0.558900
C1301	C130	0.171200	0.606000	0.522500
C1311	C131	0.833500	0.703600	0.472600
H821	H82	0.846500	0.747500	0.467000
C1321	C132	0.765900	0.660100	0.080800
H831	H83	0.812000	0.684300	0.046400
C1331	C133	0.682200	0.673700	0.396700
H841	H84	0.669800	0.702000	0.422600
C1341	C134	0.664200	0.589300	0.111800
H851	H85	0.640800	0.566400	0.097800
C1351	C135	0.993600	0.343200	0.722000
H861	H86	0.003900	0.308000	0.761100
C1361	C136	0.864200	0.661100	0.850600
H871	H87	0.896000	0.699100	0.804500
C1371	C137	0.436800	0.575600	0.433200
H881	H88	0.412000	0.543900	0.486400
C1381	C138	0.753800	0.589900	0.360500
H891	H89	0.790000	0.561100	0.362200
C1391	C139	0.727900	0.663400	0.152200
H901	H90	0.749200	0.689400	0.165100
C1401	C140	0.809400	0.537100	0.922200
H911	H91	0.805500	0.492300	0.925000
C1411	C141	0.969200	0.974300	0.697000
H921	H92	0.969900	0.928300	0.732500
Zn51	Zn5	0.898830	0.726150	0.640110
Zn61	Zn6	0.913920	0.890050	0.649360
O191	O19	0.001240	0.769700	0.585700
O201	O20	0.862690	0.822700	0.624400
O211	O21	0.892090	0.939000	0.551300
O221	O22	0.862900	0.841200	0.767400
O231	O23	0.006320	0.851600	0.624400
C1421	C142	0.861800	0.882200	0.567300
C1431	C143	0.264400	0.840300	0.468900
C1441	C144	0.822600	0.880500	0.524100
N161	N16	0.571100	0.878600	0.303700
C1451	C145	0.114100	0.823900	0.546400
C1461	C146	0.733900	0.823000	0.519200
H931	H93	0.700800	0.783500	0.541900
C1471	C147	0.035500	0.814100	0.588500
C1481	C148	0.698700	0.869100	0.007800
C1491	C149	0.228700	0.889500	0.493100
H941	H94	0.254700	0.928600	0.484100
C1501	C150	0.222900	0.781600	0.484400
H951	H95	0.245600	0.747100	0.469400
C1511	C151	0.693400	0.841200	0.137600
H961	H96	0.734100	0.818500	0.125500
C1521	C152	0.698000	0.880600	0.410100
C1531	C153	0.742300	0.879000	0.449700
C1541	C154	0.154400	0.881500	0.530900
H971	H97	0.131400	0.915800	0.546100
C1551	C155	0.344100	0.847800	0.428400
C1561	C156	0.572800	0.908400	0.176200
H981	H98	0.533300	0.932900	0.187500
C1571	C157	0.452400	0.820800	0.345800
H991	H99	0.474600	0.796000	0.316600
C1581	C158	0.460000	0.902100	0.392500
H1001	H100	0.486400	0.932000	0.396400
C1591	C159	0.493700	0.867700	0.347100
C1601	C160	0.664200	0.871200	0.084200
C1611	C161	0.802100	0.857300	0.906200
H1011	H101	0.850300	0.851000	0.887000
C1621	C162	0.795300	0.938900	0.412600
H1021	H102	0.804100	0.976700	0.363700
C1631	C163	0.766100	0.865900	0.861000
C1641	C164	0.387000	0.891500	0.431800
H1031	H103	0.364600	0.914800	0.462700
C1651	C165	0.613000	0.879200	0.339600
C1661	C166	0.772100	0.823200	0.556200
H1041	H104	0.764400	0.784200	0.603900
C1671	C167	0.769000	0.858100	0.975600
H1051	H105	0.794800	0.851000	0.003800
C1681	C168	0.631300	0.841000	0.452000
H1061	H106	0.613500	0.814000	0.506300
C1691	C169	0.604200	0.902400	0.107900
H1071	H107	0.582800	0.921300	0.074400
C1701	C170	0.662200	0.845100	0.207800
H1081	H108	0.682800	0.825900	0.242200
C1711	C171	0.833500	0.938400	0.452600
H1091	H109	0.866800	0.977500	0.430900
C1721	C172	0.602100	0.876700	0.227700
O241	O24	0.779400	0.896300	0.734600
C1731	C173	0.590300	0.839300	0.417800
H1101	H110	0.546300	0.810500	0.448600
C1741	C174	0.695900	0.877100	0.892800
H1111	H111	0.669800	0.884100	0.865000
C1751	C175	0.802600	0.867000	0.783300
C1761	C176	0.663000	0.878200	0.964000
H1121	H112	0.615100	0.885400	0.983500
C1771	C177	0.149700	0.774600	0.521200
H1131	H113	0.123400	0.736100	0.529500
C1781	C178	0.679000	0.923200	0.291900
H1141	H114	0.694100	0.952900	0.238400
C1791	C179	0.721500	0.919900	0.329900
H1151	H115	0.767200	0.945400	0.299200
C1801	C180	0.381300	0.811400	0.386100
H1161	H116	0.355400	0.778400	0.385500
