data_ASIQEA_clean_PM
_symmetry_space_group_name_H-M	'P1'
_cell_length_a	18.001000
_cell_length_b	18.001000
_cell_length_c	12.946000
_cell_angle_alpha	90.000000
_cell_angle_beta	90.000000
_cell_angle_gamma	90.000000
_symmetry_Int_Tables_number 1

loop_
_symmetry_equiv_pos_as_xyz
'x,y,z'

loop_
_atom_site_label
_atom_site_type_symbol
_atom_site_fract_x
_atom_site_fract_y
_atom_site_fract_z
N11	N1	0.557400	0.043700	0.307500
N21	N2	0.514000	0.011200	0.153900
N31	N3	0.912900	0.066100	0.474200
N41	N4	0.798500	0.106500	0.456000
C11	C1	0.601300	0.077800	0.385500
C21	C2	0.842100	0.047200	0.470900
H11	H1	0.824700	0.998900	0.478100
C31	C3	0.607600	0.151200	0.539600
C41	C4	0.678800	0.072800	0.382500
H21	H2	0.702600	0.046500	0.330300
C51	C5	0.718800	0.108000	0.458900
C61	C6	0.568600	0.043800	0.204600
H31	H3	0.610100	0.064500	0.172800
O11	O1	0.499700	0.198800	0.627900
C71	C7	0.464700	0.988400	0.229900
H41	H4	0.420500	0.963000	0.217900
C81	C8	0.566200	0.117600	0.462400
H51	H5	0.514700	0.121800	0.462500
C91	C9	0.685100	0.146200	0.537400
H61	H6	0.713400	0.168600	0.588800
C101	C10	0.490100	0.008400	0.323700
H71	H7	0.467000	0.000100	0.386900
C111	C11	0.914300	0.141500	0.459200
H81	H8	0.957000	0.170500	0.456900
O21	O2	0.609800	0.234500	0.680900
C121	C12	0.844700	0.167200	0.448400
H91	H9	0.830600	0.216300	0.437800
C131	C13	0.571800	0.196100	0.623500
N51	N5	0.942600	0.456300	0.307500
N61	N6	0.986000	0.488800	0.153900
N71	N7	0.587100	0.433900	0.474200
N81	N8	0.701500	0.393500	0.456000
C141	C14	0.898700	0.422200	0.385500
C151	C15	0.657900	0.452800	0.470900
H101	H10	0.675300	0.501100	0.478100
C161	C16	0.892400	0.348800	0.539600
C171	C17	0.821200	0.427200	0.382500
H111	H11	0.797400	0.453500	0.330300
C181	C18	0.781200	0.392000	0.458900
C191	C19	0.931400	0.456200	0.204600
H121	H12	0.889900	0.435500	0.172800
O31	O3	0.000300	0.301200	0.627900
C201	C20	0.035300	0.511600	0.229900
H131	H13	0.079500	0.537000	0.217900
C211	C21	0.933800	0.382400	0.462400
H141	H14	0.985300	0.378200	0.462500
C221	C22	0.814900	0.353800	0.537400
H151	H15	0.786600	0.331400	0.588800
C231	C23	0.009900	0.491600	0.323700
H161	H16	0.033000	0.499900	0.386900
C241	C24	0.585700	0.358500	0.459200
H171	H17	0.543000	0.329500	0.456900
O41	O4	0.890200	0.265500	0.680900
C251	C25	0.655300	0.332800	0.448400
H181	H18	0.669400	0.283700	0.437800
C261	C26	0.928200	0.303900	0.623500
N91	N9	0.956300	0.057400	0.807500
N101	N10	0.988800	0.014000	0.653900
N111	N11	0.933900	0.412900	0.974200
N121	N12	0.893500	0.298500	0.956000
C271	C27	0.922200	0.101300	0.885500
C281	C28	0.952800	0.342100	0.970900
H191	H19	0.001100	0.324700	0.978100
C291	C29	0.848800	0.107600	0.039600
C301	C30	0.927200	0.178800	0.882500
H201	H20	0.953500	0.202600	0.830300
C311	C31	0.892000	0.218800	0.958900
C321	C32	0.956200	0.068600	0.704600
H211	H21	0.935500	0.110100	0.672800
O51	O5	0.801200	0.999700	0.127900
C331	C33	0.011600	0.964700	0.729900
H221	H22	0.037000	0.920500	0.717900
C341	C34	0.882400	0.066200	0.962400
H231	H23	0.878200	0.014700	0.962500
C351	C35	0.853800	0.185100	0.037400
H241	H24	0.831400	0.213400	0.088800
C361	C36	0.991600	0.990100	0.823700
H251	H25	0.999900	0.967000	0.886900
C371	C37	0.858500	0.414300	0.959200
H261	H26	0.829500	0.457000	0.956900
O61	O6	0.765500	0.109800	0.180900
C381	C38	0.832800	0.344700	0.948400
H271	H27	0.783700	0.330600	0.937800
C391	C39	0.803900	0.071800	0.123500
N131	N13	0.543700	0.442600	0.807500
N141	N14	0.511200	0.486000	0.653900
N151	N15	0.566100	0.087100	0.974200
N161	N16	0.606500	0.201500	0.956000
C401	C40	0.577800	0.398700	0.885500
C411	C41	0.547200	0.157900	0.970900
H281	H28	0.498900	0.175300	0.978100
C421	C42	0.651200	0.392400	0.039600
C431	C43	0.572800	0.321200	0.882500
H291	H29	0.546500	0.297400	0.830300
C441	C44	0.608000	0.281200	0.958900
C451	C45	0.543800	0.431400	0.704600
H301	H30	0.564500	0.389900	0.672800
O71	O7	0.698800	0.500300	0.127900
C461	C46	0.488400	0.535300	0.729900
H311	H31	0.463000	0.579500	0.717900
C471	C47	0.617600	0.433800	0.962400
H321	H32	0.621800	0.485300	0.962500
C481	C48	0.646200	0.314900	0.037400
H331	H33	0.668600	0.286600	0.088800
C491	C49	0.508400	0.509900	0.823700
H341	H34	0.500100	0.533000	0.886900
C501	C50	0.641500	0.085700	0.959200
H351	H35	0.670500	0.043000	0.956900
O81	O8	0.734500	0.390200	0.180900
C511	C51	0.667200	0.155300	0.948400
H361	H36	0.716300	0.169400	0.937800
C521	C52	0.696100	0.428200	0.123500
N171	N17	0.442600	0.956300	0.692500
N181	N18	0.486000	0.988800	0.846100
N191	N19	0.087100	0.933900	0.525800
N201	N20	0.201500	0.893500	0.544000
C531	C53	0.398700	0.922200	0.614500
C541	C54	0.157900	0.952800	0.529100
H371	H37	0.175300	0.001100	0.521900
C551	C55	0.392400	0.848800	0.460400
C561	C56	0.321200	0.927200	0.617500
H381	H38	0.297400	0.953500	0.669700
C571	C57	0.281200	0.892000	0.541100
C581	C58	0.431400	0.956200	0.795400
H391	H39	0.389900	0.935500	0.827200
O91	O9	0.500300	0.801200	0.372100
C591	C59	0.535300	0.011600	0.770100
H401	H40	0.579500	0.037000	0.782100
C601	C60	0.433800	0.882400	0.537600
H411	H41	0.485300	0.878200	0.537500
C611	C61	0.314900	0.853800	0.462600
H421	H42	0.286600	0.831400	0.411200
C621	C62	0.509900	0.991600	0.676300
H431	H43	0.533000	0.999900	0.613100
C631	C63	0.085700	0.858500	0.540800
H441	H44	0.043000	0.829500	0.543100
O101	O10	0.390200	0.765500	0.319100
C641	C64	0.155300	0.832800	0.551600
H451	H45	0.169400	0.783700	0.562200
C651	C65	0.428200	0.803900	0.376500
N211	N21	0.057400	0.543700	0.692500
N221	N22	0.014000	0.511200	0.846100
N231	N23	0.412900	0.566100	0.525800
N241	N24	0.298500	0.606500	0.544000
C661	C66	0.101300	0.577800	0.614500
C671	C67	0.342100	0.547200	0.529100
H461	H46	0.324700	0.498900	0.521900
C681	C68	0.107600	0.651200	0.460400
C691	C69	0.178800	0.572800	0.617500
H471	H47	0.202600	0.546500	0.669700
C701	C70	0.218800	0.608000	0.541100
C711	C71	0.068600	0.543800	0.795400
H481	H48	0.110100	0.564500	0.827200
O111	O11	0.999700	0.698800	0.372100
C721	C72	0.964700	0.488400	0.770100
H491	H49	0.920500	0.463000	0.782100
C731	C73	0.066200	0.617600	0.537600
H501	H50	0.014700	0.621800	0.537500
C741	C74	0.185100	0.646200	0.462600
H511	H51	0.213400	0.668600	0.411200
C751	C75	0.990100	0.508400	0.676300
H521	H52	0.967000	0.500100	0.613100
C761	C76	0.414300	0.641500	0.540800
H531	H53	0.457000	0.670500	0.543100
O121	O12	0.109800	0.734500	0.319100
C771	C77	0.344700	0.667200	0.551600
H541	H54	0.330600	0.716300	0.562200
C781	C78	0.071800	0.696100	0.376500
N251	N25	0.043700	0.942600	0.192500
N261	N26	0.011200	0.986000	0.346100
N271	N27	0.066100	0.587100	0.025800
N281	N28	0.106500	0.701500	0.044000
C791	C79	0.077800	0.898700	0.114500
C801	C80	0.047200	0.657900	0.029100
H551	H55	0.998900	0.675300	0.021900
C811	C81	0.151200	0.892400	0.960400
C821	C82	0.072800	0.821200	0.117500
H561	H56	0.046500	0.797400	0.169700
C831	C83	0.108000	0.781200	0.041100
C841	C84	0.043800	0.931400	0.295400
H571	H57	0.064500	0.889900	0.327200
O131	O13	0.198800	0.000300	0.872100
C851	C85	0.988400	0.035300	0.270100
H581	H58	0.963000	0.079500	0.282100
C861	C86	0.117600	0.933800	0.037600
H591	H59	0.121800	0.985300	0.037500
C871	C87	0.146200	0.814900	0.962600
H601	H60	0.168600	0.786600	0.911200
C881	C88	0.008400	0.009900	0.176300
H611	H61	0.000100	0.033000	0.113100
C891	C89	0.141500	0.585700	0.040800
H621	H62	0.170500	0.543000	0.043100
O141	O14	0.234500	0.890200	0.819100
C901	C90	0.167200	0.655300	0.051600
H631	H63	0.216300	0.669400	0.062200
C911	C91	0.196100	0.928200	0.876500
N291	N29	0.456300	0.557400	0.192500
N301	N30	0.488800	0.514000	0.346100
N311	N31	0.433900	0.912900	0.025800
N321	N32	0.393500	0.798500	0.044000
C921	C92	0.422200	0.601300	0.114500
C931	C93	0.452800	0.842100	0.029100
H641	H64	0.501100	0.824700	0.021900
C941	C94	0.348800	0.607600	0.960400
C951	C95	0.427200	0.678800	0.117500
H651	H65	0.453500	0.702600	0.169700
C961	C96	0.392000	0.718800	0.041100
C971	C97	0.456200	0.568600	0.295400
H661	H66	0.435500	0.610100	0.327200
O151	O15	0.301200	0.499700	0.872100
C981	C98	0.511600	0.464700	0.270100
H671	H67	0.537000	0.420500	0.282100
C991	C99	0.382400	0.566200	0.037600
H681	H68	0.378200	0.514700	0.037500
C1001	C100	0.353800	0.685100	0.962600
H691	H69	0.331400	0.713400	0.911200
C1011	C101	0.491600	0.490100	0.176300
H701	H70	0.499900	0.467000	0.113100
C1021	C102	0.358500	0.914300	0.040800
H711	H71	0.329500	0.957000	0.043100
O161	O16	0.265500	0.609800	0.819100
C1031	C103	0.332800	0.844700	0.051600
H721	H72	0.283700	0.830600	0.062200
C1041	C104	0.303900	0.571800	0.876500
Cu11	Cu1	0.000000	0.000000	0.500000
Cu21	Cu2	0.500000	0.500000	0.500000
Cu31	Cu3	0.000000	0.500000	0.000000
Cu41	Cu4	0.500000	0.000000	0.000000
