data_ASIVAB_clean_PM
_symmetry_space_group_name_H-M	'P1'
_cell_length_a	34.144900
_cell_length_b	34.144900
_cell_length_c	19.884300
_cell_angle_alpha	90.000000
_cell_angle_beta	90.000000
_cell_angle_gamma	90.000000
_symmetry_Int_Tables_number 1

loop_
_symmetry_equiv_pos_as_xyz
'x,y,z'

loop_
_atom_site_label
_atom_site_type_symbol
_atom_site_fract_x
_atom_site_fract_y
_atom_site_fract_z
Cu11	Cu1	0.246580	0.254580	0.314620
O11	O1	0.197850	0.280480	0.300700
O21	O2	0.458420	0.467010	0.066000
C11	C1	0.134600	0.312400	0.156900
H11	H1	0.150000	0.305500	0.120100
C21	C2	0.315600	0.364600	0.154200
H21	H2	0.311700	0.348400	0.117300
C31	C3	0.074280	0.341070	0.202300
C41	C4	0.097800	0.331200	0.151100
H31	H3	0.089200	0.337300	0.107900
C51	C5	0.331800	0.403500	0.151300
H41	H4	0.336400	0.413500	0.108500
C61	C6	0.341340	0.427300	0.203500
O31	O3	0.033120	0.459240	0.067700
C71	C7	0.313100	0.375700	0.284800
H51	H5	0.307900	0.368100	0.328900
O41	O4	0.273890	0.302990	0.303700
C81	C8	0.305100	0.353400	0.230200
O51	O5	0.281610	0.297610	0.191700
C91	C9	0.034650	0.393260	0.151000
H61	H6	0.058100	0.404700	0.137600
C101	C10	0.359700	0.464480	0.193100
C111	C11	0.394570	0.464220	0.149900
C121	C12	0.035910	0.359400	0.190300
C131	C13	0.123190	0.314900	0.279600
H71	H7	0.130800	0.310800	0.324000
O61	O6	0.204070	0.272370	0.183200
C141	C14	0.086700	0.331800	0.260800
H81	H8	0.069600	0.336900	0.296000
C151	C15	0.145830	0.305110	0.225600
C161	C16	0.331200	0.413600	0.266000
H91	H9	0.336300	0.430500	0.301500
C171	C17	0.285200	0.314300	0.238600
C181	C18	0.186160	0.284340	0.241900
H101	H10	0.022000	0.307000	0.266000
H111	H11	0.306000	0.473000	0.274000
H121	H12	0.410100	0.442200	0.147000
Cu21	Cu2	0.746580	0.754580	0.814620
O71	O7	0.697850	0.780480	0.800700
O81	O8	0.958420	0.967010	0.566000
C191	C19	0.634600	0.812400	0.656900
H131	H13	0.650000	0.805500	0.620100
C201	C20	0.815600	0.864600	0.654200
H141	H14	0.811700	0.848400	0.617300
C211	C21	0.574280	0.841070	0.702300
C221	C22	0.597800	0.831200	0.651100
H151	H15	0.589200	0.837300	0.607900
C231	C23	0.831800	0.903500	0.651300
H161	H16	0.836400	0.913500	0.608500
C241	C24	0.841340	0.927300	0.703500
O91	O9	0.533120	0.959240	0.567700
C251	C25	0.813100	0.875700	0.784800
H171	H17	0.807900	0.868100	0.828900
O101	O10	0.773890	0.802990	0.803700
C261	C26	0.805100	0.853400	0.730200
O111	O11	0.781610	0.797610	0.691700
C271	C27	0.534650	0.893260	0.651000
H181	H18	0.558100	0.904700	0.637600
C281	C28	0.859700	0.964480	0.693100
C291	C29	0.894570	0.964220	0.649900
C301	C30	0.535910	0.859400	0.690300
C311	C31	0.623190	0.814900	0.779600
H191	H19	0.630800	0.810800	0.824000
O121	O12	0.704070	0.772370	0.683200
C321	C32	0.586700	0.831800	0.760800
H201	H20	0.569600	0.836900	0.796000
C331	C33	0.645830	0.805110	0.725600
C341	C34	0.831200	0.913600	0.766000
H211	H21	0.836300	0.930500	0.801500
C351	C35	0.785200	0.814300	0.738600
C361	C36	0.686160	0.784340	0.741900
H221	H22	0.522000	0.807000	0.766000
H231	H23	0.806000	0.973000	0.774000
H241	H24	0.910100	0.942200	0.647000
Cu31	Cu3	0.753420	0.745420	0.314620
O131	O13	0.802150	0.719520	0.300700
O141	O14	0.541580	0.532990	0.066000
C371	C37	0.865400	0.687600	0.156900
H251	H25	0.850000	0.694500	0.120100
C381	C38	0.684400	0.635400	0.154200
H261	H26	0.688300	0.651600	0.117300
C391	C39	0.925720	0.658930	0.202300
C401	C40	0.902200	0.668800	0.151100
H271	H27	0.910800	0.662700	0.107900
C411	C41	0.668200	0.596500	0.151300
H281	H28	0.663600	0.586500	0.108500
C421	C42	0.658660	0.572700	0.203500
O151	O15	0.966880	0.540760	0.067700
C431	C43	0.686900	0.624300	0.284800
H291	H29	0.692100	0.631900	0.328900
O161	O16	0.726110	0.697010	0.303700
C441	C44	0.694900	0.646600	0.230200
O171	O17	0.718390	0.702390	0.191700
C451	C45	0.965350	0.606740	0.151000
H301	H30	0.941900	0.595300	0.137600
C461	C46	0.640300	0.535520	0.193100
C471	C47	0.605430	0.535780	0.149900
C481	C48	0.964090	0.640600	0.190300
C491	C49	0.876810	0.685100	0.279600
H311	H31	0.869200	0.689200	0.324000
O181	O18	0.795930	0.727630	0.183200
C501	C50	0.913300	0.668200	0.260800
H321	H32	0.930400	0.663100	0.296000
C511	C51	0.854170	0.694890	0.225600
C521	C52	0.668800	0.586400	0.266000
H331	H33	0.663700	0.569500	0.301500
C531	C53	0.714800	0.685700	0.238600
C541	C54	0.813840	0.715660	0.241900
H341	H34	0.978000	0.693000	0.266000
H351	H35	0.694000	0.527000	0.274000
H361	H36	0.589900	0.557800	0.147000
Cu41	Cu4	0.253420	0.245420	0.814620
O191	O19	0.302150	0.219520	0.800700
O201	O20	0.041580	0.032990	0.566000
C551	C55	0.365400	0.187600	0.656900
H371	H37	0.350000	0.194500	0.620100
C561	C56	0.184400	0.135400	0.654200
H381	H38	0.188300	0.151600	0.617300
C571	C57	0.425720	0.158930	0.702300
C581	C58	0.402200	0.168800	0.651100
H391	H39	0.410800	0.162700	0.607900
C591	C59	0.168200	0.096500	0.651300
H401	H40	0.163600	0.086500	0.608500
C601	C60	0.158660	0.072700	0.703500
O211	O21	0.466880	0.040760	0.567700
C611	C61	0.186900	0.124300	0.784800
H411	H41	0.192100	0.131900	0.828900
O221	O22	0.226110	0.197010	0.803700
C621	C62	0.194900	0.146600	0.730200
O231	O23	0.218390	0.202390	0.691700
C631	C63	0.465350	0.106740	0.651000
H421	H42	0.441900	0.095300	0.637600
C641	C64	0.140300	0.035520	0.693100
C651	C65	0.105430	0.035780	0.649900
C661	C66	0.464090	0.140600	0.690300
C671	C67	0.376810	0.185100	0.779600
H431	H43	0.369200	0.189200	0.824000
O241	O24	0.295930	0.227630	0.683200
C681	C68	0.413300	0.168200	0.760800
H441	H44	0.430400	0.163100	0.796000
C691	C69	0.354170	0.194890	0.725600
C701	C70	0.168800	0.086400	0.766000
H451	H45	0.163700	0.069500	0.801500
C711	C71	0.214800	0.185700	0.738600
C721	C72	0.313840	0.215660	0.741900
H461	H46	0.478000	0.193000	0.766000
H471	H47	0.194000	0.027000	0.774000
H481	H48	0.089900	0.057800	0.647000
Cu51	Cu5	0.753420	0.254580	0.685380
O251	O25	0.802150	0.280480	0.699300
O261	O26	0.541580	0.467010	0.934000
C731	C73	0.865400	0.312400	0.843100
H491	H49	0.850000	0.305500	0.879900
C741	C74	0.684400	0.364600	0.845800
H501	H50	0.688300	0.348400	0.882700
C751	C75	0.925720	0.341070	0.797700
C761	C76	0.902200	0.331200	0.848900
H511	H51	0.910800	0.337300	0.892100
C771	C77	0.668200	0.403500	0.848700
H521	H52	0.663600	0.413500	0.891500
C781	C78	0.658660	0.427300	0.796500
O271	O27	0.966880	0.459240	0.932300
C791	C79	0.686900	0.375700	0.715200
H531	H53	0.692100	0.368100	0.671100
O281	O28	0.726110	0.302990	0.696300
C801	C80	0.694900	0.353400	0.769800
O291	O29	0.718390	0.297610	0.808300
C811	C81	0.965350	0.393260	0.849000
H541	H54	0.941900	0.404700	0.862400
C821	C82	0.640300	0.464480	0.806900
C831	C83	0.605430	0.464220	0.850100
C841	C84	0.964090	0.359400	0.809700
C851	C85	0.876810	0.314900	0.720400
H551	H55	0.869200	0.310800	0.676000
O301	O30	0.795930	0.272370	0.816800
C861	C86	0.913300	0.331800	0.739200
H561	H56	0.930400	0.336900	0.704000
C871	C87	0.854170	0.305110	0.774400
C881	C88	0.668800	0.413600	0.734000
H571	H57	0.663700	0.430500	0.698500
C891	C89	0.714800	0.314300	0.761400
C901	C90	0.813840	0.284340	0.758100
H581	H58	0.978000	0.307000	0.734000
H591	H59	0.694000	0.473000	0.726000
H601	H60	0.589900	0.442200	0.853000
Cu61	Cu6	0.253420	0.754580	0.185380
O311	O31	0.302150	0.780480	0.199300
O321	O32	0.041580	0.967010	0.434000
C911	C91	0.365400	0.812400	0.343100
H611	H61	0.350000	0.805500	0.379900
C921	C92	0.184400	0.864600	0.345800
H621	H62	0.188300	0.848400	0.382700
C931	C93	0.425720	0.841070	0.297700
C941	C94	0.402200	0.831200	0.348900
H631	H63	0.410800	0.837300	0.392100
C951	C95	0.168200	0.903500	0.348700
H641	H64	0.163600	0.913500	0.391500
C961	C96	0.158660	0.927300	0.296500
O331	O33	0.466880	0.959240	0.432300
C971	C97	0.186900	0.875700	0.215200
H651	H65	0.192100	0.868100	0.171100
O341	O34	0.226110	0.802990	0.196300
C981	C98	0.194900	0.853400	0.269800
O351	O35	0.218390	0.797610	0.308300
C991	C99	0.465350	0.893260	0.349000
H661	H66	0.441900	0.904700	0.362400
C1001	C100	0.140300	0.964480	0.306900
C1011	C101	0.105430	0.964220	0.350100
C1021	C102	0.464090	0.859400	0.309700
C1031	C103	0.376810	0.814900	0.220400
H671	H67	0.369200	0.810800	0.176000
O361	O36	0.295930	0.772370	0.316800
C1041	C104	0.413300	0.831800	0.239200
H681	H68	0.430400	0.836900	0.204000
C1051	C105	0.354170	0.805110	0.274400
C1061	C106	0.168800	0.913600	0.234000
H691	H69	0.163700	0.930500	0.198500
C1071	C107	0.214800	0.814300	0.261400
C1081	C108	0.313840	0.784340	0.258100
H701	H70	0.478000	0.807000	0.234000
H711	H71	0.194000	0.973000	0.226000
H721	H72	0.089900	0.942200	0.353000
Cu71	Cu7	0.246580	0.745420	0.685380
O371	O37	0.197850	0.719520	0.699300
O381	O38	0.458420	0.532990	0.934000
C1091	C109	0.134600	0.687600	0.843100
H731	H73	0.150000	0.694500	0.879900
C1101	C110	0.315600	0.635400	0.845800
H741	H74	0.311700	0.651600	0.882700
C1111	C111	0.074280	0.658930	0.797700
C1121	C112	0.097800	0.668800	0.848900
H751	H75	0.089200	0.662700	0.892100
C1131	C113	0.331800	0.596500	0.848700
H761	H76	0.336400	0.586500	0.891500
C1141	C114	0.341340	0.572700	0.796500
O391	O39	0.033120	0.540760	0.932300
C1151	C115	0.313100	0.624300	0.715200
H771	H77	0.307900	0.631900	0.671100
O401	O40	0.273890	0.697010	0.696300
C1161	C116	0.305100	0.646600	0.769800
O411	O41	0.281610	0.702390	0.808300
C1171	C117	0.034650	0.606740	0.849000
H781	H78	0.058100	0.595300	0.862400
C1181	C118	0.359700	0.535520	0.806900
C1191	C119	0.394570	0.535780	0.850100
C1201	C120	0.035910	0.640600	0.809700
C1211	C121	0.123190	0.685100	0.720400
H791	H79	0.130800	0.689200	0.676000
O421	O42	0.204070	0.727630	0.816800
C1221	C122	0.086700	0.668200	0.739200
H801	H80	0.069600	0.663100	0.704000
C1231	C123	0.145830	0.694890	0.774400
C1241	C124	0.331200	0.586400	0.734000
H811	H81	0.336300	0.569500	0.698500
C1251	C125	0.285200	0.685700	0.761400
C1261	C126	0.186160	0.715660	0.758100
H821	H82	0.022000	0.693000	0.734000
H831	H83	0.306000	0.527000	0.726000
H841	H84	0.410100	0.557800	0.853000
Cu81	Cu8	0.746580	0.245420	0.185380
O431	O43	0.697850	0.219520	0.199300
O441	O44	0.958420	0.032990	0.434000
C1271	C127	0.634600	0.187600	0.343100
H851	H85	0.650000	0.194500	0.379900
C1281	C128	0.815600	0.135400	0.345800
H861	H86	0.811700	0.151600	0.382700
C1291	C129	0.574280	0.158930	0.297700
C1301	C130	0.597800	0.168800	0.348900
H871	H87	0.589200	0.162700	0.392100
C1311	C131	0.831800	0.096500	0.348700
H881	H88	0.836400	0.086500	0.391500
C1321	C132	0.841340	0.072700	0.296500
O451	O45	0.533120	0.040760	0.432300
C1331	C133	0.813100	0.124300	0.215200
H891	H89	0.807900	0.131900	0.171100
O461	O46	0.773890	0.197010	0.196300
C1341	C134	0.805100	0.146600	0.269800
O471	O47	0.781610	0.202390	0.308300
C1351	C135	0.534650	0.106740	0.349000
H901	H90	0.558100	0.095300	0.362400
C1361	C136	0.859700	0.035520	0.306900
C1371	C137	0.894570	0.035780	0.350100
C1381	C138	0.535910	0.140600	0.309700
C1391	C139	0.623190	0.185100	0.220400
H911	H91	0.630800	0.189200	0.176000
O481	O48	0.704070	0.227630	0.316800
C1401	C140	0.586700	0.168200	0.239200
H921	H92	0.569600	0.163100	0.204000
C1411	C141	0.645830	0.194890	0.274400
C1421	C142	0.831200	0.086400	0.234000
H931	H93	0.836300	0.069500	0.198500
C1431	C143	0.785200	0.185700	0.261400
C1441	C144	0.686160	0.215660	0.258100
H941	H94	0.522000	0.193000	0.234000
H951	H95	0.806000	0.027000	0.226000
H961	H96	0.910100	0.057800	0.353000
Cu91	Cu9	0.753420	0.745420	0.685380
O491	O49	0.802150	0.719520	0.699300
O501	O50	0.541580	0.532990	0.934000
C1451	C145	0.865400	0.687600	0.843100
H971	H97	0.850000	0.694500	0.879900
C1461	C146	0.684400	0.635400	0.845800
H981	H98	0.688300	0.651600	0.882700
C1471	C147	0.925720	0.658930	0.797700
C1481	C148	0.902200	0.668800	0.848900
H991	H99	0.910800	0.662700	0.892100
C1491	C149	0.668200	0.596500	0.848700
H1001	H100	0.663600	0.586500	0.891500
C1501	C150	0.658660	0.572700	0.796500
O511	O51	0.966880	0.540760	0.932300
C1511	C151	0.686900	0.624300	0.715200
H1011	H101	0.692100	0.631900	0.671100
O521	O52	0.726110	0.697010	0.696300
C1521	C152	0.694900	0.646600	0.769800
O531	O53	0.718390	0.702390	0.808300
C1531	C153	0.965350	0.606740	0.849000
H1021	H102	0.941900	0.595300	0.862400
C1541	C154	0.640300	0.535520	0.806900
C1551	C155	0.605430	0.535780	0.850100
C1561	C156	0.964090	0.640600	0.809700
C1571	C157	0.876810	0.685100	0.720400
H1031	H103	0.869200	0.689200	0.676000
O541	O54	0.795930	0.727630	0.816800
C1581	C158	0.913300	0.668200	0.739200
H1041	H104	0.930400	0.663100	0.704000
C1591	C159	0.854170	0.694890	0.774400
C1601	C160	0.668800	0.586400	0.734000
H1051	H105	0.663700	0.569500	0.698500
C1611	C161	0.714800	0.685700	0.761400
C1621	C162	0.813840	0.715660	0.758100
H1061	H106	0.978000	0.693000	0.734000
H1071	H107	0.694000	0.527000	0.726000
H1081	H108	0.589900	0.557800	0.853000
Cu101	Cu10	0.253420	0.245420	0.185380
O551	O55	0.302150	0.219520	0.199300
O561	O56	0.041580	0.032990	0.434000
C1631	C163	0.365400	0.187600	0.343100
H1091	H109	0.350000	0.194500	0.379900
C1641	C164	0.184400	0.135400	0.345800
H1101	H110	0.188300	0.151600	0.382700
C1651	C165	0.425720	0.158930	0.297700
C1661	C166	0.402200	0.168800	0.348900
H1111	H111	0.410800	0.162700	0.392100
C1671	C167	0.168200	0.096500	0.348700
H1121	H112	0.163600	0.086500	0.391500
C1681	C168	0.158660	0.072700	0.296500
O571	O57	0.466880	0.040760	0.432300
C1691	C169	0.186900	0.124300	0.215200
H1131	H113	0.192100	0.131900	0.171100
O581	O58	0.226110	0.197010	0.196300
C1701	C170	0.194900	0.146600	0.269800
O591	O59	0.218390	0.202390	0.308300
C1711	C171	0.465350	0.106740	0.349000
H1141	H114	0.441900	0.095300	0.362400
C1721	C172	0.140300	0.035520	0.306900
C1731	C173	0.105430	0.035780	0.350100
C1741	C174	0.464090	0.140600	0.309700
C1751	C175	0.376810	0.185100	0.220400
H1151	H115	0.369200	0.189200	0.176000
O601	O60	0.295930	0.227630	0.316800
C1761	C176	0.413300	0.168200	0.239200
H1161	H116	0.430400	0.163100	0.204000
C1771	C177	0.354170	0.194890	0.274400
C1781	C178	0.168800	0.086400	0.234000
H1171	H117	0.163700	0.069500	0.198500
C1791	C179	0.214800	0.185700	0.261400
C1801	C180	0.313840	0.215660	0.258100
H1181	H118	0.478000	0.193000	0.234000
H1191	H119	0.194000	0.027000	0.226000
H1201	H120	0.089900	0.057800	0.353000
Cu111	Cu11	0.246580	0.254580	0.685380
O611	O61	0.197850	0.280480	0.699300
O621	O62	0.458420	0.467010	0.934000
C1811	C181	0.134600	0.312400	0.843100
H1211	H121	0.150000	0.305500	0.879900
C1821	C182	0.315600	0.364600	0.845800
H1221	H122	0.311700	0.348400	0.882700
C1831	C183	0.074280	0.341070	0.797700
C1841	C184	0.097800	0.331200	0.848900
H1231	H123	0.089200	0.337300	0.892100
C1851	C185	0.331800	0.403500	0.848700
H1241	H124	0.336400	0.413500	0.891500
C1861	C186	0.341340	0.427300	0.796500
O631	O63	0.033120	0.459240	0.932300
C1871	C187	0.313100	0.375700	0.715200
H1251	H125	0.307900	0.368100	0.671100
O641	O64	0.273890	0.302990	0.696300
C1881	C188	0.305100	0.353400	0.769800
O651	O65	0.281610	0.297610	0.808300
C1891	C189	0.034650	0.393260	0.849000
H1261	H126	0.058100	0.404700	0.862400
C1901	C190	0.359700	0.464480	0.806900
C1911	C191	0.394570	0.464220	0.850100
C1921	C192	0.035910	0.359400	0.809700
C1931	C193	0.123190	0.314900	0.720400
H1271	H127	0.130800	0.310800	0.676000
O661	O66	0.204070	0.272370	0.816800
C1941	C194	0.086700	0.331800	0.739200
H1281	H128	0.069600	0.336900	0.704000
C1951	C195	0.145830	0.305110	0.774400
C1961	C196	0.331200	0.413600	0.734000
H1291	H129	0.336300	0.430500	0.698500
C1971	C197	0.285200	0.314300	0.761400
C1981	C198	0.186160	0.284340	0.758100
H1301	H130	0.022000	0.307000	0.734000
H1311	H131	0.306000	0.473000	0.726000
H1321	H132	0.410100	0.442200	0.853000
Cu121	Cu12	0.746580	0.754580	0.185380
O671	O67	0.697850	0.780480	0.199300
O681	O68	0.958420	0.967010	0.434000
C1991	C199	0.634600	0.812400	0.343100
H1331	H133	0.650000	0.805500	0.379900
C2001	C200	0.815600	0.864600	0.345800
H1341	H134	0.811700	0.848400	0.382700
C2011	C201	0.574280	0.841070	0.297700
C2021	C202	0.597800	0.831200	0.348900
H1351	H135	0.589200	0.837300	0.392100
C2031	C203	0.831800	0.903500	0.348700
H1361	H136	0.836400	0.913500	0.391500
C2041	C204	0.841340	0.927300	0.296500
O691	O69	0.533120	0.959240	0.432300
C2051	C205	0.813100	0.875700	0.215200
H1371	H137	0.807900	0.868100	0.171100
O701	O70	0.773890	0.802990	0.196300
C2061	C206	0.805100	0.853400	0.269800
O711	O71	0.781610	0.797610	0.308300
C2071	C207	0.534650	0.893260	0.349000
H1381	H138	0.558100	0.904700	0.362400
C2081	C208	0.859700	0.964480	0.306900
C2091	C209	0.894570	0.964220	0.350100
C2101	C210	0.535910	0.859400	0.309700
C2111	C211	0.623190	0.814900	0.220400
H1391	H139	0.630800	0.810800	0.176000
O721	O72	0.704070	0.772370	0.316800
C2121	C212	0.586700	0.831800	0.239200
H1401	H140	0.569600	0.836900	0.204000
C2131	C213	0.645830	0.805110	0.274400
C2141	C214	0.831200	0.913600	0.234000
H1411	H141	0.836300	0.930500	0.198500
C2151	C215	0.785200	0.814300	0.261400
C2161	C216	0.686160	0.784340	0.258100
H1421	H142	0.522000	0.807000	0.234000
H1431	H143	0.806000	0.973000	0.226000
H1441	H144	0.910100	0.942200	0.353000
Cu131	Cu13	0.246580	0.745420	0.314620
O731	O73	0.197850	0.719520	0.300700
O741	O74	0.458420	0.532990	0.066000
C2171	C217	0.134600	0.687600	0.156900
H1451	H145	0.150000	0.694500	0.120100
C2181	C218	0.315600	0.635400	0.154200
H1461	H146	0.311700	0.651600	0.117300
C2191	C219	0.074280	0.658930	0.202300
C2201	C220	0.097800	0.668800	0.151100
H1471	H147	0.089200	0.662700	0.107900
C2211	C221	0.331800	0.596500	0.151300
H1481	H148	0.336400	0.586500	0.108500
C2221	C222	0.341340	0.572700	0.203500
O751	O75	0.033120	0.540760	0.067700
C2231	C223	0.313100	0.624300	0.284800
H1491	H149	0.307900	0.631900	0.328900
O761	O76	0.273890	0.697010	0.303700
C2241	C224	0.305100	0.646600	0.230200
O771	O77	0.281610	0.702390	0.191700
C2251	C225	0.034650	0.606740	0.151000
H1501	H150	0.058100	0.595300	0.137600
C2261	C226	0.359700	0.535520	0.193100
C2271	C227	0.394570	0.535780	0.149900
C2281	C228	0.035910	0.640600	0.190300
C2291	C229	0.123190	0.685100	0.279600
H1511	H151	0.130800	0.689200	0.324000
O781	O78	0.204070	0.727630	0.183200
C2301	C230	0.086700	0.668200	0.260800
H1521	H152	0.069600	0.663100	0.296000
C2311	C231	0.145830	0.694890	0.225600
C2321	C232	0.331200	0.586400	0.266000
H1531	H153	0.336300	0.569500	0.301500
C2331	C233	0.285200	0.685700	0.238600
C2341	C234	0.186160	0.715660	0.241900
H1541	H154	0.022000	0.693000	0.266000
H1551	H155	0.306000	0.527000	0.274000
H1561	H156	0.410100	0.557800	0.147000
Cu141	Cu14	0.746580	0.245420	0.814620
O791	O79	0.697850	0.219520	0.800700
O801	O80	0.958420	0.032990	0.566000
C2351	C235	0.634600	0.187600	0.656900
H1571	H157	0.650000	0.194500	0.620100
C2361	C236	0.815600	0.135400	0.654200
H1581	H158	0.811700	0.151600	0.617300
C2371	C237	0.574280	0.158930	0.702300
C2381	C238	0.597800	0.168800	0.651100
H1591	H159	0.589200	0.162700	0.607900
C2391	C239	0.831800	0.096500	0.651300
H1601	H160	0.836400	0.086500	0.608500
C2401	C240	0.841340	0.072700	0.703500
O811	O81	0.533120	0.040760	0.567700
C2411	C241	0.813100	0.124300	0.784800
H1611	H161	0.807900	0.131900	0.828900
O821	O82	0.773890	0.197010	0.803700
C2421	C242	0.805100	0.146600	0.730200
O831	O83	0.781610	0.202390	0.691700
C2431	C243	0.534650	0.106740	0.651000
H1621	H162	0.558100	0.095300	0.637600
C2441	C244	0.859700	0.035520	0.693100
C2451	C245	0.894570	0.035780	0.649900
C2461	C246	0.535910	0.140600	0.690300
C2471	C247	0.623190	0.185100	0.779600
H1631	H163	0.630800	0.189200	0.824000
O841	O84	0.704070	0.227630	0.683200
C2481	C248	0.586700	0.168200	0.760800
H1641	H164	0.569600	0.163100	0.796000
C2491	C249	0.645830	0.194890	0.725600
C2501	C250	0.831200	0.086400	0.766000
H1651	H165	0.836300	0.069500	0.801500
C2511	C251	0.785200	0.185700	0.738600
C2521	C252	0.686160	0.215660	0.741900
H1661	H166	0.522000	0.193000	0.766000
H1671	H167	0.806000	0.027000	0.774000
H1681	H168	0.910100	0.057800	0.647000
Cu151	Cu15	0.753420	0.254580	0.314620
O851	O85	0.802150	0.280480	0.300700
O861	O86	0.541580	0.467010	0.066000
C2531	C253	0.865400	0.312400	0.156900
H1691	H169	0.850000	0.305500	0.120100
C2541	C254	0.684400	0.364600	0.154200
H1701	H170	0.688300	0.348400	0.117300
C2551	C255	0.925720	0.341070	0.202300
C2561	C256	0.902200	0.331200	0.151100
H1711	H171	0.910800	0.337300	0.107900
C2571	C257	0.668200	0.403500	0.151300
H1721	H172	0.663600	0.413500	0.108500
C2581	C258	0.658660	0.427300	0.203500
O871	O87	0.966880	0.459240	0.067700
C2591	C259	0.686900	0.375700	0.284800
H1731	H173	0.692100	0.368100	0.328900
O881	O88	0.726110	0.302990	0.303700
C2601	C260	0.694900	0.353400	0.230200
O891	O89	0.718390	0.297610	0.191700
C2611	C261	0.965350	0.393260	0.151000
H1741	H174	0.941900	0.404700	0.137600
C2621	C262	0.640300	0.464480	0.193100
C2631	C263	0.605430	0.464220	0.149900
C2641	C264	0.964090	0.359400	0.190300
C2651	C265	0.876810	0.314900	0.279600
H1751	H175	0.869200	0.310800	0.324000
O901	O90	0.795930	0.272370	0.183200
C2661	C266	0.913300	0.331800	0.260800
H1761	H176	0.930400	0.336900	0.296000
C2671	C267	0.854170	0.305110	0.225600
C2681	C268	0.668800	0.413600	0.266000
H1771	H177	0.663700	0.430500	0.301500
C2691	C269	0.714800	0.314300	0.238600
C2701	C270	0.813840	0.284340	0.241900
H1781	H178	0.978000	0.307000	0.266000
H1791	H179	0.694000	0.473000	0.274000
H1801	H180	0.589900	0.442200	0.147000
Cu161	Cu16	0.253420	0.754580	0.814620
O911	O91	0.302150	0.780480	0.800700
O921	O92	0.041580	0.967010	0.566000
C2711	C271	0.365400	0.812400	0.656900
H1811	H181	0.350000	0.805500	0.620100
C2721	C272	0.184400	0.864600	0.654200
H1821	H182	0.188300	0.848400	0.617300
C2731	C273	0.425720	0.841070	0.702300
C2741	C274	0.402200	0.831200	0.651100
H1831	H183	0.410800	0.837300	0.607900
C2751	C275	0.168200	0.903500	0.651300
H1841	H184	0.163600	0.913500	0.608500
C2761	C276	0.158660	0.927300	0.703500
O931	O93	0.466880	0.959240	0.567700
C2771	C277	0.186900	0.875700	0.784800
H1851	H185	0.192100	0.868100	0.828900
O941	O94	0.226110	0.802990	0.803700
C2781	C278	0.194900	0.853400	0.730200
O951	O95	0.218390	0.797610	0.691700
C2791	C279	0.465350	0.893260	0.651000
H1861	H186	0.441900	0.904700	0.637600
C2801	C280	0.140300	0.964480	0.693100
C2811	C281	0.105430	0.964220	0.649900
C2821	C282	0.464090	0.859400	0.690300
C2831	C283	0.376810	0.814900	0.779600
H1871	H187	0.369200	0.810800	0.824000
O961	O96	0.295930	0.772370	0.683200
C2841	C284	0.413300	0.831800	0.760800
H1881	H188	0.430400	0.836900	0.796000
C2851	C285	0.354170	0.805110	0.725600
C2861	C286	0.168800	0.913600	0.766000
H1891	H189	0.163700	0.930500	0.801500
C2871	C287	0.214800	0.814300	0.738600
C2881	C288	0.313840	0.784340	0.741900
H1901	H190	0.478000	0.807000	0.766000
H1911	H191	0.194000	0.973000	0.774000
H1921	H192	0.089900	0.942200	0.647000
Cu171	Cu17	0.038290	0.500000	0.000000
Cu181	Cu18	0.538290	0.000000	0.500000
Cu191	Cu19	0.961710	0.500000	0.000000
Cu201	Cu20	0.461710	0.000000	0.500000
Cu211	Cu21	0.500000	0.461780	0.000000
Cu221	Cu22	0.000000	0.961780	0.500000
Cu231	Cu23	0.500000	0.538220	0.000000
Cu241	Cu24	0.000000	0.038220	0.500000
N11	N1	0.000000	0.308700	0.248600
C2891	C289	0.000000	0.410300	0.131500
C2901	C290	0.000000	0.342300	0.213400
C2911	C291	0.000000	0.446800	0.087400
N21	N2	0.500000	0.808700	0.748600
C2921	C292	0.500000	0.910300	0.631500
C2931	C293	0.500000	0.842300	0.713400
C2941	C294	0.500000	0.946800	0.587400
N31	N3	0.000000	0.691300	0.248600
C2951	C295	0.000000	0.589700	0.131500
C2961	C296	0.000000	0.657700	0.213400
C2971	C297	0.000000	0.553200	0.087400
N41	N4	0.500000	0.191300	0.748600
C2981	C298	0.500000	0.089700	0.631500
C2991	C299	0.500000	0.157700	0.713400
C3001	C300	0.500000	0.053200	0.587400
N51	N5	0.000000	0.308700	0.751400
C3011	C301	0.000000	0.410300	0.868500
C3021	C302	0.000000	0.342300	0.786600
C3031	C303	0.000000	0.446800	0.912600
N61	N6	0.500000	0.808700	0.251400
C3041	C304	0.500000	0.910300	0.368500
C3051	C305	0.500000	0.842300	0.286600
C3061	C306	0.500000	0.946800	0.412600
N71	N7	0.000000	0.691300	0.751400
C3071	C307	0.000000	0.589700	0.868500
C3081	C308	0.000000	0.657700	0.786600
C3091	C309	0.000000	0.553200	0.912600
N81	N8	0.500000	0.191300	0.251400
C3101	C310	0.500000	0.089700	0.368500
C3111	C311	0.500000	0.157700	0.286600
C3121	C312	0.500000	0.053200	0.412600
N91	N9	0.308300	0.500000	0.252000
C3131	C313	0.411600	0.500000	0.131400
C3141	C314	0.342500	0.500000	0.209700
C3151	C315	0.446900	0.500000	0.090600
N101	N10	0.808300	0.000000	0.752000
C3161	C316	0.911600	0.000000	0.631400
C3171	C317	0.842500	0.000000	0.709700
C3181	C318	0.946900	0.000000	0.590600
N111	N11	0.691700	0.500000	0.252000
C3191	C319	0.588400	0.500000	0.131400
C3201	C320	0.657500	0.500000	0.209700
C3211	C321	0.553100	0.500000	0.090600
N121	N12	0.191700	0.000000	0.752000
C3221	C322	0.088400	0.000000	0.631400
C3231	C323	0.157500	0.000000	0.709700
C3241	C324	0.053100	0.000000	0.590600
N131	N13	0.691700	0.500000	0.748000
C3251	C325	0.588400	0.500000	0.868600
C3261	C326	0.657500	0.500000	0.790300
C3271	C327	0.553100	0.500000	0.909400
N141	N14	0.191700	0.000000	0.248000
C3281	C328	0.088400	0.000000	0.368600
C3291	C329	0.157500	0.000000	0.290300
C3301	C330	0.053100	0.000000	0.409400
N151	N15	0.308300	0.500000	0.748000
C3311	C331	0.411600	0.500000	0.868600
C3321	C332	0.342500	0.500000	0.790300
C3331	C333	0.446900	0.500000	0.909400
N161	N16	0.808300	0.000000	0.248000
C3341	C334	0.911600	0.000000	0.368600
C3351	C335	0.842500	0.000000	0.290300
C3361	C336	0.946900	0.000000	0.409400
