data_ASOVEL_clean_PM
_symmetry_space_group_name_H-M	'P1'
_cell_length_a	8.983600
_cell_length_b	10.591800
_cell_length_c	32.719600
_cell_angle_alpha	90.000000
_cell_angle_beta	90.000000
_cell_angle_gamma	90.000000
_symmetry_Int_Tables_number 1

loop_
_symmetry_equiv_pos_as_xyz
'x,y,z'

loop_
_atom_site_label
_atom_site_type_symbol
_atom_site_fract_x
_atom_site_fract_y
_atom_site_fract_z
Ca11	Ca1	0.454250	0.901150	0.248890
O11	O1	0.513200	0.751300	0.200100
O21	O2	0.584100	0.550700	0.201040
O31	O3	0.989500	0.444800	0.799400
O41	O4	0.079700	0.251000	0.797600
C11	C1	0.511200	0.642300	0.186400
C21	C2	0.421500	0.621100	0.148500
C31	C3	0.407500	0.498900	0.132100
H11	H1	0.456200	0.430000	0.144900
C41	C4	0.322900	0.478200	0.097100
H21	H2	0.316300	0.395600	0.085900
C51	C5	0.248900	0.576100	0.078500
C61	C6	0.259200	0.695900	0.095700
H31	H3	0.205800	0.763800	0.083600
C71	C7	0.344600	0.718100	0.129700
H41	H4	0.351100	0.801300	0.140400
C81	C8	0.151200	0.555700	0.042000
C91	C9	0.989100	0.587600	0.047300
C101	C10	0.904800	0.637200	0.016400
H51	H5	0.950100	0.656500	0.991000
C111	C11	0.754000	0.659700	0.021900
H61	H6	0.696300	0.692700	0.000000
C121	C12	0.688200	0.634700	0.058600
H71	H7	0.585200	0.651800	0.062200
C131	C13	0.768300	0.585900	0.089600
H81	H8	0.721800	0.569100	0.115200
C141	C14	0.921000	0.559700	0.084300
H91	H9	0.977000	0.523200	0.105900
C151	C15	0.203100	0.513400	0.006300
H101	H10	0.132400	0.499300	0.985300
C161	C16	0.357800	0.487000	0.996900
H111	H11	0.428400	0.500600	0.018000
C171	C17	0.410800	0.444800	0.960600
C181	C18	0.571900	0.419700	0.954700
C191	C19	0.658100	0.366600	0.985100
H121	H12	0.614300	0.346300	0.010700
C201	C20	0.811400	0.342100	0.978500
H131	H13	0.870800	0.307100	0.999700
C211	C21	0.872400	0.369100	0.941700
H141	H14	0.975100	0.353100	0.937100
C221	C22	0.786600	0.420000	0.910400
H151	H15	0.829500	0.438900	0.884600
C231	C23	0.638000	0.442400	0.917700
H161	H16	0.578600	0.475100	0.896100
C241	C24	0.313100	0.422600	0.924600
C251	C25	0.298900	0.300900	0.908200
H171	H17	0.345500	0.231500	0.921400
C261	C26	0.217400	0.281600	0.873000
H181	H18	0.209100	0.198600	0.862200
C271	C27	0.147600	0.380400	0.853100
C281	C28	0.158700	0.499400	0.869500
H191	H19	0.111600	0.568300	0.856100
C291	C29	0.238000	0.520600	0.905300
H201	H20	0.240800	0.603000	0.916800
C301	C30	0.063600	0.358700	0.813500
Ca21	Ca2	0.045750	0.098850	0.748890
O51	O5	0.986800	0.248700	0.700100
O61	O6	0.915900	0.449300	0.701040
O71	O7	0.510500	0.555200	0.299400
O81	O8	0.420300	0.749000	0.297600
C311	C31	0.988800	0.357700	0.686400
C321	C32	0.078500	0.378900	0.648500
C331	C33	0.092500	0.501100	0.632100
H211	H21	0.043800	0.570000	0.644900
C341	C34	0.177100	0.521800	0.597100
H221	H22	0.183700	0.604400	0.585900
C351	C35	0.251100	0.423900	0.578500
C361	C36	0.240800	0.304100	0.595700
H231	H23	0.294200	0.236200	0.583600
C371	C37	0.155400	0.281900	0.629700
H241	H24	0.148900	0.198700	0.640400
C381	C38	0.348800	0.444300	0.542000
C391	C39	0.510900	0.412400	0.547300
C401	C40	0.595200	0.362800	0.516400
H251	H25	0.549900	0.343500	0.491000
C411	C41	0.746000	0.340300	0.521900
H261	H26	0.803700	0.307300	0.500000
C421	C42	0.811800	0.365300	0.558600
H271	H27	0.914800	0.348200	0.562200
C431	C43	0.731700	0.414100	0.589600
H281	H28	0.778200	0.430900	0.615200
C441	C44	0.579000	0.440300	0.584300
H291	H29	0.523000	0.476800	0.605900
C451	C45	0.296900	0.486600	0.506300
H301	H30	0.367600	0.500700	0.485300
C461	C46	0.142200	0.513000	0.496900
H311	H31	0.071600	0.499400	0.518000
C471	C47	0.089200	0.555200	0.460600
C481	C48	0.928100	0.580300	0.454700
C491	C49	0.841900	0.633400	0.485100
H321	H32	0.885700	0.653700	0.510700
C501	C50	0.688600	0.657900	0.478500
H331	H33	0.629200	0.692900	0.499700
C511	C51	0.627600	0.630900	0.441700
H341	H34	0.524900	0.646900	0.437100
C521	C52	0.713400	0.580000	0.410400
H351	H35	0.670500	0.561100	0.384600
C531	C53	0.862000	0.557600	0.417700
H361	H36	0.921400	0.524900	0.396100
C541	C54	0.186900	0.577400	0.424600
C551	C55	0.201100	0.699100	0.408200
H371	H37	0.154500	0.768500	0.421400
C561	C56	0.282600	0.718400	0.373000
H381	H38	0.290900	0.801400	0.362200
C571	C57	0.352400	0.619600	0.353100
C581	C58	0.341300	0.500600	0.369500
H391	H39	0.388400	0.431700	0.356100
C591	C59	0.262000	0.479400	0.405300
H401	H40	0.259200	0.397000	0.416800
C601	C60	0.436400	0.641300	0.313500
Ca31	Ca3	0.545750	0.401150	0.251110
O91	O9	0.486800	0.251300	0.299900
O101	O10	0.415900	0.050700	0.298960
O111	O11	0.010500	0.944800	0.700600
O121	O12	0.920300	0.751000	0.702400
C611	C61	0.488800	0.142300	0.313600
C621	C62	0.578500	0.121100	0.351500
C631	C63	0.592500	0.998900	0.367900
H411	H41	0.543800	0.930000	0.355100
C641	C64	0.677100	0.978200	0.402900
H421	H42	0.683700	0.895600	0.414100
C651	C65	0.751100	0.076100	0.421500
C661	C66	0.740800	0.195900	0.404300
H431	H43	0.794200	0.263800	0.416400
C671	C67	0.655400	0.218100	0.370300
H441	H44	0.648900	0.301300	0.359600
C681	C68	0.848800	0.055700	0.458000
C691	C69	0.010900	0.087600	0.452700
C701	C70	0.095200	0.137200	0.483600
H451	H45	0.049900	0.156500	0.509000
C711	C71	0.246000	0.159700	0.478100
H461	H46	0.303700	0.192700	0.500000
C721	C72	0.311800	0.134700	0.441400
H471	H47	0.414800	0.151800	0.437800
C731	C73	0.231700	0.085900	0.410400
H481	H48	0.278200	0.069100	0.384800
C741	C74	0.079000	0.059700	0.415700
H491	H49	0.023000	0.023200	0.394100
C751	C75	0.796900	0.013400	0.493700
H501	H50	0.867600	0.999300	0.514700
C761	C76	0.642200	0.987000	0.503100
H511	H51	0.571600	0.000600	0.482000
C771	C77	0.589200	0.944800	0.539400
C781	C78	0.428100	0.919700	0.545300
C791	C79	0.341900	0.866600	0.514900
H521	H52	0.385700	0.846300	0.489300
C801	C80	0.188600	0.842100	0.521500
H531	H53	0.129200	0.807100	0.500300
C811	C81	0.127600	0.869100	0.558300
H541	H54	0.024900	0.853100	0.562900
C821	C82	0.213400	0.920000	0.589600
H551	H55	0.170500	0.938900	0.615400
C831	C83	0.362000	0.942400	0.582300
H561	H56	0.421400	0.975100	0.603900
C841	C84	0.686900	0.922600	0.575400
C851	C85	0.701100	0.800900	0.591800
H571	H57	0.654500	0.731500	0.578600
C861	C86	0.782600	0.781600	0.627000
H581	H58	0.790900	0.698600	0.637800
C871	C87	0.852400	0.880400	0.646900
C881	C88	0.841300	0.999400	0.630500
H591	H59	0.888400	0.068300	0.643900
C891	C89	0.762000	0.020600	0.594700
H601	H60	0.759200	0.103000	0.583200
C901	C90	0.936400	0.858700	0.686500
Ca41	Ca4	0.954250	0.598850	0.751110
O131	O13	0.013200	0.748700	0.799900
O141	O14	0.084100	0.949300	0.798960
O151	O15	0.489500	0.055200	0.200600
O161	O16	0.579700	0.249000	0.202400
C911	C91	0.011200	0.857700	0.813600
C921	C92	0.921500	0.878900	0.851500
C931	C93	0.907500	0.001100	0.867900
H611	H61	0.956200	0.070000	0.855100
C941	C94	0.822900	0.021800	0.902900
H621	H62	0.816300	0.104400	0.914100
C951	C95	0.748900	0.923900	0.921500
C961	C96	0.759200	0.804100	0.904300
H631	H63	0.705800	0.736200	0.916400
C971	C97	0.844600	0.781900	0.870300
H641	H64	0.851100	0.698700	0.859600
C981	C98	0.651200	0.944300	0.958000
C991	C99	0.489100	0.912400	0.952700
C1001	C100	0.404800	0.862800	0.983600
H651	H65	0.450100	0.843500	0.009000
C1011	C101	0.254000	0.840300	0.978100
H661	H66	0.196300	0.807300	0.000000
C1021	C102	0.188200	0.865300	0.941400
H671	H67	0.085200	0.848200	0.937800
C1031	C103	0.268300	0.914100	0.910400
H681	H68	0.221800	0.930900	0.884800
C1041	C104	0.421000	0.940300	0.915700
H691	H69	0.477000	0.976800	0.894100
C1051	C105	0.703100	0.986600	0.993700
H701	H70	0.632400	0.000700	0.014700
C1061	C106	0.857800	0.013000	0.003100
H711	H71	0.928400	0.999400	0.982000
C1071	C107	0.910800	0.055200	0.039400
C1081	C108	0.071900	0.080300	0.045300
C1091	C109	0.158100	0.133400	0.014900
H721	H72	0.114300	0.153700	0.989300
C1101	C110	0.311400	0.157900	0.021500
H731	H73	0.370800	0.192900	0.000300
C1111	C111	0.372400	0.130900	0.058300
H741	H74	0.475100	0.146900	0.062900
C1121	C112	0.286600	0.080000	0.089600
H751	H75	0.329500	0.061100	0.115400
C1131	C113	0.138000	0.057600	0.082300
H761	H76	0.078600	0.024900	0.103900
C1141	C114	0.813100	0.077400	0.075400
C1151	C115	0.798900	0.199100	0.091800
H771	H77	0.845500	0.268500	0.078600
C1161	C116	0.717400	0.218400	0.127000
H781	H78	0.709100	0.301400	0.137800
C1171	C117	0.647600	0.119600	0.146900
C1181	C118	0.658700	0.000600	0.130500
H791	H79	0.611600	0.931700	0.143900
C1191	C119	0.738000	0.979400	0.094700
H801	H80	0.740800	0.897000	0.083200
C1201	C120	0.563600	0.141300	0.186500
