data_ASOYOY_clean_PM
_symmetry_space_group_name_H-M	'P1'
_cell_length_a	22.261000
_cell_length_b	22.261000
_cell_length_c	32.920000
_cell_angle_alpha	90.000000
_cell_angle_beta	90.000000
_cell_angle_gamma	90.000000
_symmetry_Int_Tables_number 1

loop_
_symmetry_equiv_pos_as_xyz
'x,y,z'

loop_
_atom_site_label
_atom_site_type_symbol
_atom_site_fract_x
_atom_site_fract_y
_atom_site_fract_z
Cd11	Cd1	0.835900	0.385530	0.252450
Cd21	Cd2	0.336910	0.360360	0.104860
O11	O1	0.874900	0.417300	0.190160
O21	O2	0.885600	0.319000	0.187690
O31	O3	0.974860	0.206760	0.030060
O41	O4	0.897030	0.207370	0.072660
N11	N1	0.424800	0.345700	0.073390
N21	N2	0.523600	0.332800	0.067570
N31	N3	0.746500	0.382800	0.213440
N41	N4	0.690100	0.364500	0.159550
N51	N5	0.256600	0.387300	0.145210
N61	N6	0.199400	0.390600	0.200530
N71	N7	0.025600	0.392000	0.288720
N81	N8	0.199400	0.269200	0.321760
N91	N9	0.268500	0.207500	0.345550
N101	N10	0.928100	0.400600	0.280200
C11	C1	0.699000	0.293900	0.102900
H11	H1	0.738000	0.284500	0.110800
C21	C2	0.711400	0.431700	0.205100
H21	H2	0.711600	0.467300	0.219900
C31	C3	0.673700	0.266100	0.069200
N111	N11	0.709500	0.223400	0.047030
C41	C4	0.666400	0.335200	0.124760
C51	C5	0.676500	0.420800	0.172300
H31	H3	0.648600	0.446900	0.160800
C61	C6	0.731600	0.342800	0.185200
H41	H4	0.748100	0.304500	0.183300
C71	C7	0.607500	0.349900	0.112000
H51	H5	0.585400	0.379100	0.125600
C81	C8	0.583800	0.320600	0.079300
C91	C9	0.617100	0.277200	0.058300
H61	H6	0.599800	0.256300	0.036800
C101	C10	0.478100	0.342500	0.091500
H71	H7	0.482600	0.346900	0.119500
C111	C11	0.951800	0.220800	0.063800
C121	C12	0.198300	0.332500	0.261260
H81	H8	0.236500	0.318500	0.254900
C131	C13	0.085900	0.373100	0.281420
C141	C14	0.113900	0.332100	0.305900
H91	H9	0.094800	0.317500	0.329000
C151	C15	0.979300	0.386600	0.264260
H101	H10	0.983000	0.373700	0.237500
C161	C16	0.113400	0.394300	0.246200
H111	H11	0.094200	0.422400	0.229700
C171	C17	0.170200	0.372500	0.236050
C181	C18	0.170000	0.312900	0.296200
C191	C19	0.826900	0.403100	0.109200
H121	H12	0.802700	0.424100	0.127300
C201	C20	0.876900	0.371600	0.124660
C211	C21	0.881000	0.367400	0.171000
C221	C22	0.812700	0.404400	0.070000
H131	H13	0.778500	0.424100	0.060700
C231	C23	0.989200	0.253800	0.093700
C241	C24	0.915100	0.341400	0.098140
C251	C25	0.902100	0.344700	0.056530
H141	H14	0.927900	0.326500	0.038000
C261	C26	0.971600	0.308600	0.110950
C271	C27	0.852600	0.373700	0.042700
H151	H15	0.844400	0.373800	0.015000
C281	C28	0.043800	0.229200	0.104800
H161	H16	0.055700	0.192800	0.093600
C291	C29	0.232500	0.445400	0.150200
H171	H17	0.240100	0.477700	0.133100
C301	C30	0.233700	0.356300	0.175600
H181	H18	0.240400	0.315500	0.179500
C311	C31	0.256400	0.251000	0.320800
H191	H19	0.285000	0.268100	0.303800
C321	C32	0.198100	0.447500	0.182300
H201	H20	0.176700	0.480700	0.191400
C331	C33	0.063300	0.310900	0.148900
H211	H21	0.088500	0.330100	0.167300
C341	C34	0.080400	0.257100	0.131700
H221	H22	0.117100	0.239900	0.138600
C351	C35	0.010600	0.335500	0.139250
H231	H23	0.999400	0.371400	0.151500
C361	C36	0.001400	0.406000	0.325500
H241	H24	0.022100	0.412600	0.349600
C371	C37	0.501100	0.328600	0.028900
H251	H25	0.521400	0.320100	0.004900
C381	C38	0.437900	0.340500	0.034900
H261	H26	0.410100	0.344000	0.013900
C391	C39	0.941600	0.408400	0.320000
H271	H27	0.913600	0.414500	0.340600
C401	C40	0.215500	0.194000	0.362500
H281	H28	0.209500	0.163600	0.381400
C411	C41	0.172400	0.230600	0.348400
H291	H29	0.131900	0.229800	0.355400
N121	N12	0.787200	0.178600	0.019680
C421	C42	0.770200	0.222700	0.043000
H301	H30	0.796100	0.250100	0.055200
C431	C43	0.738500	0.147100	0.009600
H311	H31	0.738100	0.111300	0.995000
C441	C44	0.689500	0.176000	0.024300
H321	H32	0.649600	0.165600	0.019700
Cd31	Cd3	0.335900	0.885530	0.752450
Cd41	Cd4	0.836910	0.860360	0.604860
O51	O5	0.374900	0.917300	0.690160
O61	O6	0.385600	0.819000	0.687690
O71	O7	0.474860	0.706760	0.530060
O81	O8	0.397030	0.707370	0.572660
N131	N13	0.924800	0.845700	0.573390
N141	N14	0.023600	0.832800	0.567570
N151	N15	0.246500	0.882800	0.713440
N161	N16	0.190100	0.864500	0.659550
N171	N17	0.756600	0.887300	0.645210
N181	N18	0.699400	0.890600	0.700530
N191	N19	0.525600	0.892000	0.788720
N201	N20	0.699400	0.769200	0.821760
N211	N21	0.768500	0.707500	0.845550
N221	N22	0.428100	0.900600	0.780200
C451	C45	0.199000	0.793900	0.602900
H331	H33	0.238000	0.784500	0.610800
C461	C46	0.211400	0.931700	0.705100
H341	H34	0.211600	0.967300	0.719900
C471	C47	0.173700	0.766100	0.569200
N231	N23	0.209500	0.723400	0.547030
C481	C48	0.166400	0.835200	0.624760
C491	C49	0.176500	0.920800	0.672300
H351	H35	0.148600	0.946900	0.660800
C501	C50	0.231600	0.842800	0.685200
H361	H36	0.248100	0.804500	0.683300
C511	C51	0.107500	0.849900	0.612000
H371	H37	0.085400	0.879100	0.625600
C521	C52	0.083800	0.820600	0.579300
C531	C53	0.117100	0.777200	0.558300
H381	H38	0.099800	0.756300	0.536800
C541	C54	0.978100	0.842500	0.591500
H391	H39	0.982600	0.846900	0.619500
C551	C55	0.451800	0.720800	0.563800
C561	C56	0.698300	0.832500	0.761260
H401	H40	0.736500	0.818500	0.754900
C571	C57	0.585900	0.873100	0.781420
C581	C58	0.613900	0.832100	0.805900
H411	H41	0.594800	0.817500	0.829000
C591	C59	0.479300	0.886600	0.764260
H421	H42	0.483000	0.873700	0.737500
C601	C60	0.613400	0.894300	0.746200
H431	H43	0.594200	0.922400	0.729700
C611	C61	0.670200	0.872500	0.736050
C621	C62	0.670000	0.812900	0.796200
C631	C63	0.326900	0.903100	0.609200
H441	H44	0.302700	0.924100	0.627300
C641	C64	0.376900	0.871600	0.624660
C651	C65	0.381000	0.867400	0.671000
C661	C66	0.312700	0.904400	0.570000
H451	H45	0.278500	0.924100	0.560700
C671	C67	0.489200	0.753800	0.593700
C681	C68	0.415100	0.841400	0.598140
C691	C69	0.402100	0.844700	0.556530
H461	H46	0.427900	0.826500	0.538000
C701	C70	0.471600	0.808600	0.610950
C711	C71	0.352600	0.873700	0.542700
H471	H47	0.344400	0.873800	0.515000
C721	C72	0.543800	0.729200	0.604800
H481	H48	0.555700	0.692800	0.593600
C731	C73	0.732500	0.945400	0.650200
H491	H49	0.740100	0.977700	0.633100
C741	C74	0.733700	0.856300	0.675600
H501	H50	0.740400	0.815500	0.679500
C751	C75	0.756400	0.751000	0.820800
H511	H51	0.785000	0.768100	0.803800
C761	C76	0.698100	0.947500	0.682300
H521	H52	0.676700	0.980700	0.691400
C771	C77	0.563300	0.810900	0.648900
H531	H53	0.588500	0.830100	0.667300
C781	C78	0.580400	0.757100	0.631700
H541	H54	0.617100	0.739900	0.638600
C791	C79	0.510600	0.835500	0.639250
H551	H55	0.499400	0.871400	0.651500
C801	C80	0.501400	0.906000	0.825500
H561	H56	0.522100	0.912600	0.849600
C811	C81	0.001100	0.828600	0.528900
H571	H57	0.021400	0.820100	0.504900
C821	C82	0.937900	0.840500	0.534900
H581	H58	0.910100	0.844000	0.513900
C831	C83	0.441600	0.908400	0.820000
H591	H59	0.413600	0.914500	0.840600
C841	C84	0.715500	0.694000	0.862500
H601	H60	0.709500	0.663600	0.881400
C851	C85	0.672400	0.730600	0.848400
H611	H61	0.631900	0.729800	0.855400
N241	N24	0.287200	0.678600	0.519680
C861	C86	0.270200	0.722700	0.543000
H621	H62	0.296100	0.750100	0.555200
C871	C87	0.238500	0.647100	0.509600
H631	H63	0.238100	0.611300	0.495000
C881	C88	0.189500	0.676000	0.524300
H641	H64	0.149600	0.665600	0.519700
Cd51	Cd5	0.664100	0.114470	0.752450
Cd61	Cd6	0.163090	0.139640	0.604860
O91	O9	0.625100	0.082700	0.690160
O101	O10	0.614400	0.181000	0.687690
O111	O11	0.525140	0.293240	0.530060
O121	O12	0.602970	0.292630	0.572660
N251	N25	0.075200	0.154300	0.573390
N261	N26	0.976400	0.167200	0.567570
N271	N27	0.753500	0.117200	0.713440
N281	N28	0.809900	0.135500	0.659550
N291	N29	0.243400	0.112700	0.645210
N301	N30	0.300600	0.109400	0.700530
N311	N31	0.474400	0.108000	0.788720
N321	N32	0.300600	0.230800	0.821760
N331	N33	0.231500	0.292500	0.845550
N341	N34	0.571900	0.099400	0.780200
C891	C89	0.801000	0.206100	0.602900
H651	H65	0.762000	0.215500	0.610800
C901	C90	0.788600	0.068300	0.705100
H661	H66	0.788400	0.032700	0.719900
C911	C91	0.826300	0.233900	0.569200
N351	N35	0.790500	0.276600	0.547030
C921	C92	0.833600	0.164800	0.624760
C931	C93	0.823500	0.079200	0.672300
H671	H67	0.851400	0.053100	0.660800
C941	C94	0.768400	0.157200	0.685200
H681	H68	0.751900	0.195500	0.683300
C951	C95	0.892500	0.150100	0.612000
H691	H69	0.914600	0.120900	0.625600
C961	C96	0.916200	0.179400	0.579300
C971	C97	0.882900	0.222800	0.558300
H701	H70	0.900200	0.243700	0.536800
C981	C98	0.021900	0.157500	0.591500
H711	H71	0.017400	0.153100	0.619500
C991	C99	0.548200	0.279200	0.563800
C1001	C100	0.301700	0.167500	0.761260
H721	H72	0.263500	0.181500	0.754900
C1011	C101	0.414100	0.126900	0.781420
C1021	C102	0.386100	0.167900	0.805900
H731	H73	0.405200	0.182500	0.829000
C1031	C103	0.520700	0.113400	0.764260
H741	H74	0.517000	0.126300	0.737500
C1041	C104	0.386600	0.105700	0.746200
H751	H75	0.405800	0.077600	0.729700
C1051	C105	0.329800	0.127500	0.736050
C1061	C106	0.330000	0.187100	0.796200
C1071	C107	0.673100	0.096900	0.609200
H761	H76	0.697300	0.075900	0.627300
C1081	C108	0.623100	0.128400	0.624660
C1091	C109	0.619000	0.132600	0.671000
C1101	C110	0.687300	0.095600	0.570000
H771	H77	0.721500	0.075900	0.560700
C1111	C111	0.510800	0.246200	0.593700
C1121	C112	0.584900	0.158600	0.598140
C1131	C113	0.597900	0.155300	0.556530
H781	H78	0.572100	0.173500	0.538000
C1141	C114	0.528400	0.191400	0.610950
C1151	C115	0.647400	0.126300	0.542700
H791	H79	0.655600	0.126200	0.515000
C1161	C116	0.456200	0.270800	0.604800
H801	H80	0.444300	0.307200	0.593600
C1171	C117	0.267500	0.054600	0.650200
H811	H81	0.259900	0.022300	0.633100
C1181	C118	0.266300	0.143700	0.675600
H821	H82	0.259600	0.184500	0.679500
C1191	C119	0.243600	0.249000	0.820800
H831	H83	0.215000	0.231900	0.803800
C1201	C120	0.301900	0.052500	0.682300
H841	H84	0.323300	0.019300	0.691400
C1211	C121	0.436700	0.189100	0.648900
H851	H85	0.411500	0.169900	0.667300
C1221	C122	0.419600	0.242900	0.631700
H861	H86	0.382900	0.260100	0.638600
C1231	C123	0.489400	0.164500	0.639250
H871	H87	0.500600	0.128600	0.651500
C1241	C124	0.498600	0.094000	0.825500
H881	H88	0.477900	0.087400	0.849600
C1251	C125	0.998900	0.171400	0.528900
H891	H89	0.978600	0.179900	0.504900
C1261	C126	0.062100	0.159500	0.534900
H901	H90	0.089900	0.156000	0.513900
C1271	C127	0.558400	0.091600	0.820000
H911	H91	0.586400	0.085500	0.840600
C1281	C128	0.284500	0.306000	0.862500
H921	H92	0.290500	0.336400	0.881400
C1291	C129	0.327600	0.269400	0.848400
H931	H93	0.368100	0.270200	0.855400
N361	N36	0.712800	0.321400	0.519680
C1301	C130	0.729800	0.277300	0.543000
H941	H94	0.703900	0.249900	0.555200
C1311	C131	0.761500	0.352900	0.509600
H951	H95	0.761900	0.388700	0.495000
C1321	C132	0.810500	0.324000	0.524300
H961	H96	0.850400	0.334400	0.519700
Cd71	Cd7	0.164100	0.614470	0.252450
Cd81	Cd8	0.663090	0.639640	0.104860
O131	O13	0.125100	0.582700	0.190160
O141	O14	0.114400	0.681000	0.187690
O151	O15	0.025140	0.793240	0.030060
O161	O16	0.102970	0.792630	0.072660
N371	N37	0.575200	0.654300	0.073390
N381	N38	0.476400	0.667200	0.067570
N391	N39	0.253500	0.617200	0.213440
N401	N40	0.309900	0.635500	0.159550
N411	N41	0.743400	0.612700	0.145210
N421	N42	0.800600	0.609400	0.200530
N431	N43	0.974400	0.608000	0.288720
N441	N44	0.800600	0.730800	0.321760
N451	N45	0.731500	0.792500	0.345550
N461	N46	0.071900	0.599400	0.280200
C1331	C133	0.301000	0.706100	0.102900
H971	H97	0.262000	0.715500	0.110800
C1341	C134	0.288600	0.568300	0.205100
H981	H98	0.288400	0.532700	0.219900
C1351	C135	0.326300	0.733900	0.069200
N471	N47	0.290500	0.776600	0.047030
C1361	C136	0.333600	0.664800	0.124760
C1371	C137	0.323500	0.579200	0.172300
H991	H99	0.351400	0.553100	0.160800
C1381	C138	0.268400	0.657200	0.185200
H1001	H100	0.251900	0.695500	0.183300
C1391	C139	0.392500	0.650100	0.112000
H1011	H101	0.414600	0.620900	0.125600
C1401	C140	0.416200	0.679400	0.079300
C1411	C141	0.382900	0.722800	0.058300
H1021	H102	0.400200	0.743700	0.036800
C1421	C142	0.521900	0.657500	0.091500
H1031	H103	0.517400	0.653100	0.119500
C1431	C143	0.048200	0.779200	0.063800
C1441	C144	0.801700	0.667500	0.261260
H1041	H104	0.763500	0.681500	0.254900
C1451	C145	0.914100	0.626900	0.281420
C1461	C146	0.886100	0.667900	0.305900
H1051	H105	0.905200	0.682500	0.329000
C1471	C147	0.020700	0.613400	0.264260
H1061	H106	0.017000	0.626300	0.237500
C1481	C148	0.886600	0.605700	0.246200
H1071	H107	0.905800	0.577600	0.229700
C1491	C149	0.829800	0.627500	0.236050
C1501	C150	0.830000	0.687100	0.296200
C1511	C151	0.173100	0.596900	0.109200
H1081	H108	0.197300	0.575900	0.127300
C1521	C152	0.123100	0.628400	0.124660
C1531	C153	0.119000	0.632600	0.171000
C1541	C154	0.187300	0.595600	0.070000
H1091	H109	0.221500	0.575900	0.060700
C1551	C155	0.010800	0.746200	0.093700
C1561	C156	0.084900	0.658600	0.098140
C1571	C157	0.097900	0.655300	0.056530
H1101	H110	0.072100	0.673500	0.038000
C1581	C158	0.028400	0.691400	0.110950
C1591	C159	0.147400	0.626300	0.042700
H1111	H111	0.155600	0.626200	0.015000
C1601	C160	0.956200	0.770800	0.104800
H1121	H112	0.944300	0.807200	0.093600
C1611	C161	0.767500	0.554600	0.150200
H1131	H113	0.759900	0.522300	0.133100
C1621	C162	0.766300	0.643700	0.175600
H1141	H114	0.759600	0.684500	0.179500
C1631	C163	0.743600	0.749000	0.320800
H1151	H115	0.715000	0.731900	0.303800
C1641	C164	0.801900	0.552500	0.182300
H1161	H116	0.823300	0.519300	0.191400
C1651	C165	0.936700	0.689100	0.148900
H1171	H117	0.911500	0.669900	0.167300
C1661	C166	0.919600	0.742900	0.131700
H1181	H118	0.882900	0.760100	0.138600
C1671	C167	0.989400	0.664500	0.139250
H1191	H119	0.000600	0.628600	0.151500
C1681	C168	0.998600	0.594000	0.325500
H1201	H120	0.977900	0.587400	0.349600
C1691	C169	0.498900	0.671400	0.028900
H1211	H121	0.478600	0.679900	0.004900
C1701	C170	0.562100	0.659500	0.034900
H1221	H122	0.589900	0.656000	0.013900
C1711	C171	0.058400	0.591600	0.320000
H1231	H123	0.086400	0.585500	0.340600
C1721	C172	0.784500	0.806000	0.362500
H1241	H124	0.790500	0.836400	0.381400
C1731	C173	0.827600	0.769400	0.348400
H1251	H125	0.868100	0.770200	0.355400
N481	N48	0.212800	0.821400	0.019680
C1741	C174	0.229800	0.777300	0.043000
H1261	H126	0.203900	0.749900	0.055200
C1751	C175	0.261500	0.852900	0.009600
H1271	H127	0.261900	0.888700	0.995000
C1761	C176	0.310500	0.824000	0.024300
H1281	H128	0.350400	0.834400	0.019700
Cd91	Cd9	0.614470	0.335900	0.502450
Cd101	Cd10	0.639640	0.836910	0.354860
O171	O17	0.582700	0.374900	0.440160
O181	O18	0.681000	0.385600	0.437690
O191	O19	0.793240	0.474860	0.280060
O201	O20	0.792630	0.397030	0.322660
N491	N49	0.654300	0.924800	0.323390
N501	N50	0.667200	0.023600	0.317570
N511	N51	0.617200	0.246500	0.463440
N521	N52	0.635500	0.190100	0.409550
N531	N53	0.612700	0.756600	0.395210
N541	N54	0.609400	0.699400	0.450530
N551	N55	0.608000	0.525600	0.538720
N561	N56	0.730800	0.699400	0.571760
N571	N57	0.792500	0.768500	0.595550
N581	N58	0.599400	0.428100	0.530200
C1771	C177	0.706100	0.199000	0.352900
H1291	H129	0.715500	0.238000	0.360800
C1781	C178	0.568300	0.211400	0.455100
H1301	H130	0.532700	0.211600	0.469900
C1791	C179	0.733900	0.173700	0.319200
N591	N59	0.776600	0.209500	0.297030
C1801	C180	0.664800	0.166400	0.374760
C1811	C181	0.579200	0.176500	0.422300
H1311	H131	0.553100	0.148600	0.410800
C1821	C182	0.657200	0.231600	0.435200
H1321	H132	0.695500	0.248100	0.433300
C1831	C183	0.650100	0.107500	0.362000
H1331	H133	0.620900	0.085400	0.375600
C1841	C184	0.679400	0.083800	0.329300
C1851	C185	0.722800	0.117100	0.308300
H1341	H134	0.743700	0.099800	0.286800
C1861	C186	0.657500	0.978100	0.341500
H1351	H135	0.653100	0.982600	0.369500
C1871	C187	0.779200	0.451800	0.313800
C1881	C188	0.667500	0.698300	0.511260
H1361	H136	0.681500	0.736500	0.504900
C1891	C189	0.626900	0.585900	0.531420
C1901	C190	0.667900	0.613900	0.555900
H1371	H137	0.682500	0.594800	0.579000
C1911	C191	0.613400	0.479300	0.514260
H1381	H138	0.626300	0.483000	0.487500
C1921	C192	0.605700	0.613400	0.496200
H1391	H139	0.577600	0.594200	0.479700
C1931	C193	0.627500	0.670200	0.486050
C1941	C194	0.687100	0.670000	0.546200
C1951	C195	0.596900	0.326900	0.359200
H1401	H140	0.575900	0.302700	0.377300
C1961	C196	0.628400	0.376900	0.374660
C1971	C197	0.632600	0.381000	0.421000
C1981	C198	0.595600	0.312700	0.320000
H1411	H141	0.575900	0.278500	0.310700
C1991	C199	0.746200	0.489200	0.343700
C2001	C200	0.658600	0.415100	0.348140
C2011	C201	0.655300	0.402100	0.306530
H1421	H142	0.673500	0.427900	0.288000
C2021	C202	0.691400	0.471600	0.360950
C2031	C203	0.626300	0.352600	0.292700
H1431	H143	0.626200	0.344400	0.265000
C2041	C204	0.770800	0.543800	0.354800
H1441	H144	0.807200	0.555700	0.343600
C2051	C205	0.554600	0.732500	0.400200
H1451	H145	0.522300	0.740100	0.383100
C2061	C206	0.643700	0.733700	0.425600
H1461	H146	0.684500	0.740400	0.429500
C2071	C207	0.749000	0.756400	0.570800
H1471	H147	0.731900	0.785000	0.553800
C2081	C208	0.552500	0.698100	0.432300
H1481	H148	0.519300	0.676700	0.441400
C2091	C209	0.689100	0.563300	0.398900
H1491	H149	0.669900	0.588500	0.417300
C2101	C210	0.742900	0.580400	0.381700
H1501	H150	0.760100	0.617100	0.388600
C2111	C211	0.664500	0.510600	0.389250
H1511	H151	0.628600	0.499400	0.401500
C2121	C212	0.594000	0.501400	0.575500
H1521	H152	0.587400	0.522100	0.599600
C2131	C213	0.671400	0.001100	0.278900
H1531	H153	0.679900	0.021400	0.254900
C2141	C214	0.659500	0.937900	0.284900
H1541	H154	0.656000	0.910100	0.263900
C2151	C215	0.591600	0.441600	0.570000
H1551	H155	0.585500	0.413600	0.590600
C2161	C216	0.806000	0.715500	0.612500
H1561	H156	0.836400	0.709500	0.631400
C2171	C217	0.769400	0.672400	0.598400
H1571	H157	0.770200	0.631900	0.605400
N601	N60	0.821400	0.287200	0.269680
C2181	C218	0.777300	0.270200	0.293000
H1581	H158	0.749900	0.296100	0.305200
C2191	C219	0.852900	0.238500	0.259600
H1591	H159	0.888700	0.238100	0.245000
C2201	C220	0.824000	0.189500	0.274300
H1601	H160	0.834400	0.149600	0.269700
Cd111	Cd11	0.114470	0.835900	0.002450
Cd121	Cd12	0.139640	0.336910	0.854860
O211	O21	0.082700	0.874900	0.940160
O221	O22	0.181000	0.885600	0.937690
O231	O23	0.293240	0.974860	0.780060
O241	O24	0.292630	0.897030	0.822660
N611	N61	0.154300	0.424800	0.823390
N621	N62	0.167200	0.523600	0.817570
N631	N63	0.117200	0.746500	0.963440
N641	N64	0.135500	0.690100	0.909550
N651	N65	0.112700	0.256600	0.895210
N661	N66	0.109400	0.199400	0.950530
N671	N67	0.108000	0.025600	0.038720
N681	N68	0.230800	0.199400	0.071760
N691	N69	0.292500	0.268500	0.095550
N701	N70	0.099400	0.928100	0.030200
C2211	C221	0.206100	0.699000	0.852900
H1611	H161	0.215500	0.738000	0.860800
C2221	C222	0.068300	0.711400	0.955100
H1621	H162	0.032700	0.711600	0.969900
C2231	C223	0.233900	0.673700	0.819200
N711	N71	0.276600	0.709500	0.797030
C2241	C224	0.164800	0.666400	0.874760
C2251	C225	0.079200	0.676500	0.922300
H1631	H163	0.053100	0.648600	0.910800
C2261	C226	0.157200	0.731600	0.935200
H1641	H164	0.195500	0.748100	0.933300
C2271	C227	0.150100	0.607500	0.862000
H1651	H165	0.120900	0.585400	0.875600
C2281	C228	0.179400	0.583800	0.829300
C2291	C229	0.222800	0.617100	0.808300
H1661	H166	0.243700	0.599800	0.786800
C2301	C230	0.157500	0.478100	0.841500
H1671	H167	0.153100	0.482600	0.869500
C2311	C231	0.279200	0.951800	0.813800
C2321	C232	0.167500	0.198300	0.011260
H1681	H168	0.181500	0.236500	0.004900
C2331	C233	0.126900	0.085900	0.031420
C2341	C234	0.167900	0.113900	0.055900
H1691	H169	0.182500	0.094800	0.079000
C2351	C235	0.113400	0.979300	0.014260
H1701	H170	0.126300	0.983000	0.987500
C2361	C236	0.105700	0.113400	0.996200
H1711	H171	0.077600	0.094200	0.979700
C2371	C237	0.127500	0.170200	0.986050
C2381	C238	0.187100	0.170000	0.046200
C2391	C239	0.096900	0.826900	0.859200
H1721	H172	0.075900	0.802700	0.877300
C2401	C240	0.128400	0.876900	0.874660
C2411	C241	0.132600	0.881000	0.921000
C2421	C242	0.095600	0.812700	0.820000
H1731	H173	0.075900	0.778500	0.810700
C2431	C243	0.246200	0.989200	0.843700
C2441	C244	0.158600	0.915100	0.848140
C2451	C245	0.155300	0.902100	0.806530
H1741	H174	0.173500	0.927900	0.788000
C2461	C246	0.191400	0.971600	0.860950
C2471	C247	0.126300	0.852600	0.792700
H1751	H175	0.126200	0.844400	0.765000
C2481	C248	0.270800	0.043800	0.854800
H1761	H176	0.307200	0.055700	0.843600
C2491	C249	0.054600	0.232500	0.900200
H1771	H177	0.022300	0.240100	0.883100
C2501	C250	0.143700	0.233700	0.925600
H1781	H178	0.184500	0.240400	0.929500
C2511	C251	0.249000	0.256400	0.070800
H1791	H179	0.231900	0.285000	0.053800
C2521	C252	0.052500	0.198100	0.932300
H1801	H180	0.019300	0.176700	0.941400
C2531	C253	0.189100	0.063300	0.898900
H1811	H181	0.169900	0.088500	0.917300
C2541	C254	0.242900	0.080400	0.881700
H1821	H182	0.260100	0.117100	0.888600
C2551	C255	0.164500	0.010600	0.889250
H1831	H183	0.128600	0.999400	0.901500
C2561	C256	0.094000	0.001400	0.075500
H1841	H184	0.087400	0.022100	0.099600
C2571	C257	0.171400	0.501100	0.778900
H1851	H185	0.179900	0.521400	0.754900
C2581	C258	0.159500	0.437900	0.784900
H1861	H186	0.156000	0.410100	0.763900
C2591	C259	0.091600	0.941600	0.070000
H1871	H187	0.085500	0.913600	0.090600
C2601	C260	0.306000	0.215500	0.112500
H1881	H188	0.336400	0.209500	0.131400
C2611	C261	0.269400	0.172400	0.098400
H1891	H189	0.270200	0.131900	0.105400
N721	N72	0.321400	0.787200	0.769680
C2621	C262	0.277300	0.770200	0.793000
H1901	H190	0.249900	0.796100	0.805200
C2631	C263	0.352900	0.738500	0.759600
H1911	H191	0.388700	0.738100	0.745000
C2641	C264	0.324000	0.689500	0.774300
H1921	H192	0.334400	0.649600	0.769700
Cd131	Cd13	0.885530	0.164100	0.002450
Cd141	Cd14	0.860360	0.663090	0.854860
O251	O25	0.917300	0.125100	0.940160
O261	O26	0.819000	0.114400	0.937690
O271	O27	0.706760	0.025140	0.780060
O281	O28	0.707370	0.102970	0.822660
N731	N73	0.845700	0.575200	0.823390
N741	N74	0.832800	0.476400	0.817570
N751	N75	0.882800	0.253500	0.963440
N761	N76	0.864500	0.309900	0.909550
N771	N77	0.887300	0.743400	0.895210
N781	N78	0.890600	0.800600	0.950530
N791	N79	0.892000	0.974400	0.038720
N801	N80	0.769200	0.800600	0.071760
N811	N81	0.707500	0.731500	0.095550
N821	N82	0.900600	0.071900	0.030200
C2651	C265	0.793900	0.301000	0.852900
H1931	H193	0.784500	0.262000	0.860800
C2661	C266	0.931700	0.288600	0.955100
H1941	H194	0.967300	0.288400	0.969900
C2671	C267	0.766100	0.326300	0.819200
N831	N83	0.723400	0.290500	0.797030
C2681	C268	0.835200	0.333600	0.874760
C2691	C269	0.920800	0.323500	0.922300
H1951	H195	0.946900	0.351400	0.910800
C2701	C270	0.842800	0.268400	0.935200
H1961	H196	0.804500	0.251900	0.933300
C2711	C271	0.849900	0.392500	0.862000
H1971	H197	0.879100	0.414600	0.875600
C2721	C272	0.820600	0.416200	0.829300
C2731	C273	0.777200	0.382900	0.808300
H1981	H198	0.756300	0.400200	0.786800
C2741	C274	0.842500	0.521900	0.841500
H1991	H199	0.846900	0.517400	0.869500
C2751	C275	0.720800	0.048200	0.813800
C2761	C276	0.832500	0.801700	0.011260
H2001	H200	0.818500	0.763500	0.004900
C2771	C277	0.873100	0.914100	0.031420
C2781	C278	0.832100	0.886100	0.055900
H2011	H201	0.817500	0.905200	0.079000
C2791	C279	0.886600	0.020700	0.014260
H2021	H202	0.873700	0.017000	0.987500
C2801	C280	0.894300	0.886600	0.996200
H2031	H203	0.922400	0.905800	0.979700
C2811	C281	0.872500	0.829800	0.986050
C2821	C282	0.812900	0.830000	0.046200
C2831	C283	0.903100	0.173100	0.859200
H2041	H204	0.924100	0.197300	0.877300
C2841	C284	0.871600	0.123100	0.874660
C2851	C285	0.867400	0.119000	0.921000
C2861	C286	0.904400	0.187300	0.820000
H2051	H205	0.924100	0.221500	0.810700
C2871	C287	0.753800	0.010800	0.843700
C2881	C288	0.841400	0.084900	0.848140
C2891	C289	0.844700	0.097900	0.806530
H2061	H206	0.826500	0.072100	0.788000
C2901	C290	0.808600	0.028400	0.860950
C2911	C291	0.873700	0.147400	0.792700
H2071	H207	0.873800	0.155600	0.765000
C2921	C292	0.729200	0.956200	0.854800
H2081	H208	0.692800	0.944300	0.843600
C2931	C293	0.945400	0.767500	0.900200
H2091	H209	0.977700	0.759900	0.883100
C2941	C294	0.856300	0.766300	0.925600
H2101	H210	0.815500	0.759600	0.929500
C2951	C295	0.751000	0.743600	0.070800
H2111	H211	0.768100	0.715000	0.053800
C2961	C296	0.947500	0.801900	0.932300
H2121	H212	0.980700	0.823300	0.941400
C2971	C297	0.810900	0.936700	0.898900
H2131	H213	0.830100	0.911500	0.917300
C2981	C298	0.757100	0.919600	0.881700
H2141	H214	0.739900	0.882900	0.888600
C2991	C299	0.835500	0.989400	0.889250
H2151	H215	0.871400	0.000600	0.901500
C3001	C300	0.906000	0.998600	0.075500
H2161	H216	0.912600	0.977900	0.099600
C3011	C301	0.828600	0.498900	0.778900
H2171	H217	0.820100	0.478600	0.754900
C3021	C302	0.840500	0.562100	0.784900
H2181	H218	0.844000	0.589900	0.763900
C3031	C303	0.908400	0.058400	0.070000
H2191	H219	0.914500	0.086400	0.090600
C3041	C304	0.694000	0.784500	0.112500
H2201	H220	0.663600	0.790500	0.131400
C3051	C305	0.730600	0.827600	0.098400
H2211	H221	0.729800	0.868100	0.105400
N841	N84	0.678600	0.212800	0.769680
C3061	C306	0.722700	0.229800	0.793000
H2221	H222	0.750100	0.203900	0.805200
C3071	C307	0.647100	0.261500	0.759600
H2231	H223	0.611300	0.261900	0.745000
C3081	C308	0.676000	0.310500	0.774300
H2241	H224	0.665600	0.350400	0.769700
Cd151	Cd15	0.385530	0.664100	0.502450
Cd161	Cd16	0.360360	0.163090	0.354860
O291	O29	0.417300	0.625100	0.440160
O301	O30	0.319000	0.614400	0.437690
O311	O31	0.206760	0.525140	0.280060
O321	O32	0.207370	0.602970	0.322660
N851	N85	0.345700	0.075200	0.323390
N861	N86	0.332800	0.976400	0.317570
N871	N87	0.382800	0.753500	0.463440
N881	N88	0.364500	0.809900	0.409550
N891	N89	0.387300	0.243400	0.395210
N901	N90	0.390600	0.300600	0.450530
N911	N91	0.392000	0.474400	0.538720
N921	N92	0.269200	0.300600	0.571760
N931	N93	0.207500	0.231500	0.595550
N941	N94	0.400600	0.571900	0.530200
C3091	C309	0.293900	0.801000	0.352900
H2251	H225	0.284500	0.762000	0.360800
C3101	C310	0.431700	0.788600	0.455100
H2261	H226	0.467300	0.788400	0.469900
C3111	C311	0.266100	0.826300	0.319200
N951	N95	0.223400	0.790500	0.297030
C3121	C312	0.335200	0.833600	0.374760
C3131	C313	0.420800	0.823500	0.422300
H2271	H227	0.446900	0.851400	0.410800
C3141	C314	0.342800	0.768400	0.435200
H2281	H228	0.304500	0.751900	0.433300
C3151	C315	0.349900	0.892500	0.362000
H2291	H229	0.379100	0.914600	0.375600
C3161	C316	0.320600	0.916200	0.329300
C3171	C317	0.277200	0.882900	0.308300
H2301	H230	0.256300	0.900200	0.286800
C3181	C318	0.342500	0.021900	0.341500
H2311	H231	0.346900	0.017400	0.369500
C3191	C319	0.220800	0.548200	0.313800
C3201	C320	0.332500	0.301700	0.511260
H2321	H232	0.318500	0.263500	0.504900
C3211	C321	0.373100	0.414100	0.531420
C3221	C322	0.332100	0.386100	0.555900
H2331	H233	0.317500	0.405200	0.579000
C3231	C323	0.386600	0.520700	0.514260
H2341	H234	0.373700	0.517000	0.487500
C3241	C324	0.394300	0.386600	0.496200
H2351	H235	0.422400	0.405800	0.479700
C3251	C325	0.372500	0.329800	0.486050
C3261	C326	0.312900	0.330000	0.546200
C3271	C327	0.403100	0.673100	0.359200
H2361	H236	0.424100	0.697300	0.377300
C3281	C328	0.371600	0.623100	0.374660
C3291	C329	0.367400	0.619000	0.421000
C3301	C330	0.404400	0.687300	0.320000
H2371	H237	0.424100	0.721500	0.310700
C3311	C331	0.253800	0.510800	0.343700
C3321	C332	0.341400	0.584900	0.348140
C3331	C333	0.344700	0.597900	0.306530
H2381	H238	0.326500	0.572100	0.288000
C3341	C334	0.308600	0.528400	0.360950
C3351	C335	0.373700	0.647400	0.292700
H2391	H239	0.373800	0.655600	0.265000
C3361	C336	0.229200	0.456200	0.354800
H2401	H240	0.192800	0.444300	0.343600
C3371	C337	0.445400	0.267500	0.400200
H2411	H241	0.477700	0.259900	0.383100
C3381	C338	0.356300	0.266300	0.425600
H2421	H242	0.315500	0.259600	0.429500
C3391	C339	0.251000	0.243600	0.570800
H2431	H243	0.268100	0.215000	0.553800
C3401	C340	0.447500	0.301900	0.432300
H2441	H244	0.480700	0.323300	0.441400
C3411	C341	0.310900	0.436700	0.398900
H2451	H245	0.330100	0.411500	0.417300
C3421	C342	0.257100	0.419600	0.381700
H2461	H246	0.239900	0.382900	0.388600
C3431	C343	0.335500	0.489400	0.389250
H2471	H247	0.371400	0.500600	0.401500
C3441	C344	0.406000	0.498600	0.575500
H2481	H248	0.412600	0.477900	0.599600
C3451	C345	0.328600	0.998900	0.278900
H2491	H249	0.320100	0.978600	0.254900
C3461	C346	0.340500	0.062100	0.284900
H2501	H250	0.344000	0.089900	0.263900
C3471	C347	0.408400	0.558400	0.570000
H2511	H251	0.414500	0.586400	0.590600
C3481	C348	0.194000	0.284500	0.612500
H2521	H252	0.163600	0.290500	0.631400
C3491	C349	0.230600	0.327600	0.598400
H2531	H253	0.229800	0.368100	0.605400
N961	N96	0.178600	0.712800	0.269680
C3501	C350	0.222700	0.729800	0.293000
H2541	H254	0.250100	0.703900	0.305200
C3511	C351	0.147100	0.761500	0.259600
H2551	H255	0.111300	0.761900	0.245000
C3521	C352	0.176000	0.810500	0.274300
H2561	H256	0.165600	0.850400	0.269700
