data_ASUKEE_clean_PM
_symmetry_space_group_name_H-M	'P1'
_cell_length_a	18.777000
_cell_length_b	23.359300
_cell_length_c	30.423100
_cell_angle_alpha	90.000000
_cell_angle_beta	90.000000
_cell_angle_gamma	90.000000
_symmetry_Int_Tables_number 1

loop_
_symmetry_equiv_pos_as_xyz
'x,y,z'

loop_
_atom_site_label
_atom_site_type_symbol
_atom_site_fract_x
_atom_site_fract_y
_atom_site_fract_z
Cu11	Cu1	0.235830	0.360230	0.121450
N11	N1	0.287800	0.405420	0.167300
N21	N2	0.437100	0.588270	0.328420
N31	N3	0.229200	0.276420	0.121700
C11	C1	0.326600	0.451300	0.156470
H11	H1	0.333600	0.459000	0.126800
C21	C2	0.356400	0.487500	0.186310
H21	H2	0.382200	0.519100	0.176700
C31	C3	0.280900	0.395100	0.210220
H31	H3	0.255500	0.362800	0.218700
C41	C4	0.309000	0.429100	0.242460
H41	H4	0.301900	0.420000	0.271900
C51	C5	0.348400	0.477400	0.230940
C61	C6	0.379500	0.515100	0.264750
C71	C7	0.404200	0.494600	0.304550
H51	H5	0.402000	0.455700	0.310700
C81	C8	0.432100	0.531500	0.334790
H61	H6	0.448400	0.516600	0.361300
C91	C9	0.385600	0.574100	0.257450
H71	H7	0.370900	0.589800	0.230900
C101	C10	0.413600	0.608500	0.289690
H81	H8	0.416400	0.647700	0.284500
C111	C11	0.249900	0.245400	0.087080
H91	H9	0.264400	0.264400	0.061800
C121	C12	0.250600	0.186300	0.087230
H101	H10	0.265100	0.166400	0.062300
C131	C13	0.207700	0.247600	0.157450
H111	H11	0.191800	0.268400	0.181600
C141	C14	0.207900	0.188900	0.159990
H121	H12	0.193500	0.170900	0.185700
C151	C15	0.229600	0.156800	0.124470
Cu21	Cu2	0.235830	0.860230	0.621450
N41	N4	0.287800	0.905420	0.667300
N51	N5	0.437100	0.088270	0.828420
N61	N6	0.229200	0.776420	0.621700
C161	C16	0.326600	0.951300	0.656470
H131	H13	0.333600	0.959000	0.626800
C171	C17	0.356400	0.987500	0.686310
H141	H14	0.382200	0.019100	0.676700
C181	C18	0.280900	0.895100	0.710220
H151	H15	0.255500	0.862800	0.718700
C191	C19	0.309000	0.929100	0.742460
H161	H16	0.301900	0.920000	0.771900
C201	C20	0.348400	0.977400	0.730940
C211	C21	0.379500	0.015100	0.764750
C221	C22	0.404200	0.994600	0.804550
H171	H17	0.402000	0.955700	0.810700
C231	C23	0.432100	0.031500	0.834790
H181	H18	0.448400	0.016600	0.861300
C241	C24	0.385600	0.074100	0.757450
H191	H19	0.370900	0.089800	0.730900
C251	C25	0.413600	0.108500	0.789690
H201	H20	0.416400	0.147700	0.784500
C261	C26	0.249900	0.745400	0.587080
H211	H21	0.264400	0.764400	0.561800
C271	C27	0.250600	0.686300	0.587230
H221	H22	0.265100	0.666400	0.562300
C281	C28	0.207700	0.747600	0.657450
H231	H23	0.191800	0.768400	0.681600
C291	C29	0.207900	0.688900	0.659990
H241	H24	0.193500	0.670900	0.685700
C301	C30	0.229600	0.656800	0.624470
Cu31	Cu3	0.735830	0.360230	0.621450
N71	N7	0.787800	0.405420	0.667300
N81	N8	0.937100	0.588270	0.828420
N91	N9	0.729200	0.276420	0.621700
C311	C31	0.826600	0.451300	0.656470
H251	H25	0.833600	0.459000	0.626800
C321	C32	0.856400	0.487500	0.686310
H261	H26	0.882200	0.519100	0.676700
C331	C33	0.780900	0.395100	0.710220
H271	H27	0.755500	0.362800	0.718700
C341	C34	0.809000	0.429100	0.742460
H281	H28	0.801900	0.420000	0.771900
C351	C35	0.848400	0.477400	0.730940
C361	C36	0.879500	0.515100	0.764750
C371	C37	0.904200	0.494600	0.804550
H291	H29	0.902000	0.455700	0.810700
C381	C38	0.932100	0.531500	0.834790
H301	H30	0.948400	0.516600	0.861300
C391	C39	0.885600	0.574100	0.757450
H311	H31	0.870900	0.589800	0.730900
C401	C40	0.913600	0.608500	0.789690
H321	H32	0.916400	0.647700	0.784500
C411	C41	0.749900	0.245400	0.587080
H331	H33	0.764400	0.264400	0.561800
C421	C42	0.750600	0.186300	0.587230
H341	H34	0.765100	0.166400	0.562300
C431	C43	0.707700	0.247600	0.657450
H351	H35	0.691800	0.268400	0.681600
C441	C44	0.707900	0.188900	0.659990
H361	H36	0.693500	0.170900	0.685700
C451	C45	0.729600	0.156800	0.624470
Cu41	Cu4	0.735830	0.860230	0.121450
N101	N10	0.787800	0.905420	0.167300
N111	N11	0.937100	0.088270	0.328420
N121	N12	0.729200	0.776420	0.121700
C461	C46	0.826600	0.951300	0.156470
H371	H37	0.833600	0.959000	0.126800
C471	C47	0.856400	0.987500	0.186310
H381	H38	0.882200	0.019100	0.176700
C481	C48	0.780900	0.895100	0.210220
H391	H39	0.755500	0.862800	0.218700
C491	C49	0.809000	0.929100	0.242460
H401	H40	0.801900	0.920000	0.271900
C501	C50	0.848400	0.977400	0.230940
C511	C51	0.879500	0.015100	0.264750
C521	C52	0.904200	0.994600	0.304550
H411	H41	0.902000	0.955700	0.310700
C531	C53	0.932100	0.031500	0.334790
H421	H42	0.948400	0.016600	0.361300
C541	C54	0.885600	0.074100	0.257450
H431	H43	0.870900	0.089800	0.230900
C551	C55	0.913600	0.108500	0.289690
H441	H44	0.916400	0.147700	0.284500
C561	C56	0.749900	0.745400	0.087080
H451	H45	0.764400	0.764400	0.061800
C571	C57	0.750600	0.686300	0.087230
H461	H46	0.765100	0.666400	0.062300
C581	C58	0.707700	0.747600	0.157450
H471	H47	0.691800	0.768400	0.181600
C591	C59	0.707900	0.688900	0.159990
H481	H48	0.693500	0.670900	0.185700
C601	C60	0.729600	0.656800	0.124470
Cu51	Cu5	0.235830	0.389770	0.628550
N131	N13	0.287800	0.344580	0.582700
N141	N14	0.437100	0.161730	0.421580
N151	N15	0.229200	0.473580	0.628300
C611	C61	0.326600	0.298700	0.593530
H491	H49	0.333600	0.291000	0.623200
C621	C62	0.356400	0.262500	0.563690
H501	H50	0.382200	0.230900	0.573300
C631	C63	0.280900	0.354900	0.539780
H511	H51	0.255500	0.387200	0.531300
C641	C64	0.309000	0.320900	0.507540
H521	H52	0.301900	0.330000	0.478100
C651	C65	0.348400	0.272600	0.519060
C661	C66	0.379500	0.234900	0.485250
C671	C67	0.404200	0.255400	0.445450
H531	H53	0.402000	0.294300	0.439300
C681	C68	0.432100	0.218500	0.415210
H541	H54	0.448400	0.233400	0.388700
C691	C69	0.385600	0.175900	0.492550
H551	H55	0.370900	0.160200	0.519100
C701	C70	0.413600	0.141500	0.460310
H561	H56	0.416400	0.102300	0.465500
C711	C71	0.249900	0.504600	0.662920
H571	H57	0.264400	0.485600	0.688200
C721	C72	0.250600	0.563700	0.662770
H581	H58	0.265100	0.583600	0.687700
C731	C73	0.207700	0.502400	0.592550
H591	H59	0.191800	0.481600	0.568400
C741	C74	0.207900	0.561100	0.590010
H601	H60	0.193500	0.579100	0.564300
C751	C75	0.229600	0.593200	0.625530
Cu61	Cu6	0.235830	0.889770	0.128550
N161	N16	0.287800	0.844580	0.082700
N171	N17	0.437100	0.661730	0.921580
N181	N18	0.229200	0.973580	0.128300
C761	C76	0.326600	0.798700	0.093530
H611	H61	0.333600	0.791000	0.123200
C771	C77	0.356400	0.762500	0.063690
H621	H62	0.382200	0.730900	0.073300
C781	C78	0.280900	0.854900	0.039780
H631	H63	0.255500	0.887200	0.031300
C791	C79	0.309000	0.820900	0.007540
H641	H64	0.301900	0.830000	0.978100
C801	C80	0.348400	0.772600	0.019060
C811	C81	0.379500	0.734900	0.985250
C821	C82	0.404200	0.755400	0.945450
H651	H65	0.402000	0.794300	0.939300
C831	C83	0.432100	0.718500	0.915210
H661	H66	0.448400	0.733400	0.888700
C841	C84	0.385600	0.675900	0.992550
H671	H67	0.370900	0.660200	0.019100
C851	C85	0.413600	0.641500	0.960310
H681	H68	0.416400	0.602300	0.965500
C861	C86	0.249900	0.004600	0.162920
H691	H69	0.264400	0.985600	0.188200
C871	C87	0.250600	0.063700	0.162770
H701	H70	0.265100	0.083600	0.187700
C881	C88	0.207700	0.002400	0.092550
H711	H71	0.191800	0.981600	0.068400
C891	C89	0.207900	0.061100	0.090010
H721	H72	0.193500	0.079100	0.064300
C901	C90	0.229600	0.093200	0.125530
Cu71	Cu7	0.735830	0.389770	0.128550
N191	N19	0.787800	0.344580	0.082700
N201	N20	0.937100	0.161730	0.921580
N211	N21	0.729200	0.473580	0.128300
C911	C91	0.826600	0.298700	0.093530
H731	H73	0.833600	0.291000	0.123200
C921	C92	0.856400	0.262500	0.063690
H741	H74	0.882200	0.230900	0.073300
C931	C93	0.780900	0.354900	0.039780
H751	H75	0.755500	0.387200	0.031300
C941	C94	0.809000	0.320900	0.007540
H761	H76	0.801900	0.330000	0.978100
C951	C95	0.848400	0.272600	0.019060
C961	C96	0.879500	0.234900	0.985250
C971	C97	0.904200	0.255400	0.945450
H771	H77	0.902000	0.294300	0.939300
C981	C98	0.932100	0.218500	0.915210
H781	H78	0.948400	0.233400	0.888700
C991	C99	0.885600	0.175900	0.992550
H791	H79	0.870900	0.160200	0.019100
C1001	C100	0.913600	0.141500	0.960310
H801	H80	0.916400	0.102300	0.965500
C1011	C101	0.749900	0.504600	0.162920
H811	H81	0.764400	0.485600	0.188200
C1021	C102	0.750600	0.563700	0.162770
H821	H82	0.765100	0.583600	0.187700
C1031	C103	0.707700	0.502400	0.092550
H831	H83	0.691800	0.481600	0.068400
C1041	C104	0.707900	0.561100	0.090010
H841	H84	0.693500	0.579100	0.064300
C1051	C105	0.729600	0.593200	0.125530
Cu81	Cu8	0.735830	0.889770	0.628550
N221	N22	0.787800	0.844580	0.582700
N231	N23	0.937100	0.661730	0.421580
N241	N24	0.729200	0.973580	0.628300
C1061	C106	0.826600	0.798700	0.593530
H851	H85	0.833600	0.791000	0.623200
C1071	C107	0.856400	0.762500	0.563690
H861	H86	0.882200	0.730900	0.573300
C1081	C108	0.780900	0.854900	0.539780
H871	H87	0.755500	0.887200	0.531300
C1091	C109	0.809000	0.820900	0.507540
H881	H88	0.801900	0.830000	0.478100
C1101	C110	0.848400	0.772600	0.519060
C1111	C111	0.879500	0.734900	0.485250
C1121	C112	0.904200	0.755400	0.445450
H891	H89	0.902000	0.794300	0.439300
C1131	C113	0.932100	0.718500	0.415210
H901	H90	0.948400	0.733400	0.388700
C1141	C114	0.885600	0.675900	0.492550
H911	H91	0.870900	0.660200	0.519100
C1151	C115	0.913600	0.641500	0.460310
H921	H92	0.916400	0.602300	0.465500
C1161	C116	0.749900	0.004600	0.662920
H931	H93	0.764400	0.985600	0.688200
C1171	C117	0.750600	0.063700	0.662770
H941	H94	0.765100	0.083600	0.687700
C1181	C118	0.707700	0.002400	0.592550
H951	H95	0.691800	0.981600	0.568400
C1191	C119	0.707900	0.061100	0.590010
H961	H96	0.693500	0.079100	0.564300
C1201	C120	0.729600	0.093200	0.625530
Cu91	Cu9	0.485830	0.610230	0.878550
N251	N25	0.537800	0.655420	0.832700
N261	N26	0.687100	0.838270	0.671580
N271	N27	0.479200	0.526420	0.878300
C1211	C121	0.576600	0.701300	0.843530
H971	H97	0.583600	0.709000	0.873200
C1221	C122	0.606400	0.737500	0.813690
H981	H98	0.632200	0.769100	0.823300
C1231	C123	0.530900	0.645100	0.789780
H991	H99	0.505500	0.612800	0.781300
C1241	C124	0.559000	0.679100	0.757540
H1001	H100	0.551900	0.670000	0.728100
C1251	C125	0.598400	0.727400	0.769060
C1261	C126	0.629500	0.765100	0.735250
C1271	C127	0.654200	0.744600	0.695450
H1011	H101	0.652000	0.705700	0.689300
C1281	C128	0.682100	0.781500	0.665210
H1021	H102	0.698400	0.766600	0.638700
C1291	C129	0.635600	0.824100	0.742550
H1031	H103	0.620900	0.839800	0.769100
C1301	C130	0.663600	0.858500	0.710310
H1041	H104	0.666400	0.897700	0.715500
C1311	C131	0.499900	0.495400	0.912920
H1051	H105	0.514400	0.514400	0.938200
C1321	C132	0.500600	0.436300	0.912770
H1061	H106	0.515100	0.416400	0.937700
C1331	C133	0.457700	0.497600	0.842550
H1071	H107	0.441800	0.518400	0.818400
C1341	C134	0.457900	0.438900	0.840010
H1081	H108	0.443500	0.420900	0.814300
C1351	C135	0.479600	0.406800	0.875530
Cu101	Cu10	0.485830	0.110230	0.378550
N281	N28	0.537800	0.155420	0.332700
N291	N29	0.687100	0.338270	0.171580
N301	N30	0.479200	0.026420	0.378300
C1361	C136	0.576600	0.201300	0.343530
H1091	H109	0.583600	0.209000	0.373200
C1371	C137	0.606400	0.237500	0.313690
H1101	H110	0.632200	0.269100	0.323300
C1381	C138	0.530900	0.145100	0.289780
H1111	H111	0.505500	0.112800	0.281300
C1391	C139	0.559000	0.179100	0.257540
H1121	H112	0.551900	0.170000	0.228100
C1401	C140	0.598400	0.227400	0.269060
C1411	C141	0.629500	0.265100	0.235250
C1421	C142	0.654200	0.244600	0.195450
H1131	H113	0.652000	0.205700	0.189300
C1431	C143	0.682100	0.281500	0.165210
H1141	H114	0.698400	0.266600	0.138700
C1441	C144	0.635600	0.324100	0.242550
H1151	H115	0.620900	0.339800	0.269100
C1451	C145	0.663600	0.358500	0.210310
H1161	H116	0.666400	0.397700	0.215500
C1461	C146	0.499900	0.995400	0.412920
H1171	H117	0.514400	0.014400	0.438200
C1471	C147	0.500600	0.936300	0.412770
H1181	H118	0.515100	0.916400	0.437700
C1481	C148	0.457700	0.997600	0.342550
H1191	H119	0.441800	0.018400	0.318400
C1491	C149	0.457900	0.938900	0.340010
H1201	H120	0.443500	0.920900	0.314300
C1501	C150	0.479600	0.906800	0.375530
Cu111	Cu11	0.985830	0.610230	0.378550
N311	N31	0.037800	0.655420	0.332700
N321	N32	0.187100	0.838270	0.171580
N331	N33	0.979200	0.526420	0.378300
C1511	C151	0.076600	0.701300	0.343530
H1211	H121	0.083600	0.709000	0.373200
C1521	C152	0.106400	0.737500	0.313690
H1221	H122	0.132200	0.769100	0.323300
C1531	C153	0.030900	0.645100	0.289780
H1231	H123	0.005500	0.612800	0.281300
C1541	C154	0.059000	0.679100	0.257540
H1241	H124	0.051900	0.670000	0.228100
C1551	C155	0.098400	0.727400	0.269060
C1561	C156	0.129500	0.765100	0.235250
C1571	C157	0.154200	0.744600	0.195450
H1251	H125	0.152000	0.705700	0.189300
C1581	C158	0.182100	0.781500	0.165210
H1261	H126	0.198400	0.766600	0.138700
C1591	C159	0.135600	0.824100	0.242550
H1271	H127	0.120900	0.839800	0.269100
C1601	C160	0.163600	0.858500	0.210310
H1281	H128	0.166400	0.897700	0.215500
C1611	C161	0.999900	0.495400	0.412920
H1291	H129	0.014400	0.514400	0.438200
C1621	C162	0.000600	0.436300	0.412770
H1301	H130	0.015100	0.416400	0.437700
C1631	C163	0.957700	0.497600	0.342550
H1311	H131	0.941800	0.518400	0.318400
C1641	C164	0.957900	0.438900	0.340010
H1321	H132	0.943500	0.420900	0.314300
C1651	C165	0.979600	0.406800	0.375530
Cu121	Cu12	0.985830	0.110230	0.878550
N341	N34	0.037800	0.155420	0.832700
N351	N35	0.187100	0.338270	0.671580
N361	N36	0.979200	0.026420	0.878300
C1661	C166	0.076600	0.201300	0.843530
H1331	H133	0.083600	0.209000	0.873200
C1671	C167	0.106400	0.237500	0.813690
H1341	H134	0.132200	0.269100	0.823300
C1681	C168	0.030900	0.145100	0.789780
H1351	H135	0.005500	0.112800	0.781300
C1691	C169	0.059000	0.179100	0.757540
H1361	H136	0.051900	0.170000	0.728100
C1701	C170	0.098400	0.227400	0.769060
C1711	C171	0.129500	0.265100	0.735250
C1721	C172	0.154200	0.244600	0.695450
H1371	H137	0.152000	0.205700	0.689300
C1731	C173	0.182100	0.281500	0.665210
H1381	H138	0.198400	0.266600	0.638700
C1741	C174	0.135600	0.324100	0.742550
H1391	H139	0.120900	0.339800	0.769100
C1751	C175	0.163600	0.358500	0.710310
H1401	H140	0.166400	0.397700	0.715500
C1761	C176	0.999900	0.995400	0.912920
H1411	H141	0.014400	0.014400	0.938200
C1771	C177	0.000600	0.936300	0.912770
H1421	H142	0.015100	0.916400	0.937700
C1781	C178	0.957700	0.997600	0.842550
H1431	H143	0.941800	0.018400	0.818400
C1791	C179	0.957900	0.938900	0.840010
H1441	H144	0.943500	0.920900	0.814300
C1801	C180	0.979600	0.906800	0.875530
Cu131	Cu13	0.485830	0.639770	0.371450
N371	N37	0.537800	0.594580	0.417300
N381	N38	0.687100	0.411730	0.578420
N391	N39	0.479200	0.723580	0.371700
C1811	C181	0.576600	0.548700	0.406470
H1451	H145	0.583600	0.541000	0.376800
C1821	C182	0.606400	0.512500	0.436310
H1461	H146	0.632200	0.480900	0.426700
C1831	C183	0.530900	0.604900	0.460220
H1471	H147	0.505500	0.637200	0.468700
C1841	C184	0.559000	0.570900	0.492460
H1481	H148	0.551900	0.580000	0.521900
C1851	C185	0.598400	0.522600	0.480940
C1861	C186	0.629500	0.484900	0.514750
C1871	C187	0.654200	0.505400	0.554550
H1491	H149	0.652000	0.544300	0.560700
C1881	C188	0.682100	0.468500	0.584790
H1501	H150	0.698400	0.483400	0.611300
C1891	C189	0.635600	0.425900	0.507450
H1511	H151	0.620900	0.410200	0.480900
C1901	C190	0.663600	0.391500	0.539690
H1521	H152	0.666400	0.352300	0.534500
C1911	C191	0.499900	0.754600	0.337080
H1531	H153	0.514400	0.735600	0.311800
C1921	C192	0.500600	0.813700	0.337230
H1541	H154	0.515100	0.833600	0.312300
C1931	C193	0.457700	0.752400	0.407450
H1551	H155	0.441800	0.731600	0.431600
C1941	C194	0.457900	0.811100	0.409990
H1561	H156	0.443500	0.829100	0.435700
C1951	C195	0.479600	0.843200	0.374470
Cu141	Cu14	0.485830	0.139770	0.871450
N401	N40	0.537800	0.094580	0.917300
N411	N41	0.687100	0.911730	0.078420
N421	N42	0.479200	0.223580	0.871700
C1961	C196	0.576600	0.048700	0.906470
H1571	H157	0.583600	0.041000	0.876800
C1971	C197	0.606400	0.012500	0.936310
H1581	H158	0.632200	0.980900	0.926700
C1981	C198	0.530900	0.104900	0.960220
H1591	H159	0.505500	0.137200	0.968700
C1991	C199	0.559000	0.070900	0.992460
H1601	H160	0.551900	0.080000	0.021900
C2001	C200	0.598400	0.022600	0.980940
C2011	C201	0.629500	0.984900	0.014750
C2021	C202	0.654200	0.005400	0.054550
H1611	H161	0.652000	0.044300	0.060700
C2031	C203	0.682100	0.968500	0.084790
H1621	H162	0.698400	0.983400	0.111300
C2041	C204	0.635600	0.925900	0.007450
H1631	H163	0.620900	0.910200	0.980900
C2051	C205	0.663600	0.891500	0.039690
H1641	H164	0.666400	0.852300	0.034500
C2061	C206	0.499900	0.254600	0.837080
H1651	H165	0.514400	0.235600	0.811800
C2071	C207	0.500600	0.313700	0.837230
H1661	H166	0.515100	0.333600	0.812300
C2081	C208	0.457700	0.252400	0.907450
H1671	H167	0.441800	0.231600	0.931600
C2091	C209	0.457900	0.311100	0.909990
H1681	H168	0.443500	0.329100	0.935700
C2101	C210	0.479600	0.343200	0.874470
Cu151	Cu15	0.985830	0.639770	0.871450
N431	N43	0.037800	0.594580	0.917300
N441	N44	0.187100	0.411730	0.078420
N451	N45	0.979200	0.723580	0.871700
C2111	C211	0.076600	0.548700	0.906470
H1691	H169	0.083600	0.541000	0.876800
C2121	C212	0.106400	0.512500	0.936310
H1701	H170	0.132200	0.480900	0.926700
C2131	C213	0.030900	0.604900	0.960220
H1711	H171	0.005500	0.637200	0.968700
C2141	C214	0.059000	0.570900	0.992460
H1721	H172	0.051900	0.580000	0.021900
C2151	C215	0.098400	0.522600	0.980940
C2161	C216	0.129500	0.484900	0.014750
C2171	C217	0.154200	0.505400	0.054550
H1731	H173	0.152000	0.544300	0.060700
C2181	C218	0.182100	0.468500	0.084790
H1741	H174	0.198400	0.483400	0.111300
C2191	C219	0.135600	0.425900	0.007450
H1751	H175	0.120900	0.410200	0.980900
C2201	C220	0.163600	0.391500	0.039690
H1761	H176	0.166400	0.352300	0.034500
C2211	C221	0.999900	0.754600	0.837080
H1771	H177	0.014400	0.735600	0.811800
C2221	C222	0.000600	0.813700	0.837230
H1781	H178	0.015100	0.833600	0.812300
C2231	C223	0.957700	0.752400	0.907450
H1791	H179	0.941800	0.731600	0.931600
C2241	C224	0.957900	0.811100	0.909990
H1801	H180	0.943500	0.829100	0.935700
C2251	C225	0.979600	0.843200	0.874470
Cu161	Cu16	0.985830	0.139770	0.371450
N461	N46	0.037800	0.094580	0.417300
N471	N47	0.187100	0.911730	0.578420
N481	N48	0.979200	0.223580	0.371700
C2261	C226	0.076600	0.048700	0.406470
H1811	H181	0.083600	0.041000	0.376800
C2271	C227	0.106400	0.012500	0.436310
H1821	H182	0.132200	0.980900	0.426700
C2281	C228	0.030900	0.104900	0.460220
H1831	H183	0.005500	0.137200	0.468700
C2291	C229	0.059000	0.070900	0.492460
H1841	H184	0.051900	0.080000	0.521900
C2301	C230	0.098400	0.022600	0.480940
C2311	C231	0.129500	0.984900	0.514750
C2321	C232	0.154200	0.005400	0.554550
H1851	H185	0.152000	0.044300	0.560700
C2331	C233	0.182100	0.968500	0.584790
H1861	H186	0.198400	0.983400	0.611300
C2341	C234	0.135600	0.925900	0.507450
H1871	H187	0.120900	0.910200	0.480900
C2351	C235	0.163600	0.891500	0.539690
H1881	H188	0.166400	0.852300	0.534500
C2361	C236	0.999900	0.254600	0.337080
H1891	H189	0.014400	0.235600	0.311800
C2371	C237	0.000600	0.313700	0.337230
H1901	H190	0.015100	0.333600	0.312300
C2381	C238	0.957700	0.252400	0.407450
H1911	H191	0.941800	0.231600	0.431600
C2391	C239	0.957900	0.311100	0.409990
H1921	H192	0.943500	0.329100	0.435700
C2401	C240	0.979600	0.343200	0.374470
Cu171	Cu17	0.514170	0.389770	0.121450
N491	N49	0.462200	0.344580	0.167300
N501	N50	0.312900	0.161730	0.328420
N511	N51	0.520800	0.473580	0.121700
C2411	C241	0.423400	0.298700	0.156470
H1931	H193	0.416400	0.291000	0.126800
C2421	C242	0.393600	0.262500	0.186310
H1941	H194	0.367800	0.230900	0.176700
C2431	C243	0.469100	0.354900	0.210220
H1951	H195	0.494500	0.387200	0.218700
C2441	C244	0.441000	0.320900	0.242460
H1961	H196	0.448100	0.330000	0.271900
C2451	C245	0.401600	0.272600	0.230940
C2461	C246	0.370500	0.234900	0.264750
C2471	C247	0.345800	0.255400	0.304550
H1971	H197	0.348000	0.294300	0.310700
C2481	C248	0.317900	0.218500	0.334790
H1981	H198	0.301600	0.233400	0.361300
C2491	C249	0.364400	0.175900	0.257450
H1991	H199	0.379100	0.160200	0.230900
C2501	C250	0.336400	0.141500	0.289690
H2001	H200	0.333600	0.102300	0.284500
C2511	C251	0.500100	0.504600	0.087080
H2011	H201	0.485600	0.485600	0.061800
C2521	C252	0.499400	0.563700	0.087230
H2021	H202	0.484900	0.583600	0.062300
C2531	C253	0.542300	0.502400	0.157450
H2031	H203	0.558200	0.481600	0.181600
C2541	C254	0.542100	0.561100	0.159990
H2041	H204	0.556500	0.579100	0.185700
C2551	C255	0.520400	0.593200	0.124470
Cu181	Cu18	0.514170	0.889770	0.621450
N521	N52	0.462200	0.844580	0.667300
N531	N53	0.312900	0.661730	0.828420
N541	N54	0.520800	0.973580	0.621700
C2561	C256	0.423400	0.798700	0.656470
H2051	H205	0.416400	0.791000	0.626800
C2571	C257	0.393600	0.762500	0.686310
H2061	H206	0.367800	0.730900	0.676700
C2581	C258	0.469100	0.854900	0.710220
H2071	H207	0.494500	0.887200	0.718700
C2591	C259	0.441000	0.820900	0.742460
H2081	H208	0.448100	0.830000	0.771900
C2601	C260	0.401600	0.772600	0.730940
C2611	C261	0.370500	0.734900	0.764750
C2621	C262	0.345800	0.755400	0.804550
H2091	H209	0.348000	0.794300	0.810700
C2631	C263	0.317900	0.718500	0.834790
H2101	H210	0.301600	0.733400	0.861300
C2641	C264	0.364400	0.675900	0.757450
H2111	H211	0.379100	0.660200	0.730900
C2651	C265	0.336400	0.641500	0.789690
H2121	H212	0.333600	0.602300	0.784500
C2661	C266	0.500100	0.004600	0.587080
H2131	H213	0.485600	0.985600	0.561800
C2671	C267	0.499400	0.063700	0.587230
H2141	H214	0.484900	0.083600	0.562300
C2681	C268	0.542300	0.002400	0.657450
H2151	H215	0.558200	0.981600	0.681600
C2691	C269	0.542100	0.061100	0.659990
H2161	H216	0.556500	0.079100	0.685700
C2701	C270	0.520400	0.093200	0.624470
Cu191	Cu19	0.014170	0.389770	0.621450
N551	N55	0.962200	0.344580	0.667300
N561	N56	0.812900	0.161730	0.828420
N571	N57	0.020800	0.473580	0.621700
C2711	C271	0.923400	0.298700	0.656470
H2171	H217	0.916400	0.291000	0.626800
C2721	C272	0.893600	0.262500	0.686310
H2181	H218	0.867800	0.230900	0.676700
C2731	C273	0.969100	0.354900	0.710220
H2191	H219	0.994500	0.387200	0.718700
C2741	C274	0.941000	0.320900	0.742460
H2201	H220	0.948100	0.330000	0.771900
C2751	C275	0.901600	0.272600	0.730940
C2761	C276	0.870500	0.234900	0.764750
C2771	C277	0.845800	0.255400	0.804550
H2211	H221	0.848000	0.294300	0.810700
C2781	C278	0.817900	0.218500	0.834790
H2221	H222	0.801600	0.233400	0.861300
C2791	C279	0.864400	0.175900	0.757450
H2231	H223	0.879100	0.160200	0.730900
C2801	C280	0.836400	0.141500	0.789690
H2241	H224	0.833600	0.102300	0.784500
C2811	C281	0.000100	0.504600	0.587080
H2251	H225	0.985600	0.485600	0.561800
C2821	C282	0.999400	0.563700	0.587230
H2261	H226	0.984900	0.583600	0.562300
C2831	C283	0.042300	0.502400	0.657450
H2271	H227	0.058200	0.481600	0.681600
C2841	C284	0.042100	0.561100	0.659990
H2281	H228	0.056500	0.579100	0.685700
C2851	C285	0.020400	0.593200	0.624470
Cu201	Cu20	0.014170	0.889770	0.121450
N581	N58	0.962200	0.844580	0.167300
N591	N59	0.812900	0.661730	0.328420
N601	N60	0.020800	0.973580	0.121700
C2861	C286	0.923400	0.798700	0.156470
H2291	H229	0.916400	0.791000	0.126800
C2871	C287	0.893600	0.762500	0.186310
H2301	H230	0.867800	0.730900	0.176700
C2881	C288	0.969100	0.854900	0.210220
H2311	H231	0.994500	0.887200	0.218700
C2891	C289	0.941000	0.820900	0.242460
H2321	H232	0.948100	0.830000	0.271900
C2901	C290	0.901600	0.772600	0.230940
C2911	C291	0.870500	0.734900	0.264750
C2921	C292	0.845800	0.755400	0.304550
H2331	H233	0.848000	0.794300	0.310700
C2931	C293	0.817900	0.718500	0.334790
H2341	H234	0.801600	0.733400	0.361300
C2941	C294	0.864400	0.675900	0.257450
H2351	H235	0.879100	0.660200	0.230900
C2951	C295	0.836400	0.641500	0.289690
H2361	H236	0.833600	0.602300	0.284500
C2961	C296	0.000100	0.004600	0.087080
H2371	H237	0.985600	0.985600	0.061800
C2971	C297	0.999400	0.063700	0.087230
H2381	H238	0.984900	0.083600	0.062300
C2981	C298	0.042300	0.002400	0.157450
H2391	H239	0.058200	0.981600	0.181600
C2991	C299	0.042100	0.061100	0.159990
H2401	H240	0.056500	0.079100	0.185700
C3001	C300	0.020400	0.093200	0.124470
Cu211	Cu21	0.514170	0.360230	0.628550
N611	N61	0.462200	0.405420	0.582700
N621	N62	0.312900	0.588270	0.421580
N631	N63	0.520800	0.276420	0.628300
C3011	C301	0.423400	0.451300	0.593530
H2411	H241	0.416400	0.459000	0.623200
C3021	C302	0.393600	0.487500	0.563690
H2421	H242	0.367800	0.519100	0.573300
C3031	C303	0.469100	0.395100	0.539780
H2431	H243	0.494500	0.362800	0.531300
C3041	C304	0.441000	0.429100	0.507540
H2441	H244	0.448100	0.420000	0.478100
C3051	C305	0.401600	0.477400	0.519060
C3061	C306	0.370500	0.515100	0.485250
C3071	C307	0.345800	0.494600	0.445450
H2451	H245	0.348000	0.455700	0.439300
C3081	C308	0.317900	0.531500	0.415210
H2461	H246	0.301600	0.516600	0.388700
C3091	C309	0.364400	0.574100	0.492550
H2471	H247	0.379100	0.589800	0.519100
C3101	C310	0.336400	0.608500	0.460310
H2481	H248	0.333600	0.647700	0.465500
C3111	C311	0.500100	0.245400	0.662920
H2491	H249	0.485600	0.264400	0.688200
C3121	C312	0.499400	0.186300	0.662770
H2501	H250	0.484900	0.166400	0.687700
C3131	C313	0.542300	0.247600	0.592550
H2511	H251	0.558200	0.268400	0.568400
C3141	C314	0.542100	0.188900	0.590010
H2521	H252	0.556500	0.170900	0.564300
C3151	C315	0.520400	0.156800	0.625530
Cu221	Cu22	0.514170	0.860230	0.128550
N641	N64	0.462200	0.905420	0.082700
N651	N65	0.312900	0.088270	0.921580
N661	N66	0.520800	0.776420	0.128300
C3161	C316	0.423400	0.951300	0.093530
H2531	H253	0.416400	0.959000	0.123200
C3171	C317	0.393600	0.987500	0.063690
H2541	H254	0.367800	0.019100	0.073300
C3181	C318	0.469100	0.895100	0.039780
H2551	H255	0.494500	0.862800	0.031300
C3191	C319	0.441000	0.929100	0.007540
H2561	H256	0.448100	0.920000	0.978100
C3201	C320	0.401600	0.977400	0.019060
C3211	C321	0.370500	0.015100	0.985250
C3221	C322	0.345800	0.994600	0.945450
H2571	H257	0.348000	0.955700	0.939300
C3231	C323	0.317900	0.031500	0.915210
H2581	H258	0.301600	0.016600	0.888700
C3241	C324	0.364400	0.074100	0.992550
H2591	H259	0.379100	0.089800	0.019100
C3251	C325	0.336400	0.108500	0.960310
H2601	H260	0.333600	0.147700	0.965500
C3261	C326	0.500100	0.745400	0.162920
H2611	H261	0.485600	0.764400	0.188200
C3271	C327	0.499400	0.686300	0.162770
H2621	H262	0.484900	0.666400	0.187700
C3281	C328	0.542300	0.747600	0.092550
H2631	H263	0.558200	0.768400	0.068400
C3291	C329	0.542100	0.688900	0.090010
H2641	H264	0.556500	0.670900	0.064300
C3301	C330	0.520400	0.656800	0.125530
Cu231	Cu23	0.014170	0.360230	0.128550
N671	N67	0.962200	0.405420	0.082700
N681	N68	0.812900	0.588270	0.921580
N691	N69	0.020800	0.276420	0.128300
C3311	C331	0.923400	0.451300	0.093530
H2651	H265	0.916400	0.459000	0.123200
C3321	C332	0.893600	0.487500	0.063690
H2661	H266	0.867800	0.519100	0.073300
C3331	C333	0.969100	0.395100	0.039780
H2671	H267	0.994500	0.362800	0.031300
C3341	C334	0.941000	0.429100	0.007540
H2681	H268	0.948100	0.420000	0.978100
C3351	C335	0.901600	0.477400	0.019060
C3361	C336	0.870500	0.515100	0.985250
C3371	C337	0.845800	0.494600	0.945450
H2691	H269	0.848000	0.455700	0.939300
C3381	C338	0.817900	0.531500	0.915210
H2701	H270	0.801600	0.516600	0.888700
C3391	C339	0.864400	0.574100	0.992550
H2711	H271	0.879100	0.589800	0.019100
C3401	C340	0.836400	0.608500	0.960310
H2721	H272	0.833600	0.647700	0.965500
C3411	C341	0.000100	0.245400	0.162920
H2731	H273	0.985600	0.264400	0.188200
C3421	C342	0.999400	0.186300	0.162770
H2741	H274	0.984900	0.166400	0.187700
C3431	C343	0.042300	0.247600	0.092550
H2751	H275	0.058200	0.268400	0.068400
C3441	C344	0.042100	0.188900	0.090010
H2761	H276	0.056500	0.170900	0.064300
C3451	C345	0.020400	0.156800	0.125530
Cu241	Cu24	0.014170	0.860230	0.628550
N701	N70	0.962200	0.905420	0.582700
N711	N71	0.812900	0.088270	0.421580
N721	N72	0.020800	0.776420	0.628300
C3461	C346	0.923400	0.951300	0.593530
H2771	H277	0.916400	0.959000	0.623200
C3471	C347	0.893600	0.987500	0.563690
H2781	H278	0.867800	0.019100	0.573300
C3481	C348	0.969100	0.895100	0.539780
H2791	H279	0.994500	0.862800	0.531300
C3491	C349	0.941000	0.929100	0.507540
H2801	H280	0.948100	0.920000	0.478100
C3501	C350	0.901600	0.977400	0.519060
C3511	C351	0.870500	0.015100	0.485250
C3521	C352	0.845800	0.994600	0.445450
H2811	H281	0.848000	0.955700	0.439300
C3531	C353	0.817900	0.031500	0.415210
H2821	H282	0.801600	0.016600	0.388700
C3541	C354	0.864400	0.074100	0.492550
H2831	H283	0.879100	0.089800	0.519100
C3551	C355	0.836400	0.108500	0.460310
H2841	H284	0.833600	0.147700	0.465500
C3561	C356	0.000100	0.745400	0.662920
H2851	H285	0.985600	0.764400	0.688200
C3571	C357	0.999400	0.686300	0.662770
H2861	H286	0.984900	0.666400	0.687700
C3581	C358	0.042300	0.747600	0.592550
H2871	H287	0.058200	0.768400	0.568400
C3591	C359	0.042100	0.688900	0.590010
H2881	H288	0.056500	0.670900	0.564300
C3601	C360	0.020400	0.656800	0.625530
Cu251	Cu25	0.764170	0.639770	0.878550
N731	N73	0.712200	0.594580	0.832700
N741	N74	0.562900	0.411730	0.671580
N751	N75	0.770800	0.723580	0.878300
C3611	C361	0.673400	0.548700	0.843530
H2891	H289	0.666400	0.541000	0.873200
C3621	C362	0.643600	0.512500	0.813690
H2901	H290	0.617800	0.480900	0.823300
C3631	C363	0.719100	0.604900	0.789780
H2911	H291	0.744500	0.637200	0.781300
C3641	C364	0.691000	0.570900	0.757540
H2921	H292	0.698100	0.580000	0.728100
C3651	C365	0.651600	0.522600	0.769060
C3661	C366	0.620500	0.484900	0.735250
C3671	C367	0.595800	0.505400	0.695450
H2931	H293	0.598000	0.544300	0.689300
C3681	C368	0.567900	0.468500	0.665210
H2941	H294	0.551600	0.483400	0.638700
C3691	C369	0.614400	0.425900	0.742550
H2951	H295	0.629100	0.410200	0.769100
C3701	C370	0.586400	0.391500	0.710310
H2961	H296	0.583600	0.352300	0.715500
C3711	C371	0.750100	0.754600	0.912920
H2971	H297	0.735600	0.735600	0.938200
C3721	C372	0.749400	0.813700	0.912770
H2981	H298	0.734900	0.833600	0.937700
C3731	C373	0.792300	0.752400	0.842550
H2991	H299	0.808200	0.731600	0.818400
C3741	C374	0.792100	0.811100	0.840010
H3001	H300	0.806500	0.829100	0.814300
C3751	C375	0.770400	0.843200	0.875530
Cu261	Cu26	0.764170	0.139770	0.378550
N761	N76	0.712200	0.094580	0.332700
N771	N77	0.562900	0.911730	0.171580
N781	N78	0.770800	0.223580	0.378300
C3761	C376	0.673400	0.048700	0.343530
H3011	H301	0.666400	0.041000	0.373200
C3771	C377	0.643600	0.012500	0.313690
H3021	H302	0.617800	0.980900	0.323300
C3781	C378	0.719100	0.104900	0.289780
H3031	H303	0.744500	0.137200	0.281300
C3791	C379	0.691000	0.070900	0.257540
H3041	H304	0.698100	0.080000	0.228100
C3801	C380	0.651600	0.022600	0.269060
C3811	C381	0.620500	0.984900	0.235250
C3821	C382	0.595800	0.005400	0.195450
H3051	H305	0.598000	0.044300	0.189300
C3831	C383	0.567900	0.968500	0.165210
H3061	H306	0.551600	0.983400	0.138700
C3841	C384	0.614400	0.925900	0.242550
H3071	H307	0.629100	0.910200	0.269100
C3851	C385	0.586400	0.891500	0.210310
H3081	H308	0.583600	0.852300	0.215500
C3861	C386	0.750100	0.254600	0.412920
H3091	H309	0.735600	0.235600	0.438200
C3871	C387	0.749400	0.313700	0.412770
H3101	H310	0.734900	0.333600	0.437700
C3881	C388	0.792300	0.252400	0.342550
H3111	H311	0.808200	0.231600	0.318400
C3891	C389	0.792100	0.311100	0.340010
H3121	H312	0.806500	0.329100	0.314300
C3901	C390	0.770400	0.343200	0.375530
Cu271	Cu27	0.264170	0.639770	0.378550
N791	N79	0.212200	0.594580	0.332700
N801	N80	0.062900	0.411730	0.171580
N811	N81	0.270800	0.723580	0.378300
C3911	C391	0.173400	0.548700	0.343530
H3131	H313	0.166400	0.541000	0.373200
C3921	C392	0.143600	0.512500	0.313690
H3141	H314	0.117800	0.480900	0.323300
C3931	C393	0.219100	0.604900	0.289780
H3151	H315	0.244500	0.637200	0.281300
C3941	C394	0.191000	0.570900	0.257540
H3161	H316	0.198100	0.580000	0.228100
C3951	C395	0.151600	0.522600	0.269060
C3961	C396	0.120500	0.484900	0.235250
C3971	C397	0.095800	0.505400	0.195450
H3171	H317	0.098000	0.544300	0.189300
C3981	C398	0.067900	0.468500	0.165210
H3181	H318	0.051600	0.483400	0.138700
C3991	C399	0.114400	0.425900	0.242550
H3191	H319	0.129100	0.410200	0.269100
C4001	C400	0.086400	0.391500	0.210310
H3201	H320	0.083600	0.352300	0.215500
C4011	C401	0.250100	0.754600	0.412920
H3211	H321	0.235600	0.735600	0.438200
C4021	C402	0.249400	0.813700	0.412770
H3221	H322	0.234900	0.833600	0.437700
C4031	C403	0.292300	0.752400	0.342550
H3231	H323	0.308200	0.731600	0.318400
C4041	C404	0.292100	0.811100	0.340010
H3241	H324	0.306500	0.829100	0.314300
C4051	C405	0.270400	0.843200	0.375530
Cu281	Cu28	0.264170	0.139770	0.878550
N821	N82	0.212200	0.094580	0.832700
N831	N83	0.062900	0.911730	0.671580
N841	N84	0.270800	0.223580	0.878300
C4061	C406	0.173400	0.048700	0.843530
H3251	H325	0.166400	0.041000	0.873200
C4071	C407	0.143600	0.012500	0.813690
H3261	H326	0.117800	0.980900	0.823300
C4081	C408	0.219100	0.104900	0.789780
H3271	H327	0.244500	0.137200	0.781300
C4091	C409	0.191000	0.070900	0.757540
H3281	H328	0.198100	0.080000	0.728100
C4101	C410	0.151600	0.022600	0.769060
C4111	C411	0.120500	0.984900	0.735250
C4121	C412	0.095800	0.005400	0.695450
H3291	H329	0.098000	0.044300	0.689300
C4131	C413	0.067900	0.968500	0.665210
H3301	H330	0.051600	0.983400	0.638700
C4141	C414	0.114400	0.925900	0.742550
H3311	H331	0.129100	0.910200	0.769100
C4151	C415	0.086400	0.891500	0.710310
H3321	H332	0.083600	0.852300	0.715500
C4161	C416	0.250100	0.254600	0.912920
H3331	H333	0.235600	0.235600	0.938200
C4171	C417	0.249400	0.313700	0.912770
H3341	H334	0.234900	0.333600	0.937700
C4181	C418	0.292300	0.252400	0.842550
H3351	H335	0.308200	0.231600	0.818400
C4191	C419	0.292100	0.311100	0.840010
H3361	H336	0.306500	0.329100	0.814300
C4201	C420	0.270400	0.343200	0.875530
Cu291	Cu29	0.764170	0.610230	0.371450
N851	N85	0.712200	0.655420	0.417300
N861	N86	0.562900	0.838270	0.578420
N871	N87	0.770800	0.526420	0.371700
C4211	C421	0.673400	0.701300	0.406470
H3371	H337	0.666400	0.709000	0.376800
C4221	C422	0.643600	0.737500	0.436310
H3381	H338	0.617800	0.769100	0.426700
C4231	C423	0.719100	0.645100	0.460220
H3391	H339	0.744500	0.612800	0.468700
C4241	C424	0.691000	0.679100	0.492460
H3401	H340	0.698100	0.670000	0.521900
C4251	C425	0.651600	0.727400	0.480940
C4261	C426	0.620500	0.765100	0.514750
C4271	C427	0.595800	0.744600	0.554550
H3411	H341	0.598000	0.705700	0.560700
C4281	C428	0.567900	0.781500	0.584790
H3421	H342	0.551600	0.766600	0.611300
C4291	C429	0.614400	0.824100	0.507450
H3431	H343	0.629100	0.839800	0.480900
C4301	C430	0.586400	0.858500	0.539690
H3441	H344	0.583600	0.897700	0.534500
C4311	C431	0.750100	0.495400	0.337080
H3451	H345	0.735600	0.514400	0.311800
C4321	C432	0.749400	0.436300	0.337230
H3461	H346	0.734900	0.416400	0.312300
C4331	C433	0.792300	0.497600	0.407450
H3471	H347	0.808200	0.518400	0.431600
C4341	C434	0.792100	0.438900	0.409990
H3481	H348	0.806500	0.420900	0.435700
C4351	C435	0.770400	0.406800	0.374470
Cu301	Cu30	0.764170	0.110230	0.871450
N881	N88	0.712200	0.155420	0.917300
N891	N89	0.562900	0.338270	0.078420
N901	N90	0.770800	0.026420	0.871700
C4361	C436	0.673400	0.201300	0.906470
H3491	H349	0.666400	0.209000	0.876800
C4371	C437	0.643600	0.237500	0.936310
H3501	H350	0.617800	0.269100	0.926700
C4381	C438	0.719100	0.145100	0.960220
H3511	H351	0.744500	0.112800	0.968700
C4391	C439	0.691000	0.179100	0.992460
H3521	H352	0.698100	0.170000	0.021900
C4401	C440	0.651600	0.227400	0.980940
C4411	C441	0.620500	0.265100	0.014750
C4421	C442	0.595800	0.244600	0.054550
H3531	H353	0.598000	0.205700	0.060700
C4431	C443	0.567900	0.281500	0.084790
H3541	H354	0.551600	0.266600	0.111300
C4441	C444	0.614400	0.324100	0.007450
H3551	H355	0.629100	0.339800	0.980900
C4451	C445	0.586400	0.358500	0.039690
H3561	H356	0.583600	0.397700	0.034500
C4461	C446	0.750100	0.995400	0.837080
H3571	H357	0.735600	0.014400	0.811800
C4471	C447	0.749400	0.936300	0.837230
H3581	H358	0.734900	0.916400	0.812300
C4481	C448	0.792300	0.997600	0.907450
H3591	H359	0.808200	0.018400	0.931600
C4491	C449	0.792100	0.938900	0.909990
H3601	H360	0.806500	0.920900	0.935700
C4501	C450	0.770400	0.906800	0.874470
Cu311	Cu31	0.264170	0.610230	0.871450
N911	N91	0.212200	0.655420	0.917300
N921	N92	0.062900	0.838270	0.078420
N931	N93	0.270800	0.526420	0.871700
C4511	C451	0.173400	0.701300	0.906470
H3611	H361	0.166400	0.709000	0.876800
C4521	C452	0.143600	0.737500	0.936310
H3621	H362	0.117800	0.769100	0.926700
C4531	C453	0.219100	0.645100	0.960220
H3631	H363	0.244500	0.612800	0.968700
C4541	C454	0.191000	0.679100	0.992460
H3641	H364	0.198100	0.670000	0.021900
C4551	C455	0.151600	0.727400	0.980940
C4561	C456	0.120500	0.765100	0.014750
C4571	C457	0.095800	0.744600	0.054550
H3651	H365	0.098000	0.705700	0.060700
C4581	C458	0.067900	0.781500	0.084790
H3661	H366	0.051600	0.766600	0.111300
C4591	C459	0.114400	0.824100	0.007450
H3671	H367	0.129100	0.839800	0.980900
C4601	C460	0.086400	0.858500	0.039690
H3681	H368	0.083600	0.897700	0.034500
C4611	C461	0.250100	0.495400	0.837080
H3691	H369	0.235600	0.514400	0.811800
C4621	C462	0.249400	0.436300	0.837230
H3701	H370	0.234900	0.416400	0.812300
C4631	C463	0.292300	0.497600	0.907450
H3711	H371	0.308200	0.518400	0.931600
C4641	C464	0.292100	0.438900	0.909990
H3721	H372	0.306500	0.420900	0.935700
C4651	C465	0.270400	0.406800	0.874470
Cu321	Cu32	0.264170	0.110230	0.371450
N941	N94	0.212200	0.155420	0.417300
N951	N95	0.062900	0.338270	0.578420
N961	N96	0.270800	0.026420	0.371700
C4661	C466	0.173400	0.201300	0.406470
H3731	H373	0.166400	0.209000	0.376800
C4671	C467	0.143600	0.237500	0.436310
H3741	H374	0.117800	0.269100	0.426700
C4681	C468	0.219100	0.145100	0.460220
H3751	H375	0.244500	0.112800	0.468700
C4691	C469	0.191000	0.179100	0.492460
H3761	H376	0.198100	0.170000	0.521900
C4701	C470	0.151600	0.227400	0.480940
C4711	C471	0.120500	0.265100	0.514750
C4721	C472	0.095800	0.244600	0.554550
H3771	H377	0.098000	0.205700	0.560700
C4731	C473	0.067900	0.281500	0.584790
H3781	H378	0.051600	0.266600	0.611300
C4741	C474	0.114400	0.324100	0.507450
H3791	H379	0.129100	0.339800	0.480900
C4751	C475	0.086400	0.358500	0.539690
H3801	H380	0.083600	0.397700	0.534500
C4761	C476	0.250100	0.995400	0.337080
H3811	H381	0.235600	0.014400	0.311800
C4771	C477	0.249400	0.936300	0.337230
H3821	H382	0.234900	0.916400	0.312300
C4781	C478	0.292300	0.997600	0.407450
H3831	H383	0.308200	0.018400	0.431600
C4791	C479	0.292100	0.938900	0.409990
H3841	H384	0.306500	0.920900	0.435700
C4801	C480	0.270400	0.906800	0.374470
