data_ATEYUV_clean_PM
_symmetry_space_group_name_H-M	'P1'
_cell_length_a	16.325700
_cell_length_b	59.167700
_cell_length_c	32.150800
_cell_angle_alpha	90.000000
_cell_angle_beta	90.000000
_cell_angle_gamma	90.000000
_symmetry_Int_Tables_number 1

loop_
_symmetry_equiv_pos_as_xyz
'x,y,z'

loop_
_atom_site_label
_atom_site_type_symbol
_atom_site_fract_x
_atom_site_fract_y
_atom_site_fract_z
Ho11	Ho1	0.761370	0.134270	0.729490
O11	O1	0.008130	0.130630	0.705390
O21	O2	0.888500	0.146400	0.713180
O31	O3	0.198300	0.137890	0.336200
O41	O4	0.226570	0.169940	0.307540
O51	O5	0.119900	0.095330	0.718760
O61	O6	0.227200	0.116140	0.707640
O71	O7	0.313700	0.105090	0.307680
O81	O8	0.431090	0.087600	0.307510
C11	C1	0.009800	0.237600	0.515690
C21	C2	0.997720	0.224390	0.551140
H11	H1	0.976200	0.231200	0.574800
C31	C3	0.017100	0.200970	0.552310
C41	C4	0.051600	0.191240	0.517420
H21	H2	0.066300	0.176100	0.517900
C51	C5	0.064800	0.204010	0.481230
C61	C6	0.042900	0.227370	0.481140
H31	H3	0.051300	0.235900	0.457200
C71	C7	0.002500	0.187160	0.589320
C81	C8	0.932900	0.189730	0.612450
H41	H4	0.895500	0.200900	0.605200
C91	C9	0.916600	0.176100	0.646360
H51	H5	0.868300	0.177900	0.661300
C101	C10	0.972700	0.159650	0.658080
C111	C11	0.041900	0.157010	0.636210
H61	H6	0.079800	0.146000	0.643900
C121	C12	0.056800	0.170620	0.602260
H71	H7	0.105200	0.168600	0.587500
C131	C13	0.956000	0.144290	0.695310
C141	C14	0.099500	0.192730	0.443930
C151	C15	0.096400	0.169850	0.438570
H81	H8	0.071700	0.161100	0.459000
C161	C16	0.128800	0.159070	0.403740
H91	H9	0.124600	0.143500	0.401100
C171	C17	0.165500	0.171080	0.374410
C181	C18	0.168400	0.193250	0.378730
H101	H10	0.193900	0.201800	0.358200
C191	C19	0.134300	0.204340	0.413240
H111	H11	0.136100	0.220000	0.414700
C201	C20	0.200200	0.159470	0.336770
C211	C21	0.253000	0.012990	0.513980
C221	C22	0.233700	0.025720	0.548710
H121	H12	0.217100	0.018400	0.572900
C231	C23	0.238500	0.049710	0.548570
C241	C24	0.261400	0.060700	0.512160
H131	H13	0.265200	0.076400	0.511500
C251	C25	0.278300	0.048230	0.477000
C261	C26	0.275400	0.024790	0.478300
H141	H14	0.289000	0.016700	0.454500
C271	C27	0.220700	0.062900	0.586350
C281	C28	0.267600	0.081800	0.597070
H151	H15	0.309800	0.086200	0.579400
C291	C29	0.254000	0.094000	0.632470
H161	H16	0.286600	0.106400	0.638600
C301	C30	0.192400	0.087840	0.658690
C311	C31	0.142500	0.069890	0.647840
H171	H17	0.097500	0.066400	0.664400
C321	C32	0.158400	0.057110	0.612690
H181	H18	0.126500	0.044500	0.606900
C331	C33	0.180500	0.101510	0.698590
C341	C34	0.303000	0.060240	0.437880
C351	C35	0.366700	0.052030	0.414050
H191	H19	0.395600	0.039300	0.422800
C361	C36	0.387400	0.062350	0.377980
H201	H20	0.430800	0.056800	0.362300
C371	C37	0.344400	0.081220	0.364060
C381	C38	0.281100	0.089730	0.387590
H211	H21	0.251600	0.102300	0.378500
C391	C39	0.262000	0.079400	0.424840
H221	H22	0.220800	0.085400	0.441400
C401	C40	0.365300	0.092570	0.323110
Ho21	Ho2	0.261370	0.634270	0.729490
O91	O9	0.508130	0.630630	0.705390
O101	O10	0.388500	0.646400	0.713180
O111	O11	0.698300	0.637890	0.336200
O121	O12	0.726570	0.669940	0.307540
O131	O13	0.619900	0.595330	0.718760
O141	O14	0.727200	0.616140	0.707640
O151	O15	0.813700	0.605090	0.307680
O161	O16	0.931090	0.587600	0.307510
C411	C41	0.509800	0.737600	0.515690
C421	C42	0.497720	0.724390	0.551140
H231	H23	0.476200	0.731200	0.574800
C431	C43	0.517100	0.700970	0.552310
C441	C44	0.551600	0.691240	0.517420
H241	H24	0.566300	0.676100	0.517900
C451	C45	0.564800	0.704010	0.481230
C461	C46	0.542900	0.727370	0.481140
H251	H25	0.551300	0.735900	0.457200
C471	C47	0.502500	0.687160	0.589320
C481	C48	0.432900	0.689730	0.612450
H261	H26	0.395500	0.700900	0.605200
C491	C49	0.416600	0.676100	0.646360
H271	H27	0.368300	0.677900	0.661300
C501	C50	0.472700	0.659650	0.658080
C511	C51	0.541900	0.657010	0.636210
H281	H28	0.579800	0.646000	0.643900
C521	C52	0.556800	0.670620	0.602260
H291	H29	0.605200	0.668600	0.587500
C531	C53	0.456000	0.644290	0.695310
C541	C54	0.599500	0.692730	0.443930
C551	C55	0.596400	0.669850	0.438570
H301	H30	0.571700	0.661100	0.459000
C561	C56	0.628800	0.659070	0.403740
H311	H31	0.624600	0.643500	0.401100
C571	C57	0.665500	0.671080	0.374410
C581	C58	0.668400	0.693250	0.378730
H321	H32	0.693900	0.701800	0.358200
C591	C59	0.634300	0.704340	0.413240
H331	H33	0.636100	0.720000	0.414700
C601	C60	0.700200	0.659470	0.336770
C611	C61	0.753000	0.512990	0.513980
C621	C62	0.733700	0.525720	0.548710
H341	H34	0.717100	0.518400	0.572900
C631	C63	0.738500	0.549710	0.548570
C641	C64	0.761400	0.560700	0.512160
H351	H35	0.765200	0.576400	0.511500
C651	C65	0.778300	0.548230	0.477000
C661	C66	0.775400	0.524790	0.478300
H361	H36	0.789000	0.516700	0.454500
C671	C67	0.720700	0.562900	0.586350
C681	C68	0.767600	0.581800	0.597070
H371	H37	0.809800	0.586200	0.579400
C691	C69	0.754000	0.594000	0.632470
H381	H38	0.786600	0.606400	0.638600
C701	C70	0.692400	0.587840	0.658690
C711	C71	0.642500	0.569890	0.647840
H391	H39	0.597500	0.566400	0.664400
C721	C72	0.658400	0.557110	0.612690
H401	H40	0.626500	0.544500	0.606900
C731	C73	0.680500	0.601510	0.698590
C741	C74	0.803000	0.560240	0.437880
C751	C75	0.866700	0.552030	0.414050
H411	H41	0.895600	0.539300	0.422800
C761	C76	0.887400	0.562350	0.377980
H421	H42	0.930800	0.556800	0.362300
C771	C77	0.844400	0.581220	0.364060
C781	C78	0.781100	0.589730	0.387590
H431	H43	0.751600	0.602300	0.378500
C791	C79	0.762000	0.579400	0.424840
H441	H44	0.720800	0.585400	0.441400
C801	C80	0.865300	0.592570	0.323110
Ho31	Ho3	0.738630	0.865730	0.729490
O171	O17	0.491870	0.869370	0.705390
O181	O18	0.611500	0.853600	0.713180
O191	O19	0.301700	0.862110	0.336200
O201	O20	0.273430	0.830060	0.307540
O211	O21	0.380100	0.904670	0.718760
O221	O22	0.272800	0.883860	0.707640
O231	O23	0.186300	0.894910	0.307680
O241	O24	0.068910	0.912400	0.307510
C811	C81	0.490200	0.762400	0.515690
C821	C82	0.502280	0.775610	0.551140
H451	H45	0.523800	0.768800	0.574800
C831	C83	0.482900	0.799030	0.552310
C841	C84	0.448400	0.808760	0.517420
H461	H46	0.433700	0.823900	0.517900
C851	C85	0.435200	0.795990	0.481230
C861	C86	0.457100	0.772630	0.481140
H471	H47	0.448700	0.764100	0.457200
C871	C87	0.497500	0.812840	0.589320
C881	C88	0.567100	0.810270	0.612450
H481	H48	0.604500	0.799100	0.605200
C891	C89	0.583400	0.823900	0.646360
H491	H49	0.631700	0.822100	0.661300
C901	C90	0.527300	0.840350	0.658080
C911	C91	0.458100	0.842990	0.636210
H501	H50	0.420200	0.854000	0.643900
C921	C92	0.443200	0.829380	0.602260
H511	H51	0.394800	0.831400	0.587500
C931	C93	0.544000	0.855710	0.695310
C941	C94	0.400500	0.807270	0.443930
C951	C95	0.403600	0.830150	0.438570
H521	H52	0.428300	0.838900	0.459000
C961	C96	0.371200	0.840930	0.403740
H531	H53	0.375400	0.856500	0.401100
C971	C97	0.334500	0.828920	0.374410
C981	C98	0.331600	0.806750	0.378730
H541	H54	0.306100	0.798200	0.358200
C991	C99	0.365700	0.795660	0.413240
H551	H55	0.363900	0.780000	0.414700
C1001	C100	0.299800	0.840530	0.336770
C1011	C101	0.247000	0.987010	0.513980
C1021	C102	0.266300	0.974280	0.548710
H561	H56	0.282900	0.981600	0.572900
C1031	C103	0.261500	0.950290	0.548570
C1041	C104	0.238600	0.939300	0.512160
H571	H57	0.234800	0.923600	0.511500
C1051	C105	0.221700	0.951770	0.477000
C1061	C106	0.224600	0.975210	0.478300
H581	H58	0.211000	0.983300	0.454500
C1071	C107	0.279300	0.937100	0.586350
C1081	C108	0.232400	0.918200	0.597070
H591	H59	0.190200	0.913800	0.579400
C1091	C109	0.246000	0.906000	0.632470
H601	H60	0.213400	0.893600	0.638600
C1101	C110	0.307600	0.912160	0.658690
C1111	C111	0.357500	0.930110	0.647840
H611	H61	0.402500	0.933600	0.664400
C1121	C112	0.341600	0.942890	0.612690
H621	H62	0.373500	0.955500	0.606900
C1131	C113	0.319500	0.898490	0.698590
C1141	C114	0.197000	0.939760	0.437880
C1151	C115	0.133300	0.947970	0.414050
H631	H63	0.104400	0.960700	0.422800
C1161	C116	0.112600	0.937650	0.377980
H641	H64	0.069200	0.943200	0.362300
C1171	C117	0.155600	0.918780	0.364060
C1181	C118	0.218900	0.910270	0.387590
H651	H65	0.248400	0.897700	0.378500
C1191	C119	0.238000	0.920600	0.424840
H661	H66	0.279200	0.914600	0.441400
C1201	C120	0.134700	0.907430	0.323110
Ho41	Ho4	0.238630	0.365730	0.729490
O251	O25	0.991870	0.369370	0.705390
O261	O26	0.111500	0.353600	0.713180
O271	O27	0.801700	0.362110	0.336200
O281	O28	0.773430	0.330060	0.307540
O291	O29	0.880100	0.404670	0.718760
O301	O30	0.772800	0.383860	0.707640
O311	O31	0.686300	0.394910	0.307680
O321	O32	0.568910	0.412400	0.307510
C1211	C121	0.990200	0.262400	0.515690
C1221	C122	0.002280	0.275610	0.551140
H671	H67	0.023800	0.268800	0.574800
C1231	C123	0.982900	0.299030	0.552310
C1241	C124	0.948400	0.308760	0.517420
H681	H68	0.933700	0.323900	0.517900
C1251	C125	0.935200	0.295990	0.481230
C1261	C126	0.957100	0.272630	0.481140
H691	H69	0.948700	0.264100	0.457200
C1271	C127	0.997500	0.312840	0.589320
C1281	C128	0.067100	0.310270	0.612450
H701	H70	0.104500	0.299100	0.605200
C1291	C129	0.083400	0.323900	0.646360
H711	H71	0.131700	0.322100	0.661300
C1301	C130	0.027300	0.340350	0.658080
C1311	C131	0.958100	0.342990	0.636210
H721	H72	0.920200	0.354000	0.643900
C1321	C132	0.943200	0.329380	0.602260
H731	H73	0.894800	0.331400	0.587500
C1331	C133	0.044000	0.355710	0.695310
C1341	C134	0.900500	0.307270	0.443930
C1351	C135	0.903600	0.330150	0.438570
H741	H74	0.928300	0.338900	0.459000
C1361	C136	0.871200	0.340930	0.403740
H751	H75	0.875400	0.356500	0.401100
C1371	C137	0.834500	0.328920	0.374410
C1381	C138	0.831600	0.306750	0.378730
H761	H76	0.806100	0.298200	0.358200
C1391	C139	0.865700	0.295660	0.413240
H771	H77	0.863900	0.280000	0.414700
C1401	C140	0.799800	0.340530	0.336770
C1411	C141	0.747000	0.487010	0.513980
C1421	C142	0.766300	0.474280	0.548710
H781	H78	0.782900	0.481600	0.572900
C1431	C143	0.761500	0.450290	0.548570
C1441	C144	0.738600	0.439300	0.512160
H791	H79	0.734800	0.423600	0.511500
C1451	C145	0.721700	0.451770	0.477000
C1461	C146	0.724600	0.475210	0.478300
H801	H80	0.711000	0.483300	0.454500
C1471	C147	0.779300	0.437100	0.586350
C1481	C148	0.732400	0.418200	0.597070
H811	H81	0.690200	0.413800	0.579400
C1491	C149	0.746000	0.406000	0.632470
H821	H82	0.713400	0.393600	0.638600
C1501	C150	0.807600	0.412160	0.658690
C1511	C151	0.857500	0.430110	0.647840
H831	H83	0.902500	0.433600	0.664400
C1521	C152	0.841600	0.442890	0.612690
H841	H84	0.873500	0.455500	0.606900
C1531	C153	0.819500	0.398490	0.698590
C1541	C154	0.697000	0.439760	0.437880
C1551	C155	0.633300	0.447970	0.414050
H851	H85	0.604400	0.460700	0.422800
C1561	C156	0.612600	0.437650	0.377980
H861	H86	0.569200	0.443200	0.362300
C1571	C157	0.655600	0.418780	0.364060
C1581	C158	0.718900	0.410270	0.387590
H871	H87	0.748400	0.397700	0.378500
C1591	C159	0.738000	0.420600	0.424840
H881	H88	0.779200	0.414600	0.441400
C1601	C160	0.634700	0.407430	0.323110
Ho51	Ho5	0.238630	0.134270	0.770510
O331	O33	0.991870	0.130630	0.794610
O341	O34	0.111500	0.146400	0.786820
O351	O35	0.801700	0.137890	0.163800
O361	O36	0.773430	0.169940	0.192460
O371	O37	0.880100	0.095330	0.781240
O381	O38	0.772800	0.116140	0.792360
O391	O39	0.686300	0.105090	0.192320
O401	O40	0.568910	0.087600	0.192490
C1611	C161	0.990200	0.237600	0.984310
C1621	C162	0.002280	0.224390	0.948860
H891	H89	0.023800	0.231200	0.925200
C1631	C163	0.982900	0.200970	0.947690
C1641	C164	0.948400	0.191240	0.982580
H901	H90	0.933700	0.176100	0.982100
C1651	C165	0.935200	0.204010	0.018770
C1661	C166	0.957100	0.227370	0.018860
H911	H91	0.948700	0.235900	0.042800
C1671	C167	0.997500	0.187160	0.910680
C1681	C168	0.067100	0.189730	0.887550
H921	H92	0.104500	0.200900	0.894800
C1691	C169	0.083400	0.176100	0.853640
H931	H93	0.131700	0.177900	0.838700
C1701	C170	0.027300	0.159650	0.841920
C1711	C171	0.958100	0.157010	0.863790
H941	H94	0.920200	0.146000	0.856100
C1721	C172	0.943200	0.170620	0.897740
H951	H95	0.894800	0.168600	0.912500
C1731	C173	0.044000	0.144290	0.804690
C1741	C174	0.900500	0.192730	0.056070
C1751	C175	0.903600	0.169850	0.061430
H961	H96	0.928300	0.161100	0.041000
C1761	C176	0.871200	0.159070	0.096260
H971	H97	0.875400	0.143500	0.098900
C1771	C177	0.834500	0.171080	0.125590
C1781	C178	0.831600	0.193250	0.121270
H981	H98	0.806100	0.201800	0.141800
C1791	C179	0.865700	0.204340	0.086760
H991	H99	0.863900	0.220000	0.085300
C1801	C180	0.799800	0.159470	0.163230
C1811	C181	0.747000	0.012990	0.986020
C1821	C182	0.766300	0.025720	0.951290
H1001	H100	0.782900	0.018400	0.927100
C1831	C183	0.761500	0.049710	0.951430
C1841	C184	0.738600	0.060700	0.987840
H1011	H101	0.734800	0.076400	0.988500
C1851	C185	0.721700	0.048230	0.023000
C1861	C186	0.724600	0.024790	0.021700
H1021	H102	0.711000	0.016700	0.045500
C1871	C187	0.779300	0.062900	0.913650
C1881	C188	0.732400	0.081800	0.902930
H1031	H103	0.690200	0.086200	0.920600
C1891	C189	0.746000	0.094000	0.867530
H1041	H104	0.713400	0.106400	0.861400
C1901	C190	0.807600	0.087840	0.841310
C1911	C191	0.857500	0.069890	0.852160
H1051	H105	0.902500	0.066400	0.835600
C1921	C192	0.841600	0.057110	0.887310
H1061	H106	0.873500	0.044500	0.893100
C1931	C193	0.819500	0.101510	0.801410
C1941	C194	0.697000	0.060240	0.062120
C1951	C195	0.633300	0.052030	0.085950
H1071	H107	0.604400	0.039300	0.077200
C1961	C196	0.612600	0.062350	0.122020
H1081	H108	0.569200	0.056800	0.137700
C1971	C197	0.655600	0.081220	0.135940
C1981	C198	0.718900	0.089730	0.112410
H1091	H109	0.748400	0.102300	0.121500
C1991	C199	0.738000	0.079400	0.075160
H1101	H110	0.779200	0.085400	0.058600
C2001	C200	0.634700	0.092570	0.176890
Ho61	Ho6	0.738630	0.634270	0.770510
O411	O41	0.491870	0.630630	0.794610
O421	O42	0.611500	0.646400	0.786820
O431	O43	0.301700	0.637890	0.163800
O441	O44	0.273430	0.669940	0.192460
O451	O45	0.380100	0.595330	0.781240
O461	O46	0.272800	0.616140	0.792360
O471	O47	0.186300	0.605090	0.192320
O481	O48	0.068910	0.587600	0.192490
C2011	C201	0.490200	0.737600	0.984310
C2021	C202	0.502280	0.724390	0.948860
H1111	H111	0.523800	0.731200	0.925200
C2031	C203	0.482900	0.700970	0.947690
C2041	C204	0.448400	0.691240	0.982580
H1121	H112	0.433700	0.676100	0.982100
C2051	C205	0.435200	0.704010	0.018770
C2061	C206	0.457100	0.727370	0.018860
H1131	H113	0.448700	0.735900	0.042800
C2071	C207	0.497500	0.687160	0.910680
C2081	C208	0.567100	0.689730	0.887550
H1141	H114	0.604500	0.700900	0.894800
C2091	C209	0.583400	0.676100	0.853640
H1151	H115	0.631700	0.677900	0.838700
C2101	C210	0.527300	0.659650	0.841920
C2111	C211	0.458100	0.657010	0.863790
H1161	H116	0.420200	0.646000	0.856100
C2121	C212	0.443200	0.670620	0.897740
H1171	H117	0.394800	0.668600	0.912500
C2131	C213	0.544000	0.644290	0.804690
C2141	C214	0.400500	0.692730	0.056070
C2151	C215	0.403600	0.669850	0.061430
H1181	H118	0.428300	0.661100	0.041000
C2161	C216	0.371200	0.659070	0.096260
H1191	H119	0.375400	0.643500	0.098900
C2171	C217	0.334500	0.671080	0.125590
C2181	C218	0.331600	0.693250	0.121270
H1201	H120	0.306100	0.701800	0.141800
C2191	C219	0.365700	0.704340	0.086760
H1211	H121	0.363900	0.720000	0.085300
C2201	C220	0.299800	0.659470	0.163230
C2211	C221	0.247000	0.512990	0.986020
C2221	C222	0.266300	0.525720	0.951290
H1221	H122	0.282900	0.518400	0.927100
C2231	C223	0.261500	0.549710	0.951430
C2241	C224	0.238600	0.560700	0.987840
H1231	H123	0.234800	0.576400	0.988500
C2251	C225	0.221700	0.548230	0.023000
C2261	C226	0.224600	0.524790	0.021700
H1241	H124	0.211000	0.516700	0.045500
C2271	C227	0.279300	0.562900	0.913650
C2281	C228	0.232400	0.581800	0.902930
H1251	H125	0.190200	0.586200	0.920600
C2291	C229	0.246000	0.594000	0.867530
H1261	H126	0.213400	0.606400	0.861400
C2301	C230	0.307600	0.587840	0.841310
C2311	C231	0.357500	0.569890	0.852160
H1271	H127	0.402500	0.566400	0.835600
C2321	C232	0.341600	0.557110	0.887310
H1281	H128	0.373500	0.544500	0.893100
C2331	C233	0.319500	0.601510	0.801410
C2341	C234	0.197000	0.560240	0.062120
C2351	C235	0.133300	0.552030	0.085950
H1291	H129	0.104400	0.539300	0.077200
C2361	C236	0.112600	0.562350	0.122020
H1301	H130	0.069200	0.556800	0.137700
C2371	C237	0.155600	0.581220	0.135940
C2381	C238	0.218900	0.589730	0.112410
H1311	H131	0.248400	0.602300	0.121500
C2391	C239	0.238000	0.579400	0.075160
H1321	H132	0.279200	0.585400	0.058600
C2401	C240	0.134700	0.592570	0.176890
Ho71	Ho7	0.261370	0.865730	0.770510
O491	O49	0.508130	0.869370	0.794610
O501	O50	0.388500	0.853600	0.786820
O511	O51	0.698300	0.862110	0.163800
O521	O52	0.726570	0.830060	0.192460
O531	O53	0.619900	0.904670	0.781240
O541	O54	0.727200	0.883860	0.792360
O551	O55	0.813700	0.894910	0.192320
O561	O56	0.931090	0.912400	0.192490
C2411	C241	0.509800	0.762400	0.984310
C2421	C242	0.497720	0.775610	0.948860
H1331	H133	0.476200	0.768800	0.925200
C2431	C243	0.517100	0.799030	0.947690
C2441	C244	0.551600	0.808760	0.982580
H1341	H134	0.566300	0.823900	0.982100
C2451	C245	0.564800	0.795990	0.018770
C2461	C246	0.542900	0.772630	0.018860
H1351	H135	0.551300	0.764100	0.042800
C2471	C247	0.502500	0.812840	0.910680
C2481	C248	0.432900	0.810270	0.887550
H1361	H136	0.395500	0.799100	0.894800
C2491	C249	0.416600	0.823900	0.853640
H1371	H137	0.368300	0.822100	0.838700
C2501	C250	0.472700	0.840350	0.841920
C2511	C251	0.541900	0.842990	0.863790
H1381	H138	0.579800	0.854000	0.856100
C2521	C252	0.556800	0.829380	0.897740
H1391	H139	0.605200	0.831400	0.912500
C2531	C253	0.456000	0.855710	0.804690
C2541	C254	0.599500	0.807270	0.056070
C2551	C255	0.596400	0.830150	0.061430
H1401	H140	0.571700	0.838900	0.041000
C2561	C256	0.628800	0.840930	0.096260
H1411	H141	0.624600	0.856500	0.098900
C2571	C257	0.665500	0.828920	0.125590
C2581	C258	0.668400	0.806750	0.121270
H1421	H142	0.693900	0.798200	0.141800
C2591	C259	0.634300	0.795660	0.086760
H1431	H143	0.636100	0.780000	0.085300
C2601	C260	0.700200	0.840530	0.163230
C2611	C261	0.753000	0.987010	0.986020
C2621	C262	0.733700	0.974280	0.951290
H1441	H144	0.717100	0.981600	0.927100
C2631	C263	0.738500	0.950290	0.951430
C2641	C264	0.761400	0.939300	0.987840
H1451	H145	0.765200	0.923600	0.988500
C2651	C265	0.778300	0.951770	0.023000
C2661	C266	0.775400	0.975210	0.021700
H1461	H146	0.789000	0.983300	0.045500
C2671	C267	0.720700	0.937100	0.913650
C2681	C268	0.767600	0.918200	0.902930
H1471	H147	0.809800	0.913800	0.920600
C2691	C269	0.754000	0.906000	0.867530
H1481	H148	0.786600	0.893600	0.861400
C2701	C270	0.692400	0.912160	0.841310
C2711	C271	0.642500	0.930110	0.852160
H1491	H149	0.597500	0.933600	0.835600
C2721	C272	0.658400	0.942890	0.887310
H1501	H150	0.626500	0.955500	0.893100
C2731	C273	0.680500	0.898490	0.801410
C2741	C274	0.803000	0.939760	0.062120
C2751	C275	0.866700	0.947970	0.085950
H1511	H151	0.895600	0.960700	0.077200
C2761	C276	0.887400	0.937650	0.122020
H1521	H152	0.930800	0.943200	0.137700
C2771	C277	0.844400	0.918780	0.135940
C2781	C278	0.781100	0.910270	0.112410
H1531	H153	0.751600	0.897700	0.121500
C2791	C279	0.762000	0.920600	0.075160
H1541	H154	0.720800	0.914600	0.058600
C2801	C280	0.865300	0.907430	0.176890
Ho81	Ho8	0.761370	0.365730	0.770510
O571	O57	0.008130	0.369370	0.794610
O581	O58	0.888500	0.353600	0.786820
O591	O59	0.198300	0.362110	0.163800
O601	O60	0.226570	0.330060	0.192460
O611	O61	0.119900	0.404670	0.781240
O621	O62	0.227200	0.383860	0.792360
O631	O63	0.313700	0.394910	0.192320
O641	O64	0.431090	0.412400	0.192490
C2811	C281	0.009800	0.262400	0.984310
C2821	C282	0.997720	0.275610	0.948860
H1551	H155	0.976200	0.268800	0.925200
C2831	C283	0.017100	0.299030	0.947690
C2841	C284	0.051600	0.308760	0.982580
H1561	H156	0.066300	0.323900	0.982100
C2851	C285	0.064800	0.295990	0.018770
C2861	C286	0.042900	0.272630	0.018860
H1571	H157	0.051300	0.264100	0.042800
C2871	C287	0.002500	0.312840	0.910680
C2881	C288	0.932900	0.310270	0.887550
H1581	H158	0.895500	0.299100	0.894800
C2891	C289	0.916600	0.323900	0.853640
H1591	H159	0.868300	0.322100	0.838700
C2901	C290	0.972700	0.340350	0.841920
C2911	C291	0.041900	0.342990	0.863790
H1601	H160	0.079800	0.354000	0.856100
C2921	C292	0.056800	0.329380	0.897740
H1611	H161	0.105200	0.331400	0.912500
C2931	C293	0.956000	0.355710	0.804690
C2941	C294	0.099500	0.307270	0.056070
C2951	C295	0.096400	0.330150	0.061430
H1621	H162	0.071700	0.338900	0.041000
C2961	C296	0.128800	0.340930	0.096260
H1631	H163	0.124600	0.356500	0.098900
C2971	C297	0.165500	0.328920	0.125590
C2981	C298	0.168400	0.306750	0.121270
H1641	H164	0.193900	0.298200	0.141800
C2991	C299	0.134300	0.295660	0.086760
H1651	H165	0.136100	0.280000	0.085300
C3001	C300	0.200200	0.340530	0.163230
C3011	C301	0.253000	0.487010	0.986020
C3021	C302	0.233700	0.474280	0.951290
H1661	H166	0.217100	0.481600	0.927100
C3031	C303	0.238500	0.450290	0.951430
C3041	C304	0.261400	0.439300	0.987840
H1671	H167	0.265200	0.423600	0.988500
C3051	C305	0.278300	0.451770	0.023000
C3061	C306	0.275400	0.475210	0.021700
H1681	H168	0.289000	0.483300	0.045500
C3071	C307	0.220700	0.437100	0.913650
C3081	C308	0.267600	0.418200	0.902930
H1691	H169	0.309800	0.413800	0.920600
C3091	C309	0.254000	0.406000	0.867530
H1701	H170	0.286600	0.393600	0.861400
C3101	C310	0.192400	0.412160	0.841310
C3111	C311	0.142500	0.430110	0.852160
H1711	H171	0.097500	0.433600	0.835600
C3121	C312	0.158400	0.442890	0.887310
H1721	H172	0.126500	0.455500	0.893100
C3131	C313	0.180500	0.398490	0.801410
C3141	C314	0.303000	0.439760	0.062120
C3151	C315	0.366700	0.447970	0.085950
H1731	H173	0.395600	0.460700	0.077200
C3161	C316	0.387400	0.437650	0.122020
H1741	H174	0.430800	0.443200	0.137700
C3171	C317	0.344400	0.418780	0.135940
C3181	C318	0.281100	0.410270	0.112410
H1751	H175	0.251600	0.397700	0.121500
C3191	C319	0.262000	0.420600	0.075160
H1761	H176	0.220800	0.414600	0.058600
C3201	C320	0.365300	0.407430	0.176890
Ho91	Ho9	0.238630	0.865730	0.270510
O651	O65	0.991870	0.869370	0.294610
O661	O66	0.111500	0.853600	0.286820
O671	O67	0.801700	0.862110	0.663800
O681	O68	0.773430	0.830060	0.692460
O691	O69	0.880100	0.904670	0.281240
O701	O70	0.772800	0.883860	0.292360
O711	O71	0.686300	0.894910	0.692320
O721	O72	0.568910	0.912400	0.692490
C3211	C321	0.990200	0.762400	0.484310
C3221	C322	0.002280	0.775610	0.448860
H1771	H177	0.023800	0.768800	0.425200
C3231	C323	0.982900	0.799030	0.447690
C3241	C324	0.948400	0.808760	0.482580
H1781	H178	0.933700	0.823900	0.482100
C3251	C325	0.935200	0.795990	0.518770
C3261	C326	0.957100	0.772630	0.518860
H1791	H179	0.948700	0.764100	0.542800
C3271	C327	0.997500	0.812840	0.410680
C3281	C328	0.067100	0.810270	0.387550
H1801	H180	0.104500	0.799100	0.394800
C3291	C329	0.083400	0.823900	0.353640
H1811	H181	0.131700	0.822100	0.338700
C3301	C330	0.027300	0.840350	0.341920
C3311	C331	0.958100	0.842990	0.363790
H1821	H182	0.920200	0.854000	0.356100
C3321	C332	0.943200	0.829380	0.397740
H1831	H183	0.894800	0.831400	0.412500
C3331	C333	0.044000	0.855710	0.304690
C3341	C334	0.900500	0.807270	0.556070
C3351	C335	0.903600	0.830150	0.561430
H1841	H184	0.928300	0.838900	0.541000
C3361	C336	0.871200	0.840930	0.596260
H1851	H185	0.875400	0.856500	0.598900
C3371	C337	0.834500	0.828920	0.625590
C3381	C338	0.831600	0.806750	0.621270
H1861	H186	0.806100	0.798200	0.641800
C3391	C339	0.865700	0.795660	0.586760
H1871	H187	0.863900	0.780000	0.585300
C3401	C340	0.799800	0.840530	0.663230
C3411	C341	0.747000	0.987010	0.486020
C3421	C342	0.766300	0.974280	0.451290
H1881	H188	0.782900	0.981600	0.427100
C3431	C343	0.761500	0.950290	0.451430
C3441	C344	0.738600	0.939300	0.487840
H1891	H189	0.734800	0.923600	0.488500
C3451	C345	0.721700	0.951770	0.523000
C3461	C346	0.724600	0.975210	0.521700
H1901	H190	0.711000	0.983300	0.545500
C3471	C347	0.779300	0.937100	0.413650
C3481	C348	0.732400	0.918200	0.402930
H1911	H191	0.690200	0.913800	0.420600
C3491	C349	0.746000	0.906000	0.367530
H1921	H192	0.713400	0.893600	0.361400
C3501	C350	0.807600	0.912160	0.341310
C3511	C351	0.857500	0.930110	0.352160
H1931	H193	0.902500	0.933600	0.335600
C3521	C352	0.841600	0.942890	0.387310
H1941	H194	0.873500	0.955500	0.393100
C3531	C353	0.819500	0.898490	0.301410
C3541	C354	0.697000	0.939760	0.562120
C3551	C355	0.633300	0.947970	0.585950
H1951	H195	0.604400	0.960700	0.577200
C3561	C356	0.612600	0.937650	0.622020
H1961	H196	0.569200	0.943200	0.637700
C3571	C357	0.655600	0.918780	0.635940
C3581	C358	0.718900	0.910270	0.612410
H1971	H197	0.748400	0.897700	0.621500
C3591	C359	0.738000	0.920600	0.575160
H1981	H198	0.779200	0.914600	0.558600
C3601	C360	0.634700	0.907430	0.676890
Ho101	Ho10	0.738630	0.365730	0.270510
O731	O73	0.491870	0.369370	0.294610
O741	O74	0.611500	0.353600	0.286820
O751	O75	0.301700	0.362110	0.663800
O761	O76	0.273430	0.330060	0.692460
O771	O77	0.380100	0.404670	0.281240
O781	O78	0.272800	0.383860	0.292360
O791	O79	0.186300	0.394910	0.692320
O801	O80	0.068910	0.412400	0.692490
C3611	C361	0.490200	0.262400	0.484310
C3621	C362	0.502280	0.275610	0.448860
H1991	H199	0.523800	0.268800	0.425200
C3631	C363	0.482900	0.299030	0.447690
C3641	C364	0.448400	0.308760	0.482580
H2001	H200	0.433700	0.323900	0.482100
C3651	C365	0.435200	0.295990	0.518770
C3661	C366	0.457100	0.272630	0.518860
H2011	H201	0.448700	0.264100	0.542800
C3671	C367	0.497500	0.312840	0.410680
C3681	C368	0.567100	0.310270	0.387550
H2021	H202	0.604500	0.299100	0.394800
C3691	C369	0.583400	0.323900	0.353640
H2031	H203	0.631700	0.322100	0.338700
C3701	C370	0.527300	0.340350	0.341920
C3711	C371	0.458100	0.342990	0.363790
H2041	H204	0.420200	0.354000	0.356100
C3721	C372	0.443200	0.329380	0.397740
H2051	H205	0.394800	0.331400	0.412500
C3731	C373	0.544000	0.355710	0.304690
C3741	C374	0.400500	0.307270	0.556070
C3751	C375	0.403600	0.330150	0.561430
H2061	H206	0.428300	0.338900	0.541000
C3761	C376	0.371200	0.340930	0.596260
H2071	H207	0.375400	0.356500	0.598900
C3771	C377	0.334500	0.328920	0.625590
C3781	C378	0.331600	0.306750	0.621270
H2081	H208	0.306100	0.298200	0.641800
C3791	C379	0.365700	0.295660	0.586760
H2091	H209	0.363900	0.280000	0.585300
C3801	C380	0.299800	0.340530	0.663230
C3811	C381	0.247000	0.487010	0.486020
C3821	C382	0.266300	0.474280	0.451290
H2101	H210	0.282900	0.481600	0.427100
C3831	C383	0.261500	0.450290	0.451430
C3841	C384	0.238600	0.439300	0.487840
H2111	H211	0.234800	0.423600	0.488500
C3851	C385	0.221700	0.451770	0.523000
C3861	C386	0.224600	0.475210	0.521700
H2121	H212	0.211000	0.483300	0.545500
C3871	C387	0.279300	0.437100	0.413650
C3881	C388	0.232400	0.418200	0.402930
H2131	H213	0.190200	0.413800	0.420600
C3891	C389	0.246000	0.406000	0.367530
H2141	H214	0.213400	0.393600	0.361400
C3901	C390	0.307600	0.412160	0.341310
C3911	C391	0.357500	0.430110	0.352160
H2151	H215	0.402500	0.433600	0.335600
C3921	C392	0.341600	0.442890	0.387310
H2161	H216	0.373500	0.455500	0.393100
C3931	C393	0.319500	0.398490	0.301410
C3941	C394	0.197000	0.439760	0.562120
C3951	C395	0.133300	0.447970	0.585950
H2171	H217	0.104400	0.460700	0.577200
C3961	C396	0.112600	0.437650	0.622020
H2181	H218	0.069200	0.443200	0.637700
C3971	C397	0.155600	0.418780	0.635940
C3981	C398	0.218900	0.410270	0.612410
H2191	H219	0.248400	0.397700	0.621500
C3991	C399	0.238000	0.420600	0.575160
H2201	H220	0.279200	0.414600	0.558600
C4001	C400	0.134700	0.407430	0.676890
Ho111	Ho11	0.261370	0.134270	0.270510
O811	O81	0.508130	0.130630	0.294610
O821	O82	0.388500	0.146400	0.286820
O831	O83	0.698300	0.137890	0.663800
O841	O84	0.726570	0.169940	0.692460
O851	O85	0.619900	0.095330	0.281240
O861	O86	0.727200	0.116140	0.292360
O871	O87	0.813700	0.105090	0.692320
O881	O88	0.931090	0.087600	0.692490
C4011	C401	0.509800	0.237600	0.484310
C4021	C402	0.497720	0.224390	0.448860
H2211	H221	0.476200	0.231200	0.425200
C4031	C403	0.517100	0.200970	0.447690
C4041	C404	0.551600	0.191240	0.482580
H2221	H222	0.566300	0.176100	0.482100
C4051	C405	0.564800	0.204010	0.518770
C4061	C406	0.542900	0.227370	0.518860
H2231	H223	0.551300	0.235900	0.542800
C4071	C407	0.502500	0.187160	0.410680
C4081	C408	0.432900	0.189730	0.387550
H2241	H224	0.395500	0.200900	0.394800
C4091	C409	0.416600	0.176100	0.353640
H2251	H225	0.368300	0.177900	0.338700
C4101	C410	0.472700	0.159650	0.341920
C4111	C411	0.541900	0.157010	0.363790
H2261	H226	0.579800	0.146000	0.356100
C4121	C412	0.556800	0.170620	0.397740
H2271	H227	0.605200	0.168600	0.412500
C4131	C413	0.456000	0.144290	0.304690
C4141	C414	0.599500	0.192730	0.556070
C4151	C415	0.596400	0.169850	0.561430
H2281	H228	0.571700	0.161100	0.541000
C4161	C416	0.628800	0.159070	0.596260
H2291	H229	0.624600	0.143500	0.598900
C4171	C417	0.665500	0.171080	0.625590
C4181	C418	0.668400	0.193250	0.621270
H2301	H230	0.693900	0.201800	0.641800
C4191	C419	0.634300	0.204340	0.586760
H2311	H231	0.636100	0.220000	0.585300
C4201	C420	0.700200	0.159470	0.663230
C4211	C421	0.753000	0.012990	0.486020
C4221	C422	0.733700	0.025720	0.451290
H2321	H232	0.717100	0.018400	0.427100
C4231	C423	0.738500	0.049710	0.451430
C4241	C424	0.761400	0.060700	0.487840
H2331	H233	0.765200	0.076400	0.488500
C4251	C425	0.778300	0.048230	0.523000
C4261	C426	0.775400	0.024790	0.521700
H2341	H234	0.789000	0.016700	0.545500
C4271	C427	0.720700	0.062900	0.413650
C4281	C428	0.767600	0.081800	0.402930
H2351	H235	0.809800	0.086200	0.420600
C4291	C429	0.754000	0.094000	0.367530
H2361	H236	0.786600	0.106400	0.361400
C4301	C430	0.692400	0.087840	0.341310
C4311	C431	0.642500	0.069890	0.352160
H2371	H237	0.597500	0.066400	0.335600
C4321	C432	0.658400	0.057110	0.387310
H2381	H238	0.626500	0.044500	0.393100
C4331	C433	0.680500	0.101510	0.301410
C4341	C434	0.803000	0.060240	0.562120
C4351	C435	0.866700	0.052030	0.585950
H2391	H239	0.895600	0.039300	0.577200
C4361	C436	0.887400	0.062350	0.622020
H2401	H240	0.930800	0.056800	0.637700
C4371	C437	0.844400	0.081220	0.635940
C4381	C438	0.781100	0.089730	0.612410
H2411	H241	0.751600	0.102300	0.621500
C4391	C439	0.762000	0.079400	0.575160
H2421	H242	0.720800	0.085400	0.558600
C4401	C440	0.865300	0.092570	0.676890
Ho121	Ho12	0.761370	0.634270	0.270510
O891	O89	0.008130	0.630630	0.294610
O901	O90	0.888500	0.646400	0.286820
O911	O91	0.198300	0.637890	0.663800
O921	O92	0.226570	0.669940	0.692460
O931	O93	0.119900	0.595330	0.281240
O941	O94	0.227200	0.616140	0.292360
O951	O95	0.313700	0.605090	0.692320
O961	O96	0.431090	0.587600	0.692490
C4411	C441	0.009800	0.737600	0.484310
C4421	C442	0.997720	0.724390	0.448860
H2431	H243	0.976200	0.731200	0.425200
C4431	C443	0.017100	0.700970	0.447690
C4441	C444	0.051600	0.691240	0.482580
H2441	H244	0.066300	0.676100	0.482100
C4451	C445	0.064800	0.704010	0.518770
C4461	C446	0.042900	0.727370	0.518860
H2451	H245	0.051300	0.735900	0.542800
C4471	C447	0.002500	0.687160	0.410680
C4481	C448	0.932900	0.689730	0.387550
H2461	H246	0.895500	0.700900	0.394800
C4491	C449	0.916600	0.676100	0.353640
H2471	H247	0.868300	0.677900	0.338700
C4501	C450	0.972700	0.659650	0.341920
C4511	C451	0.041900	0.657010	0.363790
H2481	H248	0.079800	0.646000	0.356100
C4521	C452	0.056800	0.670620	0.397740
H2491	H249	0.105200	0.668600	0.412500
C4531	C453	0.956000	0.644290	0.304690
C4541	C454	0.099500	0.692730	0.556070
C4551	C455	0.096400	0.669850	0.561430
H2501	H250	0.071700	0.661100	0.541000
C4561	C456	0.128800	0.659070	0.596260
H2511	H251	0.124600	0.643500	0.598900
C4571	C457	0.165500	0.671080	0.625590
C4581	C458	0.168400	0.693250	0.621270
H2521	H252	0.193900	0.701800	0.641800
C4591	C459	0.134300	0.704340	0.586760
H2531	H253	0.136100	0.720000	0.585300
C4601	C460	0.200200	0.659470	0.663230
C4611	C461	0.253000	0.512990	0.486020
C4621	C462	0.233700	0.525720	0.451290
H2541	H254	0.217100	0.518400	0.427100
C4631	C463	0.238500	0.549710	0.451430
C4641	C464	0.261400	0.560700	0.487840
H2551	H255	0.265200	0.576400	0.488500
C4651	C465	0.278300	0.548230	0.523000
C4661	C466	0.275400	0.524790	0.521700
H2561	H256	0.289000	0.516700	0.545500
C4671	C467	0.220700	0.562900	0.413650
C4681	C468	0.267600	0.581800	0.402930
H2571	H257	0.309800	0.586200	0.420600
C4691	C469	0.254000	0.594000	0.367530
H2581	H258	0.286600	0.606400	0.361400
C4701	C470	0.192400	0.587840	0.341310
C4711	C471	0.142500	0.569890	0.352160
H2591	H259	0.097500	0.566400	0.335600
C4721	C472	0.158400	0.557110	0.387310
H2601	H260	0.126500	0.544500	0.393100
C4731	C473	0.180500	0.601510	0.301410
C4741	C474	0.303000	0.560240	0.562120
C4751	C475	0.366700	0.552030	0.585950
H2611	H261	0.395600	0.539300	0.577200
C4761	C476	0.387400	0.562350	0.622020
H2621	H262	0.430800	0.556800	0.637700
C4771	C477	0.344400	0.581220	0.635940
C4781	C478	0.281100	0.589730	0.612410
H2631	H263	0.251600	0.602300	0.621500
C4791	C479	0.262000	0.579400	0.575160
H2641	H264	0.220800	0.585400	0.558600
C4801	C480	0.365300	0.592570	0.676890
Ho131	Ho13	0.761370	0.865730	0.229490
O971	O97	0.008130	0.869370	0.205390
O981	O98	0.888500	0.853600	0.213180
O991	O99	0.198300	0.862110	0.836200
O1001	O100	0.226570	0.830060	0.807540
O1011	O101	0.119900	0.904670	0.218760
O1021	O102	0.227200	0.883860	0.207640
O1031	O103	0.313700	0.894910	0.807680
O1041	O104	0.431090	0.912400	0.807510
C4811	C481	0.009800	0.762400	0.015690
C4821	C482	0.997720	0.775610	0.051140
H2651	H265	0.976200	0.768800	0.074800
C4831	C483	0.017100	0.799030	0.052310
C4841	C484	0.051600	0.808760	0.017420
H2661	H266	0.066300	0.823900	0.017900
C4851	C485	0.064800	0.795990	0.981230
C4861	C486	0.042900	0.772630	0.981140
H2671	H267	0.051300	0.764100	0.957200
C4871	C487	0.002500	0.812840	0.089320
C4881	C488	0.932900	0.810270	0.112450
H2681	H268	0.895500	0.799100	0.105200
C4891	C489	0.916600	0.823900	0.146360
H2691	H269	0.868300	0.822100	0.161300
C4901	C490	0.972700	0.840350	0.158080
C4911	C491	0.041900	0.842990	0.136210
H2701	H270	0.079800	0.854000	0.143900
C4921	C492	0.056800	0.829380	0.102260
H2711	H271	0.105200	0.831400	0.087500
C4931	C493	0.956000	0.855710	0.195310
C4941	C494	0.099500	0.807270	0.943930
C4951	C495	0.096400	0.830150	0.938570
H2721	H272	0.071700	0.838900	0.959000
C4961	C496	0.128800	0.840930	0.903740
H2731	H273	0.124600	0.856500	0.901100
C4971	C497	0.165500	0.828920	0.874410
C4981	C498	0.168400	0.806750	0.878730
H2741	H274	0.193900	0.798200	0.858200
C4991	C499	0.134300	0.795660	0.913240
H2751	H275	0.136100	0.780000	0.914700
C5001	C500	0.200200	0.840530	0.836770
C5011	C501	0.253000	0.987010	0.013980
C5021	C502	0.233700	0.974280	0.048710
H2761	H276	0.217100	0.981600	0.072900
C5031	C503	0.238500	0.950290	0.048570
C5041	C504	0.261400	0.939300	0.012160
H2771	H277	0.265200	0.923600	0.011500
C5051	C505	0.278300	0.951770	0.977000
C5061	C506	0.275400	0.975210	0.978300
H2781	H278	0.289000	0.983300	0.954500
C5071	C507	0.220700	0.937100	0.086350
C5081	C508	0.267600	0.918200	0.097070
H2791	H279	0.309800	0.913800	0.079400
C5091	C509	0.254000	0.906000	0.132470
H2801	H280	0.286600	0.893600	0.138600
C5101	C510	0.192400	0.912160	0.158690
C5111	C511	0.142500	0.930110	0.147840
H2811	H281	0.097500	0.933600	0.164400
C5121	C512	0.158400	0.942890	0.112690
H2821	H282	0.126500	0.955500	0.106900
C5131	C513	0.180500	0.898490	0.198590
C5141	C514	0.303000	0.939760	0.937880
C5151	C515	0.366700	0.947970	0.914050
H2831	H283	0.395600	0.960700	0.922800
C5161	C516	0.387400	0.937650	0.877980
H2841	H284	0.430800	0.943200	0.862300
C5171	C517	0.344400	0.918780	0.864060
C5181	C518	0.281100	0.910270	0.887590
H2851	H285	0.251600	0.897700	0.878500
C5191	C519	0.262000	0.920600	0.924840
H2861	H286	0.220800	0.914600	0.941400
C5201	C520	0.365300	0.907430	0.823110
Ho141	Ho14	0.261370	0.365730	0.229490
O1051	O105	0.508130	0.369370	0.205390
O1061	O106	0.388500	0.353600	0.213180
O1071	O107	0.698300	0.362110	0.836200
O1081	O108	0.726570	0.330060	0.807540
O1091	O109	0.619900	0.404670	0.218760
O1101	O110	0.727200	0.383860	0.207640
O1111	O111	0.813700	0.394910	0.807680
O1121	O112	0.931090	0.412400	0.807510
C5211	C521	0.509800	0.262400	0.015690
C5221	C522	0.497720	0.275610	0.051140
H2871	H287	0.476200	0.268800	0.074800
C5231	C523	0.517100	0.299030	0.052310
C5241	C524	0.551600	0.308760	0.017420
H2881	H288	0.566300	0.323900	0.017900
C5251	C525	0.564800	0.295990	0.981230
C5261	C526	0.542900	0.272630	0.981140
H2891	H289	0.551300	0.264100	0.957200
C5271	C527	0.502500	0.312840	0.089320
C5281	C528	0.432900	0.310270	0.112450
H2901	H290	0.395500	0.299100	0.105200
C5291	C529	0.416600	0.323900	0.146360
H2911	H291	0.368300	0.322100	0.161300
C5301	C530	0.472700	0.340350	0.158080
C5311	C531	0.541900	0.342990	0.136210
H2921	H292	0.579800	0.354000	0.143900
C5321	C532	0.556800	0.329380	0.102260
H2931	H293	0.605200	0.331400	0.087500
C5331	C533	0.456000	0.355710	0.195310
C5341	C534	0.599500	0.307270	0.943930
C5351	C535	0.596400	0.330150	0.938570
H2941	H294	0.571700	0.338900	0.959000
C5361	C536	0.628800	0.340930	0.903740
H2951	H295	0.624600	0.356500	0.901100
C5371	C537	0.665500	0.328920	0.874410
C5381	C538	0.668400	0.306750	0.878730
H2961	H296	0.693900	0.298200	0.858200
C5391	C539	0.634300	0.295660	0.913240
H2971	H297	0.636100	0.280000	0.914700
C5401	C540	0.700200	0.340530	0.836770
C5411	C541	0.753000	0.487010	0.013980
C5421	C542	0.733700	0.474280	0.048710
H2981	H298	0.717100	0.481600	0.072900
C5431	C543	0.738500	0.450290	0.048570
C5441	C544	0.761400	0.439300	0.012160
H2991	H299	0.765200	0.423600	0.011500
C5451	C545	0.778300	0.451770	0.977000
C5461	C546	0.775400	0.475210	0.978300
H3001	H300	0.789000	0.483300	0.954500
C5471	C547	0.720700	0.437100	0.086350
C5481	C548	0.767600	0.418200	0.097070
H3011	H301	0.809800	0.413800	0.079400
C5491	C549	0.754000	0.406000	0.132470
H3021	H302	0.786600	0.393600	0.138600
C5501	C550	0.692400	0.412160	0.158690
C5511	C551	0.642500	0.430110	0.147840
H3031	H303	0.597500	0.433600	0.164400
C5521	C552	0.658400	0.442890	0.112690
H3041	H304	0.626500	0.455500	0.106900
C5531	C553	0.680500	0.398490	0.198590
C5541	C554	0.803000	0.439760	0.937880
C5551	C555	0.866700	0.447970	0.914050
H3051	H305	0.895600	0.460700	0.922800
C5561	C556	0.887400	0.437650	0.877980
H3061	H306	0.930800	0.443200	0.862300
C5571	C557	0.844400	0.418780	0.864060
C5581	C558	0.781100	0.410270	0.887590
H3071	H307	0.751600	0.397700	0.878500
C5591	C559	0.762000	0.420600	0.924840
H3081	H308	0.720800	0.414600	0.941400
C5601	C560	0.865300	0.407430	0.823110
Ho151	Ho15	0.738630	0.134270	0.229490
O1131	O113	0.491870	0.130630	0.205390
O1141	O114	0.611500	0.146400	0.213180
O1151	O115	0.301700	0.137890	0.836200
O1161	O116	0.273430	0.169940	0.807540
O1171	O117	0.380100	0.095330	0.218760
O1181	O118	0.272800	0.116140	0.207640
O1191	O119	0.186300	0.105090	0.807680
O1201	O120	0.068910	0.087600	0.807510
C5611	C561	0.490200	0.237600	0.015690
C5621	C562	0.502280	0.224390	0.051140
H3091	H309	0.523800	0.231200	0.074800
C5631	C563	0.482900	0.200970	0.052310
C5641	C564	0.448400	0.191240	0.017420
H3101	H310	0.433700	0.176100	0.017900
C5651	C565	0.435200	0.204010	0.981230
C5661	C566	0.457100	0.227370	0.981140
H3111	H311	0.448700	0.235900	0.957200
C5671	C567	0.497500	0.187160	0.089320
C5681	C568	0.567100	0.189730	0.112450
H3121	H312	0.604500	0.200900	0.105200
C5691	C569	0.583400	0.176100	0.146360
H3131	H313	0.631700	0.177900	0.161300
C5701	C570	0.527300	0.159650	0.158080
C5711	C571	0.458100	0.157010	0.136210
H3141	H314	0.420200	0.146000	0.143900
C5721	C572	0.443200	0.170620	0.102260
H3151	H315	0.394800	0.168600	0.087500
C5731	C573	0.544000	0.144290	0.195310
C5741	C574	0.400500	0.192730	0.943930
C5751	C575	0.403600	0.169850	0.938570
H3161	H316	0.428300	0.161100	0.959000
C5761	C576	0.371200	0.159070	0.903740
H3171	H317	0.375400	0.143500	0.901100
C5771	C577	0.334500	0.171080	0.874410
C5781	C578	0.331600	0.193250	0.878730
H3181	H318	0.306100	0.201800	0.858200
C5791	C579	0.365700	0.204340	0.913240
H3191	H319	0.363900	0.220000	0.914700
C5801	C580	0.299800	0.159470	0.836770
C5811	C581	0.247000	0.012990	0.013980
C5821	C582	0.266300	0.025720	0.048710
H3201	H320	0.282900	0.018400	0.072900
C5831	C583	0.261500	0.049710	0.048570
C5841	C584	0.238600	0.060700	0.012160
H3211	H321	0.234800	0.076400	0.011500
C5851	C585	0.221700	0.048230	0.977000
C5861	C586	0.224600	0.024790	0.978300
H3221	H322	0.211000	0.016700	0.954500
C5871	C587	0.279300	0.062900	0.086350
C5881	C588	0.232400	0.081800	0.097070
H3231	H323	0.190200	0.086200	0.079400
C5891	C589	0.246000	0.094000	0.132470
H3241	H324	0.213400	0.106400	0.138600
C5901	C590	0.307600	0.087840	0.158690
C5911	C591	0.357500	0.069890	0.147840
H3251	H325	0.402500	0.066400	0.164400
C5921	C592	0.341600	0.057110	0.112690
H3261	H326	0.373500	0.044500	0.106900
C5931	C593	0.319500	0.101510	0.198590
C5941	C594	0.197000	0.060240	0.937880
C5951	C595	0.133300	0.052030	0.914050
H3271	H327	0.104400	0.039300	0.922800
C5961	C596	0.112600	0.062350	0.877980
H3281	H328	0.069200	0.056800	0.862300
C5971	C597	0.155600	0.081220	0.864060
C5981	C598	0.218900	0.089730	0.887590
H3291	H329	0.248400	0.102300	0.878500
C5991	C599	0.238000	0.079400	0.924840
H3301	H330	0.279200	0.085400	0.941400
C6001	C600	0.134700	0.092570	0.823110
Ho161	Ho16	0.238630	0.634270	0.229490
O1211	O121	0.991870	0.630630	0.205390
O1221	O122	0.111500	0.646400	0.213180
O1231	O123	0.801700	0.637890	0.836200
O1241	O124	0.773430	0.669940	0.807540
O1251	O125	0.880100	0.595330	0.218760
O1261	O126	0.772800	0.616140	0.207640
O1271	O127	0.686300	0.605090	0.807680
O1281	O128	0.568910	0.587600	0.807510
C6011	C601	0.990200	0.737600	0.015690
C6021	C602	0.002280	0.724390	0.051140
H3311	H331	0.023800	0.731200	0.074800
C6031	C603	0.982900	0.700970	0.052310
C6041	C604	0.948400	0.691240	0.017420
H3321	H332	0.933700	0.676100	0.017900
C6051	C605	0.935200	0.704010	0.981230
C6061	C606	0.957100	0.727370	0.981140
H3331	H333	0.948700	0.735900	0.957200
C6071	C607	0.997500	0.687160	0.089320
C6081	C608	0.067100	0.689730	0.112450
H3341	H334	0.104500	0.700900	0.105200
C6091	C609	0.083400	0.676100	0.146360
H3351	H335	0.131700	0.677900	0.161300
C6101	C610	0.027300	0.659650	0.158080
C6111	C611	0.958100	0.657010	0.136210
H3361	H336	0.920200	0.646000	0.143900
C6121	C612	0.943200	0.670620	0.102260
H3371	H337	0.894800	0.668600	0.087500
C6131	C613	0.044000	0.644290	0.195310
C6141	C614	0.900500	0.692730	0.943930
C6151	C615	0.903600	0.669850	0.938570
H3381	H338	0.928300	0.661100	0.959000
C6161	C616	0.871200	0.659070	0.903740
H3391	H339	0.875400	0.643500	0.901100
C6171	C617	0.834500	0.671080	0.874410
C6181	C618	0.831600	0.693250	0.878730
H3401	H340	0.806100	0.701800	0.858200
C6191	C619	0.865700	0.704340	0.913240
H3411	H341	0.863900	0.720000	0.914700
C6201	C620	0.799800	0.659470	0.836770
C6211	C621	0.747000	0.512990	0.013980
C6221	C622	0.766300	0.525720	0.048710
H3421	H342	0.782900	0.518400	0.072900
C6231	C623	0.761500	0.549710	0.048570
C6241	C624	0.738600	0.560700	0.012160
H3431	H343	0.734800	0.576400	0.011500
C6251	C625	0.721700	0.548230	0.977000
C6261	C626	0.724600	0.524790	0.978300
H3441	H344	0.711000	0.516700	0.954500
C6271	C627	0.779300	0.562900	0.086350
C6281	C628	0.732400	0.581800	0.097070
H3451	H345	0.690200	0.586200	0.079400
C6291	C629	0.746000	0.594000	0.132470
H3461	H346	0.713400	0.606400	0.138600
C6301	C630	0.807600	0.587840	0.158690
C6311	C631	0.857500	0.569890	0.147840
H3471	H347	0.902500	0.566400	0.164400
C6321	C632	0.841600	0.557110	0.112690
H3481	H348	0.873500	0.544500	0.106900
C6331	C633	0.819500	0.601510	0.198590
C6341	C634	0.697000	0.560240	0.937880
C6351	C635	0.633300	0.552030	0.914050
H3491	H349	0.604400	0.539300	0.922800
C6361	C636	0.612600	0.562350	0.877980
H3501	H350	0.569200	0.556800	0.862300
C6371	C637	0.655600	0.581220	0.864060
C6381	C638	0.718900	0.589730	0.887590
H3511	H351	0.748400	0.602300	0.878500
C6391	C639	0.738000	0.579400	0.924840
H3521	H352	0.779200	0.585400	0.941400
C6401	C640	0.634700	0.592570	0.823110
Ho171	Ho17	0.000000	0.099870	0.750000
Ho181	Ho18	0.500000	0.599870	0.750000
Ho191	Ho19	0.500000	0.900130	0.750000
Ho201	Ho20	0.000000	0.400130	0.750000
Ho211	Ho21	0.000000	0.900130	0.250000
Ho221	Ho22	0.500000	0.400130	0.250000
Ho231	Ho23	0.500000	0.099870	0.250000
Ho241	Ho24	0.000000	0.599870	0.250000
