data_ATEYOP_clean_PM
_symmetry_space_group_name_H-M	'P1'
_cell_length_a	17.019200
_cell_length_b	57.820500
_cell_length_c	32.384600
_cell_angle_alpha	90.000000
_cell_angle_beta	90.000000
_cell_angle_gamma	90.000000
_symmetry_Int_Tables_number 1

loop_
_symmetry_equiv_pos_as_xyz
'x,y,z'

loop_
_atom_site_label
_atom_site_type_symbol
_atom_site_fract_x
_atom_site_fract_y
_atom_site_fract_z
Gd11	Gd1	0.768300	0.135760	0.730580
O11	O1	0.004200	0.130010	0.704920
O21	O2	0.892100	0.148600	0.714270
O31	O3	0.196400	0.137890	0.333640
O41	O4	0.232200	0.170220	0.308710
O51	O5	0.114700	0.094850	0.718630
O61	O6	0.210000	0.117950	0.705400
O71	O7	0.324200	0.107000	0.309100
O81	O8	0.431600	0.086460	0.307020
C11	C1	0.010600	0.237610	0.513590
C21	C2	0.997900	0.224060	0.549780
H11	H1	0.976100	0.230800	0.573200
C31	C3	0.017700	0.200940	0.550210
C41	C4	0.051600	0.190830	0.516820
H21	H2	0.066700	0.175400	0.517900
C51	C5	0.063900	0.204000	0.479700
C61	C6	0.044000	0.227370	0.479970
H31	H3	0.053700	0.236200	0.456600
C71	C7	0.001200	0.186960	0.588210
C81	C8	0.933700	0.190100	0.611700
H41	H4	0.897700	0.201400	0.604000
C91	C9	0.918900	0.176660	0.646500
H51	H5	0.872700	0.178800	0.661500
C101	C10	0.971900	0.160470	0.658720
C111	C11	0.039700	0.156950	0.636600
H61	H6	0.075700	0.145900	0.645300
C121	C12	0.054400	0.169810	0.601540
H71	H7	0.100000	0.167100	0.586500
C131	C13	0.955500	0.144590	0.696200
C141	C14	0.100300	0.192500	0.442840
C151	C15	0.095100	0.169650	0.436300
H81	H8	0.068400	0.160600	0.455400
C161	C16	0.129000	0.158920	0.401200
H91	H9	0.124100	0.143000	0.397600
C171	C17	0.166400	0.170970	0.374150
C181	C18	0.168500	0.193470	0.379700
H101	H10	0.193100	0.202500	0.359800
C191	C19	0.136400	0.204120	0.413200
H111	H11	0.140000	0.220100	0.415300
C201	C20	0.202800	0.159490	0.336300
C211	C21	0.251200	0.013080	0.513480
C221	C22	0.232800	0.025950	0.548220
H121	H12	0.218800	0.018300	0.572400
C231	C23	0.234800	0.050070	0.547960
C241	C24	0.257500	0.061150	0.511620
H131	H13	0.259700	0.077200	0.510900
C251	C25	0.276700	0.048700	0.476520
C261	C26	0.275300	0.024880	0.477940
H141	H14	0.290700	0.016500	0.454800
C271	C27	0.215700	0.063490	0.585790
C281	C28	0.260500	0.082710	0.596100
H151	H15	0.301900	0.087000	0.579000
C291	C29	0.245300	0.095380	0.630400
H161	H16	0.275100	0.108400	0.636500
C301	C30	0.184300	0.088570	0.656600
C311	C31	0.141100	0.070470	0.646500
H171	H17	0.099000	0.066400	0.663400
C321	C32	0.156600	0.057330	0.611650
H181	H18	0.126500	0.044300	0.606000
C331	C33	0.169900	0.101900	0.697100
C341	C34	0.301800	0.060610	0.437390
C351	C35	0.363900	0.051890	0.414560
H191	H19	0.390200	0.038700	0.423500
C361	C36	0.386800	0.062840	0.378340
H201	H20	0.429500	0.057300	0.363400
C371	C37	0.346100	0.082100	0.364350
C381	C38	0.284900	0.090490	0.386980
H211	H21	0.257400	0.103400	0.377700
C391	C39	0.262800	0.079870	0.424290
H221	H22	0.221900	0.085900	0.439900
C401	C40	0.369800	0.092690	0.322800
Gd21	Gd2	0.268300	0.635760	0.730580
O91	O9	0.504200	0.630010	0.704920
O101	O10	0.392100	0.648600	0.714270
O111	O11	0.696400	0.637890	0.333640
O121	O12	0.732200	0.670220	0.308710
O131	O13	0.614700	0.594850	0.718630
O141	O14	0.710000	0.617950	0.705400
O151	O15	0.824200	0.607000	0.309100
O161	O16	0.931600	0.586460	0.307020
C411	C41	0.510600	0.737610	0.513590
C421	C42	0.497900	0.724060	0.549780
H231	H23	0.476100	0.730800	0.573200
C431	C43	0.517700	0.700940	0.550210
C441	C44	0.551600	0.690830	0.516820
H241	H24	0.566700	0.675400	0.517900
C451	C45	0.563900	0.704000	0.479700
C461	C46	0.544000	0.727370	0.479970
H251	H25	0.553700	0.736200	0.456600
C471	C47	0.501200	0.686960	0.588210
C481	C48	0.433700	0.690100	0.611700
H261	H26	0.397700	0.701400	0.604000
C491	C49	0.418900	0.676660	0.646500
H271	H27	0.372700	0.678800	0.661500
C501	C50	0.471900	0.660470	0.658720
C511	C51	0.539700	0.656950	0.636600
H281	H28	0.575700	0.645900	0.645300
C521	C52	0.554400	0.669810	0.601540
H291	H29	0.600000	0.667100	0.586500
C531	C53	0.455500	0.644590	0.696200
C541	C54	0.600300	0.692500	0.442840
C551	C55	0.595100	0.669650	0.436300
H301	H30	0.568400	0.660600	0.455400
C561	C56	0.629000	0.658920	0.401200
H311	H31	0.624100	0.643000	0.397600
C571	C57	0.666400	0.670970	0.374150
C581	C58	0.668500	0.693470	0.379700
H321	H32	0.693100	0.702500	0.359800
C591	C59	0.636400	0.704120	0.413200
H331	H33	0.640000	0.720100	0.415300
C601	C60	0.702800	0.659490	0.336300
C611	C61	0.751200	0.513080	0.513480
C621	C62	0.732800	0.525950	0.548220
H341	H34	0.718800	0.518300	0.572400
C631	C63	0.734800	0.550070	0.547960
C641	C64	0.757500	0.561150	0.511620
H351	H35	0.759700	0.577200	0.510900
C651	C65	0.776700	0.548700	0.476520
C661	C66	0.775300	0.524880	0.477940
H361	H36	0.790700	0.516500	0.454800
C671	C67	0.715700	0.563490	0.585790
C681	C68	0.760500	0.582710	0.596100
H371	H37	0.801900	0.587000	0.579000
C691	C69	0.745300	0.595380	0.630400
H381	H38	0.775100	0.608400	0.636500
C701	C70	0.684300	0.588570	0.656600
C711	C71	0.641100	0.570470	0.646500
H391	H39	0.599000	0.566400	0.663400
C721	C72	0.656600	0.557330	0.611650
H401	H40	0.626500	0.544300	0.606000
C731	C73	0.669900	0.601900	0.697100
C741	C74	0.801800	0.560610	0.437390
C751	C75	0.863900	0.551890	0.414560
H411	H41	0.890200	0.538700	0.423500
C761	C76	0.886800	0.562840	0.378340
H421	H42	0.929500	0.557300	0.363400
C771	C77	0.846100	0.582100	0.364350
C781	C78	0.784900	0.590490	0.386980
H431	H43	0.757400	0.603400	0.377700
C791	C79	0.762800	0.579870	0.424290
H441	H44	0.721900	0.585900	0.439900
C801	C80	0.869800	0.592690	0.322800
Gd31	Gd3	0.731700	0.864240	0.730580
O171	O17	0.495800	0.869990	0.704920
O181	O18	0.607900	0.851400	0.714270
O191	O19	0.303600	0.862110	0.333640
O201	O20	0.267800	0.829780	0.308710
O211	O21	0.385300	0.905150	0.718630
O221	O22	0.290000	0.882050	0.705400
O231	O23	0.175800	0.893000	0.309100
O241	O24	0.068400	0.913540	0.307020
C811	C81	0.489400	0.762390	0.513590
C821	C82	0.502100	0.775940	0.549780
H451	H45	0.523900	0.769200	0.573200
C831	C83	0.482300	0.799060	0.550210
C841	C84	0.448400	0.809170	0.516820
H461	H46	0.433300	0.824600	0.517900
C851	C85	0.436100	0.796000	0.479700
C861	C86	0.456000	0.772630	0.479970
H471	H47	0.446300	0.763800	0.456600
C871	C87	0.498800	0.813040	0.588210
C881	C88	0.566300	0.809900	0.611700
H481	H48	0.602300	0.798600	0.604000
C891	C89	0.581100	0.823340	0.646500
H491	H49	0.627300	0.821200	0.661500
C901	C90	0.528100	0.839530	0.658720
C911	C91	0.460300	0.843050	0.636600
H501	H50	0.424300	0.854100	0.645300
C921	C92	0.445600	0.830190	0.601540
H511	H51	0.400000	0.832900	0.586500
C931	C93	0.544500	0.855410	0.696200
C941	C94	0.399700	0.807500	0.442840
C951	C95	0.404900	0.830350	0.436300
H521	H52	0.431600	0.839400	0.455400
C961	C96	0.371000	0.841080	0.401200
H531	H53	0.375900	0.857000	0.397600
C971	C97	0.333600	0.829030	0.374150
C981	C98	0.331500	0.806530	0.379700
H541	H54	0.306900	0.797500	0.359800
C991	C99	0.363600	0.795880	0.413200
H551	H55	0.360000	0.779900	0.415300
C1001	C100	0.297200	0.840510	0.336300
C1011	C101	0.248800	0.986920	0.513480
C1021	C102	0.267200	0.974050	0.548220
H561	H56	0.281200	0.981700	0.572400
C1031	C103	0.265200	0.949930	0.547960
C1041	C104	0.242500	0.938850	0.511620
H571	H57	0.240300	0.922800	0.510900
C1051	C105	0.223300	0.951300	0.476520
C1061	C106	0.224700	0.975120	0.477940
H581	H58	0.209300	0.983500	0.454800
C1071	C107	0.284300	0.936510	0.585790
C1081	C108	0.239500	0.917290	0.596100
H591	H59	0.198100	0.913000	0.579000
C1091	C109	0.254700	0.904620	0.630400
H601	H60	0.224900	0.891600	0.636500
C1101	C110	0.315700	0.911430	0.656600
C1111	C111	0.358900	0.929530	0.646500
H611	H61	0.401000	0.933600	0.663400
C1121	C112	0.343400	0.942670	0.611650
H621	H62	0.373500	0.955700	0.606000
C1131	C113	0.330100	0.898100	0.697100
C1141	C114	0.198200	0.939390	0.437390
C1151	C115	0.136100	0.948110	0.414560
H631	H63	0.109800	0.961300	0.423500
C1161	C116	0.113200	0.937160	0.378340
H641	H64	0.070500	0.942700	0.363400
C1171	C117	0.153900	0.917900	0.364350
C1181	C118	0.215100	0.909510	0.386980
H651	H65	0.242600	0.896600	0.377700
C1191	C119	0.237200	0.920130	0.424290
H661	H66	0.278100	0.914100	0.439900
C1201	C120	0.130200	0.907310	0.322800
Gd41	Gd4	0.231700	0.364240	0.730580
O251	O25	0.995800	0.369990	0.704920
O261	O26	0.107900	0.351400	0.714270
O271	O27	0.803600	0.362110	0.333640
O281	O28	0.767800	0.329780	0.308710
O291	O29	0.885300	0.405150	0.718630
O301	O30	0.790000	0.382050	0.705400
O311	O31	0.675800	0.393000	0.309100
O321	O32	0.568400	0.413540	0.307020
C1211	C121	0.989400	0.262390	0.513590
C1221	C122	0.002100	0.275940	0.549780
H671	H67	0.023900	0.269200	0.573200
C1231	C123	0.982300	0.299060	0.550210
C1241	C124	0.948400	0.309170	0.516820
H681	H68	0.933300	0.324600	0.517900
C1251	C125	0.936100	0.296000	0.479700
C1261	C126	0.956000	0.272630	0.479970
H691	H69	0.946300	0.263800	0.456600
C1271	C127	0.998800	0.313040	0.588210
C1281	C128	0.066300	0.309900	0.611700
H701	H70	0.102300	0.298600	0.604000
C1291	C129	0.081100	0.323340	0.646500
H711	H71	0.127300	0.321200	0.661500
C1301	C130	0.028100	0.339530	0.658720
C1311	C131	0.960300	0.343050	0.636600
H721	H72	0.924300	0.354100	0.645300
C1321	C132	0.945600	0.330190	0.601540
H731	H73	0.900000	0.332900	0.586500
C1331	C133	0.044500	0.355410	0.696200
C1341	C134	0.899700	0.307500	0.442840
C1351	C135	0.904900	0.330350	0.436300
H741	H74	0.931600	0.339400	0.455400
C1361	C136	0.871000	0.341080	0.401200
H751	H75	0.875900	0.357000	0.397600
C1371	C137	0.833600	0.329030	0.374150
C1381	C138	0.831500	0.306530	0.379700
H761	H76	0.806900	0.297500	0.359800
C1391	C139	0.863600	0.295880	0.413200
H771	H77	0.860000	0.279900	0.415300
C1401	C140	0.797200	0.340510	0.336300
C1411	C141	0.748800	0.486920	0.513480
C1421	C142	0.767200	0.474050	0.548220
H781	H78	0.781200	0.481700	0.572400
C1431	C143	0.765200	0.449930	0.547960
C1441	C144	0.742500	0.438850	0.511620
H791	H79	0.740300	0.422800	0.510900
C1451	C145	0.723300	0.451300	0.476520
C1461	C146	0.724700	0.475120	0.477940
H801	H80	0.709300	0.483500	0.454800
C1471	C147	0.784300	0.436510	0.585790
C1481	C148	0.739500	0.417290	0.596100
H811	H81	0.698100	0.413000	0.579000
C1491	C149	0.754700	0.404620	0.630400
H821	H82	0.724900	0.391600	0.636500
C1501	C150	0.815700	0.411430	0.656600
C1511	C151	0.858900	0.429530	0.646500
H831	H83	0.901000	0.433600	0.663400
C1521	C152	0.843400	0.442670	0.611650
H841	H84	0.873500	0.455700	0.606000
C1531	C153	0.830100	0.398100	0.697100
C1541	C154	0.698200	0.439390	0.437390
C1551	C155	0.636100	0.448110	0.414560
H851	H85	0.609800	0.461300	0.423500
C1561	C156	0.613200	0.437160	0.378340
H861	H86	0.570500	0.442700	0.363400
C1571	C157	0.653900	0.417900	0.364350
C1581	C158	0.715100	0.409510	0.386980
H871	H87	0.742600	0.396600	0.377700
C1591	C159	0.737200	0.420130	0.424290
H881	H88	0.778100	0.414100	0.439900
C1601	C160	0.630200	0.407310	0.322800
Gd51	Gd5	0.231700	0.135760	0.769420
O331	O33	0.995800	0.130010	0.795080
O341	O34	0.107900	0.148600	0.785730
O351	O35	0.803600	0.137890	0.166360
O361	O36	0.767800	0.170220	0.191290
O371	O37	0.885300	0.094850	0.781370
O381	O38	0.790000	0.117950	0.794600
O391	O39	0.675800	0.107000	0.190900
O401	O40	0.568400	0.086460	0.192980
C1611	C161	0.989400	0.237610	0.986410
C1621	C162	0.002100	0.224060	0.950220
H891	H89	0.023900	0.230800	0.926800
C1631	C163	0.982300	0.200940	0.949790
C1641	C164	0.948400	0.190830	0.983180
H901	H90	0.933300	0.175400	0.982100
C1651	C165	0.936100	0.204000	0.020300
C1661	C166	0.956000	0.227370	0.020030
H911	H91	0.946300	0.236200	0.043400
C1671	C167	0.998800	0.186960	0.911790
C1681	C168	0.066300	0.190100	0.888300
H921	H92	0.102300	0.201400	0.896000
C1691	C169	0.081100	0.176660	0.853500
H931	H93	0.127300	0.178800	0.838500
C1701	C170	0.028100	0.160470	0.841280
C1711	C171	0.960300	0.156950	0.863400
H941	H94	0.924300	0.145900	0.854700
C1721	C172	0.945600	0.169810	0.898460
H951	H95	0.900000	0.167100	0.913500
C1731	C173	0.044500	0.144590	0.803800
C1741	C174	0.899700	0.192500	0.057160
C1751	C175	0.904900	0.169650	0.063700
H961	H96	0.931600	0.160600	0.044600
C1761	C176	0.871000	0.158920	0.098800
H971	H97	0.875900	0.143000	0.102400
C1771	C177	0.833600	0.170970	0.125850
C1781	C178	0.831500	0.193470	0.120300
H981	H98	0.806900	0.202500	0.140200
C1791	C179	0.863600	0.204120	0.086800
H991	H99	0.860000	0.220100	0.084700
C1801	C180	0.797200	0.159490	0.163700
C1811	C181	0.748800	0.013080	0.986520
C1821	C182	0.767200	0.025950	0.951780
H1001	H100	0.781200	0.018300	0.927600
C1831	C183	0.765200	0.050070	0.952040
C1841	C184	0.742500	0.061150	0.988380
H1011	H101	0.740300	0.077200	0.989100
C1851	C185	0.723300	0.048700	0.023480
C1861	C186	0.724700	0.024880	0.022060
H1021	H102	0.709300	0.016500	0.045200
C1871	C187	0.784300	0.063490	0.914210
C1881	C188	0.739500	0.082710	0.903900
H1031	H103	0.698100	0.087000	0.921000
C1891	C189	0.754700	0.095380	0.869600
H1041	H104	0.724900	0.108400	0.863500
C1901	C190	0.815700	0.088570	0.843400
C1911	C191	0.858900	0.070470	0.853500
H1051	H105	0.901000	0.066400	0.836600
C1921	C192	0.843400	0.057330	0.888350
H1061	H106	0.873500	0.044300	0.894000
C1931	C193	0.830100	0.101900	0.802900
C1941	C194	0.698200	0.060610	0.062610
C1951	C195	0.636100	0.051890	0.085440
H1071	H107	0.609800	0.038700	0.076500
C1961	C196	0.613200	0.062840	0.121660
H1081	H108	0.570500	0.057300	0.136600
C1971	C197	0.653900	0.082100	0.135650
C1981	C198	0.715100	0.090490	0.113020
H1091	H109	0.742600	0.103400	0.122300
C1991	C199	0.737200	0.079870	0.075710
H1101	H110	0.778100	0.085900	0.060100
C2001	C200	0.630200	0.092690	0.177200
Gd61	Gd6	0.731700	0.635760	0.769420
O411	O41	0.495800	0.630010	0.795080
O421	O42	0.607900	0.648600	0.785730
O431	O43	0.303600	0.637890	0.166360
O441	O44	0.267800	0.670220	0.191290
O451	O45	0.385300	0.594850	0.781370
O461	O46	0.290000	0.617950	0.794600
O471	O47	0.175800	0.607000	0.190900
O481	O48	0.068400	0.586460	0.192980
C2011	C201	0.489400	0.737610	0.986410
C2021	C202	0.502100	0.724060	0.950220
H1111	H111	0.523900	0.730800	0.926800
C2031	C203	0.482300	0.700940	0.949790
C2041	C204	0.448400	0.690830	0.983180
H1121	H112	0.433300	0.675400	0.982100
C2051	C205	0.436100	0.704000	0.020300
C2061	C206	0.456000	0.727370	0.020030
H1131	H113	0.446300	0.736200	0.043400
C2071	C207	0.498800	0.686960	0.911790
C2081	C208	0.566300	0.690100	0.888300
H1141	H114	0.602300	0.701400	0.896000
C2091	C209	0.581100	0.676660	0.853500
H1151	H115	0.627300	0.678800	0.838500
C2101	C210	0.528100	0.660470	0.841280
C2111	C211	0.460300	0.656950	0.863400
H1161	H116	0.424300	0.645900	0.854700
C2121	C212	0.445600	0.669810	0.898460
H1171	H117	0.400000	0.667100	0.913500
C2131	C213	0.544500	0.644590	0.803800
C2141	C214	0.399700	0.692500	0.057160
C2151	C215	0.404900	0.669650	0.063700
H1181	H118	0.431600	0.660600	0.044600
C2161	C216	0.371000	0.658920	0.098800
H1191	H119	0.375900	0.643000	0.102400
C2171	C217	0.333600	0.670970	0.125850
C2181	C218	0.331500	0.693470	0.120300
H1201	H120	0.306900	0.702500	0.140200
C2191	C219	0.363600	0.704120	0.086800
H1211	H121	0.360000	0.720100	0.084700
C2201	C220	0.297200	0.659490	0.163700
C2211	C221	0.248800	0.513080	0.986520
C2221	C222	0.267200	0.525950	0.951780
H1221	H122	0.281200	0.518300	0.927600
C2231	C223	0.265200	0.550070	0.952040
C2241	C224	0.242500	0.561150	0.988380
H1231	H123	0.240300	0.577200	0.989100
C2251	C225	0.223300	0.548700	0.023480
C2261	C226	0.224700	0.524880	0.022060
H1241	H124	0.209300	0.516500	0.045200
C2271	C227	0.284300	0.563490	0.914210
C2281	C228	0.239500	0.582710	0.903900
H1251	H125	0.198100	0.587000	0.921000
C2291	C229	0.254700	0.595380	0.869600
H1261	H126	0.224900	0.608400	0.863500
C2301	C230	0.315700	0.588570	0.843400
C2311	C231	0.358900	0.570470	0.853500
H1271	H127	0.401000	0.566400	0.836600
C2321	C232	0.343400	0.557330	0.888350
H1281	H128	0.373500	0.544300	0.894000
C2331	C233	0.330100	0.601900	0.802900
C2341	C234	0.198200	0.560610	0.062610
C2351	C235	0.136100	0.551890	0.085440
H1291	H129	0.109800	0.538700	0.076500
C2361	C236	0.113200	0.562840	0.121660
H1301	H130	0.070500	0.557300	0.136600
C2371	C237	0.153900	0.582100	0.135650
C2381	C238	0.215100	0.590490	0.113020
H1311	H131	0.242600	0.603400	0.122300
C2391	C239	0.237200	0.579870	0.075710
H1321	H132	0.278100	0.585900	0.060100
C2401	C240	0.130200	0.592690	0.177200
Gd71	Gd7	0.268300	0.864240	0.769420
O491	O49	0.504200	0.869990	0.795080
O501	O50	0.392100	0.851400	0.785730
O511	O51	0.696400	0.862110	0.166360
O521	O52	0.732200	0.829780	0.191290
O531	O53	0.614700	0.905150	0.781370
O541	O54	0.710000	0.882050	0.794600
O551	O55	0.824200	0.893000	0.190900
O561	O56	0.931600	0.913540	0.192980
C2411	C241	0.510600	0.762390	0.986410
C2421	C242	0.497900	0.775940	0.950220
H1331	H133	0.476100	0.769200	0.926800
C2431	C243	0.517700	0.799060	0.949790
C2441	C244	0.551600	0.809170	0.983180
H1341	H134	0.566700	0.824600	0.982100
C2451	C245	0.563900	0.796000	0.020300
C2461	C246	0.544000	0.772630	0.020030
H1351	H135	0.553700	0.763800	0.043400
C2471	C247	0.501200	0.813040	0.911790
C2481	C248	0.433700	0.809900	0.888300
H1361	H136	0.397700	0.798600	0.896000
C2491	C249	0.418900	0.823340	0.853500
H1371	H137	0.372700	0.821200	0.838500
C2501	C250	0.471900	0.839530	0.841280
C2511	C251	0.539700	0.843050	0.863400
H1381	H138	0.575700	0.854100	0.854700
C2521	C252	0.554400	0.830190	0.898460
H1391	H139	0.600000	0.832900	0.913500
C2531	C253	0.455500	0.855410	0.803800
C2541	C254	0.600300	0.807500	0.057160
C2551	C255	0.595100	0.830350	0.063700
H1401	H140	0.568400	0.839400	0.044600
C2561	C256	0.629000	0.841080	0.098800
H1411	H141	0.624100	0.857000	0.102400
C2571	C257	0.666400	0.829030	0.125850
C2581	C258	0.668500	0.806530	0.120300
H1421	H142	0.693100	0.797500	0.140200
C2591	C259	0.636400	0.795880	0.086800
H1431	H143	0.640000	0.779900	0.084700
C2601	C260	0.702800	0.840510	0.163700
C2611	C261	0.751200	0.986920	0.986520
C2621	C262	0.732800	0.974050	0.951780
H1441	H144	0.718800	0.981700	0.927600
C2631	C263	0.734800	0.949930	0.952040
C2641	C264	0.757500	0.938850	0.988380
H1451	H145	0.759700	0.922800	0.989100
C2651	C265	0.776700	0.951300	0.023480
C2661	C266	0.775300	0.975120	0.022060
H1461	H146	0.790700	0.983500	0.045200
C2671	C267	0.715700	0.936510	0.914210
C2681	C268	0.760500	0.917290	0.903900
H1471	H147	0.801900	0.913000	0.921000
C2691	C269	0.745300	0.904620	0.869600
H1481	H148	0.775100	0.891600	0.863500
C2701	C270	0.684300	0.911430	0.843400
C2711	C271	0.641100	0.929530	0.853500
H1491	H149	0.599000	0.933600	0.836600
C2721	C272	0.656600	0.942670	0.888350
H1501	H150	0.626500	0.955700	0.894000
C2731	C273	0.669900	0.898100	0.802900
C2741	C274	0.801800	0.939390	0.062610
C2751	C275	0.863900	0.948110	0.085440
H1511	H151	0.890200	0.961300	0.076500
C2761	C276	0.886800	0.937160	0.121660
H1521	H152	0.929500	0.942700	0.136600
C2771	C277	0.846100	0.917900	0.135650
C2781	C278	0.784900	0.909510	0.113020
H1531	H153	0.757400	0.896600	0.122300
C2791	C279	0.762800	0.920130	0.075710
H1541	H154	0.721900	0.914100	0.060100
C2801	C280	0.869800	0.907310	0.177200
Gd81	Gd8	0.768300	0.364240	0.769420
O571	O57	0.004200	0.369990	0.795080
O581	O58	0.892100	0.351400	0.785730
O591	O59	0.196400	0.362110	0.166360
O601	O60	0.232200	0.329780	0.191290
O611	O61	0.114700	0.405150	0.781370
O621	O62	0.210000	0.382050	0.794600
O631	O63	0.324200	0.393000	0.190900
O641	O64	0.431600	0.413540	0.192980
C2811	C281	0.010600	0.262390	0.986410
C2821	C282	0.997900	0.275940	0.950220
H1551	H155	0.976100	0.269200	0.926800
C2831	C283	0.017700	0.299060	0.949790
C2841	C284	0.051600	0.309170	0.983180
H1561	H156	0.066700	0.324600	0.982100
C2851	C285	0.063900	0.296000	0.020300
C2861	C286	0.044000	0.272630	0.020030
H1571	H157	0.053700	0.263800	0.043400
C2871	C287	0.001200	0.313040	0.911790
C2881	C288	0.933700	0.309900	0.888300
H1581	H158	0.897700	0.298600	0.896000
C2891	C289	0.918900	0.323340	0.853500
H1591	H159	0.872700	0.321200	0.838500
C2901	C290	0.971900	0.339530	0.841280
C2911	C291	0.039700	0.343050	0.863400
H1601	H160	0.075700	0.354100	0.854700
C2921	C292	0.054400	0.330190	0.898460
H1611	H161	0.100000	0.332900	0.913500
C2931	C293	0.955500	0.355410	0.803800
C2941	C294	0.100300	0.307500	0.057160
C2951	C295	0.095100	0.330350	0.063700
H1621	H162	0.068400	0.339400	0.044600
C2961	C296	0.129000	0.341080	0.098800
H1631	H163	0.124100	0.357000	0.102400
C2971	C297	0.166400	0.329030	0.125850
C2981	C298	0.168500	0.306530	0.120300
H1641	H164	0.193100	0.297500	0.140200
C2991	C299	0.136400	0.295880	0.086800
H1651	H165	0.140000	0.279900	0.084700
C3001	C300	0.202800	0.340510	0.163700
C3011	C301	0.251200	0.486920	0.986520
C3021	C302	0.232800	0.474050	0.951780
H1661	H166	0.218800	0.481700	0.927600
C3031	C303	0.234800	0.449930	0.952040
C3041	C304	0.257500	0.438850	0.988380
H1671	H167	0.259700	0.422800	0.989100
C3051	C305	0.276700	0.451300	0.023480
C3061	C306	0.275300	0.475120	0.022060
H1681	H168	0.290700	0.483500	0.045200
C3071	C307	0.215700	0.436510	0.914210
C3081	C308	0.260500	0.417290	0.903900
H1691	H169	0.301900	0.413000	0.921000
C3091	C309	0.245300	0.404620	0.869600
H1701	H170	0.275100	0.391600	0.863500
C3101	C310	0.184300	0.411430	0.843400
C3111	C311	0.141100	0.429530	0.853500
H1711	H171	0.099000	0.433600	0.836600
C3121	C312	0.156600	0.442670	0.888350
H1721	H172	0.126500	0.455700	0.894000
C3131	C313	0.169900	0.398100	0.802900
C3141	C314	0.301800	0.439390	0.062610
C3151	C315	0.363900	0.448110	0.085440
H1731	H173	0.390200	0.461300	0.076500
C3161	C316	0.386800	0.437160	0.121660
H1741	H174	0.429500	0.442700	0.136600
C3171	C317	0.346100	0.417900	0.135650
C3181	C318	0.284900	0.409510	0.113020
H1751	H175	0.257400	0.396600	0.122300
C3191	C319	0.262800	0.420130	0.075710
H1761	H176	0.221900	0.414100	0.060100
C3201	C320	0.369800	0.407310	0.177200
Gd91	Gd9	0.231700	0.864240	0.269420
O651	O65	0.995800	0.869990	0.295080
O661	O66	0.107900	0.851400	0.285730
O671	O67	0.803600	0.862110	0.666360
O681	O68	0.767800	0.829780	0.691290
O691	O69	0.885300	0.905150	0.281370
O701	O70	0.790000	0.882050	0.294600
O711	O71	0.675800	0.893000	0.690900
O721	O72	0.568400	0.913540	0.692980
C3211	C321	0.989400	0.762390	0.486410
C3221	C322	0.002100	0.775940	0.450220
H1771	H177	0.023900	0.769200	0.426800
C3231	C323	0.982300	0.799060	0.449790
C3241	C324	0.948400	0.809170	0.483180
H1781	H178	0.933300	0.824600	0.482100
C3251	C325	0.936100	0.796000	0.520300
C3261	C326	0.956000	0.772630	0.520030
H1791	H179	0.946300	0.763800	0.543400
C3271	C327	0.998800	0.813040	0.411790
C3281	C328	0.066300	0.809900	0.388300
H1801	H180	0.102300	0.798600	0.396000
C3291	C329	0.081100	0.823340	0.353500
H1811	H181	0.127300	0.821200	0.338500
C3301	C330	0.028100	0.839530	0.341280
C3311	C331	0.960300	0.843050	0.363400
H1821	H182	0.924300	0.854100	0.354700
C3321	C332	0.945600	0.830190	0.398460
H1831	H183	0.900000	0.832900	0.413500
C3331	C333	0.044500	0.855410	0.303800
C3341	C334	0.899700	0.807500	0.557160
C3351	C335	0.904900	0.830350	0.563700
H1841	H184	0.931600	0.839400	0.544600
C3361	C336	0.871000	0.841080	0.598800
H1851	H185	0.875900	0.857000	0.602400
C3371	C337	0.833600	0.829030	0.625850
C3381	C338	0.831500	0.806530	0.620300
H1861	H186	0.806900	0.797500	0.640200
C3391	C339	0.863600	0.795880	0.586800
H1871	H187	0.860000	0.779900	0.584700
C3401	C340	0.797200	0.840510	0.663700
C3411	C341	0.748800	0.986920	0.486520
C3421	C342	0.767200	0.974050	0.451780
H1881	H188	0.781200	0.981700	0.427600
C3431	C343	0.765200	0.949930	0.452040
C3441	C344	0.742500	0.938850	0.488380
H1891	H189	0.740300	0.922800	0.489100
C3451	C345	0.723300	0.951300	0.523480
C3461	C346	0.724700	0.975120	0.522060
H1901	H190	0.709300	0.983500	0.545200
C3471	C347	0.784300	0.936510	0.414210
C3481	C348	0.739500	0.917290	0.403900
H1911	H191	0.698100	0.913000	0.421000
C3491	C349	0.754700	0.904620	0.369600
H1921	H192	0.724900	0.891600	0.363500
C3501	C350	0.815700	0.911430	0.343400
C3511	C351	0.858900	0.929530	0.353500
H1931	H193	0.901000	0.933600	0.336600
C3521	C352	0.843400	0.942670	0.388350
H1941	H194	0.873500	0.955700	0.394000
C3531	C353	0.830100	0.898100	0.302900
C3541	C354	0.698200	0.939390	0.562610
C3551	C355	0.636100	0.948110	0.585440
H1951	H195	0.609800	0.961300	0.576500
C3561	C356	0.613200	0.937160	0.621660
H1961	H196	0.570500	0.942700	0.636600
C3571	C357	0.653900	0.917900	0.635650
C3581	C358	0.715100	0.909510	0.613020
H1971	H197	0.742600	0.896600	0.622300
C3591	C359	0.737200	0.920130	0.575710
H1981	H198	0.778100	0.914100	0.560100
C3601	C360	0.630200	0.907310	0.677200
Gd101	Gd10	0.731700	0.364240	0.269420
O731	O73	0.495800	0.369990	0.295080
O741	O74	0.607900	0.351400	0.285730
O751	O75	0.303600	0.362110	0.666360
O761	O76	0.267800	0.329780	0.691290
O771	O77	0.385300	0.405150	0.281370
O781	O78	0.290000	0.382050	0.294600
O791	O79	0.175800	0.393000	0.690900
O801	O80	0.068400	0.413540	0.692980
C3611	C361	0.489400	0.262390	0.486410
C3621	C362	0.502100	0.275940	0.450220
H1991	H199	0.523900	0.269200	0.426800
C3631	C363	0.482300	0.299060	0.449790
C3641	C364	0.448400	0.309170	0.483180
H2001	H200	0.433300	0.324600	0.482100
C3651	C365	0.436100	0.296000	0.520300
C3661	C366	0.456000	0.272630	0.520030
H2011	H201	0.446300	0.263800	0.543400
C3671	C367	0.498800	0.313040	0.411790
C3681	C368	0.566300	0.309900	0.388300
H2021	H202	0.602300	0.298600	0.396000
C3691	C369	0.581100	0.323340	0.353500
H2031	H203	0.627300	0.321200	0.338500
C3701	C370	0.528100	0.339530	0.341280
C3711	C371	0.460300	0.343050	0.363400
H2041	H204	0.424300	0.354100	0.354700
C3721	C372	0.445600	0.330190	0.398460
H2051	H205	0.400000	0.332900	0.413500
C3731	C373	0.544500	0.355410	0.303800
C3741	C374	0.399700	0.307500	0.557160
C3751	C375	0.404900	0.330350	0.563700
H2061	H206	0.431600	0.339400	0.544600
C3761	C376	0.371000	0.341080	0.598800
H2071	H207	0.375900	0.357000	0.602400
C3771	C377	0.333600	0.329030	0.625850
C3781	C378	0.331500	0.306530	0.620300
H2081	H208	0.306900	0.297500	0.640200
C3791	C379	0.363600	0.295880	0.586800
H2091	H209	0.360000	0.279900	0.584700
C3801	C380	0.297200	0.340510	0.663700
C3811	C381	0.248800	0.486920	0.486520
C3821	C382	0.267200	0.474050	0.451780
H2101	H210	0.281200	0.481700	0.427600
C3831	C383	0.265200	0.449930	0.452040
C3841	C384	0.242500	0.438850	0.488380
H2111	H211	0.240300	0.422800	0.489100
C3851	C385	0.223300	0.451300	0.523480
C3861	C386	0.224700	0.475120	0.522060
H2121	H212	0.209300	0.483500	0.545200
C3871	C387	0.284300	0.436510	0.414210
C3881	C388	0.239500	0.417290	0.403900
H2131	H213	0.198100	0.413000	0.421000
C3891	C389	0.254700	0.404620	0.369600
H2141	H214	0.224900	0.391600	0.363500
C3901	C390	0.315700	0.411430	0.343400
C3911	C391	0.358900	0.429530	0.353500
H2151	H215	0.401000	0.433600	0.336600
C3921	C392	0.343400	0.442670	0.388350
H2161	H216	0.373500	0.455700	0.394000
C3931	C393	0.330100	0.398100	0.302900
C3941	C394	0.198200	0.439390	0.562610
C3951	C395	0.136100	0.448110	0.585440
H2171	H217	0.109800	0.461300	0.576500
C3961	C396	0.113200	0.437160	0.621660
H2181	H218	0.070500	0.442700	0.636600
C3971	C397	0.153900	0.417900	0.635650
C3981	C398	0.215100	0.409510	0.613020
H2191	H219	0.242600	0.396600	0.622300
C3991	C399	0.237200	0.420130	0.575710
H2201	H220	0.278100	0.414100	0.560100
C4001	C400	0.130200	0.407310	0.677200
Gd111	Gd11	0.268300	0.135760	0.269420
O811	O81	0.504200	0.130010	0.295080
O821	O82	0.392100	0.148600	0.285730
O831	O83	0.696400	0.137890	0.666360
O841	O84	0.732200	0.170220	0.691290
O851	O85	0.614700	0.094850	0.281370
O861	O86	0.710000	0.117950	0.294600
O871	O87	0.824200	0.107000	0.690900
O881	O88	0.931600	0.086460	0.692980
C4011	C401	0.510600	0.237610	0.486410
C4021	C402	0.497900	0.224060	0.450220
H2211	H221	0.476100	0.230800	0.426800
C4031	C403	0.517700	0.200940	0.449790
C4041	C404	0.551600	0.190830	0.483180
H2221	H222	0.566700	0.175400	0.482100
C4051	C405	0.563900	0.204000	0.520300
C4061	C406	0.544000	0.227370	0.520030
H2231	H223	0.553700	0.236200	0.543400
C4071	C407	0.501200	0.186960	0.411790
C4081	C408	0.433700	0.190100	0.388300
H2241	H224	0.397700	0.201400	0.396000
C4091	C409	0.418900	0.176660	0.353500
H2251	H225	0.372700	0.178800	0.338500
C4101	C410	0.471900	0.160470	0.341280
C4111	C411	0.539700	0.156950	0.363400
H2261	H226	0.575700	0.145900	0.354700
C4121	C412	0.554400	0.169810	0.398460
H2271	H227	0.600000	0.167100	0.413500
C4131	C413	0.455500	0.144590	0.303800
C4141	C414	0.600300	0.192500	0.557160
C4151	C415	0.595100	0.169650	0.563700
H2281	H228	0.568400	0.160600	0.544600
C4161	C416	0.629000	0.158920	0.598800
H2291	H229	0.624100	0.143000	0.602400
C4171	C417	0.666400	0.170970	0.625850
C4181	C418	0.668500	0.193470	0.620300
H2301	H230	0.693100	0.202500	0.640200
C4191	C419	0.636400	0.204120	0.586800
H2311	H231	0.640000	0.220100	0.584700
C4201	C420	0.702800	0.159490	0.663700
C4211	C421	0.751200	0.013080	0.486520
C4221	C422	0.732800	0.025950	0.451780
H2321	H232	0.718800	0.018300	0.427600
C4231	C423	0.734800	0.050070	0.452040
C4241	C424	0.757500	0.061150	0.488380
H2331	H233	0.759700	0.077200	0.489100
C4251	C425	0.776700	0.048700	0.523480
C4261	C426	0.775300	0.024880	0.522060
H2341	H234	0.790700	0.016500	0.545200
C4271	C427	0.715700	0.063490	0.414210
C4281	C428	0.760500	0.082710	0.403900
H2351	H235	0.801900	0.087000	0.421000
C4291	C429	0.745300	0.095380	0.369600
H2361	H236	0.775100	0.108400	0.363500
C4301	C430	0.684300	0.088570	0.343400
C4311	C431	0.641100	0.070470	0.353500
H2371	H237	0.599000	0.066400	0.336600
C4321	C432	0.656600	0.057330	0.388350
H2381	H238	0.626500	0.044300	0.394000
C4331	C433	0.669900	0.101900	0.302900
C4341	C434	0.801800	0.060610	0.562610
C4351	C435	0.863900	0.051890	0.585440
H2391	H239	0.890200	0.038700	0.576500
C4361	C436	0.886800	0.062840	0.621660
H2401	H240	0.929500	0.057300	0.636600
C4371	C437	0.846100	0.082100	0.635650
C4381	C438	0.784900	0.090490	0.613020
H2411	H241	0.757400	0.103400	0.622300
C4391	C439	0.762800	0.079870	0.575710
H2421	H242	0.721900	0.085900	0.560100
C4401	C440	0.869800	0.092690	0.677200
Gd121	Gd12	0.768300	0.635760	0.269420
O891	O89	0.004200	0.630010	0.295080
O901	O90	0.892100	0.648600	0.285730
O911	O91	0.196400	0.637890	0.666360
O921	O92	0.232200	0.670220	0.691290
O931	O93	0.114700	0.594850	0.281370
O941	O94	0.210000	0.617950	0.294600
O951	O95	0.324200	0.607000	0.690900
O961	O96	0.431600	0.586460	0.692980
C4411	C441	0.010600	0.737610	0.486410
C4421	C442	0.997900	0.724060	0.450220
H2431	H243	0.976100	0.730800	0.426800
C4431	C443	0.017700	0.700940	0.449790
C4441	C444	0.051600	0.690830	0.483180
H2441	H244	0.066700	0.675400	0.482100
C4451	C445	0.063900	0.704000	0.520300
C4461	C446	0.044000	0.727370	0.520030
H2451	H245	0.053700	0.736200	0.543400
C4471	C447	0.001200	0.686960	0.411790
C4481	C448	0.933700	0.690100	0.388300
H2461	H246	0.897700	0.701400	0.396000
C4491	C449	0.918900	0.676660	0.353500
H2471	H247	0.872700	0.678800	0.338500
C4501	C450	0.971900	0.660470	0.341280
C4511	C451	0.039700	0.656950	0.363400
H2481	H248	0.075700	0.645900	0.354700
C4521	C452	0.054400	0.669810	0.398460
H2491	H249	0.100000	0.667100	0.413500
C4531	C453	0.955500	0.644590	0.303800
C4541	C454	0.100300	0.692500	0.557160
C4551	C455	0.095100	0.669650	0.563700
H2501	H250	0.068400	0.660600	0.544600
C4561	C456	0.129000	0.658920	0.598800
H2511	H251	0.124100	0.643000	0.602400
C4571	C457	0.166400	0.670970	0.625850
C4581	C458	0.168500	0.693470	0.620300
H2521	H252	0.193100	0.702500	0.640200
C4591	C459	0.136400	0.704120	0.586800
H2531	H253	0.140000	0.720100	0.584700
C4601	C460	0.202800	0.659490	0.663700
C4611	C461	0.251200	0.513080	0.486520
C4621	C462	0.232800	0.525950	0.451780
H2541	H254	0.218800	0.518300	0.427600
C4631	C463	0.234800	0.550070	0.452040
C4641	C464	0.257500	0.561150	0.488380
H2551	H255	0.259700	0.577200	0.489100
C4651	C465	0.276700	0.548700	0.523480
C4661	C466	0.275300	0.524880	0.522060
H2561	H256	0.290700	0.516500	0.545200
C4671	C467	0.215700	0.563490	0.414210
C4681	C468	0.260500	0.582710	0.403900
H2571	H257	0.301900	0.587000	0.421000
C4691	C469	0.245300	0.595380	0.369600
H2581	H258	0.275100	0.608400	0.363500
C4701	C470	0.184300	0.588570	0.343400
C4711	C471	0.141100	0.570470	0.353500
H2591	H259	0.099000	0.566400	0.336600
C4721	C472	0.156600	0.557330	0.388350
H2601	H260	0.126500	0.544300	0.394000
C4731	C473	0.169900	0.601900	0.302900
C4741	C474	0.301800	0.560610	0.562610
C4751	C475	0.363900	0.551890	0.585440
H2611	H261	0.390200	0.538700	0.576500
C4761	C476	0.386800	0.562840	0.621660
H2621	H262	0.429500	0.557300	0.636600
C4771	C477	0.346100	0.582100	0.635650
C4781	C478	0.284900	0.590490	0.613020
H2631	H263	0.257400	0.603400	0.622300
C4791	C479	0.262800	0.579870	0.575710
H2641	H264	0.221900	0.585900	0.560100
C4801	C480	0.369800	0.592690	0.677200
Gd131	Gd13	0.768300	0.864240	0.230580
O971	O97	0.004200	0.869990	0.204920
O981	O98	0.892100	0.851400	0.214270
O991	O99	0.196400	0.862110	0.833640
O1001	O100	0.232200	0.829780	0.808710
O1011	O101	0.114700	0.905150	0.218630
O1021	O102	0.210000	0.882050	0.205400
O1031	O103	0.324200	0.893000	0.809100
O1041	O104	0.431600	0.913540	0.807020
C4811	C481	0.010600	0.762390	0.013590
C4821	C482	0.997900	0.775940	0.049780
H2651	H265	0.976100	0.769200	0.073200
C4831	C483	0.017700	0.799060	0.050210
C4841	C484	0.051600	0.809170	0.016820
H2661	H266	0.066700	0.824600	0.017900
C4851	C485	0.063900	0.796000	0.979700
C4861	C486	0.044000	0.772630	0.979970
H2671	H267	0.053700	0.763800	0.956600
C4871	C487	0.001200	0.813040	0.088210
C4881	C488	0.933700	0.809900	0.111700
H2681	H268	0.897700	0.798600	0.104000
C4891	C489	0.918900	0.823340	0.146500
H2691	H269	0.872700	0.821200	0.161500
C4901	C490	0.971900	0.839530	0.158720
C4911	C491	0.039700	0.843050	0.136600
H2701	H270	0.075700	0.854100	0.145300
C4921	C492	0.054400	0.830190	0.101540
H2711	H271	0.100000	0.832900	0.086500
C4931	C493	0.955500	0.855410	0.196200
C4941	C494	0.100300	0.807500	0.942840
C4951	C495	0.095100	0.830350	0.936300
H2721	H272	0.068400	0.839400	0.955400
C4961	C496	0.129000	0.841080	0.901200
H2731	H273	0.124100	0.857000	0.897600
C4971	C497	0.166400	0.829030	0.874150
C4981	C498	0.168500	0.806530	0.879700
H2741	H274	0.193100	0.797500	0.859800
C4991	C499	0.136400	0.795880	0.913200
H2751	H275	0.140000	0.779900	0.915300
C5001	C500	0.202800	0.840510	0.836300
C5011	C501	0.251200	0.986920	0.013480
C5021	C502	0.232800	0.974050	0.048220
H2761	H276	0.218800	0.981700	0.072400
C5031	C503	0.234800	0.949930	0.047960
C5041	C504	0.257500	0.938850	0.011620
H2771	H277	0.259700	0.922800	0.010900
C5051	C505	0.276700	0.951300	0.976520
C5061	C506	0.275300	0.975120	0.977940
H2781	H278	0.290700	0.983500	0.954800
C5071	C507	0.215700	0.936510	0.085790
C5081	C508	0.260500	0.917290	0.096100
H2791	H279	0.301900	0.913000	0.079000
C5091	C509	0.245300	0.904620	0.130400
H2801	H280	0.275100	0.891600	0.136500
C5101	C510	0.184300	0.911430	0.156600
C5111	C511	0.141100	0.929530	0.146500
H2811	H281	0.099000	0.933600	0.163400
C5121	C512	0.156600	0.942670	0.111650
H2821	H282	0.126500	0.955700	0.106000
C5131	C513	0.169900	0.898100	0.197100
C5141	C514	0.301800	0.939390	0.937390
C5151	C515	0.363900	0.948110	0.914560
H2831	H283	0.390200	0.961300	0.923500
C5161	C516	0.386800	0.937160	0.878340
H2841	H284	0.429500	0.942700	0.863400
C5171	C517	0.346100	0.917900	0.864350
C5181	C518	0.284900	0.909510	0.886980
H2851	H285	0.257400	0.896600	0.877700
C5191	C519	0.262800	0.920130	0.924290
H2861	H286	0.221900	0.914100	0.939900
C5201	C520	0.369800	0.907310	0.822800
Gd141	Gd14	0.268300	0.364240	0.230580
O1051	O105	0.504200	0.369990	0.204920
O1061	O106	0.392100	0.351400	0.214270
O1071	O107	0.696400	0.362110	0.833640
O1081	O108	0.732200	0.329780	0.808710
O1091	O109	0.614700	0.405150	0.218630
O1101	O110	0.710000	0.382050	0.205400
O1111	O111	0.824200	0.393000	0.809100
O1121	O112	0.931600	0.413540	0.807020
C5211	C521	0.510600	0.262390	0.013590
C5221	C522	0.497900	0.275940	0.049780
H2871	H287	0.476100	0.269200	0.073200
C5231	C523	0.517700	0.299060	0.050210
C5241	C524	0.551600	0.309170	0.016820
H2881	H288	0.566700	0.324600	0.017900
C5251	C525	0.563900	0.296000	0.979700
C5261	C526	0.544000	0.272630	0.979970
H2891	H289	0.553700	0.263800	0.956600
C5271	C527	0.501200	0.313040	0.088210
C5281	C528	0.433700	0.309900	0.111700
H2901	H290	0.397700	0.298600	0.104000
C5291	C529	0.418900	0.323340	0.146500
H2911	H291	0.372700	0.321200	0.161500
C5301	C530	0.471900	0.339530	0.158720
C5311	C531	0.539700	0.343050	0.136600
H2921	H292	0.575700	0.354100	0.145300
C5321	C532	0.554400	0.330190	0.101540
H2931	H293	0.600000	0.332900	0.086500
C5331	C533	0.455500	0.355410	0.196200
C5341	C534	0.600300	0.307500	0.942840
C5351	C535	0.595100	0.330350	0.936300
H2941	H294	0.568400	0.339400	0.955400
C5361	C536	0.629000	0.341080	0.901200
H2951	H295	0.624100	0.357000	0.897600
C5371	C537	0.666400	0.329030	0.874150
C5381	C538	0.668500	0.306530	0.879700
H2961	H296	0.693100	0.297500	0.859800
C5391	C539	0.636400	0.295880	0.913200
H2971	H297	0.640000	0.279900	0.915300
C5401	C540	0.702800	0.340510	0.836300
C5411	C541	0.751200	0.486920	0.013480
C5421	C542	0.732800	0.474050	0.048220
H2981	H298	0.718800	0.481700	0.072400
C5431	C543	0.734800	0.449930	0.047960
C5441	C544	0.757500	0.438850	0.011620
H2991	H299	0.759700	0.422800	0.010900
C5451	C545	0.776700	0.451300	0.976520
C5461	C546	0.775300	0.475120	0.977940
H3001	H300	0.790700	0.483500	0.954800
C5471	C547	0.715700	0.436510	0.085790
C5481	C548	0.760500	0.417290	0.096100
H3011	H301	0.801900	0.413000	0.079000
C5491	C549	0.745300	0.404620	0.130400
H3021	H302	0.775100	0.391600	0.136500
C5501	C550	0.684300	0.411430	0.156600
C5511	C551	0.641100	0.429530	0.146500
H3031	H303	0.599000	0.433600	0.163400
C5521	C552	0.656600	0.442670	0.111650
H3041	H304	0.626500	0.455700	0.106000
C5531	C553	0.669900	0.398100	0.197100
C5541	C554	0.801800	0.439390	0.937390
C5551	C555	0.863900	0.448110	0.914560
H3051	H305	0.890200	0.461300	0.923500
C5561	C556	0.886800	0.437160	0.878340
H3061	H306	0.929500	0.442700	0.863400
C5571	C557	0.846100	0.417900	0.864350
C5581	C558	0.784900	0.409510	0.886980
H3071	H307	0.757400	0.396600	0.877700
C5591	C559	0.762800	0.420130	0.924290
H3081	H308	0.721900	0.414100	0.939900
C5601	C560	0.869800	0.407310	0.822800
Gd151	Gd15	0.731700	0.135760	0.230580
O1131	O113	0.495800	0.130010	0.204920
O1141	O114	0.607900	0.148600	0.214270
O1151	O115	0.303600	0.137890	0.833640
O1161	O116	0.267800	0.170220	0.808710
O1171	O117	0.385300	0.094850	0.218630
O1181	O118	0.290000	0.117950	0.205400
O1191	O119	0.175800	0.107000	0.809100
O1201	O120	0.068400	0.086460	0.807020
C5611	C561	0.489400	0.237610	0.013590
C5621	C562	0.502100	0.224060	0.049780
H3091	H309	0.523900	0.230800	0.073200
C5631	C563	0.482300	0.200940	0.050210
C5641	C564	0.448400	0.190830	0.016820
H3101	H310	0.433300	0.175400	0.017900
C5651	C565	0.436100	0.204000	0.979700
C5661	C566	0.456000	0.227370	0.979970
H3111	H311	0.446300	0.236200	0.956600
C5671	C567	0.498800	0.186960	0.088210
C5681	C568	0.566300	0.190100	0.111700
H3121	H312	0.602300	0.201400	0.104000
C5691	C569	0.581100	0.176660	0.146500
H3131	H313	0.627300	0.178800	0.161500
C5701	C570	0.528100	0.160470	0.158720
C5711	C571	0.460300	0.156950	0.136600
H3141	H314	0.424300	0.145900	0.145300
C5721	C572	0.445600	0.169810	0.101540
H3151	H315	0.400000	0.167100	0.086500
C5731	C573	0.544500	0.144590	0.196200
C5741	C574	0.399700	0.192500	0.942840
C5751	C575	0.404900	0.169650	0.936300
H3161	H316	0.431600	0.160600	0.955400
C5761	C576	0.371000	0.158920	0.901200
H3171	H317	0.375900	0.143000	0.897600
C5771	C577	0.333600	0.170970	0.874150
C5781	C578	0.331500	0.193470	0.879700
H3181	H318	0.306900	0.202500	0.859800
C5791	C579	0.363600	0.204120	0.913200
H3191	H319	0.360000	0.220100	0.915300
C5801	C580	0.297200	0.159490	0.836300
C5811	C581	0.248800	0.013080	0.013480
C5821	C582	0.267200	0.025950	0.048220
H3201	H320	0.281200	0.018300	0.072400
C5831	C583	0.265200	0.050070	0.047960
C5841	C584	0.242500	0.061150	0.011620
H3211	H321	0.240300	0.077200	0.010900
C5851	C585	0.223300	0.048700	0.976520
C5861	C586	0.224700	0.024880	0.977940
H3221	H322	0.209300	0.016500	0.954800
C5871	C587	0.284300	0.063490	0.085790
C5881	C588	0.239500	0.082710	0.096100
H3231	H323	0.198100	0.087000	0.079000
C5891	C589	0.254700	0.095380	0.130400
H3241	H324	0.224900	0.108400	0.136500
C5901	C590	0.315700	0.088570	0.156600
C5911	C591	0.358900	0.070470	0.146500
H3251	H325	0.401000	0.066400	0.163400
C5921	C592	0.343400	0.057330	0.111650
H3261	H326	0.373500	0.044300	0.106000
C5931	C593	0.330100	0.101900	0.197100
C5941	C594	0.198200	0.060610	0.937390
C5951	C595	0.136100	0.051890	0.914560
H3271	H327	0.109800	0.038700	0.923500
C5961	C596	0.113200	0.062840	0.878340
H3281	H328	0.070500	0.057300	0.863400
C5971	C597	0.153900	0.082100	0.864350
C5981	C598	0.215100	0.090490	0.886980
H3291	H329	0.242600	0.103400	0.877700
C5991	C599	0.237200	0.079870	0.924290
H3301	H330	0.278100	0.085900	0.939900
C6001	C600	0.130200	0.092690	0.822800
Gd161	Gd16	0.231700	0.635760	0.230580
O1211	O121	0.995800	0.630010	0.204920
O1221	O122	0.107900	0.648600	0.214270
O1231	O123	0.803600	0.637890	0.833640
O1241	O124	0.767800	0.670220	0.808710
O1251	O125	0.885300	0.594850	0.218630
O1261	O126	0.790000	0.617950	0.205400
O1271	O127	0.675800	0.607000	0.809100
O1281	O128	0.568400	0.586460	0.807020
C6011	C601	0.989400	0.737610	0.013590
C6021	C602	0.002100	0.724060	0.049780
H3311	H331	0.023900	0.730800	0.073200
C6031	C603	0.982300	0.700940	0.050210
C6041	C604	0.948400	0.690830	0.016820
H3321	H332	0.933300	0.675400	0.017900
C6051	C605	0.936100	0.704000	0.979700
C6061	C606	0.956000	0.727370	0.979970
H3331	H333	0.946300	0.736200	0.956600
C6071	C607	0.998800	0.686960	0.088210
C6081	C608	0.066300	0.690100	0.111700
H3341	H334	0.102300	0.701400	0.104000
C6091	C609	0.081100	0.676660	0.146500
H3351	H335	0.127300	0.678800	0.161500
C6101	C610	0.028100	0.660470	0.158720
C6111	C611	0.960300	0.656950	0.136600
H3361	H336	0.924300	0.645900	0.145300
C6121	C612	0.945600	0.669810	0.101540
H3371	H337	0.900000	0.667100	0.086500
C6131	C613	0.044500	0.644590	0.196200
C6141	C614	0.899700	0.692500	0.942840
C6151	C615	0.904900	0.669650	0.936300
H3381	H338	0.931600	0.660600	0.955400
C6161	C616	0.871000	0.658920	0.901200
H3391	H339	0.875900	0.643000	0.897600
C6171	C617	0.833600	0.670970	0.874150
C6181	C618	0.831500	0.693470	0.879700
H3401	H340	0.806900	0.702500	0.859800
C6191	C619	0.863600	0.704120	0.913200
H3411	H341	0.860000	0.720100	0.915300
C6201	C620	0.797200	0.659490	0.836300
C6211	C621	0.748800	0.513080	0.013480
C6221	C622	0.767200	0.525950	0.048220
H3421	H342	0.781200	0.518300	0.072400
C6231	C623	0.765200	0.550070	0.047960
C6241	C624	0.742500	0.561150	0.011620
H3431	H343	0.740300	0.577200	0.010900
C6251	C625	0.723300	0.548700	0.976520
C6261	C626	0.724700	0.524880	0.977940
H3441	H344	0.709300	0.516500	0.954800
C6271	C627	0.784300	0.563490	0.085790
C6281	C628	0.739500	0.582710	0.096100
H3451	H345	0.698100	0.587000	0.079000
C6291	C629	0.754700	0.595380	0.130400
H3461	H346	0.724900	0.608400	0.136500
C6301	C630	0.815700	0.588570	0.156600
C6311	C631	0.858900	0.570470	0.146500
H3471	H347	0.901000	0.566400	0.163400
C6321	C632	0.843400	0.557330	0.111650
H3481	H348	0.873500	0.544300	0.106000
C6331	C633	0.830100	0.601900	0.197100
C6341	C634	0.698200	0.560610	0.937390
C6351	C635	0.636100	0.551890	0.914560
H3491	H349	0.609800	0.538700	0.923500
C6361	C636	0.613200	0.562840	0.878340
H3501	H350	0.570500	0.557300	0.863400
C6371	C637	0.653900	0.582100	0.864350
C6381	C638	0.715100	0.590490	0.886980
H3511	H351	0.742600	0.603400	0.877700
C6391	C639	0.737200	0.579870	0.924290
H3521	H352	0.778100	0.585900	0.939900
C6401	C640	0.630200	0.592690	0.822800
Gd171	Gd17	0.000000	0.099520	0.750000
Gd181	Gd18	0.500000	0.599520	0.750000
Gd191	Gd19	0.500000	0.900480	0.750000
Gd201	Gd20	0.000000	0.400480	0.750000
Gd211	Gd21	0.000000	0.900480	0.250000
Gd221	Gd22	0.500000	0.400480	0.250000
Gd231	Gd23	0.500000	0.099520	0.250000
Gd241	Gd24	0.000000	0.599520	0.250000
