data_ATEZAC_clean_PM
_symmetry_space_group_name_H-M	'P1'
_cell_length_a	32.318000
_cell_length_b	29.354000
_cell_length_c	18.523200
_cell_angle_alpha	90.000000
_cell_angle_beta	104.277000
_cell_angle_gamma	90.000000
_symmetry_Int_Tables_number 1

loop_
_symmetry_equiv_pos_as_xyz
'x,y,z'

loop_
_atom_site_label
_atom_site_type_symbol
_atom_site_fract_x
_atom_site_fract_y
_atom_site_fract_z
Er11	Er1	0.014360	0.228320	0.046230
O11	O1	0.036920	0.205450	0.163600
O21	O2	0.045250	0.246370	0.267800
O31	O3	0.460910	0.183130	0.636100
O41	O4	0.452240	0.233870	0.546000
O51	O5	0.081770	0.778060	0.518800
O61	O6	0.046830	0.839880	0.515500
O71	O7	0.452600	0.793070	0.408900
O81	O8	0.446120	0.829730	0.302800
C11	C1	0.245820	0.039940	0.398500
C21	C2	0.208550	0.063850	0.367200
H11	H1	0.183700	0.047900	0.345700
C31	C3	0.207850	0.110920	0.367400
C41	C4	0.244580	0.135490	0.402100
H21	H2	0.244100	0.167200	0.402500
C51	C5	0.281840	0.112210	0.436000
C61	C6	0.281940	0.064450	0.433300
H31	H3	0.306900	0.048800	0.455400
C71	C7	0.167670	0.137160	0.329700
C81	C8	0.154550	0.173250	0.366400
H41	H4	0.170600	0.181000	0.413700
C91	C9	0.118540	0.198000	0.335100
H51	H5	0.110400	0.222200	0.361000
C101	C10	0.094440	0.186500	0.264600
C111	C11	0.106640	0.150340	0.227200
H61	H6	0.090800	0.142900	0.179600
C121	C12	0.142410	0.125050	0.260300
H71	H7	0.149600	0.099700	0.235800
C131	C13	0.055750	0.215190	0.229600
C141	C14	0.321400	0.137250	0.472500
C151	C15	0.347570	0.120200	0.538100
H81	H8	0.339500	0.094100	0.559500
C161	C16	0.385380	0.141600	0.571700
H91	H9	0.402500	0.129900	0.615600
C171	C17	0.397840	0.180300	0.540500
C181	C18	0.371490	0.198130	0.477100
H101	H10	0.379200	0.224800	0.456800
C191	C19	0.333580	0.176840	0.443200
H111	H11	0.316100	0.189300	0.400200
C201	C20	0.439860	0.201900	0.576600
C211	C21	0.247370	0.989850	0.402300
C221	C22	0.282650	0.966450	0.393300
H121	H12	0.304800	0.982600	0.381200
C231	C23	0.286300	0.918320	0.402100
C241	C24	0.252790	0.894960	0.418800
H131	H13	0.254500	0.863500	0.424500
C251	C25	0.216330	0.917770	0.427300
C261	C26	0.214160	0.964900	0.419300
H141	H14	0.190000	0.980200	0.425400
C271	C27	0.181480	0.892590	0.450000
C281	C28	0.114300	0.846000	0.488100
C291	C29	0.079270	0.819100	0.508100
C301	C30	0.324590	0.894100	0.391100
C311	C31	0.340660	0.855520	0.435200
H151	H15	0.326800	0.845300	0.470600
C321	C32	0.376380	0.833000	0.426400
H161	H16	0.387000	0.808200	0.456700
C331	C33	0.396770	0.847130	0.372300
C341	C34	0.380480	0.883960	0.327500
H171	H17	0.393000	0.892800	0.289500
C351	C35	0.345920	0.907340	0.339100
H181	H18	0.336600	0.933200	0.310600
C361	C36	0.434730	0.820940	0.359500
C371	C37	0.114000	0.886400	0.477900
H191	H19	0.091000	0.903100	0.485500
C381	C38	0.181700	0.850600	0.454700
H201	H20	0.199700	0.833000	0.433800
C391	C39	0.151500	0.828400	0.495700
H211	H21	0.159700	0.802800	0.525400
C401	C40	0.146300	0.909800	0.455400
H221	H22	0.141600	0.940500	0.443300
Er21	Er2	0.514360	0.728320	0.046230
O91	O9	0.536920	0.705450	0.163600
O101	O10	0.545250	0.746370	0.267800
O111	O11	0.960910	0.683130	0.636100
O121	O12	0.952240	0.733870	0.546000
O131	O13	0.581770	0.278060	0.518800
O141	O14	0.546830	0.339880	0.515500
O151	O15	0.952600	0.293070	0.408900
O161	O16	0.946120	0.329730	0.302800
C411	C41	0.745820	0.539940	0.398500
C421	C42	0.708550	0.563850	0.367200
H231	H23	0.683700	0.547900	0.345700
C431	C43	0.707850	0.610920	0.367400
C441	C44	0.744580	0.635490	0.402100
H241	H24	0.744100	0.667200	0.402500
C451	C45	0.781840	0.612210	0.436000
C461	C46	0.781940	0.564450	0.433300
H251	H25	0.806900	0.548800	0.455400
C471	C47	0.667670	0.637160	0.329700
C481	C48	0.654550	0.673250	0.366400
H261	H26	0.670600	0.681000	0.413700
C491	C49	0.618540	0.698000	0.335100
H271	H27	0.610400	0.722200	0.361000
C501	C50	0.594440	0.686500	0.264600
C511	C51	0.606640	0.650340	0.227200
H281	H28	0.590800	0.642900	0.179600
C521	C52	0.642410	0.625050	0.260300
H291	H29	0.649600	0.599700	0.235800
C531	C53	0.555750	0.715190	0.229600
C541	C54	0.821400	0.637250	0.472500
C551	C55	0.847570	0.620200	0.538100
H301	H30	0.839500	0.594100	0.559500
C561	C56	0.885380	0.641600	0.571700
H311	H31	0.902500	0.629900	0.615600
C571	C57	0.897840	0.680300	0.540500
C581	C58	0.871490	0.698130	0.477100
H321	H32	0.879200	0.724800	0.456800
C591	C59	0.833580	0.676840	0.443200
H331	H33	0.816100	0.689300	0.400200
C601	C60	0.939860	0.701900	0.576600
C611	C61	0.747370	0.489850	0.402300
C621	C62	0.782650	0.466450	0.393300
H341	H34	0.804800	0.482600	0.381200
C631	C63	0.786300	0.418320	0.402100
C641	C64	0.752790	0.394960	0.418800
H351	H35	0.754500	0.363500	0.424500
C651	C65	0.716330	0.417770	0.427300
C661	C66	0.714160	0.464900	0.419300
H361	H36	0.690000	0.480200	0.425400
C671	C67	0.681480	0.392590	0.450000
C681	C68	0.614300	0.346000	0.488100
C691	C69	0.579270	0.319100	0.508100
C701	C70	0.824590	0.394100	0.391100
C711	C71	0.840660	0.355520	0.435200
H371	H37	0.826800	0.345300	0.470600
C721	C72	0.876380	0.333000	0.426400
H381	H38	0.887000	0.308200	0.456700
C731	C73	0.896770	0.347130	0.372300
C741	C74	0.880480	0.383960	0.327500
H391	H39	0.893000	0.392800	0.289500
C751	C75	0.845920	0.407340	0.339100
H401	H40	0.836600	0.433200	0.310600
C761	C76	0.934730	0.320940	0.359500
C771	C77	0.614000	0.386400	0.477900
H411	H41	0.591000	0.403100	0.485500
C781	C78	0.681700	0.350600	0.454700
H421	H42	0.699700	0.333000	0.433800
C791	C79	0.651500	0.328400	0.495700
H431	H43	0.659700	0.302800	0.525400
C801	C80	0.646300	0.409800	0.455400
H441	H44	0.641600	0.440500	0.443300
Er31	Er3	0.985640	0.228320	0.453770
O171	O17	0.963080	0.205450	0.336400
O181	O18	0.954750	0.246370	0.232200
O191	O19	0.539090	0.183130	0.863900
O201	O20	0.547760	0.233870	0.954000
O211	O21	0.918230	0.778060	0.981200
O221	O22	0.953170	0.839880	0.984500
O231	O23	0.547400	0.793070	0.091100
O241	O24	0.553880	0.829730	0.197200
C811	C81	0.754180	0.039940	0.101500
C821	C82	0.791450	0.063850	0.132800
H451	H45	0.816300	0.047900	0.154300
C831	C83	0.792150	0.110920	0.132600
C841	C84	0.755420	0.135490	0.097900
H461	H46	0.755900	0.167200	0.097500
C851	C85	0.718160	0.112210	0.064000
C861	C86	0.718060	0.064450	0.066700
H471	H47	0.693100	0.048800	0.044600
C871	C87	0.832330	0.137160	0.170300
C881	C88	0.845450	0.173250	0.133600
H481	H48	0.829400	0.181000	0.086300
C891	C89	0.881460	0.198000	0.164900
H491	H49	0.889600	0.222200	0.139000
C901	C90	0.905560	0.186500	0.235400
C911	C91	0.893360	0.150340	0.272800
H501	H50	0.909200	0.142900	0.320400
C921	C92	0.857590	0.125050	0.239700
H511	H51	0.850400	0.099700	0.264200
C931	C93	0.944250	0.215190	0.270400
C941	C94	0.678600	0.137250	0.027500
C951	C95	0.652430	0.120200	0.961900
H521	H52	0.660500	0.094100	0.940500
C961	C96	0.614620	0.141600	0.928300
H531	H53	0.597500	0.129900	0.884400
C971	C97	0.602160	0.180300	0.959500
C981	C98	0.628510	0.198130	0.022900
H541	H54	0.620800	0.224800	0.043200
C991	C99	0.666420	0.176840	0.056800
H551	H55	0.683900	0.189300	0.099800
C1001	C100	0.560140	0.201900	0.923400
C1011	C101	0.752630	0.989850	0.097700
C1021	C102	0.717350	0.966450	0.106700
H561	H56	0.695200	0.982600	0.118800
C1031	C103	0.713700	0.918320	0.097900
C1041	C104	0.747210	0.894960	0.081200
H571	H57	0.745500	0.863500	0.075500
C1051	C105	0.783670	0.917770	0.072700
C1061	C106	0.785840	0.964900	0.080700
H581	H58	0.810000	0.980200	0.074600
C1071	C107	0.818520	0.892590	0.050000
C1081	C108	0.885700	0.846000	0.011900
C1091	C109	0.920730	0.819100	0.991900
C1101	C110	0.675410	0.894100	0.108900
C1111	C111	0.659340	0.855520	0.064800
H591	H59	0.673200	0.845300	0.029400
C1121	C112	0.623620	0.833000	0.073600
H601	H60	0.613000	0.808200	0.043300
C1131	C113	0.603230	0.847130	0.127700
C1141	C114	0.619520	0.883960	0.172500
H611	H61	0.607000	0.892800	0.210500
C1151	C115	0.654080	0.907340	0.160900
H621	H62	0.663400	0.933200	0.189400
C1161	C116	0.565270	0.820940	0.140500
C1171	C117	0.886000	0.886400	0.022100
H631	H63	0.909000	0.903100	0.014500
C1181	C118	0.818300	0.850600	0.045300
H641	H64	0.800300	0.833000	0.066200
C1191	C119	0.848500	0.828400	0.004300
H651	H65	0.840300	0.802800	0.974600
C1201	C120	0.853700	0.909800	0.044600
H661	H66	0.858400	0.940500	0.056700
Er41	Er4	0.485640	0.728320	0.453770
O251	O25	0.463080	0.705450	0.336400
O261	O26	0.454750	0.746370	0.232200
O271	O27	0.039090	0.683130	0.863900
O281	O28	0.047760	0.733870	0.954000
O291	O29	0.418230	0.278060	0.981200
O301	O30	0.453170	0.339880	0.984500
O311	O31	0.047400	0.293070	0.091100
O321	O32	0.053880	0.329730	0.197200
C1211	C121	0.254180	0.539940	0.101500
C1221	C122	0.291450	0.563850	0.132800
H671	H67	0.316300	0.547900	0.154300
C1231	C123	0.292150	0.610920	0.132600
C1241	C124	0.255420	0.635490	0.097900
H681	H68	0.255900	0.667200	0.097500
C1251	C125	0.218160	0.612210	0.064000
C1261	C126	0.218060	0.564450	0.066700
H691	H69	0.193100	0.548800	0.044600
C1271	C127	0.332330	0.637160	0.170300
C1281	C128	0.345450	0.673250	0.133600
H701	H70	0.329400	0.681000	0.086300
C1291	C129	0.381460	0.698000	0.164900
H711	H71	0.389600	0.722200	0.139000
C1301	C130	0.405560	0.686500	0.235400
C1311	C131	0.393360	0.650340	0.272800
H721	H72	0.409200	0.642900	0.320400
C1321	C132	0.357590	0.625050	0.239700
H731	H73	0.350400	0.599700	0.264200
C1331	C133	0.444250	0.715190	0.270400
C1341	C134	0.178600	0.637250	0.027500
C1351	C135	0.152430	0.620200	0.961900
H741	H74	0.160500	0.594100	0.940500
C1361	C136	0.114620	0.641600	0.928300
H751	H75	0.097500	0.629900	0.884400
C1371	C137	0.102160	0.680300	0.959500
C1381	C138	0.128510	0.698130	0.022900
H761	H76	0.120800	0.724800	0.043200
C1391	C139	0.166420	0.676840	0.056800
H771	H77	0.183900	0.689300	0.099800
C1401	C140	0.060140	0.701900	0.923400
C1411	C141	0.252630	0.489850	0.097700
C1421	C142	0.217350	0.466450	0.106700
H781	H78	0.195200	0.482600	0.118800
C1431	C143	0.213700	0.418320	0.097900
C1441	C144	0.247210	0.394960	0.081200
H791	H79	0.245500	0.363500	0.075500
C1451	C145	0.283670	0.417770	0.072700
C1461	C146	0.285840	0.464900	0.080700
H801	H80	0.310000	0.480200	0.074600
C1471	C147	0.318520	0.392590	0.050000
C1481	C148	0.385700	0.346000	0.011900
C1491	C149	0.420730	0.319100	0.991900
C1501	C150	0.175410	0.394100	0.108900
C1511	C151	0.159340	0.355520	0.064800
H811	H81	0.173200	0.345300	0.029400
C1521	C152	0.123620	0.333000	0.073600
H821	H82	0.113000	0.308200	0.043300
C1531	C153	0.103230	0.347130	0.127700
C1541	C154	0.119520	0.383960	0.172500
H831	H83	0.107000	0.392800	0.210500
C1551	C155	0.154080	0.407340	0.160900
H841	H84	0.163400	0.433200	0.189400
C1561	C156	0.065270	0.320940	0.140500
C1571	C157	0.386000	0.386400	0.022100
H851	H85	0.409000	0.403100	0.014500
C1581	C158	0.318300	0.350600	0.045300
H861	H86	0.300300	0.333000	0.066200
C1591	C159	0.348500	0.328400	0.004300
H871	H87	0.340300	0.302800	0.974600
C1601	C160	0.353700	0.409800	0.044600
H881	H88	0.358400	0.440500	0.056700
Er51	Er5	0.985640	0.771680	0.953770
O331	O33	0.963080	0.794550	0.836400
O341	O34	0.954750	0.753630	0.732200
O351	O35	0.539090	0.816870	0.363900
O361	O36	0.547760	0.766130	0.454000
O371	O37	0.918230	0.221940	0.481200
O381	O38	0.953170	0.160120	0.484500
O391	O39	0.547400	0.206930	0.591100
O401	O40	0.553880	0.170270	0.697200
C1611	C161	0.754180	0.960060	0.601500
C1621	C162	0.791450	0.936150	0.632800
H891	H89	0.816300	0.952100	0.654300
C1631	C163	0.792150	0.889080	0.632600
C1641	C164	0.755420	0.864510	0.597900
H901	H90	0.755900	0.832800	0.597500
C1651	C165	0.718160	0.887790	0.564000
C1661	C166	0.718060	0.935550	0.566700
H911	H91	0.693100	0.951200	0.544600
C1671	C167	0.832330	0.862840	0.670300
C1681	C168	0.845450	0.826750	0.633600
H921	H92	0.829400	0.819000	0.586300
C1691	C169	0.881460	0.802000	0.664900
H931	H93	0.889600	0.777800	0.639000
C1701	C170	0.905560	0.813500	0.735400
C1711	C171	0.893360	0.849660	0.772800
H941	H94	0.909200	0.857100	0.820400
C1721	C172	0.857590	0.874950	0.739700
H951	H95	0.850400	0.900300	0.764200
C1731	C173	0.944250	0.784810	0.770400
C1741	C174	0.678600	0.862750	0.527500
C1751	C175	0.652430	0.879800	0.461900
H961	H96	0.660500	0.905900	0.440500
C1761	C176	0.614620	0.858400	0.428300
H971	H97	0.597500	0.870100	0.384400
C1771	C177	0.602160	0.819700	0.459500
C1781	C178	0.628510	0.801870	0.522900
H981	H98	0.620800	0.775200	0.543200
C1791	C179	0.666420	0.823160	0.556800
H991	H99	0.683900	0.810700	0.599800
C1801	C180	0.560140	0.798100	0.423400
C1811	C181	0.752630	0.010150	0.597700
C1821	C182	0.717350	0.033550	0.606700
H1001	H100	0.695200	0.017400	0.618800
C1831	C183	0.713700	0.081680	0.597900
C1841	C184	0.747210	0.105040	0.581200
H1011	H101	0.745500	0.136500	0.575500
C1851	C185	0.783670	0.082230	0.572700
C1861	C186	0.785840	0.035100	0.580700
H1021	H102	0.810000	0.019800	0.574600
C1871	C187	0.818520	0.107410	0.550000
C1881	C188	0.885700	0.154000	0.511900
C1891	C189	0.920730	0.180900	0.491900
C1901	C190	0.675410	0.105900	0.608900
C1911	C191	0.659340	0.144480	0.564800
H1031	H103	0.673200	0.154700	0.529400
C1921	C192	0.623620	0.167000	0.573600
H1041	H104	0.613000	0.191800	0.543300
C1931	C193	0.603230	0.152870	0.627700
C1941	C194	0.619520	0.116040	0.672500
H1051	H105	0.607000	0.107200	0.710500
C1951	C195	0.654080	0.092660	0.660900
H1061	H106	0.663400	0.066800	0.689400
C1961	C196	0.565270	0.179060	0.640500
C1971	C197	0.886000	0.113600	0.522100
H1071	H107	0.909000	0.096900	0.514500
C1981	C198	0.818300	0.149400	0.545300
H1081	H108	0.800300	0.167000	0.566200
C1991	C199	0.848500	0.171600	0.504300
H1091	H109	0.840300	0.197200	0.474600
C2001	C200	0.853700	0.090200	0.544600
H1101	H110	0.858400	0.059500	0.556700
Er61	Er6	0.485640	0.271680	0.953770
O411	O41	0.463080	0.294550	0.836400
O421	O42	0.454750	0.253630	0.732200
O431	O43	0.039090	0.316870	0.363900
O441	O44	0.047760	0.266130	0.454000
O451	O45	0.418230	0.721940	0.481200
O461	O46	0.453170	0.660120	0.484500
O471	O47	0.047400	0.706930	0.591100
O481	O48	0.053880	0.670270	0.697200
C2011	C201	0.254180	0.460060	0.601500
C2021	C202	0.291450	0.436150	0.632800
H1111	H111	0.316300	0.452100	0.654300
C2031	C203	0.292150	0.389080	0.632600
C2041	C204	0.255420	0.364510	0.597900
H1121	H112	0.255900	0.332800	0.597500
C2051	C205	0.218160	0.387790	0.564000
C2061	C206	0.218060	0.435550	0.566700
H1131	H113	0.193100	0.451200	0.544600
C2071	C207	0.332330	0.362840	0.670300
C2081	C208	0.345450	0.326750	0.633600
H1141	H114	0.329400	0.319000	0.586300
C2091	C209	0.381460	0.302000	0.664900
H1151	H115	0.389600	0.277800	0.639000
C2101	C210	0.405560	0.313500	0.735400
C2111	C211	0.393360	0.349660	0.772800
H1161	H116	0.409200	0.357100	0.820400
C2121	C212	0.357590	0.374950	0.739700
H1171	H117	0.350400	0.400300	0.764200
C2131	C213	0.444250	0.284810	0.770400
C2141	C214	0.178600	0.362750	0.527500
C2151	C215	0.152430	0.379800	0.461900
H1181	H118	0.160500	0.405900	0.440500
C2161	C216	0.114620	0.358400	0.428300
H1191	H119	0.097500	0.370100	0.384400
C2171	C217	0.102160	0.319700	0.459500
C2181	C218	0.128510	0.301870	0.522900
H1201	H120	0.120800	0.275200	0.543200
C2191	C219	0.166420	0.323160	0.556800
H1211	H121	0.183900	0.310700	0.599800
C2201	C220	0.060140	0.298100	0.423400
C2211	C221	0.252630	0.510150	0.597700
C2221	C222	0.217350	0.533550	0.606700
H1221	H122	0.195200	0.517400	0.618800
C2231	C223	0.213700	0.581680	0.597900
C2241	C224	0.247210	0.605040	0.581200
H1231	H123	0.245500	0.636500	0.575500
C2251	C225	0.283670	0.582230	0.572700
C2261	C226	0.285840	0.535100	0.580700
H1241	H124	0.310000	0.519800	0.574600
C2271	C227	0.318520	0.607410	0.550000
C2281	C228	0.385700	0.654000	0.511900
C2291	C229	0.420730	0.680900	0.491900
C2301	C230	0.175410	0.605900	0.608900
C2311	C231	0.159340	0.644480	0.564800
H1251	H125	0.173200	0.654700	0.529400
C2321	C232	0.123620	0.667000	0.573600
H1261	H126	0.113000	0.691800	0.543300
C2331	C233	0.103230	0.652870	0.627700
C2341	C234	0.119520	0.616040	0.672500
H1271	H127	0.107000	0.607200	0.710500
C2351	C235	0.154080	0.592660	0.660900
H1281	H128	0.163400	0.566800	0.689400
C2361	C236	0.065270	0.679060	0.640500
C2371	C237	0.386000	0.613600	0.522100
H1291	H129	0.409000	0.596900	0.514500
C2381	C238	0.318300	0.649400	0.545300
H1301	H130	0.300300	0.667000	0.566200
C2391	C239	0.348500	0.671600	0.504300
H1311	H131	0.340300	0.697200	0.474600
C2401	C240	0.353700	0.590200	0.544600
H1321	H132	0.358400	0.559500	0.556700
Er71	Er7	0.014360	0.771680	0.546230
O491	O49	0.036920	0.794550	0.663600
O501	O50	0.045250	0.753630	0.767800
O511	O51	0.460910	0.816870	0.136100
O521	O52	0.452240	0.766130	0.046000
O531	O53	0.081770	0.221940	0.018800
O541	O54	0.046830	0.160120	0.015500
O551	O55	0.452600	0.206930	0.908900
O561	O56	0.446120	0.170270	0.802800
C2411	C241	0.245820	0.960060	0.898500
C2421	C242	0.208550	0.936150	0.867200
H1331	H133	0.183700	0.952100	0.845700
C2431	C243	0.207850	0.889080	0.867400
C2441	C244	0.244580	0.864510	0.902100
H1341	H134	0.244100	0.832800	0.902500
C2451	C245	0.281840	0.887790	0.936000
C2461	C246	0.281940	0.935550	0.933300
H1351	H135	0.306900	0.951200	0.955400
C2471	C247	0.167670	0.862840	0.829700
C2481	C248	0.154550	0.826750	0.866400
H1361	H136	0.170600	0.819000	0.913700
C2491	C249	0.118540	0.802000	0.835100
H1371	H137	0.110400	0.777800	0.861000
C2501	C250	0.094440	0.813500	0.764600
C2511	C251	0.106640	0.849660	0.727200
H1381	H138	0.090800	0.857100	0.679600
C2521	C252	0.142410	0.874950	0.760300
H1391	H139	0.149600	0.900300	0.735800
C2531	C253	0.055750	0.784810	0.729600
C2541	C254	0.321400	0.862750	0.972500
C2551	C255	0.347570	0.879800	0.038100
H1401	H140	0.339500	0.905900	0.059500
C2561	C256	0.385380	0.858400	0.071700
H1411	H141	0.402500	0.870100	0.115600
C2571	C257	0.397840	0.819700	0.040500
C2581	C258	0.371490	0.801870	0.977100
H1421	H142	0.379200	0.775200	0.956800
C2591	C259	0.333580	0.823160	0.943200
H1431	H143	0.316100	0.810700	0.900200
C2601	C260	0.439860	0.798100	0.076600
C2611	C261	0.247370	0.010150	0.902300
C2621	C262	0.282650	0.033550	0.893300
H1441	H144	0.304800	0.017400	0.881200
C2631	C263	0.286300	0.081680	0.902100
C2641	C264	0.252790	0.105040	0.918800
H1451	H145	0.254500	0.136500	0.924500
C2651	C265	0.216330	0.082230	0.927300
C2661	C266	0.214160	0.035100	0.919300
H1461	H146	0.190000	0.019800	0.925400
C2671	C267	0.181480	0.107410	0.950000
C2681	C268	0.114300	0.154000	0.988100
C2691	C269	0.079270	0.180900	0.008100
C2701	C270	0.324590	0.105900	0.891100
C2711	C271	0.340660	0.144480	0.935200
H1471	H147	0.326800	0.154700	0.970600
C2721	C272	0.376380	0.167000	0.926400
H1481	H148	0.387000	0.191800	0.956700
C2731	C273	0.396770	0.152870	0.872300
C2741	C274	0.380480	0.116040	0.827500
H1491	H149	0.393000	0.107200	0.789500
C2751	C275	0.345920	0.092660	0.839100
H1501	H150	0.336600	0.066800	0.810600
C2761	C276	0.434730	0.179060	0.859500
C2771	C277	0.114000	0.113600	0.977900
H1511	H151	0.091000	0.096900	0.985500
C2781	C278	0.181700	0.149400	0.954700
H1521	H152	0.199700	0.167000	0.933800
C2791	C279	0.151500	0.171600	0.995700
H1531	H153	0.159700	0.197200	0.025400
C2801	C280	0.146300	0.090200	0.955400
H1541	H154	0.141600	0.059500	0.943300
Er81	Er8	0.514360	0.271680	0.546230
O571	O57	0.536920	0.294550	0.663600
O581	O58	0.545250	0.253630	0.767800
O591	O59	0.960910	0.316870	0.136100
O601	O60	0.952240	0.266130	0.046000
O611	O61	0.581770	0.721940	0.018800
O621	O62	0.546830	0.660120	0.015500
O631	O63	0.952600	0.706930	0.908900
O641	O64	0.946120	0.670270	0.802800
C2811	C281	0.745820	0.460060	0.898500
C2821	C282	0.708550	0.436150	0.867200
H1551	H155	0.683700	0.452100	0.845700
C2831	C283	0.707850	0.389080	0.867400
C2841	C284	0.744580	0.364510	0.902100
H1561	H156	0.744100	0.332800	0.902500
C2851	C285	0.781840	0.387790	0.936000
C2861	C286	0.781940	0.435550	0.933300
H1571	H157	0.806900	0.451200	0.955400
C2871	C287	0.667670	0.362840	0.829700
C2881	C288	0.654550	0.326750	0.866400
H1581	H158	0.670600	0.319000	0.913700
C2891	C289	0.618540	0.302000	0.835100
H1591	H159	0.610400	0.277800	0.861000
C2901	C290	0.594440	0.313500	0.764600
C2911	C291	0.606640	0.349660	0.727200
H1601	H160	0.590800	0.357100	0.679600
C2921	C292	0.642410	0.374950	0.760300
H1611	H161	0.649600	0.400300	0.735800
C2931	C293	0.555750	0.284810	0.729600
C2941	C294	0.821400	0.362750	0.972500
C2951	C295	0.847570	0.379800	0.038100
H1621	H162	0.839500	0.405900	0.059500
C2961	C296	0.885380	0.358400	0.071700
H1631	H163	0.902500	0.370100	0.115600
C2971	C297	0.897840	0.319700	0.040500
C2981	C298	0.871490	0.301870	0.977100
H1641	H164	0.879200	0.275200	0.956800
C2991	C299	0.833580	0.323160	0.943200
H1651	H165	0.816100	0.310700	0.900200
C3001	C300	0.939860	0.298100	0.076600
C3011	C301	0.747370	0.510150	0.902300
C3021	C302	0.782650	0.533550	0.893300
H1661	H166	0.804800	0.517400	0.881200
C3031	C303	0.786300	0.581680	0.902100
C3041	C304	0.752790	0.605040	0.918800
H1671	H167	0.754500	0.636500	0.924500
C3051	C305	0.716330	0.582230	0.927300
C3061	C306	0.714160	0.535100	0.919300
H1681	H168	0.690000	0.519800	0.925400
C3071	C307	0.681480	0.607410	0.950000
C3081	C308	0.614300	0.654000	0.988100
C3091	C309	0.579270	0.680900	0.008100
C3101	C310	0.824590	0.605900	0.891100
C3111	C311	0.840660	0.644480	0.935200
H1691	H169	0.826800	0.654700	0.970600
C3121	C312	0.876380	0.667000	0.926400
H1701	H170	0.887000	0.691800	0.956700
C3131	C313	0.896770	0.652870	0.872300
C3141	C314	0.880480	0.616040	0.827500
H1711	H171	0.893000	0.607200	0.789500
C3151	C315	0.845920	0.592660	0.839100
H1721	H172	0.836600	0.566800	0.810600
C3161	C316	0.934730	0.679060	0.859500
C3171	C317	0.614000	0.613600	0.977900
H1731	H173	0.591000	0.596900	0.985500
C3181	C318	0.681700	0.649400	0.954700
H1741	H174	0.699700	0.667000	0.933800
C3191	C319	0.651500	0.671600	0.995700
H1751	H175	0.659700	0.697200	0.025400
C3201	C320	0.646300	0.590200	0.955400
H1761	H176	0.641600	0.559500	0.943300
Er91	Er9	0.000000	0.306180	0.250000
Er101	Er10	0.500000	0.806180	0.250000
Er111	Er11	0.000000	0.693820	0.750000
Er121	Er12	0.500000	0.193820	0.750000
