data_ATIBOU_clean_PM
_symmetry_space_group_name_H-M	'P1'
_cell_length_a	10.094600
_cell_length_b	11.704700
_cell_length_c	14.709800
_cell_angle_alpha	91.506400
_cell_angle_beta	90.000000
_cell_angle_gamma	90.000000
_symmetry_Int_Tables_number 1

loop_
_symmetry_equiv_pos_as_xyz
'x,y,z'

loop_
_atom_site_label
_atom_site_type_symbol
_atom_site_fract_x
_atom_site_fract_y
_atom_site_fract_z
Mn11	Mn1	0.914710	0.756440	0.130520
Mn21	Mn2	0.098050	0.739270	0.317110
Mn31	Mn3	0.414710	0.743560	0.369480
Mn41	Mn4	0.598050	0.760730	0.182890
Mn51	Mn5	0.085290	0.243560	0.869480
Mn61	Mn6	0.901950	0.260730	0.682890
Mn71	Mn7	0.585290	0.256440	0.630520
Mn81	Mn8	0.401950	0.239270	0.817110
Mn91	Mn9	0.000000	0.500000	0.000000
Mn101	Mn10	0.500000	0.000000	0.500000
Mn111	Mn11	0.000000	0.000000	0.000000
Mn121	Mn12	0.500000	0.500000	0.500000
H11	H1	0.740000	0.851600	0.367600
H21	H2	0.026000	0.482200	0.269200
H31	H3	0.611000	0.559600	0.037600
H41	H4	0.201000	0.965400	0.234400
H51	H5	0.161000	0.696800	0.928800
H61	H6	0.706000	0.010900	0.021900
H71	H7	0.240000	0.648400	0.132400
H81	H8	0.526000	0.017800	0.230800
H91	H9	0.111000	0.940400	0.462400
H101	H10	0.701000	0.534600	0.265600
H111	H11	0.661000	0.803200	0.571200
H121	H12	0.206000	0.489100	0.478100
H131	H13	0.260000	0.148400	0.632400
H141	H14	0.974000	0.517800	0.730800
H151	H15	0.389000	0.440400	0.962400
H161	H16	0.799000	0.034600	0.765600
H171	H17	0.839000	0.303200	0.071200
H181	H18	0.294000	0.989100	0.978100
H191	H19	0.760000	0.351600	0.867600
H201	H20	0.474000	0.982200	0.769200
H211	H21	0.889000	0.059600	0.537600
H221	H22	0.299000	0.465400	0.734400
H231	H23	0.339000	0.196800	0.428800
H241	H24	0.794000	0.510900	0.521900
C11	C1	0.813200	0.821220	0.332720
C21	C2	0.005100	0.519040	0.213040
C31	C3	0.707900	0.578180	0.042680
C41	C4	0.135100	0.943910	0.185810
C51	C5	0.102800	0.741580	0.965780
C61	C6	0.719700	0.941610	0.057710
C71	C7	0.313200	0.678780	0.167280
C81	C8	0.505100	0.980960	0.286960
C91	C9	0.207900	0.921820	0.457320
C101	C10	0.635100	0.556090	0.314190
C111	C11	0.602800	0.758420	0.534220
C121	C12	0.219700	0.558390	0.442290
C131	C13	0.186800	0.178780	0.667280
C141	C14	0.994900	0.480960	0.786960
C151	C15	0.292100	0.421820	0.957320
C161	C16	0.864900	0.056090	0.814190
C171	C17	0.897200	0.258420	0.034220
C181	C18	0.280300	0.058390	0.942290
C191	C19	0.686800	0.321220	0.832720
C201	C20	0.494900	0.019040	0.713040
C211	C21	0.792100	0.078180	0.542680
C221	C22	0.364900	0.443910	0.685810
C231	C23	0.397200	0.241580	0.465780
C241	C24	0.780300	0.441610	0.557710
O11	O1	0.790680	0.804910	0.248330
O21	O2	0.919970	0.805510	0.371960
O31	O3	0.997050	0.627040	0.219520
O41	O4	0.994170	0.460410	0.142710
O51	O5	0.734920	0.657140	0.102020
O61	O6	0.788790	0.524920	0.996070
O71	O7	0.073500	0.850830	0.199450
O81	O8	0.119890	0.006470	0.120750
O91	O9	0.029250	0.685700	0.020720
O101	O10	0.102650	0.845440	0.957930
O111	O11	0.837840	0.904670	0.063600
O121	O12	0.619990	0.899840	0.093050
O131	O13	0.290680	0.695090	0.251670
O141	O14	0.419970	0.694490	0.128040
O151	O15	0.497050	0.872960	0.280480
O161	O16	0.494170	0.039590	0.357290
O171	O17	0.234920	0.842860	0.397980
O181	O18	0.288790	0.975080	0.503930
O191	O19	0.573500	0.649170	0.300550
O201	O20	0.619890	0.493530	0.379250
O211	O21	0.529250	0.814300	0.479280
O221	O22	0.602650	0.654560	0.542070
O231	O23	0.337840	0.595330	0.436400
O241	O24	0.119990	0.600160	0.406950
O251	O25	0.209320	0.195090	0.751670
O261	O26	0.080030	0.194490	0.628040
O271	O27	0.002950	0.372960	0.780480
O281	O28	0.005830	0.539590	0.857290
O291	O29	0.265080	0.342860	0.897980
O301	O30	0.211210	0.475080	0.003930
O311	O31	0.926500	0.149170	0.800550
O321	O32	0.880110	0.993530	0.879250
O331	O33	0.970750	0.314300	0.979280
O341	O34	0.897350	0.154560	0.042070
O351	O35	0.162160	0.095330	0.936400
O361	O36	0.380010	0.100160	0.906950
O371	O37	0.709320	0.304910	0.748330
O381	O38	0.580030	0.305510	0.871960
O391	O39	0.502950	0.127040	0.719520
O401	O40	0.505830	0.960410	0.642710
O411	O41	0.765080	0.157140	0.602020
O421	O42	0.711210	0.024920	0.496070
O431	O43	0.426500	0.350830	0.699450
O441	O44	0.380110	0.506470	0.620750
O451	O45	0.470750	0.185700	0.520720
O461	O46	0.397350	0.345440	0.457930
O471	O47	0.662160	0.404670	0.563600
O481	O48	0.880010	0.399840	0.593050
