data_ATOGEV_clean_PM
_symmetry_space_group_name_H-M	'P1'
_cell_length_a	9.914400
_cell_length_b	14.441400
_cell_length_c	14.978500
_cell_angle_alpha	90.000000
_cell_angle_beta	98.887000
_cell_angle_gamma	90.000000
_symmetry_Int_Tables_number 1

loop_
_symmetry_equiv_pos_as_xyz
'x,y,z'

loop_
_atom_site_label
_atom_site_type_symbol
_atom_site_fract_x
_atom_site_fract_y
_atom_site_fract_z
Zn11	Zn1	0.340680	0.740590	0.997960
Zn21	Zn2	0.315110	0.620620	0.373960
Zn31	Zn3	0.208540	0.416750	0.183580
P11	P1	0.252900	0.915610	0.099660
H11	H1	0.144000	0.858000	0.105500
P21	P2	0.290000	0.622900	0.165880
H21	H2	0.210000	0.689000	0.177100
P31	P3	0.023300	0.713990	0.941750
H31	H3	0.038000	0.677000	0.027000
P41	P4	0.600800	0.725720	0.889690
H41	H4	0.688000	0.708100	0.973000
O11	O1	0.340000	0.869000	0.037200
O21	O2	0.166200	0.725200	0.918200
O31	O3	0.377600	0.655900	0.097100
O41	O4	0.455600	0.719500	0.908400
O51	O5	0.379600	0.606100	0.257100
O61	O6	0.195700	0.006300	0.060400
O71	O7	0.633200	0.822400	0.859100
O81	O8	0.950300	0.804500	0.945200
O91	O9	0.202400	0.541300	0.134200
O101	O10	0.625600	0.650000	0.824300
O111	O11	0.331900	0.926200	0.194600
O121	O12	0.947200	0.644700	0.880300
Zn41	Zn4	0.159320	0.240590	0.502040
Zn51	Zn5	0.184890	0.120620	0.126040
Zn61	Zn6	0.291460	0.916750	0.316420
P51	P5	0.247100	0.415610	0.400340
H51	H5	0.356000	0.358000	0.394500
P61	P6	0.210000	0.122900	0.334120
H61	H6	0.290000	0.189000	0.322900
P71	P7	0.476700	0.213990	0.558250
H71	H7	0.462000	0.177000	0.473000
P81	P8	0.899200	0.225720	0.610310
H81	H8	0.812000	0.208100	0.527000
O131	O13	0.160000	0.369000	0.462800
O141	O14	0.333800	0.225200	0.581800
O151	O15	0.122400	0.155900	0.402900
O161	O16	0.044400	0.219500	0.591600
O171	O17	0.120400	0.106100	0.242900
O181	O18	0.304300	0.506300	0.439600
O191	O19	0.866800	0.322400	0.640900
O201	O20	0.549700	0.304500	0.554800
O211	O21	0.297600	0.041300	0.365800
O221	O22	0.874400	0.150000	0.675700
O231	O23	0.168100	0.426200	0.305400
O241	O24	0.552800	0.144700	0.619700
Zn71	Zn7	0.659320	0.259410	0.002040
Zn81	Zn8	0.684890	0.379380	0.626040
Zn91	Zn9	0.791460	0.583250	0.816420
P91	P9	0.747100	0.084390	0.900340
H91	H9	0.856000	0.142000	0.894500
P101	P10	0.710000	0.377100	0.834120
H101	H10	0.790000	0.311000	0.822900
P111	P11	0.976700	0.286010	0.058250
H111	H11	0.962000	0.323000	0.973000
P121	P12	0.399200	0.274280	0.110310
H121	H12	0.312000	0.291900	0.027000
O251	O25	0.660000	0.131000	0.962800
O261	O26	0.833800	0.274800	0.081800
O271	O27	0.622400	0.344100	0.902900
O281	O28	0.544400	0.280500	0.091600
O291	O29	0.620400	0.393900	0.742900
O301	O30	0.804300	0.993700	0.939600
O311	O31	0.366800	0.177600	0.140900
O321	O32	0.049700	0.195500	0.054800
O331	O33	0.797600	0.458700	0.865800
O341	O34	0.374400	0.350000	0.175700
O351	O35	0.668100	0.073800	0.805400
O361	O36	0.052800	0.355300	0.119700
Zn101	Zn10	0.840680	0.759410	0.497960
Zn111	Zn11	0.815110	0.879380	0.873960
Zn121	Zn12	0.708540	0.083250	0.683580
P131	P13	0.752900	0.584390	0.599660
H131	H13	0.644000	0.642000	0.605500
P141	P14	0.790000	0.877100	0.665880
H141	H14	0.710000	0.811000	0.677100
P151	P15	0.523300	0.786010	0.441750
H151	H15	0.538000	0.823000	0.527000
P161	P16	0.100800	0.774280	0.389690
H161	H16	0.188000	0.791900	0.473000
O371	O37	0.840000	0.631000	0.537200
O381	O38	0.666200	0.774800	0.418200
O391	O39	0.877600	0.844100	0.597100
O401	O40	0.955600	0.780500	0.408400
O411	O41	0.879600	0.893900	0.757100
O421	O42	0.695700	0.493700	0.560400
O431	O43	0.133200	0.677600	0.359100
O441	O44	0.450300	0.695500	0.445200
O451	O45	0.702400	0.958700	0.634200
O461	O46	0.125600	0.850000	0.324300
O471	O47	0.831900	0.573800	0.694600
O481	O48	0.447200	0.855300	0.380300
