data_ATOWOW_clean_PM
_symmetry_space_group_name_H-M	'P1'
_cell_length_a	14.059900
_cell_length_b	14.059900
_cell_length_c	14.350000
_cell_angle_alpha	60.975400
_cell_angle_beta	60.975400
_cell_angle_gamma	83.891100
_symmetry_Int_Tables_number 1

loop_
_symmetry_equiv_pos_as_xyz
'x,y,z'

loop_
_atom_site_label
_atom_site_type_symbol
_atom_site_fract_x
_atom_site_fract_y
_atom_site_fract_z
Zn11	Zn1	0.980250	0.980250	0.915710
Zn21	Zn2	0.019750	0.019750	0.084290
Zn31	Zn3	0.900490	0.099510	0.500000
Zn41	Zn4	0.099510	0.900490	0.500000
H11	H1	0.623000	0.935200	0.115700
H21	H2	0.433300	0.916700	0.239200
H31	H3	0.492400	0.036200	0.409900
H41	H4	0.679500	0.033500	0.302500
H51	H5	0.764200	0.066000	0.790500
H61	H6	0.854900	0.172100	0.692500
H71	H7	0.837300	0.102900	0.825900
H81	H8	0.275200	0.068600	0.492800
H91	H9	0.064800	0.377000	0.884300
H101	H10	0.083300	0.566700	0.760800
H111	H11	0.963800	0.507600	0.590100
H121	H12	0.966500	0.320500	0.697500
H131	H13	0.934000	0.235800	0.209500
H141	H14	0.827900	0.145100	0.307500
H151	H15	0.897100	0.162700	0.174100
H161	H16	0.931400	0.724800	0.507200
H171	H17	0.377000	0.064800	0.884300
H181	H18	0.566700	0.083300	0.760800
H191	H19	0.507600	0.963800	0.590100
H201	H20	0.320500	0.966500	0.697500
H211	H21	0.235800	0.934000	0.209500
H221	H22	0.145100	0.827900	0.307500
H231	H23	0.162700	0.897100	0.174100
H241	H24	0.724800	0.931400	0.507200
H251	H25	0.935200	0.623000	0.115700
H261	H26	0.916700	0.433300	0.239200
H271	H27	0.036200	0.492400	0.409900
H281	H28	0.033500	0.679500	0.302500
H291	H29	0.066000	0.764200	0.790500
H301	H30	0.172100	0.854900	0.692500
H311	H31	0.102900	0.837300	0.825900
H321	H32	0.068600	0.275200	0.492800
C11	C1	0.790800	0.987000	0.125700
C21	C2	0.669400	0.984600	0.198700
C31	C3	0.596600	0.952400	0.178000
C41	C4	0.482200	0.944800	0.249600
C51	C5	0.443400	0.978400	0.333400
C61	C6	0.517900	0.012900	0.352500
C71	C7	0.630800	0.013400	0.286200
C81	C8	0.320600	0.971400	0.410100
C91	C9	0.918500	0.031100	0.722800
C101	C10	0.836500	0.099100	0.761300
C111	C11	0.013000	0.209200	0.874300
C121	C12	0.015400	0.330600	0.801300
C131	C13	0.047600	0.403400	0.822000
C141	C14	0.055200	0.517800	0.750400
C151	C15	0.021600	0.556600	0.666600
C161	C16	0.987100	0.482100	0.647500
C171	C17	0.986600	0.369200	0.713800
C181	C18	0.028600	0.679400	0.589900
C191	C19	0.968900	0.081500	0.277200
C201	C20	0.900900	0.163500	0.238700
C211	C21	0.209200	0.013000	0.874300
C221	C22	0.330600	0.015400	0.801300
C231	C23	0.403400	0.047600	0.822000
C241	C24	0.517800	0.055200	0.750400
C251	C25	0.556600	0.021600	0.666600
C261	C26	0.482100	0.987100	0.647500
C271	C27	0.369200	0.986600	0.713800
C281	C28	0.679400	0.028600	0.589900
C291	C29	0.081500	0.968900	0.277200
C301	C30	0.163500	0.900900	0.238700
C311	C31	0.987000	0.790800	0.125700
C321	C32	0.984600	0.669400	0.198700
C331	C33	0.952400	0.596600	0.178000
C341	C34	0.944800	0.482200	0.249600
C351	C35	0.978400	0.443400	0.333400
C361	C36	0.012900	0.517900	0.352500
C371	C37	0.013400	0.630800	0.286200
C381	C38	0.971400	0.320600	0.410100
C391	C39	0.031100	0.918500	0.722800
C401	C40	0.099100	0.836500	0.761300
N11	N1	0.948600	0.022800	0.625300
N21	N2	0.977200	0.051400	0.374700
N31	N3	0.051400	0.977200	0.374700
N41	N4	0.022800	0.948600	0.625300
N51	N5	0.969800	0.969800	0.784200
N61	N6	0.030200	0.030200	0.215800
O11	O1	0.821400	0.973200	0.035000
O21	O2	0.851200	0.002600	0.158000
O31	O3	0.257900	0.927900	0.401500
O41	O4	0.289000	0.016600	0.474600
O51	O5	0.026800	0.178600	0.965000
O61	O6	0.997400	0.148800	0.842000
O71	O7	0.072100	0.742100	0.598500
O81	O8	0.983400	0.711000	0.525400
O91	O9	0.178600	0.026800	0.965000
O101	O10	0.148800	0.997400	0.842000
O111	O11	0.742100	0.072100	0.598500
O121	O12	0.711000	0.983400	0.525400
O131	O13	0.973200	0.821400	0.035000
O141	O14	0.002600	0.851200	0.158000
O151	O15	0.927900	0.257900	0.401500
O161	O16	0.016600	0.289000	0.474600
