data_AVAGUB_clean_PM
_symmetry_space_group_name_H-M	'P1'
_cell_length_a	22.813100
_cell_length_b	22.813100
_cell_length_c	7.787900
_cell_angle_alpha	90.000000
_cell_angle_beta	90.000000
_cell_angle_gamma	90.000000
_symmetry_Int_Tables_number 1

loop_
_symmetry_equiv_pos_as_xyz
'x,y,z'

loop_
_atom_site_label
_atom_site_type_symbol
_atom_site_fract_x
_atom_site_fract_y
_atom_site_fract_z
Ag11	Ag1	0.511680	0.626870	0.231710
N11	N1	0.630060	0.895960	0.362000
N21	N2	0.667600	0.630880	0.573100
N31	N3	0.681260	0.687340	0.523900
N41	N4	0.586500	0.682690	0.576300
N51	N5	0.526900	0.467090	0.721100
N61	N6	0.487320	0.674490	0.504100
C11	C1	0.580700	0.804400	0.396000
H11	H1	0.547000	0.782300	0.378600
C21	C2	0.582600	0.862100	0.345200
H21	H2	0.549100	0.878400	0.296600
C31	C3	0.677400	0.871200	0.432300
H31	H3	0.711300	0.893500	0.442200
C41	C4	0.678600	0.814400	0.490700
H41	H4	0.712300	0.799500	0.541800
C51	C5	0.629180	0.779400	0.472900
C61	C6	0.632800	0.717600	0.527100
C71	C7	0.611100	0.628500	0.602500
C81	C8	0.580500	0.574300	0.650400
C91	C9	0.603200	0.522400	0.588100
H51	H5	0.636900	0.522600	0.520900
C101	C10	0.575600	0.470500	0.626000
H61	H6	0.591700	0.436000	0.583500
C111	C11	0.505800	0.517700	0.782800
H71	H7	0.472400	0.516500	0.850900
C121	C12	0.531000	0.571800	0.750800
H81	H8	0.514800	0.605800	0.796300
C131	C13	0.526830	0.700670	0.602700
C141	C14	0.431400	0.691000	0.526900
H91	H9	0.402500	0.672900	0.461300
C151	C15	0.415000	0.732900	0.641400
H101	H10	0.375700	0.742900	0.653200
C161	C16	0.456700	0.760200	0.739400
H111	H11	0.446200	0.789700	0.816000
C171	C17	0.514500	0.743300	0.722400
H121	H12	0.543900	0.760000	0.789200
Ag21	Ag2	0.988320	0.873130	0.231710
N71	N7	0.869940	0.604040	0.362000
N81	N8	0.832400	0.869120	0.573100
N91	N9	0.818740	0.812660	0.523900
N101	N10	0.913500	0.817310	0.576300
N111	N11	0.973100	0.032910	0.721100
N121	N12	0.012680	0.825510	0.504100
C181	C18	0.919300	0.695600	0.396000
H131	H13	0.953000	0.717700	0.378600
C191	C19	0.917400	0.637900	0.345200
H141	H14	0.950900	0.621600	0.296600
C201	C20	0.822600	0.628800	0.432300
H151	H15	0.788700	0.606500	0.442200
C211	C21	0.821400	0.685600	0.490700
H161	H16	0.787700	0.700500	0.541800
C221	C22	0.870820	0.720600	0.472900
C231	C23	0.867200	0.782400	0.527100
C241	C24	0.888900	0.871500	0.602500
C251	C25	0.919500	0.925700	0.650400
C261	C26	0.896800	0.977600	0.588100
H171	H17	0.863100	0.977400	0.520900
C271	C27	0.924400	0.029500	0.626000
H181	H18	0.908300	0.064000	0.583500
C281	C28	0.994200	0.982300	0.782800
H191	H19	0.027600	0.983500	0.850900
C291	C29	0.969000	0.928200	0.750800
H201	H20	0.985200	0.894200	0.796300
C301	C30	0.973170	0.799330	0.602700
C311	C31	0.068600	0.809000	0.526900
H211	H21	0.097500	0.827100	0.461300
C321	C32	0.085000	0.767100	0.641400
H221	H22	0.124300	0.757100	0.653200
C331	C33	0.043300	0.739800	0.739400
H231	H23	0.053800	0.710300	0.816000
C341	C34	0.985500	0.756700	0.722400
H241	H24	0.956100	0.740000	0.789200
Ag31	Ag3	0.373130	0.011680	0.731710
N131	N13	0.104040	0.130060	0.862000
N141	N14	0.369120	0.167600	0.073100
N151	N15	0.312660	0.181260	0.023900
N161	N16	0.317310	0.086500	0.076300
N171	N17	0.532910	0.026900	0.221100
N181	N18	0.325510	0.987320	0.004100
C351	C35	0.195600	0.080700	0.896000
H251	H25	0.217700	0.047000	0.878600
C361	C36	0.137900	0.082600	0.845200
H261	H26	0.121600	0.049100	0.796600
C371	C37	0.128800	0.177400	0.932300
H271	H27	0.106500	0.211300	0.942200
C381	C38	0.185600	0.178600	0.990700
H281	H28	0.200500	0.212300	0.041800
C391	C39	0.220600	0.129180	0.972900
C401	C40	0.282400	0.132800	0.027100
C411	C41	0.371500	0.111100	0.102500
C421	C42	0.425700	0.080500	0.150400
C431	C43	0.477600	0.103200	0.088100
H291	H29	0.477400	0.136900	0.020900
C441	C44	0.529500	0.075600	0.126000
H301	H30	0.564000	0.091700	0.083500
C451	C45	0.482300	0.005800	0.282800
H311	H31	0.483500	0.972400	0.350900
C461	C46	0.428200	0.031000	0.250800
H321	H32	0.394200	0.014800	0.296300
C471	C47	0.299330	0.026830	0.102700
C481	C48	0.309000	0.931400	0.026900
H331	H33	0.327100	0.902500	0.961300
C491	C49	0.267100	0.915000	0.141400
H341	H34	0.257100	0.875700	0.153200
C501	C50	0.239800	0.956700	0.239400
H351	H35	0.210300	0.946200	0.316000
C511	C51	0.256700	0.014500	0.222400
H361	H36	0.240000	0.043900	0.289200
Ag41	Ag4	0.126870	0.488320	0.731710
N191	N19	0.395960	0.369940	0.862000
N201	N20	0.130880	0.332400	0.073100
N211	N21	0.187340	0.318740	0.023900
N221	N22	0.182690	0.413500	0.076300
N231	N23	0.967090	0.473100	0.221100
N241	N24	0.174490	0.512680	0.004100
C521	C52	0.304400	0.419300	0.896000
H371	H37	0.282300	0.453000	0.878600
C531	C53	0.362100	0.417400	0.845200
H381	H38	0.378400	0.450900	0.796600
C541	C54	0.371200	0.322600	0.932300
H391	H39	0.393500	0.288700	0.942200
C551	C55	0.314400	0.321400	0.990700
H401	H40	0.299500	0.287700	0.041800
C561	C56	0.279400	0.370820	0.972900
C571	C57	0.217600	0.367200	0.027100
C581	C58	0.128500	0.388900	0.102500
C591	C59	0.074300	0.419500	0.150400
C601	C60	0.022400	0.396800	0.088100
H411	H41	0.022600	0.363100	0.020900
C611	C61	0.970500	0.424400	0.126000
H421	H42	0.936000	0.408300	0.083500
C621	C62	0.017700	0.494200	0.282800
H431	H43	0.016500	0.527600	0.350900
C631	C63	0.071800	0.469000	0.250800
H441	H44	0.105800	0.485200	0.296300
C641	C64	0.200670	0.473170	0.102700
C651	C65	0.191000	0.568600	0.026900
H451	H45	0.172900	0.597500	0.961300
C661	C66	0.232900	0.585000	0.141400
H461	H46	0.242900	0.624300	0.153200
C671	C67	0.260200	0.543300	0.239400
H471	H47	0.289700	0.553800	0.316000
C681	C68	0.243300	0.485500	0.222400
H481	H48	0.260000	0.456100	0.289200
Ag51	Ag5	0.488320	0.373130	0.768290
N251	N25	0.369940	0.104040	0.638000
N261	N26	0.332400	0.369120	0.426900
N271	N27	0.318740	0.312660	0.476100
N281	N28	0.413500	0.317310	0.423700
N291	N29	0.473100	0.532910	0.278900
N301	N30	0.512680	0.325510	0.495900
C691	C69	0.419300	0.195600	0.604000
H491	H49	0.453000	0.217700	0.621400
C701	C70	0.417400	0.137900	0.654800
H501	H50	0.450900	0.121600	0.703400
C711	C71	0.322600	0.128800	0.567700
H511	H51	0.288700	0.106500	0.557800
C721	C72	0.321400	0.185600	0.509300
H521	H52	0.287700	0.200500	0.458200
C731	C73	0.370820	0.220600	0.527100
C741	C74	0.367200	0.282400	0.472900
C751	C75	0.388900	0.371500	0.397500
C761	C76	0.419500	0.425700	0.349600
C771	C77	0.396800	0.477600	0.411900
H531	H53	0.363100	0.477400	0.479100
C781	C78	0.424400	0.529500	0.374000
H541	H54	0.408300	0.564000	0.416500
C791	C79	0.494200	0.482300	0.217200
H551	H55	0.527600	0.483500	0.149100
C801	C80	0.469000	0.428200	0.249200
H561	H56	0.485200	0.394200	0.203700
C811	C81	0.473170	0.299330	0.397300
C821	C82	0.568600	0.309000	0.473100
H571	H57	0.597500	0.327100	0.538700
C831	C83	0.585000	0.267100	0.358600
H581	H58	0.624300	0.257100	0.346800
C841	C84	0.543300	0.239800	0.260600
H591	H59	0.553800	0.210300	0.184000
C851	C85	0.485500	0.256700	0.277600
H601	H60	0.456100	0.240000	0.210800
Ag61	Ag6	0.011680	0.126870	0.768290
N311	N31	0.130060	0.395960	0.638000
N321	N32	0.167600	0.130880	0.426900
N331	N33	0.181260	0.187340	0.476100
N341	N34	0.086500	0.182690	0.423700
N351	N35	0.026900	0.967090	0.278900
N361	N36	0.987320	0.174490	0.495900
C861	C86	0.080700	0.304400	0.604000
H611	H61	0.047000	0.282300	0.621400
C871	C87	0.082600	0.362100	0.654800
H621	H62	0.049100	0.378400	0.703400
C881	C88	0.177400	0.371200	0.567700
H631	H63	0.211300	0.393500	0.557800
C891	C89	0.178600	0.314400	0.509300
H641	H64	0.212300	0.299500	0.458200
C901	C90	0.129180	0.279400	0.527100
C911	C91	0.132800	0.217600	0.472900
C921	C92	0.111100	0.128500	0.397500
C931	C93	0.080500	0.074300	0.349600
C941	C94	0.103200	0.022400	0.411900
H651	H65	0.136900	0.022600	0.479100
C951	C95	0.075600	0.970500	0.374000
H661	H66	0.091700	0.936000	0.416500
C961	C96	0.005800	0.017700	0.217200
H671	H67	0.972400	0.016500	0.149100
C971	C97	0.031000	0.071800	0.249200
H681	H68	0.014800	0.105800	0.203700
C981	C98	0.026830	0.200670	0.397300
C991	C99	0.931400	0.191000	0.473100
H691	H69	0.902500	0.172900	0.538700
C1001	C100	0.915000	0.232900	0.358600
H701	H70	0.875700	0.242900	0.346800
C1011	C101	0.956700	0.260200	0.260600
H711	H71	0.946200	0.289700	0.184000
C1021	C102	0.014500	0.243300	0.277600
H721	H72	0.043900	0.260000	0.210800
Ag71	Ag7	0.626870	0.988320	0.268290
N371	N37	0.895960	0.869940	0.138000
N381	N38	0.630880	0.832400	0.926900
N391	N39	0.687340	0.818740	0.976100
N401	N40	0.682690	0.913500	0.923700
N411	N41	0.467090	0.973100	0.778900
N421	N42	0.674490	0.012680	0.995900
C1031	C103	0.804400	0.919300	0.104000
H731	H73	0.782300	0.953000	0.121400
C1041	C104	0.862100	0.917400	0.154800
H741	H74	0.878400	0.950900	0.203400
C1051	C105	0.871200	0.822600	0.067700
H751	H75	0.893500	0.788700	0.057800
C1061	C106	0.814400	0.821400	0.009300
H761	H76	0.799500	0.787700	0.958200
C1071	C107	0.779400	0.870820	0.027100
C1081	C108	0.717600	0.867200	0.972900
C1091	C109	0.628500	0.888900	0.897500
C1101	C110	0.574300	0.919500	0.849600
C1111	C111	0.522400	0.896800	0.911900
H771	H77	0.522600	0.863100	0.979100
C1121	C112	0.470500	0.924400	0.874000
H781	H78	0.436000	0.908300	0.916500
C1131	C113	0.517700	0.994200	0.717200
H791	H79	0.516500	0.027600	0.649100
C1141	C114	0.571800	0.969000	0.749200
H801	H80	0.605800	0.985200	0.703700
C1151	C115	0.700670	0.973170	0.897300
C1161	C116	0.691000	0.068600	0.973100
H811	H81	0.672900	0.097500	0.038700
C1171	C117	0.732900	0.085000	0.858600
H821	H82	0.742900	0.124300	0.846800
C1181	C118	0.760200	0.043300	0.760600
H831	H83	0.789700	0.053800	0.684000
C1191	C119	0.743300	0.985500	0.777600
H841	H84	0.760000	0.956100	0.710800
Ag81	Ag8	0.873130	0.511680	0.268290
N431	N43	0.604040	0.630060	0.138000
N441	N44	0.869120	0.667600	0.926900
N451	N45	0.812660	0.681260	0.976100
N461	N46	0.817310	0.586500	0.923700
N471	N47	0.032910	0.526900	0.778900
N481	N48	0.825510	0.487320	0.995900
C1201	C120	0.695600	0.580700	0.104000
H851	H85	0.717700	0.547000	0.121400
C1211	C121	0.637900	0.582600	0.154800
H861	H86	0.621600	0.549100	0.203400
C1221	C122	0.628800	0.677400	0.067700
H871	H87	0.606500	0.711300	0.057800
C1231	C123	0.685600	0.678600	0.009300
H881	H88	0.700500	0.712300	0.958200
C1241	C124	0.720600	0.629180	0.027100
C1251	C125	0.782400	0.632800	0.972900
C1261	C126	0.871500	0.611100	0.897500
C1271	C127	0.925700	0.580500	0.849600
C1281	C128	0.977600	0.603200	0.911900
H891	H89	0.977400	0.636900	0.979100
C1291	C129	0.029500	0.575600	0.874000
H901	H90	0.064000	0.591700	0.916500
C1301	C130	0.982300	0.505800	0.717200
H911	H91	0.983500	0.472400	0.649100
C1311	C131	0.928200	0.531000	0.749200
H921	H92	0.894200	0.514800	0.703700
C1321	C132	0.799330	0.526830	0.897300
C1331	C133	0.809000	0.431400	0.973100
H931	H93	0.827100	0.402500	0.038700
C1341	C134	0.767100	0.415000	0.858600
H941	H94	0.757100	0.375700	0.846800
C1351	C135	0.739800	0.456700	0.760600
H951	H95	0.710300	0.446200	0.684000
C1361	C136	0.756700	0.514500	0.777600
H961	H96	0.740000	0.543900	0.710800
