data_AVAGIP_clean_PM
_symmetry_space_group_name_H-M	'P1'
_cell_length_a	31.370000
_cell_length_b	31.370000
_cell_length_c	7.846700
_cell_angle_alpha	90.000000
_cell_angle_beta	90.000000
_cell_angle_gamma	90.000000
_symmetry_Int_Tables_number 1

loop_
_symmetry_equiv_pos_as_xyz
'x,y,z'

loop_
_atom_site_label
_atom_site_type_symbol
_atom_site_fract_x
_atom_site_fract_y
_atom_site_fract_z
Ag11	Ag1	0.813900	0.799470	0.923530
N11	N1	0.751260	0.724610	0.486200
N21	N2	0.898500	0.733370	0.231700
N31	N3	0.933030	0.754650	0.168200
N41	N4	0.884250	0.802140	0.231500
N51	N5	0.008530	0.885630	0.943200
N61	N6	0.830950	0.848520	0.140800
C11	C1	0.809550	0.712380	0.300300
H11	H1	0.822800	0.694700	0.221400
C21	C2	0.772430	0.700550	0.372900
H21	H2	0.760900	0.674300	0.342900
C31	C3	0.768590	0.761990	0.525000
H31	H3	0.754200	0.779400	0.601800
C41	C4	0.806370	0.776400	0.458700
H41	H4	0.817300	0.802800	0.490700
C51	C5	0.827870	0.751200	0.344000
C61	C6	0.869230	0.761810	0.269500
C71	C7	0.924230	0.795580	0.166900
C81	C8	0.952470	0.827650	0.093800
C91	C9	0.996100	0.820840	0.096400
H51	H5	0.007300	0.796700	0.149000
C101	C10	0.022660	0.849950	0.020700
H61	H6	0.051900	0.844800	0.022900
C111	C11	0.966620	0.891730	0.941400
H71	H7	0.956200	0.916100	0.888400
C121	C12	0.937710	0.864220	0.013000
H81	H8	0.908700	0.870000	0.007500
C131	C13	0.862150	0.841910	0.250300
C141	C14	0.874890	0.870220	0.372500
H91	H9	0.897300	0.864100	0.446300
C151	C15	0.852970	0.908330	0.381400
H101	H10	0.860100	0.928500	0.463500
C161	C16	0.820960	0.916110	0.269600
H111	H11	0.806300	0.941900	0.272700
C171	C17	0.810490	0.885710	0.152600
H121	H12	0.788100	0.891100	0.077900
Ag21	Ag2	0.313900	0.299470	0.423530
N71	N7	0.251260	0.224610	0.986200
N81	N8	0.398500	0.233370	0.731700
N91	N9	0.433030	0.254650	0.668200
N101	N10	0.384250	0.302140	0.731500
N111	N11	0.508530	0.385630	0.443200
N121	N12	0.330950	0.348520	0.640800
C181	C18	0.309550	0.212380	0.800300
H131	H13	0.322800	0.194700	0.721400
C191	C19	0.272430	0.200550	0.872900
H141	H14	0.260900	0.174300	0.842900
C201	C20	0.268590	0.261990	0.025000
H151	H15	0.254200	0.279400	0.101800
C211	C21	0.306370	0.276400	0.958700
H161	H16	0.317300	0.302800	0.990700
C221	C22	0.327870	0.251200	0.844000
C231	C23	0.369230	0.261810	0.769500
C241	C24	0.424230	0.295580	0.666900
C251	C25	0.452470	0.327650	0.593800
C261	C26	0.496100	0.320840	0.596400
H171	H17	0.507300	0.296700	0.649000
C271	C27	0.522660	0.349950	0.520700
H181	H18	0.551900	0.344800	0.522900
C281	C28	0.466620	0.391730	0.441400
H191	H19	0.456200	0.416100	0.388400
C291	C29	0.437710	0.364220	0.513000
H201	H20	0.408700	0.370000	0.507500
C301	C30	0.362150	0.341910	0.750300
C311	C31	0.374890	0.370220	0.872500
H211	H21	0.397300	0.364100	0.946300
C321	C32	0.352970	0.408330	0.881400
H221	H22	0.360100	0.428500	0.963500
C331	C33	0.320960	0.416110	0.769600
H231	H23	0.306300	0.441900	0.772700
C341	C34	0.310490	0.385710	0.652600
H241	H24	0.288100	0.391100	0.577900
Ag31	Ag3	0.686100	0.200530	0.423530
N131	N13	0.748740	0.275390	0.986200
N141	N14	0.601500	0.266630	0.731700
N151	N15	0.566970	0.245350	0.668200
N161	N16	0.615750	0.197860	0.731500
N171	N17	0.491470	0.114370	0.443200
N181	N18	0.669050	0.151480	0.640800
C351	C35	0.690450	0.287620	0.800300
H251	H25	0.677200	0.305300	0.721400
C361	C36	0.727570	0.299450	0.872900
H261	H26	0.739100	0.325700	0.842900
C371	C37	0.731410	0.238010	0.025000
H271	H27	0.745800	0.220600	0.101800
C381	C38	0.693630	0.223600	0.958700
H281	H28	0.682700	0.197200	0.990700
C391	C39	0.672130	0.248800	0.844000
C401	C40	0.630770	0.238190	0.769500
C411	C41	0.575770	0.204420	0.666900
C421	C42	0.547530	0.172350	0.593800
C431	C43	0.503900	0.179160	0.596400
H291	H29	0.492700	0.203300	0.649000
C441	C44	0.477340	0.150050	0.520700
H301	H30	0.448100	0.155200	0.522900
C451	C45	0.533380	0.108270	0.441400
H311	H31	0.543800	0.083900	0.388400
C461	C46	0.562290	0.135780	0.513000
H321	H32	0.591300	0.130000	0.507500
C471	C47	0.637850	0.158090	0.750300
C481	C48	0.625110	0.129780	0.872500
H331	H33	0.602700	0.135900	0.946300
C491	C49	0.647030	0.091670	0.881400
H341	H34	0.639900	0.071500	0.963500
C501	C50	0.679040	0.083890	0.769600
H351	H35	0.693700	0.058100	0.772700
C511	C51	0.689510	0.114290	0.652600
H361	H36	0.711900	0.108900	0.577900
Ag41	Ag4	0.186100	0.700530	0.923530
N191	N19	0.248740	0.775390	0.486200
N201	N20	0.101500	0.766630	0.231700
N211	N21	0.066970	0.745350	0.168200
N221	N22	0.115750	0.697860	0.231500
N231	N23	0.991470	0.614370	0.943200
N241	N24	0.169050	0.651480	0.140800
C521	C52	0.190450	0.787620	0.300300
H371	H37	0.177200	0.805300	0.221400
C531	C53	0.227570	0.799450	0.372900
H381	H38	0.239100	0.825700	0.342900
C541	C54	0.231410	0.738010	0.525000
H391	H39	0.245800	0.720600	0.601800
C551	C55	0.193630	0.723600	0.458700
H401	H40	0.182700	0.697200	0.490700
C561	C56	0.172130	0.748800	0.344000
C571	C57	0.130770	0.738190	0.269500
C581	C58	0.075770	0.704420	0.166900
C591	C59	0.047530	0.672350	0.093800
C601	C60	0.003900	0.679160	0.096400
H411	H41	0.992700	0.703300	0.149000
C611	C61	0.977340	0.650050	0.020700
H421	H42	0.948100	0.655200	0.022900
C621	C62	0.033380	0.608270	0.941400
H431	H43	0.043800	0.583900	0.888400
C631	C63	0.062290	0.635780	0.013000
H441	H44	0.091300	0.630000	0.007500
C641	C64	0.137850	0.658090	0.250300
C651	C65	0.125110	0.629780	0.372500
H451	H45	0.102700	0.635900	0.446300
C661	C66	0.147030	0.591670	0.381400
H461	H46	0.139900	0.571500	0.463500
C671	C67	0.179040	0.583890	0.269600
H471	H47	0.193700	0.558100	0.272700
C681	C68	0.189510	0.614290	0.152600
H481	H48	0.211900	0.608900	0.077900
Ag51	Ag5	0.950530	0.063900	0.173530
N251	N25	0.025390	0.001260	0.736200
N261	N26	0.016630	0.148500	0.481700
N271	N27	0.995350	0.183030	0.418200
N281	N28	0.947860	0.134250	0.481500
N291	N29	0.864370	0.258530	0.193200
N301	N30	0.901480	0.080950	0.390800
C691	C69	0.037620	0.059550	0.550300
H491	H49	0.055300	0.072800	0.471400
C701	C70	0.049450	0.022430	0.622900
H501	H50	0.075700	0.010900	0.592900
C711	C71	0.988010	0.018590	0.775000
H511	H51	0.970600	0.004200	0.851800
C721	C72	0.973600	0.056370	0.708700
H521	H52	0.947200	0.067300	0.740700
C731	C73	0.998800	0.077870	0.594000
C741	C74	0.988190	0.119230	0.519500
C751	C75	0.954420	0.174230	0.416900
C761	C76	0.922350	0.202470	0.343800
C771	C77	0.929160	0.246100	0.346400
H531	H53	0.953300	0.257300	0.399000
C781	C78	0.900050	0.272660	0.270700
H541	H54	0.905200	0.301900	0.272900
C791	C79	0.858270	0.216620	0.191400
H551	H55	0.833900	0.206200	0.138400
C801	C80	0.885780	0.187710	0.263000
H561	H56	0.880000	0.158700	0.257500
C811	C81	0.908090	0.112150	0.500300
C821	C82	0.879780	0.124890	0.622500
H571	H57	0.885900	0.147300	0.696300
C831	C83	0.841670	0.102970	0.631400
H581	H58	0.821500	0.110100	0.713500
C841	C84	0.833890	0.070960	0.519600
H591	H59	0.808100	0.056300	0.522700
C851	C85	0.864290	0.060490	0.402600
H601	H60	0.858900	0.038100	0.327900
Ag61	Ag6	0.450530	0.563900	0.673530
N311	N31	0.525390	0.501260	0.236200
N321	N32	0.516630	0.648500	0.981700
N331	N33	0.495350	0.683030	0.918200
N341	N34	0.447860	0.634250	0.981500
N351	N35	0.364370	0.758530	0.693200
N361	N36	0.401480	0.580950	0.890800
C861	C86	0.537620	0.559550	0.050300
H611	H61	0.555300	0.572800	0.971400
C871	C87	0.549450	0.522430	0.122900
H621	H62	0.575700	0.510900	0.092900
C881	C88	0.488010	0.518590	0.275000
H631	H63	0.470600	0.504200	0.351800
C891	C89	0.473600	0.556370	0.208700
H641	H64	0.447200	0.567300	0.240700
C901	C90	0.498800	0.577870	0.094000
C911	C91	0.488190	0.619230	0.019500
C921	C92	0.454420	0.674230	0.916900
C931	C93	0.422350	0.702470	0.843800
C941	C94	0.429160	0.746100	0.846400
H651	H65	0.453300	0.757300	0.899000
C951	C95	0.400050	0.772660	0.770700
H661	H66	0.405200	0.801900	0.772900
C961	C96	0.358270	0.716620	0.691400
H671	H67	0.333900	0.706200	0.638400
C971	C97	0.385780	0.687710	0.763000
H681	H68	0.380000	0.658700	0.757500
C981	C98	0.408090	0.612150	0.000300
C991	C99	0.379780	0.624890	0.122500
H691	H69	0.385900	0.647300	0.196300
C1001	C100	0.341670	0.602970	0.131400
H701	H70	0.321500	0.610100	0.213500
C1011	C101	0.333890	0.570960	0.019600
H711	H71	0.308100	0.556300	0.022700
C1021	C102	0.364290	0.560490	0.902600
H721	H72	0.358900	0.538100	0.827900
Ag71	Ag7	0.549470	0.936100	0.673530
N371	N37	0.474610	0.998740	0.236200
N381	N38	0.483370	0.851500	0.981700
N391	N39	0.504650	0.816970	0.918200
N401	N40	0.552140	0.865750	0.981500
N411	N41	0.635630	0.741470	0.693200
N421	N42	0.598520	0.919050	0.890800
C1031	C103	0.462380	0.940450	0.050300
H731	H73	0.444700	0.927200	0.971400
C1041	C104	0.450550	0.977570	0.122900
H741	H74	0.424300	0.989100	0.092900
C1051	C105	0.511990	0.981410	0.275000
H751	H75	0.529400	0.995800	0.351800
C1061	C106	0.526400	0.943630	0.208700
H761	H76	0.552800	0.932700	0.240700
C1071	C107	0.501200	0.922130	0.094000
C1081	C108	0.511810	0.880770	0.019500
C1091	C109	0.545580	0.825770	0.916900
C1101	C110	0.577650	0.797530	0.843800
C1111	C111	0.570840	0.753900	0.846400
H771	H77	0.546700	0.742700	0.899000
C1121	C112	0.599950	0.727340	0.770700
H781	H78	0.594800	0.698100	0.772900
C1131	C113	0.641730	0.783380	0.691400
H791	H79	0.666100	0.793800	0.638400
C1141	C114	0.614220	0.812290	0.763000
H801	H80	0.620000	0.841300	0.757500
C1151	C115	0.591910	0.887850	0.000300
C1161	C116	0.620220	0.875110	0.122500
H811	H81	0.614100	0.852700	0.196300
C1171	C117	0.658330	0.897030	0.131400
H821	H82	0.678500	0.889900	0.213500
C1181	C118	0.666110	0.929040	0.019600
H831	H83	0.691900	0.943700	0.022700
C1191	C119	0.635710	0.939510	0.902600
H841	H84	0.641100	0.961900	0.827900
Ag81	Ag8	0.049470	0.436100	0.173530
N431	N43	0.974610	0.498740	0.736200
N441	N44	0.983370	0.351500	0.481700
N451	N45	0.004650	0.316970	0.418200
N461	N46	0.052140	0.365750	0.481500
N471	N47	0.135630	0.241470	0.193200
N481	N48	0.098520	0.419050	0.390800
C1201	C120	0.962380	0.440450	0.550300
H851	H85	0.944700	0.427200	0.471400
C1211	C121	0.950550	0.477570	0.622900
H861	H86	0.924300	0.489100	0.592900
C1221	C122	0.011990	0.481410	0.775000
H871	H87	0.029400	0.495800	0.851800
C1231	C123	0.026400	0.443630	0.708700
H881	H88	0.052800	0.432700	0.740700
C1241	C124	0.001200	0.422130	0.594000
C1251	C125	0.011810	0.380770	0.519500
C1261	C126	0.045580	0.325770	0.416900
C1271	C127	0.077650	0.297530	0.343800
C1281	C128	0.070840	0.253900	0.346400
H891	H89	0.046700	0.242700	0.399000
C1291	C129	0.099950	0.227340	0.270700
H901	H90	0.094800	0.198100	0.272900
C1301	C130	0.141730	0.283380	0.191400
H911	H91	0.166100	0.293800	0.138400
C1311	C131	0.114220	0.312290	0.263000
H921	H92	0.120000	0.341300	0.257500
C1321	C132	0.091910	0.387850	0.500300
C1331	C133	0.120220	0.375110	0.622500
H931	H93	0.114100	0.352700	0.696300
C1341	C134	0.158330	0.397030	0.631400
H941	H94	0.178500	0.389900	0.713500
C1351	C135	0.166110	0.429040	0.519600
H951	H95	0.191900	0.443700	0.522700
C1361	C136	0.135710	0.439510	0.402600
H961	H96	0.141100	0.461900	0.327900
Ag91	Ag9	0.186100	0.200530	0.076470
N491	N49	0.248740	0.275390	0.513800
N501	N50	0.101500	0.266630	0.768300
N511	N51	0.066970	0.245350	0.831800
N521	N52	0.115750	0.197860	0.768500
N531	N53	0.991470	0.114370	0.056800
N541	N54	0.169050	0.151480	0.859200
C1371	C137	0.190450	0.287620	0.699700
H971	H97	0.177200	0.305300	0.778600
C1381	C138	0.227570	0.299450	0.627100
H981	H98	0.239100	0.325700	0.657100
C1391	C139	0.231410	0.238010	0.475000
H991	H99	0.245800	0.220600	0.398200
C1401	C140	0.193630	0.223600	0.541300
H1001	H100	0.182700	0.197200	0.509300
C1411	C141	0.172130	0.248800	0.656000
C1421	C142	0.130770	0.238190	0.730500
C1431	C143	0.075770	0.204420	0.833100
C1441	C144	0.047530	0.172350	0.906200
C1451	C145	0.003900	0.179160	0.903600
H1011	H101	0.992700	0.203300	0.851000
C1461	C146	0.977340	0.150050	0.979300
H1021	H102	0.948100	0.155200	0.977100
C1471	C147	0.033380	0.108270	0.058600
H1031	H103	0.043800	0.083900	0.111600
C1481	C148	0.062290	0.135780	0.987000
H1041	H104	0.091300	0.130000	0.992500
C1491	C149	0.137850	0.158090	0.749700
C1501	C150	0.125110	0.129780	0.627500
H1051	H105	0.102700	0.135900	0.553700
C1511	C151	0.147030	0.091670	0.618600
H1061	H106	0.139900	0.071500	0.536500
C1521	C152	0.179040	0.083890	0.730400
H1071	H107	0.193700	0.058100	0.727300
C1531	C153	0.189510	0.114290	0.847400
H1081	H108	0.211900	0.108900	0.922100
Ag101	Ag10	0.686100	0.700530	0.576470
N551	N55	0.748740	0.775390	0.013800
N561	N56	0.601500	0.766630	0.268300
N571	N57	0.566970	0.745350	0.331800
N581	N58	0.615750	0.697860	0.268500
N591	N59	0.491470	0.614370	0.556800
N601	N60	0.669050	0.651480	0.359200
C1541	C154	0.690450	0.787620	0.199700
H1091	H109	0.677200	0.805300	0.278600
C1551	C155	0.727570	0.799450	0.127100
H1101	H110	0.739100	0.825700	0.157100
C1561	C156	0.731410	0.738010	0.975000
H1111	H111	0.745800	0.720600	0.898200
C1571	C157	0.693630	0.723600	0.041300
H1121	H112	0.682700	0.697200	0.009300
C1581	C158	0.672130	0.748800	0.156000
C1591	C159	0.630770	0.738190	0.230500
C1601	C160	0.575770	0.704420	0.333100
C1611	C161	0.547530	0.672350	0.406200
C1621	C162	0.503900	0.679160	0.403600
H1131	H113	0.492700	0.703300	0.351000
C1631	C163	0.477340	0.650050	0.479300
H1141	H114	0.448100	0.655200	0.477100
C1641	C164	0.533380	0.608270	0.558600
H1151	H115	0.543800	0.583900	0.611600
C1651	C165	0.562290	0.635780	0.487000
H1161	H116	0.591300	0.630000	0.492500
C1661	C166	0.637850	0.658090	0.249700
C1671	C167	0.625110	0.629780	0.127500
H1171	H117	0.602700	0.635900	0.053700
C1681	C168	0.647030	0.591670	0.118600
H1181	H118	0.639900	0.571500	0.036500
C1691	C169	0.679040	0.583890	0.230400
H1191	H119	0.693700	0.558100	0.227300
C1701	C170	0.689510	0.614290	0.347400
H1201	H120	0.711900	0.608900	0.422100
Ag111	Ag11	0.313900	0.799470	0.576470
N611	N61	0.251260	0.724610	0.013800
N621	N62	0.398500	0.733370	0.268300
N631	N63	0.433030	0.754650	0.331800
N641	N64	0.384250	0.802140	0.268500
N651	N65	0.508530	0.885630	0.556800
N661	N66	0.330950	0.848520	0.359200
C1711	C171	0.309550	0.712380	0.199700
H1211	H121	0.322800	0.694700	0.278600
C1721	C172	0.272430	0.700550	0.127100
H1221	H122	0.260900	0.674300	0.157100
C1731	C173	0.268590	0.761990	0.975000
H1231	H123	0.254200	0.779400	0.898200
C1741	C174	0.306370	0.776400	0.041300
H1241	H124	0.317300	0.802800	0.009300
C1751	C175	0.327870	0.751200	0.156000
C1761	C176	0.369230	0.761810	0.230500
C1771	C177	0.424230	0.795580	0.333100
C1781	C178	0.452470	0.827650	0.406200
C1791	C179	0.496100	0.820840	0.403600
H1251	H125	0.507300	0.796700	0.351000
C1801	C180	0.522660	0.849950	0.479300
H1261	H126	0.551900	0.844800	0.477100
C1811	C181	0.466620	0.891730	0.558600
H1271	H127	0.456200	0.916100	0.611600
C1821	C182	0.437710	0.864220	0.487000
H1281	H128	0.408700	0.870000	0.492500
C1831	C183	0.362150	0.841910	0.249700
C1841	C184	0.374890	0.870220	0.127500
H1291	H129	0.397300	0.864100	0.053700
C1851	C185	0.352970	0.908330	0.118600
H1301	H130	0.360100	0.928500	0.036500
C1861	C186	0.320960	0.916110	0.230400
H1311	H131	0.306300	0.941900	0.227300
C1871	C187	0.310490	0.885710	0.347400
H1321	H132	0.288100	0.891100	0.422100
Ag121	Ag12	0.813900	0.299470	0.076470
N671	N67	0.751260	0.224610	0.513800
N681	N68	0.898500	0.233370	0.768300
N691	N69	0.933030	0.254650	0.831800
N701	N70	0.884250	0.302140	0.768500
N711	N71	0.008530	0.385630	0.056800
N721	N72	0.830950	0.348520	0.859200
C1881	C188	0.809550	0.212380	0.699700
H1331	H133	0.822800	0.194700	0.778600
C1891	C189	0.772430	0.200550	0.627100
H1341	H134	0.760900	0.174300	0.657100
C1901	C190	0.768590	0.261990	0.475000
H1351	H135	0.754200	0.279400	0.398200
C1911	C191	0.806370	0.276400	0.541300
H1361	H136	0.817300	0.302800	0.509300
C1921	C192	0.827870	0.251200	0.656000
C1931	C193	0.869230	0.261810	0.730500
C1941	C194	0.924230	0.295580	0.833100
C1951	C195	0.952470	0.327650	0.906200
C1961	C196	0.996100	0.320840	0.903600
H1371	H137	0.007300	0.296700	0.851000
C1971	C197	0.022660	0.349950	0.979300
H1381	H138	0.051900	0.344800	0.977100
C1981	C198	0.966620	0.391730	0.058600
H1391	H139	0.956200	0.416100	0.111600
C1991	C199	0.937710	0.364220	0.987000
H1401	H140	0.908700	0.370000	0.992500
C2001	C200	0.862150	0.341910	0.749700
C2011	C201	0.874890	0.370220	0.627500
H1411	H141	0.897300	0.364100	0.553700
C2021	C202	0.852970	0.408330	0.618600
H1421	H142	0.860100	0.428500	0.536500
C2031	C203	0.820960	0.416110	0.730400
H1431	H143	0.806300	0.441900	0.727300
C2041	C204	0.810490	0.385710	0.847400
H1441	H144	0.788100	0.391100	0.922100
Ag131	Ag13	0.049470	0.936100	0.826470
N731	N73	0.974610	0.998740	0.263800
N741	N74	0.983370	0.851500	0.518300
N751	N75	0.004650	0.816970	0.581800
N761	N76	0.052140	0.865750	0.518500
N771	N77	0.135630	0.741470	0.806800
N781	N78	0.098520	0.919050	0.609200
C2051	C205	0.962380	0.940450	0.449700
H1451	H145	0.944700	0.927200	0.528600
C2061	C206	0.950550	0.977570	0.377100
H1461	H146	0.924300	0.989100	0.407100
C2071	C207	0.011990	0.981410	0.225000
H1471	H147	0.029400	0.995800	0.148200
C2081	C208	0.026400	0.943630	0.291300
H1481	H148	0.052800	0.932700	0.259300
C2091	C209	0.001200	0.922130	0.406000
C2101	C210	0.011810	0.880770	0.480500
C2111	C211	0.045580	0.825770	0.583100
C2121	C212	0.077650	0.797530	0.656200
C2131	C213	0.070840	0.753900	0.653600
H1491	H149	0.046700	0.742700	0.601000
C2141	C214	0.099950	0.727340	0.729300
H1501	H150	0.094800	0.698100	0.727100
C2151	C215	0.141730	0.783380	0.808600
H1511	H151	0.166100	0.793800	0.861600
C2161	C216	0.114220	0.812290	0.737000
H1521	H152	0.120000	0.841300	0.742500
C2171	C217	0.091910	0.887850	0.499700
C2181	C218	0.120220	0.875110	0.377500
H1531	H153	0.114100	0.852700	0.303700
C2191	C219	0.158330	0.897030	0.368600
H1541	H154	0.178500	0.889900	0.286500
C2201	C220	0.166110	0.929040	0.480400
H1551	H155	0.191900	0.943700	0.477300
C2211	C221	0.135710	0.939510	0.597400
H1561	H156	0.141100	0.961900	0.672100
Ag141	Ag14	0.549470	0.436100	0.326470
N791	N79	0.474610	0.498740	0.763800
N801	N80	0.483370	0.351500	0.018300
N811	N81	0.504650	0.316970	0.081800
N821	N82	0.552140	0.365750	0.018500
N831	N83	0.635630	0.241470	0.306800
N841	N84	0.598520	0.419050	0.109200
C2221	C222	0.462380	0.440450	0.949700
H1571	H157	0.444700	0.427200	0.028600
C2231	C223	0.450550	0.477570	0.877100
H1581	H158	0.424300	0.489100	0.907100
C2241	C224	0.511990	0.481410	0.725000
H1591	H159	0.529400	0.495800	0.648200
C2251	C225	0.526400	0.443630	0.791300
H1601	H160	0.552800	0.432700	0.759300
C2261	C226	0.501200	0.422130	0.906000
C2271	C227	0.511810	0.380770	0.980500
C2281	C228	0.545580	0.325770	0.083100
C2291	C229	0.577650	0.297530	0.156200
C2301	C230	0.570840	0.253900	0.153600
H1611	H161	0.546700	0.242700	0.101000
C2311	C231	0.599950	0.227340	0.229300
H1621	H162	0.594800	0.198100	0.227100
C2321	C232	0.641730	0.283380	0.308600
H1631	H163	0.666100	0.293800	0.361600
C2331	C233	0.614220	0.312290	0.237000
H1641	H164	0.620000	0.341300	0.242500
C2341	C234	0.591910	0.387850	0.999700
C2351	C235	0.620220	0.375110	0.877500
H1651	H165	0.614100	0.352700	0.803700
C2361	C236	0.658330	0.397030	0.868600
H1661	H166	0.678500	0.389900	0.786500
C2371	C237	0.666110	0.429040	0.980400
H1671	H167	0.691900	0.443700	0.977300
C2381	C238	0.635710	0.439510	0.097400
H1681	H168	0.641100	0.461900	0.172100
Ag151	Ag15	0.450530	0.063900	0.326470
N851	N85	0.525390	0.001260	0.763800
N861	N86	0.516630	0.148500	0.018300
N871	N87	0.495350	0.183030	0.081800
N881	N88	0.447860	0.134250	0.018500
N891	N89	0.364370	0.258530	0.306800
N901	N90	0.401480	0.080950	0.109200
C2391	C239	0.537620	0.059550	0.949700
H1691	H169	0.555300	0.072800	0.028600
C2401	C240	0.549450	0.022430	0.877100
H1701	H170	0.575700	0.010900	0.907100
C2411	C241	0.488010	0.018590	0.725000
H1711	H171	0.470600	0.004200	0.648200
C2421	C242	0.473600	0.056370	0.791300
H1721	H172	0.447200	0.067300	0.759300
C2431	C243	0.498800	0.077870	0.906000
C2441	C244	0.488190	0.119230	0.980500
C2451	C245	0.454420	0.174230	0.083100
C2461	C246	0.422350	0.202470	0.156200
C2471	C247	0.429160	0.246100	0.153600
H1731	H173	0.453300	0.257300	0.101000
C2481	C248	0.400050	0.272660	0.229300
H1741	H174	0.405200	0.301900	0.227100
C2491	C249	0.358270	0.216620	0.308600
H1751	H175	0.333900	0.206200	0.361600
C2501	C250	0.385780	0.187710	0.237000
H1761	H176	0.380000	0.158700	0.242500
C2511	C251	0.408090	0.112150	0.999700
C2521	C252	0.379780	0.124890	0.877500
H1771	H177	0.385900	0.147300	0.803700
C2531	C253	0.341670	0.102970	0.868600
H1781	H178	0.321500	0.110100	0.786500
C2541	C254	0.333890	0.070960	0.980400
H1791	H179	0.308100	0.056300	0.977300
C2551	C255	0.364290	0.060490	0.097400
H1801	H180	0.358900	0.038100	0.172100
Ag161	Ag16	0.950530	0.563900	0.826470
N911	N91	0.025390	0.501260	0.263800
N921	N92	0.016630	0.648500	0.518300
N931	N93	0.995350	0.683030	0.581800
N941	N94	0.947860	0.634250	0.518500
N951	N95	0.864370	0.758530	0.806800
N961	N96	0.901480	0.580950	0.609200
C2561	C256	0.037620	0.559550	0.449700
H1811	H181	0.055300	0.572800	0.528600
C2571	C257	0.049450	0.522430	0.377100
H1821	H182	0.075700	0.510900	0.407100
C2581	C258	0.988010	0.518590	0.225000
H1831	H183	0.970600	0.504200	0.148200
C2591	C259	0.973600	0.556370	0.291300
H1841	H184	0.947200	0.567300	0.259300
C2601	C260	0.998800	0.577870	0.406000
C2611	C261	0.988190	0.619230	0.480500
C2621	C262	0.954420	0.674230	0.583100
C2631	C263	0.922350	0.702470	0.656200
C2641	C264	0.929160	0.746100	0.653600
H1851	H185	0.953300	0.757300	0.601000
C2651	C265	0.900050	0.772660	0.729300
H1861	H186	0.905200	0.801900	0.727100
C2661	C266	0.858270	0.716620	0.808600
H1871	H187	0.833900	0.706200	0.861600
C2671	C267	0.885780	0.687710	0.737000
H1881	H188	0.880000	0.658700	0.742500
C2681	C268	0.908090	0.612150	0.499700
C2691	C269	0.879780	0.624890	0.377500
H1891	H189	0.885900	0.647300	0.303700
C2701	C270	0.841670	0.602970	0.368600
H1901	H190	0.821500	0.610100	0.286500
C2711	C271	0.833890	0.570960	0.480400
H1911	H191	0.808100	0.556300	0.477300
C2721	C272	0.864290	0.560490	0.597400
H1921	H192	0.858900	0.538100	0.672100
