data_AVAJUE_clean_PM
_symmetry_space_group_name_H-M	'P1'
_cell_length_a	60.910000
_cell_length_b	60.910000
_cell_length_c	60.910000
_cell_angle_alpha	90.000000
_cell_angle_beta	90.000000
_cell_angle_gamma	90.000000
_symmetry_Int_Tables_number 1

loop_
_symmetry_equiv_pos_as_xyz
'x,y,z'

loop_
_atom_site_label
_atom_site_type_symbol
_atom_site_fract_x
_atom_site_fract_y
_atom_site_fract_z
O11	O1	0.017160	0.745290	0.221610
O21	O2	0.024850	0.719330	0.250320
C11	C1	0.028130	0.730100	0.232230
C21	C2	0.047030	0.716610	0.219350
C31	C3	0.055430	0.724850	0.199800
H11	H1	0.049300	0.737400	0.193500
C41	C4	0.072940	0.714370	0.189580
H21	H2	0.078600	0.719900	0.176500
C51	C5	0.082050	0.695640	0.198920
C61	C6	0.073650	0.687400	0.218470
H31	H3	0.079700	0.674900	0.224700
C71	C7	0.056140	0.697880	0.228690
H41	H4	0.050500	0.692400	0.241800
C81	C8	0.100550	0.683350	0.187910
C91	C9	0.115120	0.696760	0.176560
H51	H5	0.113200	0.711900	0.176600
C101	C10	0.132540	0.687520	0.165070
H61	H6	0.142300	0.696500	0.157500
C111	C11	0.135400	0.664880	0.164950
C121	C12	0.120830	0.651480	0.176300
H71	H7	0.122700	0.636300	0.176200
C131	C13	0.103410	0.660710	0.187790
H81	H8	0.093700	0.651700	0.195400
O31	O3	0.017160	0.245290	0.721610
O41	O4	0.024850	0.219330	0.750320
C141	C14	0.028130	0.230100	0.732230
C151	C15	0.047030	0.216610	0.719350
C161	C16	0.055430	0.224850	0.699800
H91	H9	0.049300	0.237400	0.693500
C171	C17	0.072940	0.214370	0.689580
H101	H10	0.078600	0.219900	0.676500
C181	C18	0.082050	0.195640	0.698920
C191	C19	0.073650	0.187400	0.718470
H111	H11	0.079700	0.174900	0.724700
C201	C20	0.056140	0.197880	0.728690
H121	H12	0.050500	0.192400	0.741800
C211	C21	0.100550	0.183350	0.687910
C221	C22	0.115120	0.196760	0.676560
H131	H13	0.113200	0.211900	0.676600
C231	C23	0.132540	0.187520	0.665070
H141	H14	0.142300	0.196500	0.657500
C241	C24	0.135400	0.164880	0.664950
C251	C25	0.120830	0.151480	0.676300
H151	H15	0.122700	0.136300	0.676200
C261	C26	0.103410	0.160710	0.687790
H161	H16	0.093700	0.151700	0.695400
O51	O5	0.517160	0.745290	0.721610
O61	O6	0.524850	0.719330	0.750320
C271	C27	0.528130	0.730100	0.732230
C281	C28	0.547030	0.716610	0.719350
C291	C29	0.555430	0.724850	0.699800
H171	H17	0.549300	0.737400	0.693500
C301	C30	0.572940	0.714370	0.689580
H181	H18	0.578600	0.719900	0.676500
C311	C31	0.582050	0.695640	0.698920
C321	C32	0.573650	0.687400	0.718470
H191	H19	0.579700	0.674900	0.724700
C331	C33	0.556140	0.697880	0.728690
H201	H20	0.550500	0.692400	0.741800
C341	C34	0.600550	0.683350	0.687910
C351	C35	0.615120	0.696760	0.676560
H211	H21	0.613200	0.711900	0.676600
C361	C36	0.632540	0.687520	0.665070
H221	H22	0.642300	0.696500	0.657500
C371	C37	0.635400	0.664880	0.664950
C381	C38	0.620830	0.651480	0.676300
H231	H23	0.622700	0.636300	0.676200
C391	C39	0.603410	0.660710	0.687790
H241	H24	0.593700	0.651700	0.695400
O71	O7	0.517160	0.245290	0.221610
O81	O8	0.524850	0.219330	0.250320
C401	C40	0.528130	0.230100	0.232230
C411	C41	0.547030	0.216610	0.219350
C421	C42	0.555430	0.224850	0.199800
H251	H25	0.549300	0.237400	0.193500
C431	C43	0.572940	0.214370	0.189580
H261	H26	0.578600	0.219900	0.176500
C441	C44	0.582050	0.195640	0.198920
C451	C45	0.573650	0.187400	0.218470
H271	H27	0.579700	0.174900	0.224700
C461	C46	0.556140	0.197880	0.228690
H281	H28	0.550500	0.192400	0.241800
C471	C47	0.600550	0.183350	0.187910
C481	C48	0.615120	0.196760	0.176560
H291	H29	0.613200	0.211900	0.176600
C491	C49	0.632540	0.187520	0.165070
H301	H30	0.642300	0.196500	0.157500
C501	C50	0.635400	0.164880	0.164950
C511	C51	0.620830	0.151480	0.176300
H311	H31	0.622700	0.136300	0.176200
C521	C52	0.603410	0.160710	0.187790
H321	H32	0.593700	0.151700	0.195400
O91	O9	0.982840	0.254710	0.221610
O101	O10	0.975150	0.280670	0.250320
C531	C53	0.971870	0.269900	0.232230
C541	C54	0.952970	0.283390	0.219350
C551	C55	0.944570	0.275150	0.199800
H331	H33	0.950700	0.262600	0.193500
C561	C56	0.927060	0.285630	0.189580
H341	H34	0.921400	0.280100	0.176500
C571	C57	0.917950	0.304360	0.198920
C581	C58	0.926350	0.312600	0.218470
H351	H35	0.920300	0.325100	0.224700
C591	C59	0.943860	0.302120	0.228690
H361	H36	0.949500	0.307600	0.241800
C601	C60	0.899450	0.316650	0.187910
C611	C61	0.884880	0.303240	0.176560
H371	H37	0.886800	0.288100	0.176600
C621	C62	0.867460	0.312480	0.165070
H381	H38	0.857700	0.303500	0.157500
C631	C63	0.864600	0.335120	0.164950
C641	C64	0.879170	0.348520	0.176300
H391	H39	0.877300	0.363700	0.176200
C651	C65	0.896590	0.339290	0.187790
H401	H40	0.906300	0.348300	0.195400
O111	O11	0.982840	0.754710	0.721610
O121	O12	0.975150	0.780670	0.750320
C661	C66	0.971870	0.769900	0.732230
C671	C67	0.952970	0.783390	0.719350
C681	C68	0.944570	0.775150	0.699800
H411	H41	0.950700	0.762600	0.693500
C691	C69	0.927060	0.785630	0.689580
H421	H42	0.921400	0.780100	0.676500
C701	C70	0.917950	0.804360	0.698920
C711	C71	0.926350	0.812600	0.718470
H431	H43	0.920300	0.825100	0.724700
C721	C72	0.943860	0.802120	0.728690
H441	H44	0.949500	0.807600	0.741800
C731	C73	0.899450	0.816650	0.687910
C741	C74	0.884880	0.803240	0.676560
H451	H45	0.886800	0.788100	0.676600
C751	C75	0.867460	0.812480	0.665070
H461	H46	0.857700	0.803500	0.657500
C761	C76	0.864600	0.835120	0.664950
C771	C77	0.879170	0.848520	0.676300
H471	H47	0.877300	0.863700	0.676200
C781	C78	0.896590	0.839290	0.687790
H481	H48	0.906300	0.848300	0.695400
O131	O13	0.482840	0.254710	0.721610
O141	O14	0.475150	0.280670	0.750320
C791	C79	0.471870	0.269900	0.732230
C801	C80	0.452970	0.283390	0.719350
C811	C81	0.444570	0.275150	0.699800
H491	H49	0.450700	0.262600	0.693500
C821	C82	0.427060	0.285630	0.689580
H501	H50	0.421400	0.280100	0.676500
C831	C83	0.417950	0.304360	0.698920
C841	C84	0.426350	0.312600	0.718470
H511	H51	0.420300	0.325100	0.724700
C851	C85	0.443860	0.302120	0.728690
H521	H52	0.449500	0.307600	0.741800
C861	C86	0.399450	0.316650	0.687910
C871	C87	0.384880	0.303240	0.676560
H531	H53	0.386800	0.288100	0.676600
C881	C88	0.367460	0.312480	0.665070
H541	H54	0.357700	0.303500	0.657500
C891	C89	0.364600	0.335120	0.664950
C901	C90	0.379170	0.348520	0.676300
H551	H55	0.377300	0.363700	0.676200
C911	C91	0.396590	0.339290	0.687790
H561	H56	0.406300	0.348300	0.695400
O151	O15	0.482840	0.754710	0.221610
O161	O16	0.475150	0.780670	0.250320
C921	C92	0.471870	0.769900	0.232230
C931	C93	0.452970	0.783390	0.219350
C941	C94	0.444570	0.775150	0.199800
H571	H57	0.450700	0.762600	0.193500
C951	C95	0.427060	0.785630	0.189580
H581	H58	0.421400	0.780100	0.176500
C961	C96	0.417950	0.804360	0.198920
C971	C97	0.426350	0.812600	0.218470
H591	H59	0.420300	0.825100	0.224700
C981	C98	0.443860	0.802120	0.228690
H601	H60	0.449500	0.807600	0.241800
C991	C99	0.399450	0.816650	0.187910
C1001	C100	0.384880	0.803240	0.176560
H611	H61	0.386800	0.788100	0.176600
C1011	C101	0.367460	0.812480	0.165070
H621	H62	0.357700	0.803500	0.157500
C1021	C102	0.364600	0.835120	0.164950
C1031	C103	0.379170	0.848520	0.176300
H631	H63	0.377300	0.863700	0.176200
C1041	C104	0.396590	0.839290	0.187790
H641	H64	0.406300	0.848300	0.195400
O171	O17	0.982840	0.745290	0.778390
O181	O18	0.975150	0.719330	0.749680
C1051	C105	0.971870	0.730100	0.767770
C1061	C106	0.952970	0.716610	0.780650
C1071	C107	0.944570	0.724850	0.800200
H651	H65	0.950700	0.737400	0.806500
C1081	C108	0.927060	0.714370	0.810420
H661	H66	0.921400	0.719900	0.823500
C1091	C109	0.917950	0.695640	0.801080
C1101	C110	0.926350	0.687400	0.781530
H671	H67	0.920300	0.674900	0.775300
C1111	C111	0.943860	0.697880	0.771310
H681	H68	0.949500	0.692400	0.758200
C1121	C112	0.899450	0.683350	0.812090
C1131	C113	0.884880	0.696760	0.823440
H691	H69	0.886800	0.711900	0.823400
C1141	C114	0.867460	0.687520	0.834930
H701	H70	0.857700	0.696500	0.842500
C1151	C115	0.864600	0.664880	0.835050
C1161	C116	0.879170	0.651480	0.823700
H711	H71	0.877300	0.636300	0.823800
C1171	C117	0.896590	0.660710	0.812210
H721	H72	0.906300	0.651700	0.804600
O191	O19	0.982840	0.245290	0.278390
O201	O20	0.975150	0.219330	0.249680
C1181	C118	0.971870	0.230100	0.267770
C1191	C119	0.952970	0.216610	0.280650
C1201	C120	0.944570	0.224850	0.300200
H731	H73	0.950700	0.237400	0.306500
C1211	C121	0.927060	0.214370	0.310420
H741	H74	0.921400	0.219900	0.323500
C1221	C122	0.917950	0.195640	0.301080
C1231	C123	0.926350	0.187400	0.281530
H751	H75	0.920300	0.174900	0.275300
C1241	C124	0.943860	0.197880	0.271310
H761	H76	0.949500	0.192400	0.258200
C1251	C125	0.899450	0.183350	0.312090
C1261	C126	0.884880	0.196760	0.323440
H771	H77	0.886800	0.211900	0.323400
C1271	C127	0.867460	0.187520	0.334930
H781	H78	0.857700	0.196500	0.342500
C1281	C128	0.864600	0.164880	0.335050
C1291	C129	0.879170	0.151480	0.323700
H791	H79	0.877300	0.136300	0.323800
C1301	C130	0.896590	0.160710	0.312210
H801	H80	0.906300	0.151700	0.304600
O211	O21	0.482840	0.745290	0.278390
O221	O22	0.475150	0.719330	0.249680
C1311	C131	0.471870	0.730100	0.267770
C1321	C132	0.452970	0.716610	0.280650
C1331	C133	0.444570	0.724850	0.300200
H811	H81	0.450700	0.737400	0.306500
C1341	C134	0.427060	0.714370	0.310420
H821	H82	0.421400	0.719900	0.323500
C1351	C135	0.417950	0.695640	0.301080
C1361	C136	0.426350	0.687400	0.281530
H831	H83	0.420300	0.674900	0.275300
C1371	C137	0.443860	0.697880	0.271310
H841	H84	0.449500	0.692400	0.258200
C1381	C138	0.399450	0.683350	0.312090
C1391	C139	0.384880	0.696760	0.323440
H851	H85	0.386800	0.711900	0.323400
C1401	C140	0.367460	0.687520	0.334930
H861	H86	0.357700	0.696500	0.342500
C1411	C141	0.364600	0.664880	0.335050
C1421	C142	0.379170	0.651480	0.323700
H871	H87	0.377300	0.636300	0.323800
C1431	C143	0.396590	0.660710	0.312210
H881	H88	0.406300	0.651700	0.304600
O231	O23	0.482840	0.245290	0.778390
O241	O24	0.475150	0.219330	0.749680
C1441	C144	0.471870	0.230100	0.767770
C1451	C145	0.452970	0.216610	0.780650
C1461	C146	0.444570	0.224850	0.800200
H891	H89	0.450700	0.237400	0.806500
C1471	C147	0.427060	0.214370	0.810420
H901	H90	0.421400	0.219900	0.823500
C1481	C148	0.417950	0.195640	0.801080
C1491	C149	0.426350	0.187400	0.781530
H911	H91	0.420300	0.174900	0.775300
C1501	C150	0.443860	0.197880	0.771310
H921	H92	0.449500	0.192400	0.758200
C1511	C151	0.399450	0.183350	0.812090
C1521	C152	0.384880	0.196760	0.823440
H931	H93	0.386800	0.211900	0.823400
C1531	C153	0.367460	0.187520	0.834930
H941	H94	0.357700	0.196500	0.842500
C1541	C154	0.364600	0.164880	0.835050
C1551	C155	0.379170	0.151480	0.823700
H951	H95	0.377300	0.136300	0.823800
C1561	C156	0.396590	0.160710	0.812210
H961	H96	0.406300	0.151700	0.804600
O251	O25	0.017160	0.254710	0.778390
O261	O26	0.024850	0.280670	0.749680
C1571	C157	0.028130	0.269900	0.767770
C1581	C158	0.047030	0.283390	0.780650
C1591	C159	0.055430	0.275150	0.800200
H971	H97	0.049300	0.262600	0.806500
C1601	C160	0.072940	0.285630	0.810420
H981	H98	0.078600	0.280100	0.823500
C1611	C161	0.082050	0.304360	0.801080
C1621	C162	0.073650	0.312600	0.781530
H991	H99	0.079700	0.325100	0.775300
C1631	C163	0.056140	0.302120	0.771310
H1001	H100	0.050500	0.307600	0.758200
C1641	C164	0.100550	0.316650	0.812090
C1651	C165	0.115120	0.303240	0.823440
H1011	H101	0.113200	0.288100	0.823400
C1661	C166	0.132540	0.312480	0.834930
H1021	H102	0.142300	0.303500	0.842500
C1671	C167	0.135400	0.335120	0.835050
C1681	C168	0.120830	0.348520	0.823700
H1031	H103	0.122700	0.363700	0.823800
C1691	C169	0.103410	0.339290	0.812210
H1041	H104	0.093700	0.348300	0.804600
O271	O27	0.017160	0.754710	0.278390
O281	O28	0.024850	0.780670	0.249680
C1701	C170	0.028130	0.769900	0.267770
C1711	C171	0.047030	0.783390	0.280650
C1721	C172	0.055430	0.775150	0.300200
H1051	H105	0.049300	0.762600	0.306500
C1731	C173	0.072940	0.785630	0.310420
H1061	H106	0.078600	0.780100	0.323500
C1741	C174	0.082050	0.804360	0.301080
C1751	C175	0.073650	0.812600	0.281530
H1071	H107	0.079700	0.825100	0.275300
C1761	C176	0.056140	0.802120	0.271310
H1081	H108	0.050500	0.807600	0.258200
C1771	C177	0.100550	0.816650	0.312090
C1781	C178	0.115120	0.803240	0.323440
H1091	H109	0.113200	0.788100	0.323400
C1791	C179	0.132540	0.812480	0.334930
H1101	H110	0.142300	0.803500	0.342500
C1801	C180	0.135400	0.835120	0.335050
C1811	C181	0.120830	0.848520	0.323700
H1111	H111	0.122700	0.863700	0.323800
C1821	C182	0.103410	0.839290	0.312210
H1121	H112	0.093700	0.848300	0.304600
O291	O29	0.517160	0.254710	0.278390
O301	O30	0.524850	0.280670	0.249680
C1831	C183	0.528130	0.269900	0.267770
C1841	C184	0.547030	0.283390	0.280650
C1851	C185	0.555430	0.275150	0.300200
H1131	H113	0.549300	0.262600	0.306500
C1861	C186	0.572940	0.285630	0.310420
H1141	H114	0.578600	0.280100	0.323500
C1871	C187	0.582050	0.304360	0.301080
C1881	C188	0.573650	0.312600	0.281530
H1151	H115	0.579700	0.325100	0.275300
C1891	C189	0.556140	0.302120	0.271310
H1161	H116	0.550500	0.307600	0.258200
C1901	C190	0.600550	0.316650	0.312090
C1911	C191	0.615120	0.303240	0.323440
H1171	H117	0.613200	0.288100	0.323400
C1921	C192	0.632540	0.312480	0.334930
H1181	H118	0.642300	0.303500	0.342500
C1931	C193	0.635400	0.335120	0.335050
C1941	C194	0.620830	0.348520	0.323700
H1191	H119	0.622700	0.363700	0.323800
C1951	C195	0.603410	0.339290	0.312210
H1201	H120	0.593700	0.348300	0.304600
O311	O31	0.517160	0.754710	0.778390
O321	O32	0.524850	0.780670	0.749680
C1961	C196	0.528130	0.769900	0.767770
C1971	C197	0.547030	0.783390	0.780650
C1981	C198	0.555430	0.775150	0.800200
H1211	H121	0.549300	0.762600	0.806500
C1991	C199	0.572940	0.785630	0.810420
H1221	H122	0.578600	0.780100	0.823500
C2001	C200	0.582050	0.804360	0.801080
C2011	C201	0.573650	0.812600	0.781530
H1231	H123	0.579700	0.825100	0.775300
C2021	C202	0.556140	0.802120	0.771310
H1241	H124	0.550500	0.807600	0.758200
C2031	C203	0.600550	0.816650	0.812090
C2041	C204	0.615120	0.803240	0.823440
H1251	H125	0.613200	0.788100	0.823400
C2051	C205	0.632540	0.812480	0.834930
H1261	H126	0.642300	0.803500	0.842500
C2061	C206	0.635400	0.835120	0.835050
C2071	C207	0.620830	0.848520	0.823700
H1271	H127	0.622700	0.863700	0.823800
C2081	C208	0.603410	0.839290	0.812210
H1281	H128	0.593700	0.848300	0.804600
O331	O33	0.221610	0.017160	0.745290
O341	O34	0.250320	0.024850	0.719330
C2091	C209	0.232230	0.028130	0.730100
C2101	C210	0.219350	0.047030	0.716610
C2111	C211	0.199800	0.055430	0.724850
H1291	H129	0.193500	0.049300	0.737400
C2121	C212	0.189580	0.072940	0.714370
H1301	H130	0.176500	0.078600	0.719900
C2131	C213	0.198920	0.082050	0.695640
C2141	C214	0.218470	0.073650	0.687400
H1311	H131	0.224700	0.079700	0.674900
C2151	C215	0.228690	0.056140	0.697880
H1321	H132	0.241800	0.050500	0.692400
C2161	C216	0.187910	0.100550	0.683350
C2171	C217	0.176560	0.115120	0.696760
H1331	H133	0.176600	0.113200	0.711900
C2181	C218	0.165070	0.132540	0.687520
H1341	H134	0.157500	0.142300	0.696500
C2191	C219	0.164950	0.135400	0.664880
C2201	C220	0.176300	0.120830	0.651480
H1351	H135	0.176200	0.122700	0.636300
C2211	C221	0.187790	0.103410	0.660710
H1361	H136	0.195400	0.093700	0.651700
O351	O35	0.221610	0.517160	0.245290
O361	O36	0.250320	0.524850	0.219330
C2221	C222	0.232230	0.528130	0.230100
C2231	C223	0.219350	0.547030	0.216610
C2241	C224	0.199800	0.555430	0.224850
H1371	H137	0.193500	0.549300	0.237400
C2251	C225	0.189580	0.572940	0.214370
H1381	H138	0.176500	0.578600	0.219900
C2261	C226	0.198920	0.582050	0.195640
C2271	C227	0.218470	0.573650	0.187400
H1391	H139	0.224700	0.579700	0.174900
C2281	C228	0.228690	0.556140	0.197880
H1401	H140	0.241800	0.550500	0.192400
C2291	C229	0.187910	0.600550	0.183350
C2301	C230	0.176560	0.615120	0.196760
H1411	H141	0.176600	0.613200	0.211900
C2311	C231	0.165070	0.632540	0.187520
H1421	H142	0.157500	0.642300	0.196500
C2321	C232	0.164950	0.635400	0.164880
C2331	C233	0.176300	0.620830	0.151480
H1431	H143	0.176200	0.622700	0.136300
C2341	C234	0.187790	0.603410	0.160710
H1441	H144	0.195400	0.593700	0.151700
O371	O37	0.721610	0.017160	0.245290
O381	O38	0.750320	0.024850	0.219330
C2351	C235	0.732230	0.028130	0.230100
C2361	C236	0.719350	0.047030	0.216610
C2371	C237	0.699800	0.055430	0.224850
H1451	H145	0.693500	0.049300	0.237400
C2381	C238	0.689580	0.072940	0.214370
H1461	H146	0.676500	0.078600	0.219900
C2391	C239	0.698920	0.082050	0.195640
C2401	C240	0.718470	0.073650	0.187400
H1471	H147	0.724700	0.079700	0.174900
C2411	C241	0.728690	0.056140	0.197880
H1481	H148	0.741800	0.050500	0.192400
C2421	C242	0.687910	0.100550	0.183350
C2431	C243	0.676560	0.115120	0.196760
H1491	H149	0.676600	0.113200	0.211900
C2441	C244	0.665070	0.132540	0.187520
H1501	H150	0.657500	0.142300	0.196500
C2451	C245	0.664950	0.135400	0.164880
C2461	C246	0.676300	0.120830	0.151480
H1511	H151	0.676200	0.122700	0.136300
C2471	C247	0.687790	0.103410	0.160710
H1521	H152	0.695400	0.093700	0.151700
O391	O39	0.721610	0.517160	0.745290
O401	O40	0.750320	0.524850	0.719330
C2481	C248	0.732230	0.528130	0.730100
C2491	C249	0.719350	0.547030	0.716610
C2501	C250	0.699800	0.555430	0.724850
H1531	H153	0.693500	0.549300	0.737400
C2511	C251	0.689580	0.572940	0.714370
H1541	H154	0.676500	0.578600	0.719900
C2521	C252	0.698920	0.582050	0.695640
C2531	C253	0.718470	0.573650	0.687400
H1551	H155	0.724700	0.579700	0.674900
C2541	C254	0.728690	0.556140	0.697880
H1561	H156	0.741800	0.550500	0.692400
C2551	C255	0.687910	0.600550	0.683350
C2561	C256	0.676560	0.615120	0.696760
H1571	H157	0.676600	0.613200	0.711900
C2571	C257	0.665070	0.632540	0.687520
H1581	H158	0.657500	0.642300	0.696500
C2581	C258	0.664950	0.635400	0.664880
C2591	C259	0.676300	0.620830	0.651480
H1591	H159	0.676200	0.622700	0.636300
C2601	C260	0.687790	0.603410	0.660710
H1601	H160	0.695400	0.593700	0.651700
O411	O41	0.221610	0.982840	0.254710
O421	O42	0.250320	0.975150	0.280670
C2611	C261	0.232230	0.971870	0.269900
C2621	C262	0.219350	0.952970	0.283390
C2631	C263	0.199800	0.944570	0.275150
H1611	H161	0.193500	0.950700	0.262600
C2641	C264	0.189580	0.927060	0.285630
H1621	H162	0.176500	0.921400	0.280100
C2651	C265	0.198920	0.917950	0.304360
C2661	C266	0.218470	0.926350	0.312600
H1631	H163	0.224700	0.920300	0.325100
C2671	C267	0.228690	0.943860	0.302120
H1641	H164	0.241800	0.949500	0.307600
C2681	C268	0.187910	0.899450	0.316650
C2691	C269	0.176560	0.884880	0.303240
H1651	H165	0.176600	0.886800	0.288100
C2701	C270	0.165070	0.867460	0.312480
H1661	H166	0.157500	0.857700	0.303500
C2711	C271	0.164950	0.864600	0.335120
C2721	C272	0.176300	0.879170	0.348520
H1671	H167	0.176200	0.877300	0.363700
C2731	C273	0.187790	0.896590	0.339290
H1681	H168	0.195400	0.906300	0.348300
O431	O43	0.221610	0.482840	0.754710
O441	O44	0.250320	0.475150	0.780670
C2741	C274	0.232230	0.471870	0.769900
C2751	C275	0.219350	0.452970	0.783390
C2761	C276	0.199800	0.444570	0.775150
H1691	H169	0.193500	0.450700	0.762600
C2771	C277	0.189580	0.427060	0.785630
H1701	H170	0.176500	0.421400	0.780100
C2781	C278	0.198920	0.417950	0.804360
C2791	C279	0.218470	0.426350	0.812600
H1711	H171	0.224700	0.420300	0.825100
C2801	C280	0.228690	0.443860	0.802120
H1721	H172	0.241800	0.449500	0.807600
C2811	C281	0.187910	0.399450	0.816650
C2821	C282	0.176560	0.384880	0.803240
H1731	H173	0.176600	0.386800	0.788100
C2831	C283	0.165070	0.367460	0.812480
H1741	H174	0.157500	0.357700	0.803500
C2841	C284	0.164950	0.364600	0.835120
C2851	C285	0.176300	0.379170	0.848520
H1751	H175	0.176200	0.377300	0.863700
C2861	C286	0.187790	0.396590	0.839290
H1761	H176	0.195400	0.406300	0.848300
O451	O45	0.721610	0.982840	0.754710
O461	O46	0.750320	0.975150	0.780670
C2871	C287	0.732230	0.971870	0.769900
C2881	C288	0.719350	0.952970	0.783390
C2891	C289	0.699800	0.944570	0.775150
H1771	H177	0.693500	0.950700	0.762600
C2901	C290	0.689580	0.927060	0.785630
H1781	H178	0.676500	0.921400	0.780100
C2911	C291	0.698920	0.917950	0.804360
C2921	C292	0.718470	0.926350	0.812600
H1791	H179	0.724700	0.920300	0.825100
C2931	C293	0.728690	0.943860	0.802120
H1801	H180	0.741800	0.949500	0.807600
C2941	C294	0.687910	0.899450	0.816650
C2951	C295	0.676560	0.884880	0.803240
H1811	H181	0.676600	0.886800	0.788100
C2961	C296	0.665070	0.867460	0.812480
H1821	H182	0.657500	0.857700	0.803500
C2971	C297	0.664950	0.864600	0.835120
C2981	C298	0.676300	0.879170	0.848520
H1831	H183	0.676200	0.877300	0.863700
C2991	C299	0.687790	0.896590	0.839290
H1841	H184	0.695400	0.906300	0.848300
O471	O47	0.721610	0.482840	0.254710
O481	O48	0.750320	0.475150	0.280670
C3001	C300	0.732230	0.471870	0.269900
C3011	C301	0.719350	0.452970	0.283390
C3021	C302	0.699800	0.444570	0.275150
H1851	H185	0.693500	0.450700	0.262600
C3031	C303	0.689580	0.427060	0.285630
H1861	H186	0.676500	0.421400	0.280100
C3041	C304	0.698920	0.417950	0.304360
C3051	C305	0.718470	0.426350	0.312600
H1871	H187	0.724700	0.420300	0.325100
C3061	C306	0.728690	0.443860	0.302120
H1881	H188	0.741800	0.449500	0.307600
C3071	C307	0.687910	0.399450	0.316650
C3081	C308	0.676560	0.384880	0.303240
H1891	H189	0.676600	0.386800	0.288100
C3091	C309	0.665070	0.367460	0.312480
H1901	H190	0.657500	0.357700	0.303500
C3101	C310	0.664950	0.364600	0.335120
C3111	C311	0.676300	0.379170	0.348520
H1911	H191	0.676200	0.377300	0.363700
C3121	C312	0.687790	0.396590	0.339290
H1921	H192	0.695400	0.406300	0.348300
O491	O49	0.778390	0.982840	0.745290
O501	O50	0.749680	0.975150	0.719330
C3131	C313	0.767770	0.971870	0.730100
C3141	C314	0.780650	0.952970	0.716610
C3151	C315	0.800200	0.944570	0.724850
H1931	H193	0.806500	0.950700	0.737400
C3161	C316	0.810420	0.927060	0.714370
H1941	H194	0.823500	0.921400	0.719900
C3171	C317	0.801080	0.917950	0.695640
C3181	C318	0.781530	0.926350	0.687400
H1951	H195	0.775300	0.920300	0.674900
C3191	C319	0.771310	0.943860	0.697880
H1961	H196	0.758200	0.949500	0.692400
C3201	C320	0.812090	0.899450	0.683350
C3211	C321	0.823440	0.884880	0.696760
H1971	H197	0.823400	0.886800	0.711900
C3221	C322	0.834930	0.867460	0.687520
H1981	H198	0.842500	0.857700	0.696500
C3231	C323	0.835050	0.864600	0.664880
C3241	C324	0.823700	0.879170	0.651480
H1991	H199	0.823800	0.877300	0.636300
C3251	C325	0.812210	0.896590	0.660710
H2001	H200	0.804600	0.906300	0.651700
O511	O51	0.778390	0.482840	0.245290
O521	O52	0.749680	0.475150	0.219330
C3261	C326	0.767770	0.471870	0.230100
C3271	C327	0.780650	0.452970	0.216610
C3281	C328	0.800200	0.444570	0.224850
H2011	H201	0.806500	0.450700	0.237400
C3291	C329	0.810420	0.427060	0.214370
H2021	H202	0.823500	0.421400	0.219900
C3301	C330	0.801080	0.417950	0.195640
C3311	C331	0.781530	0.426350	0.187400
H2031	H203	0.775300	0.420300	0.174900
C3321	C332	0.771310	0.443860	0.197880
H2041	H204	0.758200	0.449500	0.192400
C3331	C333	0.812090	0.399450	0.183350
C3341	C334	0.823440	0.384880	0.196760
H2051	H205	0.823400	0.386800	0.211900
C3351	C335	0.834930	0.367460	0.187520
H2061	H206	0.842500	0.357700	0.196500
C3361	C336	0.835050	0.364600	0.164880
C3371	C337	0.823700	0.379170	0.151480
H2071	H207	0.823800	0.377300	0.136300
C3381	C338	0.812210	0.396590	0.160710
H2081	H208	0.804600	0.406300	0.151700
O531	O53	0.278390	0.982840	0.245290
O541	O54	0.249680	0.975150	0.219330
C3391	C339	0.267770	0.971870	0.230100
C3401	C340	0.280650	0.952970	0.216610
C3411	C341	0.300200	0.944570	0.224850
H2091	H209	0.306500	0.950700	0.237400
C3421	C342	0.310420	0.927060	0.214370
H2101	H210	0.323500	0.921400	0.219900
C3431	C343	0.301080	0.917950	0.195640
C3441	C344	0.281530	0.926350	0.187400
H2111	H211	0.275300	0.920300	0.174900
C3451	C345	0.271310	0.943860	0.197880
H2121	H212	0.258200	0.949500	0.192400
C3461	C346	0.312090	0.899450	0.183350
C3471	C347	0.323440	0.884880	0.196760
H2131	H213	0.323400	0.886800	0.211900
C3481	C348	0.334930	0.867460	0.187520
H2141	H214	0.342500	0.857700	0.196500
C3491	C349	0.335050	0.864600	0.164880
C3501	C350	0.323700	0.879170	0.151480
H2151	H215	0.323800	0.877300	0.136300
C3511	C351	0.312210	0.896590	0.160710
H2161	H216	0.304600	0.906300	0.151700
O551	O55	0.278390	0.482840	0.745290
O561	O56	0.249680	0.475150	0.719330
C3521	C352	0.267770	0.471870	0.730100
C3531	C353	0.280650	0.452970	0.716610
C3541	C354	0.300200	0.444570	0.724850
H2171	H217	0.306500	0.450700	0.737400
C3551	C355	0.310420	0.427060	0.714370
H2181	H218	0.323500	0.421400	0.719900
C3561	C356	0.301080	0.417950	0.695640
C3571	C357	0.281530	0.426350	0.687400
H2191	H219	0.275300	0.420300	0.674900
C3581	C358	0.271310	0.443860	0.697880
H2201	H220	0.258200	0.449500	0.692400
C3591	C359	0.312090	0.399450	0.683350
C3601	C360	0.323440	0.384880	0.696760
H2211	H221	0.323400	0.386800	0.711900
C3611	C361	0.334930	0.367460	0.687520
H2221	H222	0.342500	0.357700	0.696500
C3621	C362	0.335050	0.364600	0.664880
C3631	C363	0.323700	0.379170	0.651480
H2231	H223	0.323800	0.377300	0.636300
C3641	C364	0.312210	0.396590	0.660710
H2241	H224	0.304600	0.406300	0.651700
O571	O57	0.778390	0.017160	0.254710
O581	O58	0.749680	0.024850	0.280670
C3651	C365	0.767770	0.028130	0.269900
C3661	C366	0.780650	0.047030	0.283390
C3671	C367	0.800200	0.055430	0.275150
H2251	H225	0.806500	0.049300	0.262600
C3681	C368	0.810420	0.072940	0.285630
H2261	H226	0.823500	0.078600	0.280100
C3691	C369	0.801080	0.082050	0.304360
C3701	C370	0.781530	0.073650	0.312600
H2271	H227	0.775300	0.079700	0.325100
C3711	C371	0.771310	0.056140	0.302120
H2281	H228	0.758200	0.050500	0.307600
C3721	C372	0.812090	0.100550	0.316650
C3731	C373	0.823440	0.115120	0.303240
H2291	H229	0.823400	0.113200	0.288100
C3741	C374	0.834930	0.132540	0.312480
H2301	H230	0.842500	0.142300	0.303500
C3751	C375	0.835050	0.135400	0.335120
C3761	C376	0.823700	0.120830	0.348520
H2311	H231	0.823800	0.122700	0.363700
C3771	C377	0.812210	0.103410	0.339290
H2321	H232	0.804600	0.093700	0.348300
O591	O59	0.778390	0.517160	0.754710
O601	O60	0.749680	0.524850	0.780670
C3781	C378	0.767770	0.528130	0.769900
C3791	C379	0.780650	0.547030	0.783390
C3801	C380	0.800200	0.555430	0.775150
H2331	H233	0.806500	0.549300	0.762600
C3811	C381	0.810420	0.572940	0.785630
H2341	H234	0.823500	0.578600	0.780100
C3821	C382	0.801080	0.582050	0.804360
C3831	C383	0.781530	0.573650	0.812600
H2351	H235	0.775300	0.579700	0.825100
C3841	C384	0.771310	0.556140	0.802120
H2361	H236	0.758200	0.550500	0.807600
C3851	C385	0.812090	0.600550	0.816650
C3861	C386	0.823440	0.615120	0.803240
H2371	H237	0.823400	0.613200	0.788100
C3871	C387	0.834930	0.632540	0.812480
H2381	H238	0.842500	0.642300	0.803500
C3881	C388	0.835050	0.635400	0.835120
C3891	C389	0.823700	0.620830	0.848520
H2391	H239	0.823800	0.622700	0.863700
C3901	C390	0.812210	0.603410	0.839290
H2401	H240	0.804600	0.593700	0.848300
O611	O61	0.278390	0.017160	0.754710
O621	O62	0.249680	0.024850	0.780670
C3911	C391	0.267770	0.028130	0.769900
C3921	C392	0.280650	0.047030	0.783390
C3931	C393	0.300200	0.055430	0.775150
H2411	H241	0.306500	0.049300	0.762600
C3941	C394	0.310420	0.072940	0.785630
H2421	H242	0.323500	0.078600	0.780100
C3951	C395	0.301080	0.082050	0.804360
C3961	C396	0.281530	0.073650	0.812600
H2431	H243	0.275300	0.079700	0.825100
C3971	C397	0.271310	0.056140	0.802120
H2441	H244	0.258200	0.050500	0.807600
C3981	C398	0.312090	0.100550	0.816650
C3991	C399	0.323440	0.115120	0.803240
H2451	H245	0.323400	0.113200	0.788100
C4001	C400	0.334930	0.132540	0.812480
H2461	H246	0.342500	0.142300	0.803500
C4011	C401	0.335050	0.135400	0.835120
C4021	C402	0.323700	0.120830	0.848520
H2471	H247	0.323800	0.122700	0.863700
C4031	C403	0.312210	0.103410	0.839290
H2481	H248	0.304600	0.093700	0.848300
O631	O63	0.278390	0.517160	0.254710
O641	O64	0.249680	0.524850	0.280670
C4041	C404	0.267770	0.528130	0.269900
C4051	C405	0.280650	0.547030	0.283390
C4061	C406	0.300200	0.555430	0.275150
H2491	H249	0.306500	0.549300	0.262600
C4071	C407	0.310420	0.572940	0.285630
H2501	H250	0.323500	0.578600	0.280100
C4081	C408	0.301080	0.582050	0.304360
C4091	C409	0.281530	0.573650	0.312600
H2511	H251	0.275300	0.579700	0.325100
C4101	C410	0.271310	0.556140	0.302120
H2521	H252	0.258200	0.550500	0.307600
C4111	C411	0.312090	0.600550	0.316650
C4121	C412	0.323440	0.615120	0.303240
H2531	H253	0.323400	0.613200	0.288100
C4131	C413	0.334930	0.632540	0.312480
H2541	H254	0.342500	0.642300	0.303500
C4141	C414	0.335050	0.635400	0.335120
C4151	C415	0.323700	0.620830	0.348520
H2551	H255	0.323800	0.622700	0.363700
C4161	C416	0.312210	0.603410	0.339290
H2561	H256	0.304600	0.593700	0.348300
O651	O65	0.745290	0.221610	0.017160
O661	O66	0.719330	0.250320	0.024850
C4171	C417	0.730100	0.232230	0.028130
C4181	C418	0.716610	0.219350	0.047030
C4191	C419	0.724850	0.199800	0.055430
H2571	H257	0.737400	0.193500	0.049300
C4201	C420	0.714370	0.189580	0.072940
H2581	H258	0.719900	0.176500	0.078600
C4211	C421	0.695640	0.198920	0.082050
C4221	C422	0.687400	0.218470	0.073650
H2591	H259	0.674900	0.224700	0.079700
C4231	C423	0.697880	0.228690	0.056140
H2601	H260	0.692400	0.241800	0.050500
C4241	C424	0.683350	0.187910	0.100550
C4251	C425	0.696760	0.176560	0.115120
H2611	H261	0.711900	0.176600	0.113200
C4261	C426	0.687520	0.165070	0.132540
H2621	H262	0.696500	0.157500	0.142300
C4271	C427	0.664880	0.164950	0.135400
C4281	C428	0.651480	0.176300	0.120830
H2631	H263	0.636300	0.176200	0.122700
C4291	C429	0.660710	0.187790	0.103410
H2641	H264	0.651700	0.195400	0.093700
O671	O67	0.745290	0.721610	0.517160
O681	O68	0.719330	0.750320	0.524850
C4301	C430	0.730100	0.732230	0.528130
C4311	C431	0.716610	0.719350	0.547030
C4321	C432	0.724850	0.699800	0.555430
H2651	H265	0.737400	0.693500	0.549300
C4331	C433	0.714370	0.689580	0.572940
H2661	H266	0.719900	0.676500	0.578600
C4341	C434	0.695640	0.698920	0.582050
C4351	C435	0.687400	0.718470	0.573650
H2671	H267	0.674900	0.724700	0.579700
C4361	C436	0.697880	0.728690	0.556140
H2681	H268	0.692400	0.741800	0.550500
C4371	C437	0.683350	0.687910	0.600550
C4381	C438	0.696760	0.676560	0.615120
H2691	H269	0.711900	0.676600	0.613200
C4391	C439	0.687520	0.665070	0.632540
H2701	H270	0.696500	0.657500	0.642300
C4401	C440	0.664880	0.664950	0.635400
C4411	C441	0.651480	0.676300	0.620830
H2711	H271	0.636300	0.676200	0.622700
C4421	C442	0.660710	0.687790	0.603410
H2721	H272	0.651700	0.695400	0.593700
O691	O69	0.245290	0.221610	0.517160
O701	O70	0.219330	0.250320	0.524850
C4431	C443	0.230100	0.232230	0.528130
C4441	C444	0.216610	0.219350	0.547030
C4451	C445	0.224850	0.199800	0.555430
H2731	H273	0.237400	0.193500	0.549300
C4461	C446	0.214370	0.189580	0.572940
H2741	H274	0.219900	0.176500	0.578600
C4471	C447	0.195640	0.198920	0.582050
C4481	C448	0.187400	0.218470	0.573650
H2751	H275	0.174900	0.224700	0.579700
C4491	C449	0.197880	0.228690	0.556140
H2761	H276	0.192400	0.241800	0.550500
C4501	C450	0.183350	0.187910	0.600550
C4511	C451	0.196760	0.176560	0.615120
H2771	H277	0.211900	0.176600	0.613200
C4521	C452	0.187520	0.165070	0.632540
H2781	H278	0.196500	0.157500	0.642300
C4531	C453	0.164880	0.164950	0.635400
C4541	C454	0.151480	0.176300	0.620830
H2791	H279	0.136300	0.176200	0.622700
C4551	C455	0.160710	0.187790	0.603410
H2801	H280	0.151700	0.195400	0.593700
O711	O71	0.245290	0.721610	0.017160
O721	O72	0.219330	0.750320	0.024850
C4561	C456	0.230100	0.732230	0.028130
C4571	C457	0.216610	0.719350	0.047030
C4581	C458	0.224850	0.699800	0.055430
H2811	H281	0.237400	0.693500	0.049300
C4591	C459	0.214370	0.689580	0.072940
H2821	H282	0.219900	0.676500	0.078600
C4601	C460	0.195640	0.698920	0.082050
C4611	C461	0.187400	0.718470	0.073650
H2831	H283	0.174900	0.724700	0.079700
C4621	C462	0.197880	0.728690	0.056140
H2841	H284	0.192400	0.741800	0.050500
C4631	C463	0.183350	0.687910	0.100550
C4641	C464	0.196760	0.676560	0.115120
H2851	H285	0.211900	0.676600	0.113200
C4651	C465	0.187520	0.665070	0.132540
H2861	H286	0.196500	0.657500	0.142300
C4661	C466	0.164880	0.664950	0.135400
C4671	C467	0.151480	0.676300	0.120830
H2871	H287	0.136300	0.676200	0.122700
C4681	C468	0.160710	0.687790	0.103410
H2881	H288	0.151700	0.695400	0.093700
O731	O73	0.254710	0.221610	0.982840
O741	O74	0.280670	0.250320	0.975150
C4691	C469	0.269900	0.232230	0.971870
C4701	C470	0.283390	0.219350	0.952970
C4711	C471	0.275150	0.199800	0.944570
H2891	H289	0.262600	0.193500	0.950700
C4721	C472	0.285630	0.189580	0.927060
H2901	H290	0.280100	0.176500	0.921400
C4731	C473	0.304360	0.198920	0.917950
C4741	C474	0.312600	0.218470	0.926350
H2911	H291	0.325100	0.224700	0.920300
C4751	C475	0.302120	0.228690	0.943860
H2921	H292	0.307600	0.241800	0.949500
C4761	C476	0.316650	0.187910	0.899450
C4771	C477	0.303240	0.176560	0.884880
H2931	H293	0.288100	0.176600	0.886800
C4781	C478	0.312480	0.165070	0.867460
H2941	H294	0.303500	0.157500	0.857700
C4791	C479	0.335120	0.164950	0.864600
C4801	C480	0.348520	0.176300	0.879170
H2951	H295	0.363700	0.176200	0.877300
C4811	C481	0.339290	0.187790	0.896590
H2961	H296	0.348300	0.195400	0.906300
O751	O75	0.254710	0.721610	0.482840
O761	O76	0.280670	0.750320	0.475150
C4821	C482	0.269900	0.732230	0.471870
C4831	C483	0.283390	0.719350	0.452970
C4841	C484	0.275150	0.699800	0.444570
H2971	H297	0.262600	0.693500	0.450700
C4851	C485	0.285630	0.689580	0.427060
H2981	H298	0.280100	0.676500	0.421400
C4861	C486	0.304360	0.698920	0.417950
C4871	C487	0.312600	0.718470	0.426350
H2991	H299	0.325100	0.724700	0.420300
C4881	C488	0.302120	0.728690	0.443860
H3001	H300	0.307600	0.741800	0.449500
C4891	C489	0.316650	0.687910	0.399450
C4901	C490	0.303240	0.676560	0.384880
H3011	H301	0.288100	0.676600	0.386800
C4911	C491	0.312480	0.665070	0.367460
H3021	H302	0.303500	0.657500	0.357700
C4921	C492	0.335120	0.664950	0.364600
C4931	C493	0.348520	0.676300	0.379170
H3031	H303	0.363700	0.676200	0.377300
C4941	C494	0.339290	0.687790	0.396590
H3041	H304	0.348300	0.695400	0.406300
O771	O77	0.754710	0.221610	0.482840
O781	O78	0.780670	0.250320	0.475150
C4951	C495	0.769900	0.232230	0.471870
C4961	C496	0.783390	0.219350	0.452970
C4971	C497	0.775150	0.199800	0.444570
H3051	H305	0.762600	0.193500	0.450700
C4981	C498	0.785630	0.189580	0.427060
H3061	H306	0.780100	0.176500	0.421400
C4991	C499	0.804360	0.198920	0.417950
C5001	C500	0.812600	0.218470	0.426350
H3071	H307	0.825100	0.224700	0.420300
C5011	C501	0.802120	0.228690	0.443860
H3081	H308	0.807600	0.241800	0.449500
C5021	C502	0.816650	0.187910	0.399450
C5031	C503	0.803240	0.176560	0.384880
H3091	H309	0.788100	0.176600	0.386800
C5041	C504	0.812480	0.165070	0.367460
H3101	H310	0.803500	0.157500	0.357700
C5051	C505	0.835120	0.164950	0.364600
C5061	C506	0.848520	0.176300	0.379170
H3111	H311	0.863700	0.176200	0.377300
C5071	C507	0.839290	0.187790	0.396590
H3121	H312	0.848300	0.195400	0.406300
O791	O79	0.754710	0.721610	0.982840
O801	O80	0.780670	0.750320	0.975150
C5081	C508	0.769900	0.732230	0.971870
C5091	C509	0.783390	0.719350	0.952970
C5101	C510	0.775150	0.699800	0.944570
H3131	H313	0.762600	0.693500	0.950700
C5111	C511	0.785630	0.689580	0.927060
H3141	H314	0.780100	0.676500	0.921400
C5121	C512	0.804360	0.698920	0.917950
C5131	C513	0.812600	0.718470	0.926350
H3151	H315	0.825100	0.724700	0.920300
C5141	C514	0.802120	0.728690	0.943860
H3161	H316	0.807600	0.741800	0.949500
C5151	C515	0.816650	0.687910	0.899450
C5161	C516	0.803240	0.676560	0.884880
H3171	H317	0.788100	0.676600	0.886800
C5171	C517	0.812480	0.665070	0.867460
H3181	H318	0.803500	0.657500	0.857700
C5181	C518	0.835120	0.664950	0.864600
C5191	C519	0.848520	0.676300	0.879170
H3191	H319	0.863700	0.676200	0.877300
C5201	C520	0.839290	0.687790	0.896590
H3201	H320	0.848300	0.695400	0.906300
O811	O81	0.745290	0.778390	0.982840
O821	O82	0.719330	0.749680	0.975150
C5211	C521	0.730100	0.767770	0.971870
C5221	C522	0.716610	0.780650	0.952970
C5231	C523	0.724850	0.800200	0.944570
H3211	H321	0.737400	0.806500	0.950700
C5241	C524	0.714370	0.810420	0.927060
H3221	H322	0.719900	0.823500	0.921400
C5251	C525	0.695640	0.801080	0.917950
C5261	C526	0.687400	0.781530	0.926350
H3231	H323	0.674900	0.775300	0.920300
C5271	C527	0.697880	0.771310	0.943860
H3241	H324	0.692400	0.758200	0.949500
C5281	C528	0.683350	0.812090	0.899450
C5291	C529	0.696760	0.823440	0.884880
H3251	H325	0.711900	0.823400	0.886800
C5301	C530	0.687520	0.834930	0.867460
H3261	H326	0.696500	0.842500	0.857700
C5311	C531	0.664880	0.835050	0.864600
C5321	C532	0.651480	0.823700	0.879170
H3271	H327	0.636300	0.823800	0.877300
C5331	C533	0.660710	0.812210	0.896590
H3281	H328	0.651700	0.804600	0.906300
O831	O83	0.745290	0.278390	0.482840
O841	O84	0.719330	0.249680	0.475150
C5341	C534	0.730100	0.267770	0.471870
C5351	C535	0.716610	0.280650	0.452970
C5361	C536	0.724850	0.300200	0.444570
H3291	H329	0.737400	0.306500	0.450700
C5371	C537	0.714370	0.310420	0.427060
H3301	H330	0.719900	0.323500	0.421400
C5381	C538	0.695640	0.301080	0.417950
C5391	C539	0.687400	0.281530	0.426350
H3311	H331	0.674900	0.275300	0.420300
C5401	C540	0.697880	0.271310	0.443860
H3321	H332	0.692400	0.258200	0.449500
C5411	C541	0.683350	0.312090	0.399450
C5421	C542	0.696760	0.323440	0.384880
H3331	H333	0.711900	0.323400	0.386800
C5431	C543	0.687520	0.334930	0.367460
H3341	H334	0.696500	0.342500	0.357700
C5441	C544	0.664880	0.335050	0.364600
C5451	C545	0.651480	0.323700	0.379170
H3351	H335	0.636300	0.323800	0.377300
C5461	C546	0.660710	0.312210	0.396590
H3361	H336	0.651700	0.304600	0.406300
O851	O85	0.245290	0.778390	0.482840
O861	O86	0.219330	0.749680	0.475150
C5471	C547	0.230100	0.767770	0.471870
C5481	C548	0.216610	0.780650	0.452970
C5491	C549	0.224850	0.800200	0.444570
H3371	H337	0.237400	0.806500	0.450700
C5501	C550	0.214370	0.810420	0.427060
H3381	H338	0.219900	0.823500	0.421400
C5511	C551	0.195640	0.801080	0.417950
C5521	C552	0.187400	0.781530	0.426350
H3391	H339	0.174900	0.775300	0.420300
C5531	C553	0.197880	0.771310	0.443860
H3401	H340	0.192400	0.758200	0.449500
C5541	C554	0.183350	0.812090	0.399450
C5551	C555	0.196760	0.823440	0.384880
H3411	H341	0.211900	0.823400	0.386800
C5561	C556	0.187520	0.834930	0.367460
H3421	H342	0.196500	0.842500	0.357700
C5571	C557	0.164880	0.835050	0.364600
C5581	C558	0.151480	0.823700	0.379170
H3431	H343	0.136300	0.823800	0.377300
C5591	C559	0.160710	0.812210	0.396590
H3441	H344	0.151700	0.804600	0.406300
O871	O87	0.245290	0.278390	0.982840
O881	O88	0.219330	0.249680	0.975150
C5601	C560	0.230100	0.267770	0.971870
C5611	C561	0.216610	0.280650	0.952970
C5621	C562	0.224850	0.300200	0.944570
H3451	H345	0.237400	0.306500	0.950700
C5631	C563	0.214370	0.310420	0.927060
H3461	H346	0.219900	0.323500	0.921400
C5641	C564	0.195640	0.301080	0.917950
C5651	C565	0.187400	0.281530	0.926350
H3471	H347	0.174900	0.275300	0.920300
C5661	C566	0.197880	0.271310	0.943860
H3481	H348	0.192400	0.258200	0.949500
C5671	C567	0.183350	0.312090	0.899450
C5681	C568	0.196760	0.323440	0.884880
H3491	H349	0.211900	0.323400	0.886800
C5691	C569	0.187520	0.334930	0.867460
H3501	H350	0.196500	0.342500	0.857700
C5701	C570	0.164880	0.335050	0.864600
C5711	C571	0.151480	0.323700	0.879170
H3511	H351	0.136300	0.323800	0.877300
C5721	C572	0.160710	0.312210	0.896590
H3521	H352	0.151700	0.304600	0.906300
O891	O89	0.254710	0.778390	0.017160
O901	O90	0.280670	0.749680	0.024850
C5731	C573	0.269900	0.767770	0.028130
C5741	C574	0.283390	0.780650	0.047030
C5751	C575	0.275150	0.800200	0.055430
H3531	H353	0.262600	0.806500	0.049300
C5761	C576	0.285630	0.810420	0.072940
H3541	H354	0.280100	0.823500	0.078600
C5771	C577	0.304360	0.801080	0.082050
C5781	C578	0.312600	0.781530	0.073650
H3551	H355	0.325100	0.775300	0.079700
C5791	C579	0.302120	0.771310	0.056140
H3561	H356	0.307600	0.758200	0.050500
C5801	C580	0.316650	0.812090	0.100550
C5811	C581	0.303240	0.823440	0.115120
H3571	H357	0.288100	0.823400	0.113200
C5821	C582	0.312480	0.834930	0.132540
H3581	H358	0.303500	0.842500	0.142300
C5831	C583	0.335120	0.835050	0.135400
C5841	C584	0.348520	0.823700	0.120830
H3591	H359	0.363700	0.823800	0.122700
C5851	C585	0.339290	0.812210	0.103410
H3601	H360	0.348300	0.804600	0.093700
O911	O91	0.254710	0.278390	0.517160
O921	O92	0.280670	0.249680	0.524850
C5861	C586	0.269900	0.267770	0.528130
C5871	C587	0.283390	0.280650	0.547030
C5881	C588	0.275150	0.300200	0.555430
H3611	H361	0.262600	0.306500	0.549300
C5891	C589	0.285630	0.310420	0.572940
H3621	H362	0.280100	0.323500	0.578600
C5901	C590	0.304360	0.301080	0.582050
C5911	C591	0.312600	0.281530	0.573650
H3631	H363	0.325100	0.275300	0.579700
C5921	C592	0.302120	0.271310	0.556140
H3641	H364	0.307600	0.258200	0.550500
C5931	C593	0.316650	0.312090	0.600550
C5941	C594	0.303240	0.323440	0.615120
H3651	H365	0.288100	0.323400	0.613200
C5951	C595	0.312480	0.334930	0.632540
H3661	H366	0.303500	0.342500	0.642300
C5961	C596	0.335120	0.335050	0.635400
C5971	C597	0.348520	0.323700	0.620830
H3671	H367	0.363700	0.323800	0.622700
C5981	C598	0.339290	0.312210	0.603410
H3681	H368	0.348300	0.304600	0.593700
O931	O93	0.754710	0.778390	0.517160
O941	O94	0.780670	0.749680	0.524850
C5991	C599	0.769900	0.767770	0.528130
C6001	C600	0.783390	0.780650	0.547030
C6011	C601	0.775150	0.800200	0.555430
H3691	H369	0.762600	0.806500	0.549300
C6021	C602	0.785630	0.810420	0.572940
H3701	H370	0.780100	0.823500	0.578600
C6031	C603	0.804360	0.801080	0.582050
C6041	C604	0.812600	0.781530	0.573650
H3711	H371	0.825100	0.775300	0.579700
C6051	C605	0.802120	0.771310	0.556140
H3721	H372	0.807600	0.758200	0.550500
C6061	C606	0.816650	0.812090	0.600550
C6071	C607	0.803240	0.823440	0.615120
H3731	H373	0.788100	0.823400	0.613200
C6081	C608	0.812480	0.834930	0.632540
H3741	H374	0.803500	0.842500	0.642300
C6091	C609	0.835120	0.835050	0.635400
C6101	C610	0.848520	0.823700	0.620830
H3751	H375	0.863700	0.823800	0.622700
C6111	C611	0.839290	0.812210	0.603410
H3761	H376	0.848300	0.804600	0.593700
O951	O95	0.754710	0.278390	0.017160
O961	O96	0.780670	0.249680	0.024850
C6121	C612	0.769900	0.267770	0.028130
C6131	C613	0.783390	0.280650	0.047030
C6141	C614	0.775150	0.300200	0.055430
H3771	H377	0.762600	0.306500	0.049300
C6151	C615	0.785630	0.310420	0.072940
H3781	H378	0.780100	0.323500	0.078600
C6161	C616	0.804360	0.301080	0.082050
C6171	C617	0.812600	0.281530	0.073650
H3791	H379	0.825100	0.275300	0.079700
C6181	C618	0.802120	0.271310	0.056140
H3801	H380	0.807600	0.258200	0.050500
C6191	C619	0.816650	0.312090	0.100550
C6201	C620	0.803240	0.323440	0.115120
H3811	H381	0.788100	0.323400	0.113200
C6211	C621	0.812480	0.334930	0.132540
H3821	H382	0.803500	0.342500	0.142300
C6221	C622	0.835120	0.335050	0.135400
C6231	C623	0.848520	0.323700	0.120830
H3831	H383	0.863700	0.323800	0.122700
C6241	C624	0.839290	0.312210	0.103410
H3841	H384	0.848300	0.304600	0.093700
O971	O97	0.745290	0.017160	0.778390
O981	O98	0.719330	0.024850	0.749680
C6251	C625	0.730100	0.028130	0.767770
C6261	C626	0.716610	0.047030	0.780650
C6271	C627	0.724850	0.055430	0.800200
H3851	H385	0.737400	0.049300	0.806500
C6281	C628	0.714370	0.072940	0.810420
H3861	H386	0.719900	0.078600	0.823500
C6291	C629	0.695640	0.082050	0.801080
C6301	C630	0.687400	0.073650	0.781530
H3871	H387	0.674900	0.079700	0.775300
C6311	C631	0.697880	0.056140	0.771310
H3881	H388	0.692400	0.050500	0.758200
C6321	C632	0.683350	0.100550	0.812090
C6331	C633	0.696760	0.115120	0.823440
H3891	H389	0.711900	0.113200	0.823400
C6341	C634	0.687520	0.132540	0.834930
H3901	H390	0.696500	0.142300	0.842500
C6351	C635	0.664880	0.135400	0.835050
C6361	C636	0.651480	0.120830	0.823700
H3911	H391	0.636300	0.122700	0.823800
C6371	C637	0.660710	0.103410	0.812210
H3921	H392	0.651700	0.093700	0.804600
O991	O99	0.745290	0.517160	0.278390
O1001	O100	0.719330	0.524850	0.249680
C6381	C638	0.730100	0.528130	0.267770
C6391	C639	0.716610	0.547030	0.280650
C6401	C640	0.724850	0.555430	0.300200
H3931	H393	0.737400	0.549300	0.306500
C6411	C641	0.714370	0.572940	0.310420
H3941	H394	0.719900	0.578600	0.323500
C6421	C642	0.695640	0.582050	0.301080
C6431	C643	0.687400	0.573650	0.281530
H3951	H395	0.674900	0.579700	0.275300
C6441	C644	0.697880	0.556140	0.271310
H3961	H396	0.692400	0.550500	0.258200
C6451	C645	0.683350	0.600550	0.312090
C6461	C646	0.696760	0.615120	0.323440
H3971	H397	0.711900	0.613200	0.323400
C6471	C647	0.687520	0.632540	0.334930
H3981	H398	0.696500	0.642300	0.342500
C6481	C648	0.664880	0.635400	0.335050
C6491	C649	0.651480	0.620830	0.323700
H3991	H399	0.636300	0.622700	0.323800
C6501	C650	0.660710	0.603410	0.312210
H4001	H400	0.651700	0.593700	0.304600
O1011	O101	0.245290	0.017160	0.278390
O1021	O102	0.219330	0.024850	0.249680
C6511	C651	0.230100	0.028130	0.267770
C6521	C652	0.216610	0.047030	0.280650
C6531	C653	0.224850	0.055430	0.300200
H4011	H401	0.237400	0.049300	0.306500
C6541	C654	0.214370	0.072940	0.310420
H4021	H402	0.219900	0.078600	0.323500
C6551	C655	0.195640	0.082050	0.301080
C6561	C656	0.187400	0.073650	0.281530
H4031	H403	0.174900	0.079700	0.275300
C6571	C657	0.197880	0.056140	0.271310
H4041	H404	0.192400	0.050500	0.258200
C6581	C658	0.183350	0.100550	0.312090
C6591	C659	0.196760	0.115120	0.323440
H4051	H405	0.211900	0.113200	0.323400
C6601	C660	0.187520	0.132540	0.334930
H4061	H406	0.196500	0.142300	0.342500
C6611	C661	0.164880	0.135400	0.335050
C6621	C662	0.151480	0.120830	0.323700
H4071	H407	0.136300	0.122700	0.323800
C6631	C663	0.160710	0.103410	0.312210
H4081	H408	0.151700	0.093700	0.304600
O1031	O103	0.245290	0.517160	0.778390
O1041	O104	0.219330	0.524850	0.749680
C6641	C664	0.230100	0.528130	0.767770
C6651	C665	0.216610	0.547030	0.780650
C6661	C666	0.224850	0.555430	0.800200
H4091	H409	0.237400	0.549300	0.806500
C6671	C667	0.214370	0.572940	0.810420
H4101	H410	0.219900	0.578600	0.823500
C6681	C668	0.195640	0.582050	0.801080
C6691	C669	0.187400	0.573650	0.781530
H4111	H411	0.174900	0.579700	0.775300
C6701	C670	0.197880	0.556140	0.771310
H4121	H412	0.192400	0.550500	0.758200
C6711	C671	0.183350	0.600550	0.812090
C6721	C672	0.196760	0.615120	0.823440
H4131	H413	0.211900	0.613200	0.823400
C6731	C673	0.187520	0.632540	0.834930
H4141	H414	0.196500	0.642300	0.842500
C6741	C674	0.164880	0.635400	0.835050
C6751	C675	0.151480	0.620830	0.823700
H4151	H415	0.136300	0.622700	0.823800
C6761	C676	0.160710	0.603410	0.812210
H4161	H416	0.151700	0.593700	0.804600
O1051	O105	0.254710	0.982840	0.778390
O1061	O106	0.280670	0.975150	0.749680
C6771	C677	0.269900	0.971870	0.767770
C6781	C678	0.283390	0.952970	0.780650
C6791	C679	0.275150	0.944570	0.800200
H4171	H417	0.262600	0.950700	0.806500
C6801	C680	0.285630	0.927060	0.810420
H4181	H418	0.280100	0.921400	0.823500
C6811	C681	0.304360	0.917950	0.801080
C6821	C682	0.312600	0.926350	0.781530
H4191	H419	0.325100	0.920300	0.775300
C6831	C683	0.302120	0.943860	0.771310
H4201	H420	0.307600	0.949500	0.758200
C6841	C684	0.316650	0.899450	0.812090
C6851	C685	0.303240	0.884880	0.823440
H4211	H421	0.288100	0.886800	0.823400
C6861	C686	0.312480	0.867460	0.834930
H4221	H422	0.303500	0.857700	0.842500
C6871	C687	0.335120	0.864600	0.835050
C6881	C688	0.348520	0.879170	0.823700
H4231	H423	0.363700	0.877300	0.823800
C6891	C689	0.339290	0.896590	0.812210
H4241	H424	0.348300	0.906300	0.804600
O1071	O107	0.254710	0.482840	0.278390
O1081	O108	0.280670	0.475150	0.249680
C6901	C690	0.269900	0.471870	0.267770
C6911	C691	0.283390	0.452970	0.280650
C6921	C692	0.275150	0.444570	0.300200
H4251	H425	0.262600	0.450700	0.306500
C6931	C693	0.285630	0.427060	0.310420
H4261	H426	0.280100	0.421400	0.323500
C6941	C694	0.304360	0.417950	0.301080
C6951	C695	0.312600	0.426350	0.281530
H4271	H427	0.325100	0.420300	0.275300
C6961	C696	0.302120	0.443860	0.271310
H4281	H428	0.307600	0.449500	0.258200
C6971	C697	0.316650	0.399450	0.312090
C6981	C698	0.303240	0.384880	0.323440
H4291	H429	0.288100	0.386800	0.323400
C6991	C699	0.312480	0.367460	0.334930
H4301	H430	0.303500	0.357700	0.342500
C7001	C700	0.335120	0.364600	0.335050
C7011	C701	0.348520	0.379170	0.323700
H4311	H431	0.363700	0.377300	0.323800
C7021	C702	0.339290	0.396590	0.312210
H4321	H432	0.348300	0.406300	0.304600
O1091	O109	0.754710	0.982840	0.278390
O1101	O110	0.780670	0.975150	0.249680
C7031	C703	0.769900	0.971870	0.267770
C7041	C704	0.783390	0.952970	0.280650
C7051	C705	0.775150	0.944570	0.300200
H4331	H433	0.762600	0.950700	0.306500
C7061	C706	0.785630	0.927060	0.310420
H4341	H434	0.780100	0.921400	0.323500
C7071	C707	0.804360	0.917950	0.301080
C7081	C708	0.812600	0.926350	0.281530
H4351	H435	0.825100	0.920300	0.275300
C7091	C709	0.802120	0.943860	0.271310
H4361	H436	0.807600	0.949500	0.258200
C7101	C710	0.816650	0.899450	0.312090
C7111	C711	0.803240	0.884880	0.323440
H4371	H437	0.788100	0.886800	0.323400
C7121	C712	0.812480	0.867460	0.334930
H4381	H438	0.803500	0.857700	0.342500
C7131	C713	0.835120	0.864600	0.335050
C7141	C714	0.848520	0.879170	0.323700
H4391	H439	0.863700	0.877300	0.323800
C7151	C715	0.839290	0.896590	0.312210
H4401	H440	0.848300	0.906300	0.304600
O1111	O111	0.754710	0.482840	0.778390
O1121	O112	0.780670	0.475150	0.749680
C7161	C716	0.769900	0.471870	0.767770
C7171	C717	0.783390	0.452970	0.780650
C7181	C718	0.775150	0.444570	0.800200
H4411	H441	0.762600	0.450700	0.806500
C7191	C719	0.785630	0.427060	0.810420
H4421	H442	0.780100	0.421400	0.823500
C7201	C720	0.804360	0.417950	0.801080
C7211	C721	0.812600	0.426350	0.781530
H4431	H443	0.825100	0.420300	0.775300
C7221	C722	0.802120	0.443860	0.771310
H4441	H444	0.807600	0.449500	0.758200
C7231	C723	0.816650	0.399450	0.812090
C7241	C724	0.803240	0.384880	0.823440
H4451	H445	0.788100	0.386800	0.823400
C7251	C725	0.812480	0.367460	0.834930
H4461	H446	0.803500	0.357700	0.842500
C7261	C726	0.835120	0.364600	0.835050
C7271	C727	0.848520	0.379170	0.823700
H4471	H447	0.863700	0.377300	0.823800
C7281	C728	0.839290	0.396590	0.812210
H4481	H448	0.848300	0.406300	0.804600
O1131	O113	0.745290	0.982840	0.221610
O1141	O114	0.719330	0.975150	0.250320
C7291	C729	0.730100	0.971870	0.232230
C7301	C730	0.716610	0.952970	0.219350
C7311	C731	0.724850	0.944570	0.199800
H4491	H449	0.737400	0.950700	0.193500
C7321	C732	0.714370	0.927060	0.189580
H4501	H450	0.719900	0.921400	0.176500
C7331	C733	0.695640	0.917950	0.198920
C7341	C734	0.687400	0.926350	0.218470
H4511	H451	0.674900	0.920300	0.224700
C7351	C735	0.697880	0.943860	0.228690
H4521	H452	0.692400	0.949500	0.241800
C7361	C736	0.683350	0.899450	0.187910
C7371	C737	0.696760	0.884880	0.176560
H4531	H453	0.711900	0.886800	0.176600
C7381	C738	0.687520	0.867460	0.165070
H4541	H454	0.696500	0.857700	0.157500
C7391	C739	0.664880	0.864600	0.164950
C7401	C740	0.651480	0.879170	0.176300
H4551	H455	0.636300	0.877300	0.176200
C7411	C741	0.660710	0.896590	0.187790
H4561	H456	0.651700	0.906300	0.195400
O1151	O115	0.745290	0.482840	0.721610
O1161	O116	0.719330	0.475150	0.750320
C7421	C742	0.730100	0.471870	0.732230
C7431	C743	0.716610	0.452970	0.719350
C7441	C744	0.724850	0.444570	0.699800
H4571	H457	0.737400	0.450700	0.693500
C7451	C745	0.714370	0.427060	0.689580
H4581	H458	0.719900	0.421400	0.676500
C7461	C746	0.695640	0.417950	0.698920
C7471	C747	0.687400	0.426350	0.718470
H4591	H459	0.674900	0.420300	0.724700
C7481	C748	0.697880	0.443860	0.728690
H4601	H460	0.692400	0.449500	0.741800
C7491	C749	0.683350	0.399450	0.687910
C7501	C750	0.696760	0.384880	0.676560
H4611	H461	0.711900	0.386800	0.676600
C7511	C751	0.687520	0.367460	0.665070
H4621	H462	0.696500	0.357700	0.657500
C7521	C752	0.664880	0.364600	0.664950
C7531	C753	0.651480	0.379170	0.676300
H4631	H463	0.636300	0.377300	0.676200
C7541	C754	0.660710	0.396590	0.687790
H4641	H464	0.651700	0.406300	0.695400
O1171	O117	0.245290	0.982840	0.721610
O1181	O118	0.219330	0.975150	0.750320
C7551	C755	0.230100	0.971870	0.732230
C7561	C756	0.216610	0.952970	0.719350
C7571	C757	0.224850	0.944570	0.699800
H4651	H465	0.237400	0.950700	0.693500
C7581	C758	0.214370	0.927060	0.689580
H4661	H466	0.219900	0.921400	0.676500
C7591	C759	0.195640	0.917950	0.698920
C7601	C760	0.187400	0.926350	0.718470
H4671	H467	0.174900	0.920300	0.724700
C7611	C761	0.197880	0.943860	0.728690
H4681	H468	0.192400	0.949500	0.741800
C7621	C762	0.183350	0.899450	0.687910
C7631	C763	0.196760	0.884880	0.676560
H4691	H469	0.211900	0.886800	0.676600
C7641	C764	0.187520	0.867460	0.665070
H4701	H470	0.196500	0.857700	0.657500
C7651	C765	0.164880	0.864600	0.664950
C7661	C766	0.151480	0.879170	0.676300
H4711	H471	0.136300	0.877300	0.676200
C7671	C767	0.160710	0.896590	0.687790
H4721	H472	0.151700	0.906300	0.695400
O1191	O119	0.245290	0.482840	0.221610
O1201	O120	0.219330	0.475150	0.250320
C7681	C768	0.230100	0.471870	0.232230
C7691	C769	0.216610	0.452970	0.219350
C7701	C770	0.224850	0.444570	0.199800
H4731	H473	0.237400	0.450700	0.193500
C7711	C771	0.214370	0.427060	0.189580
H4741	H474	0.219900	0.421400	0.176500
C7721	C772	0.195640	0.417950	0.198920
C7731	C773	0.187400	0.426350	0.218470
H4751	H475	0.174900	0.420300	0.224700
C7741	C774	0.197880	0.443860	0.228690
H4761	H476	0.192400	0.449500	0.241800
C7751	C775	0.183350	0.399450	0.187910
C7761	C776	0.196760	0.384880	0.176560
H4771	H477	0.211900	0.386800	0.176600
C7771	C777	0.187520	0.367460	0.165070
H4781	H478	0.196500	0.357700	0.157500
C7781	C778	0.164880	0.364600	0.164950
C7791	C779	0.151480	0.379170	0.176300
H4791	H479	0.136300	0.377300	0.176200
C7801	C780	0.160710	0.396590	0.187790
H4801	H480	0.151700	0.406300	0.195400
O1211	O121	0.254710	0.017160	0.221610
O1221	O122	0.280670	0.024850	0.250320
C7811	C781	0.269900	0.028130	0.232230
C7821	C782	0.283390	0.047030	0.219350
C7831	C783	0.275150	0.055430	0.199800
H4811	H481	0.262600	0.049300	0.193500
C7841	C784	0.285630	0.072940	0.189580
H4821	H482	0.280100	0.078600	0.176500
C7851	C785	0.304360	0.082050	0.198920
C7861	C786	0.312600	0.073650	0.218470
H4831	H483	0.325100	0.079700	0.224700
C7871	C787	0.302120	0.056140	0.228690
H4841	H484	0.307600	0.050500	0.241800
C7881	C788	0.316650	0.100550	0.187910
C7891	C789	0.303240	0.115120	0.176560
H4851	H485	0.288100	0.113200	0.176600
C7901	C790	0.312480	0.132540	0.165070
H4861	H486	0.303500	0.142300	0.157500
C7911	C791	0.335120	0.135400	0.164950
C7921	C792	0.348520	0.120830	0.176300
H4871	H487	0.363700	0.122700	0.176200
C7931	C793	0.339290	0.103410	0.187790
H4881	H488	0.348300	0.093700	0.195400
O1231	O123	0.254710	0.517160	0.721610
O1241	O124	0.280670	0.524850	0.750320
C7941	C794	0.269900	0.528130	0.732230
C7951	C795	0.283390	0.547030	0.719350
C7961	C796	0.275150	0.555430	0.699800
H4891	H489	0.262600	0.549300	0.693500
C7971	C797	0.285630	0.572940	0.689580
H4901	H490	0.280100	0.578600	0.676500
C7981	C798	0.304360	0.582050	0.698920
C7991	C799	0.312600	0.573650	0.718470
H4911	H491	0.325100	0.579700	0.724700
C8001	C800	0.302120	0.556140	0.728690
H4921	H492	0.307600	0.550500	0.741800
C8011	C801	0.316650	0.600550	0.687910
C8021	C802	0.303240	0.615120	0.676560
H4931	H493	0.288100	0.613200	0.676600
C8031	C803	0.312480	0.632540	0.665070
H4941	H494	0.303500	0.642300	0.657500
C8041	C804	0.335120	0.635400	0.664950
C8051	C805	0.348520	0.620830	0.676300
H4951	H495	0.363700	0.622700	0.676200
C8061	C806	0.339290	0.603410	0.687790
H4961	H496	0.348300	0.593700	0.695400
O1251	O125	0.754710	0.017160	0.721610
O1261	O126	0.780670	0.024850	0.750320
C8071	C807	0.769900	0.028130	0.732230
C8081	C808	0.783390	0.047030	0.719350
C8091	C809	0.775150	0.055430	0.699800
H4971	H497	0.762600	0.049300	0.693500
C8101	C810	0.785630	0.072940	0.689580
H4981	H498	0.780100	0.078600	0.676500
C8111	C811	0.804360	0.082050	0.698920
C8121	C812	0.812600	0.073650	0.718470
H4991	H499	0.825100	0.079700	0.724700
C8131	C813	0.802120	0.056140	0.728690
H5001	H500	0.807600	0.050500	0.741800
C8141	C814	0.816650	0.100550	0.687910
C8151	C815	0.803240	0.115120	0.676560
H5011	H501	0.788100	0.113200	0.676600
C8161	C816	0.812480	0.132540	0.665070
H5021	H502	0.803500	0.142300	0.657500
C8171	C817	0.835120	0.135400	0.664950
C8181	C818	0.848520	0.120830	0.676300
H5031	H503	0.863700	0.122700	0.676200
C8191	C819	0.839290	0.103410	0.687790
H5041	H504	0.848300	0.093700	0.695400
O1271	O127	0.754710	0.517160	0.221610
O1281	O128	0.780670	0.524850	0.250320
C8201	C820	0.769900	0.528130	0.232230
C8211	C821	0.783390	0.547030	0.219350
C8221	C822	0.775150	0.555430	0.199800
H5051	H505	0.762600	0.549300	0.193500
C8231	C823	0.785630	0.572940	0.189580
H5061	H506	0.780100	0.578600	0.176500
C8241	C824	0.804360	0.582050	0.198920
C8251	C825	0.812600	0.573650	0.218470
H5071	H507	0.825100	0.579700	0.224700
C8261	C826	0.802120	0.556140	0.228690
H5081	H508	0.807600	0.550500	0.241800
C8271	C827	0.816650	0.600550	0.187910
C8281	C828	0.803240	0.615120	0.176560
H5091	H509	0.788100	0.613200	0.176600
C8291	C829	0.812480	0.632540	0.165070
H5101	H510	0.803500	0.642300	0.157500
C8301	C830	0.835120	0.635400	0.164950
C8311	C831	0.848520	0.620830	0.176300
H5111	H511	0.863700	0.622700	0.176200
C8321	C832	0.839290	0.603410	0.187790
H5121	H512	0.848300	0.593700	0.195400
O1291	O129	0.017160	0.221610	0.254710
O1301	O130	0.024850	0.250320	0.280670
C8331	C833	0.028130	0.232230	0.269900
C8341	C834	0.047030	0.219350	0.283390
C8351	C835	0.055430	0.199800	0.275150
H5131	H513	0.049300	0.193500	0.262600
C8361	C836	0.072940	0.189580	0.285630
H5141	H514	0.078600	0.176500	0.280100
C8371	C837	0.082050	0.198920	0.304360
C8381	C838	0.073650	0.218470	0.312600
H5151	H515	0.079700	0.224700	0.325100
C8391	C839	0.056140	0.228690	0.302120
H5161	H516	0.050500	0.241800	0.307600
C8401	C840	0.100550	0.187910	0.316650
C8411	C841	0.115120	0.176560	0.303240
H5171	H517	0.113200	0.176600	0.288100
C8421	C842	0.132540	0.165070	0.312480
H5181	H518	0.142300	0.157500	0.303500
C8431	C843	0.135400	0.164950	0.335120
C8441	C844	0.120830	0.176300	0.348520
H5191	H519	0.122700	0.176200	0.363700
C8451	C845	0.103410	0.187790	0.339290
H5201	H520	0.093700	0.195400	0.348300
O1311	O131	0.017160	0.721610	0.754710
O1321	O132	0.024850	0.750320	0.780670
C8461	C846	0.028130	0.732230	0.769900
C8471	C847	0.047030	0.719350	0.783390
C8481	C848	0.055430	0.699800	0.775150
H5211	H521	0.049300	0.693500	0.762600
C8491	C849	0.072940	0.689580	0.785630
H5221	H522	0.078600	0.676500	0.780100
C8501	C850	0.082050	0.698920	0.804360
C8511	C851	0.073650	0.718470	0.812600
H5231	H523	0.079700	0.724700	0.825100
C8521	C852	0.056140	0.728690	0.802120
H5241	H524	0.050500	0.741800	0.807600
C8531	C853	0.100550	0.687910	0.816650
C8541	C854	0.115120	0.676560	0.803240
H5251	H525	0.113200	0.676600	0.788100
C8551	C855	0.132540	0.665070	0.812480
H5261	H526	0.142300	0.657500	0.803500
C8561	C856	0.135400	0.664950	0.835120
C8571	C857	0.120830	0.676300	0.848520
H5271	H527	0.122700	0.676200	0.863700
C8581	C858	0.103410	0.687790	0.839290
H5281	H528	0.093700	0.695400	0.848300
O1331	O133	0.517160	0.221610	0.754710
O1341	O134	0.524850	0.250320	0.780670
C8591	C859	0.528130	0.232230	0.769900
C8601	C860	0.547030	0.219350	0.783390
C8611	C861	0.555430	0.199800	0.775150
H5291	H529	0.549300	0.193500	0.762600
C8621	C862	0.572940	0.189580	0.785630
H5301	H530	0.578600	0.176500	0.780100
C8631	C863	0.582050	0.198920	0.804360
C8641	C864	0.573650	0.218470	0.812600
H5311	H531	0.579700	0.224700	0.825100
C8651	C865	0.556140	0.228690	0.802120
H5321	H532	0.550500	0.241800	0.807600
C8661	C866	0.600550	0.187910	0.816650
C8671	C867	0.615120	0.176560	0.803240
H5331	H533	0.613200	0.176600	0.788100
C8681	C868	0.632540	0.165070	0.812480
H5341	H534	0.642300	0.157500	0.803500
C8691	C869	0.635400	0.164950	0.835120
C8701	C870	0.620830	0.176300	0.848520
H5351	H535	0.622700	0.176200	0.863700
C8711	C871	0.603410	0.187790	0.839290
H5361	H536	0.593700	0.195400	0.848300
O1351	O135	0.517160	0.721610	0.254710
O1361	O136	0.524850	0.750320	0.280670
C8721	C872	0.528130	0.732230	0.269900
C8731	C873	0.547030	0.719350	0.283390
C8741	C874	0.555430	0.699800	0.275150
H5371	H537	0.549300	0.693500	0.262600
C8751	C875	0.572940	0.689580	0.285630
H5381	H538	0.578600	0.676500	0.280100
C8761	C876	0.582050	0.698920	0.304360
C8771	C877	0.573650	0.718470	0.312600
H5391	H539	0.579700	0.724700	0.325100
C8781	C878	0.556140	0.728690	0.302120
H5401	H540	0.550500	0.741800	0.307600
C8791	C879	0.600550	0.687910	0.316650
C8801	C880	0.615120	0.676560	0.303240
H5411	H541	0.613200	0.676600	0.288100
C8811	C881	0.632540	0.665070	0.312480
H5421	H542	0.642300	0.657500	0.303500
C8821	C882	0.635400	0.664950	0.335120
C8831	C883	0.620830	0.676300	0.348520
H5431	H543	0.622700	0.676200	0.363700
C8841	C884	0.603410	0.687790	0.339290
H5441	H544	0.593700	0.695400	0.348300
O1371	O137	0.982840	0.221610	0.745290
O1381	O138	0.975150	0.250320	0.719330
C8851	C885	0.971870	0.232230	0.730100
C8861	C886	0.952970	0.219350	0.716610
C8871	C887	0.944570	0.199800	0.724850
H5451	H545	0.950700	0.193500	0.737400
C8881	C888	0.927060	0.189580	0.714370
H5461	H546	0.921400	0.176500	0.719900
C8891	C889	0.917950	0.198920	0.695640
C8901	C890	0.926350	0.218470	0.687400
H5471	H547	0.920300	0.224700	0.674900
C8911	C891	0.943860	0.228690	0.697880
H5481	H548	0.949500	0.241800	0.692400
C8921	C892	0.899450	0.187910	0.683350
C8931	C893	0.884880	0.176560	0.696760
H5491	H549	0.886800	0.176600	0.711900
C8941	C894	0.867460	0.165070	0.687520
H5501	H550	0.857700	0.157500	0.696500
C8951	C895	0.864600	0.164950	0.664880
C8961	C896	0.879170	0.176300	0.651480
H5511	H551	0.877300	0.176200	0.636300
C8971	C897	0.896590	0.187790	0.660710
H5521	H552	0.906300	0.195400	0.651700
O1391	O139	0.982840	0.721610	0.245290
O1401	O140	0.975150	0.750320	0.219330
C8981	C898	0.971870	0.732230	0.230100
C8991	C899	0.952970	0.719350	0.216610
C9001	C900	0.944570	0.699800	0.224850
H5531	H553	0.950700	0.693500	0.237400
C9011	C901	0.927060	0.689580	0.214370
H5541	H554	0.921400	0.676500	0.219900
C9021	C902	0.917950	0.698920	0.195640
C9031	C903	0.926350	0.718470	0.187400
H5551	H555	0.920300	0.724700	0.174900
C9041	C904	0.943860	0.728690	0.197880
H5561	H556	0.949500	0.741800	0.192400
C9051	C905	0.899450	0.687910	0.183350
C9061	C906	0.884880	0.676560	0.196760
H5571	H557	0.886800	0.676600	0.211900
C9071	C907	0.867460	0.665070	0.187520
H5581	H558	0.857700	0.657500	0.196500
C9081	C908	0.864600	0.664950	0.164880
C9091	C909	0.879170	0.676300	0.151480
H5591	H559	0.877300	0.676200	0.136300
C9101	C910	0.896590	0.687790	0.160710
H5601	H560	0.906300	0.695400	0.151700
O1411	O141	0.482840	0.221610	0.245290
O1421	O142	0.475150	0.250320	0.219330
C9111	C911	0.471870	0.232230	0.230100
C9121	C912	0.452970	0.219350	0.216610
C9131	C913	0.444570	0.199800	0.224850
H5611	H561	0.450700	0.193500	0.237400
C9141	C914	0.427060	0.189580	0.214370
H5621	H562	0.421400	0.176500	0.219900
C9151	C915	0.417950	0.198920	0.195640
C9161	C916	0.426350	0.218470	0.187400
H5631	H563	0.420300	0.224700	0.174900
C9171	C917	0.443860	0.228690	0.197880
H5641	H564	0.449500	0.241800	0.192400
C9181	C918	0.399450	0.187910	0.183350
C9191	C919	0.384880	0.176560	0.196760
H5651	H565	0.386800	0.176600	0.211900
C9201	C920	0.367460	0.165070	0.187520
H5661	H566	0.357700	0.157500	0.196500
C9211	C921	0.364600	0.164950	0.164880
C9221	C922	0.379170	0.176300	0.151480
H5671	H567	0.377300	0.176200	0.136300
C9231	C923	0.396590	0.187790	0.160710
H5681	H568	0.406300	0.195400	0.151700
O1431	O143	0.482840	0.721610	0.745290
O1441	O144	0.475150	0.750320	0.719330
C9241	C924	0.471870	0.732230	0.730100
C9251	C925	0.452970	0.719350	0.716610
C9261	C926	0.444570	0.699800	0.724850
H5691	H569	0.450700	0.693500	0.737400
C9271	C927	0.427060	0.689580	0.714370
H5701	H570	0.421400	0.676500	0.719900
C9281	C928	0.417950	0.698920	0.695640
C9291	C929	0.426350	0.718470	0.687400
H5711	H571	0.420300	0.724700	0.674900
C9301	C930	0.443860	0.728690	0.697880
H5721	H572	0.449500	0.741800	0.692400
C9311	C931	0.399450	0.687910	0.683350
C9321	C932	0.384880	0.676560	0.696760
H5731	H573	0.386800	0.676600	0.711900
C9331	C933	0.367460	0.665070	0.687520
H5741	H574	0.357700	0.657500	0.696500
C9341	C934	0.364600	0.664950	0.664880
C9351	C935	0.379170	0.676300	0.651480
H5751	H575	0.377300	0.676200	0.636300
C9361	C936	0.396590	0.687790	0.660710
H5761	H576	0.406300	0.695400	0.651700
O1451	O145	0.982840	0.778390	0.254710
O1461	O146	0.975150	0.749680	0.280670
C9371	C937	0.971870	0.767770	0.269900
C9381	C938	0.952970	0.780650	0.283390
C9391	C939	0.944570	0.800200	0.275150
H5771	H577	0.950700	0.806500	0.262600
C9401	C940	0.927060	0.810420	0.285630
H5781	H578	0.921400	0.823500	0.280100
C9411	C941	0.917950	0.801080	0.304360
C9421	C942	0.926350	0.781530	0.312600
H5791	H579	0.920300	0.775300	0.325100
C9431	C943	0.943860	0.771310	0.302120
H5801	H580	0.949500	0.758200	0.307600
C9441	C944	0.899450	0.812090	0.316650
C9451	C945	0.884880	0.823440	0.303240
H5811	H581	0.886800	0.823400	0.288100
C9461	C946	0.867460	0.834930	0.312480
H5821	H582	0.857700	0.842500	0.303500
C9471	C947	0.864600	0.835050	0.335120
C9481	C948	0.879170	0.823700	0.348520
H5831	H583	0.877300	0.823800	0.363700
C9491	C949	0.896590	0.812210	0.339290
H5841	H584	0.906300	0.804600	0.348300
O1471	O147	0.982840	0.278390	0.754710
O1481	O148	0.975150	0.249680	0.780670
C9501	C950	0.971870	0.267770	0.769900
C9511	C951	0.952970	0.280650	0.783390
C9521	C952	0.944570	0.300200	0.775150
H5851	H585	0.950700	0.306500	0.762600
C9531	C953	0.927060	0.310420	0.785630
H5861	H586	0.921400	0.323500	0.780100
C9541	C954	0.917950	0.301080	0.804360
C9551	C955	0.926350	0.281530	0.812600
H5871	H587	0.920300	0.275300	0.825100
C9561	C956	0.943860	0.271310	0.802120
H5881	H588	0.949500	0.258200	0.807600
C9571	C957	0.899450	0.312090	0.816650
C9581	C958	0.884880	0.323440	0.803240
H5891	H589	0.886800	0.323400	0.788100
C9591	C959	0.867460	0.334930	0.812480
H5901	H590	0.857700	0.342500	0.803500
C9601	C960	0.864600	0.335050	0.835120
C9611	C961	0.879170	0.323700	0.848520
H5911	H591	0.877300	0.323800	0.863700
C9621	C962	0.896590	0.312210	0.839290
H5921	H592	0.906300	0.304600	0.848300
O1491	O149	0.482840	0.778390	0.754710
O1501	O150	0.475150	0.749680	0.780670
C9631	C963	0.471870	0.767770	0.769900
C9641	C964	0.452970	0.780650	0.783390
C9651	C965	0.444570	0.800200	0.775150
H5931	H593	0.450700	0.806500	0.762600
C9661	C966	0.427060	0.810420	0.785630
H5941	H594	0.421400	0.823500	0.780100
C9671	C967	0.417950	0.801080	0.804360
C9681	C968	0.426350	0.781530	0.812600
H5951	H595	0.420300	0.775300	0.825100
C9691	C969	0.443860	0.771310	0.802120
H5961	H596	0.449500	0.758200	0.807600
C9701	C970	0.399450	0.812090	0.816650
C9711	C971	0.384880	0.823440	0.803240
H5971	H597	0.386800	0.823400	0.788100
C9721	C972	0.367460	0.834930	0.812480
H5981	H598	0.357700	0.842500	0.803500
C9731	C973	0.364600	0.835050	0.835120
C9741	C974	0.379170	0.823700	0.848520
H5991	H599	0.377300	0.823800	0.863700
C9751	C975	0.396590	0.812210	0.839290
H6001	H600	0.406300	0.804600	0.848300
O1511	O151	0.482840	0.278390	0.254710
O1521	O152	0.475150	0.249680	0.280670
C9761	C976	0.471870	0.267770	0.269900
C9771	C977	0.452970	0.280650	0.283390
C9781	C978	0.444570	0.300200	0.275150
H6011	H601	0.450700	0.306500	0.262600
C9791	C979	0.427060	0.310420	0.285630
H6021	H602	0.421400	0.323500	0.280100
C9801	C980	0.417950	0.301080	0.304360
C9811	C981	0.426350	0.281530	0.312600
H6031	H603	0.420300	0.275300	0.325100
C9821	C982	0.443860	0.271310	0.302120
H6041	H604	0.449500	0.258200	0.307600
C9831	C983	0.399450	0.312090	0.316650
C9841	C984	0.384880	0.323440	0.303240
H6051	H605	0.386800	0.323400	0.288100
C9851	C985	0.367460	0.334930	0.312480
H6061	H606	0.357700	0.342500	0.303500
C9861	C986	0.364600	0.335050	0.335120
C9871	C987	0.379170	0.323700	0.348520
H6071	H607	0.377300	0.323800	0.363700
C9881	C988	0.396590	0.312210	0.339290
H6081	H608	0.406300	0.304600	0.348300
O1531	O153	0.017160	0.778390	0.745290
O1541	O154	0.024850	0.749680	0.719330
C9891	C989	0.028130	0.767770	0.730100
C9901	C990	0.047030	0.780650	0.716610
C9911	C991	0.055430	0.800200	0.724850
H6091	H609	0.049300	0.806500	0.737400
C9921	C992	0.072940	0.810420	0.714370
H6101	H610	0.078600	0.823500	0.719900
C9931	C993	0.082050	0.801080	0.695640
C9941	C994	0.073650	0.781530	0.687400
H6111	H611	0.079700	0.775300	0.674900
C9951	C995	0.056140	0.771310	0.697880
H6121	H612	0.050500	0.758200	0.692400
C9961	C996	0.100550	0.812090	0.683350
C9971	C997	0.115120	0.823440	0.696760
H6131	H613	0.113200	0.823400	0.711900
C9981	C998	0.132540	0.834930	0.687520
H6141	H614	0.142300	0.842500	0.696500
C9991	C999	0.135400	0.835050	0.664880
C10001	C1000	0.120830	0.823700	0.651480
H6151	H615	0.122700	0.823800	0.636300
C10011	C1001	0.103410	0.812210	0.660710
H6161	H616	0.093700	0.804600	0.651700
O1551	O155	0.017160	0.278390	0.245290
O1561	O156	0.024850	0.249680	0.219330
C10021	C1002	0.028130	0.267770	0.230100
C10031	C1003	0.047030	0.280650	0.216610
C10041	C1004	0.055430	0.300200	0.224850
H6171	H617	0.049300	0.306500	0.237400
C10051	C1005	0.072940	0.310420	0.214370
H6181	H618	0.078600	0.323500	0.219900
C10061	C1006	0.082050	0.301080	0.195640
C10071	C1007	0.073650	0.281530	0.187400
H6191	H619	0.079700	0.275300	0.174900
C10081	C1008	0.056140	0.271310	0.197880
H6201	H620	0.050500	0.258200	0.192400
C10091	C1009	0.100550	0.312090	0.183350
C10101	C1010	0.115120	0.323440	0.196760
H6211	H621	0.113200	0.323400	0.211900
C10111	C1011	0.132540	0.334930	0.187520
H6221	H622	0.142300	0.342500	0.196500
C10121	C1012	0.135400	0.335050	0.164880
C10131	C1013	0.120830	0.323700	0.151480
H6231	H623	0.122700	0.323800	0.136300
C10141	C1014	0.103410	0.312210	0.160710
H6241	H624	0.093700	0.304600	0.151700
O1571	O157	0.517160	0.778390	0.245290
O1581	O158	0.524850	0.749680	0.219330
C10151	C1015	0.528130	0.767770	0.230100
C10161	C1016	0.547030	0.780650	0.216610
C10171	C1017	0.555430	0.800200	0.224850
H6251	H625	0.549300	0.806500	0.237400
C10181	C1018	0.572940	0.810420	0.214370
H6261	H626	0.578600	0.823500	0.219900
C10191	C1019	0.582050	0.801080	0.195640
C10201	C1020	0.573650	0.781530	0.187400
H6271	H627	0.579700	0.775300	0.174900
C10211	C1021	0.556140	0.771310	0.197880
H6281	H628	0.550500	0.758200	0.192400
C10221	C1022	0.600550	0.812090	0.183350
C10231	C1023	0.615120	0.823440	0.196760
H6291	H629	0.613200	0.823400	0.211900
C10241	C1024	0.632540	0.834930	0.187520
H6301	H630	0.642300	0.842500	0.196500
C10251	C1025	0.635400	0.835050	0.164880
C10261	C1026	0.620830	0.823700	0.151480
H6311	H631	0.622700	0.823800	0.136300
C10271	C1027	0.603410	0.812210	0.160710
H6321	H632	0.593700	0.804600	0.151700
O1591	O159	0.517160	0.278390	0.745290
O1601	O160	0.524850	0.249680	0.719330
C10281	C1028	0.528130	0.267770	0.730100
C10291	C1029	0.547030	0.280650	0.716610
C10301	C1030	0.555430	0.300200	0.724850
H6331	H633	0.549300	0.306500	0.737400
C10311	C1031	0.572940	0.310420	0.714370
H6341	H634	0.578600	0.323500	0.719900
C10321	C1032	0.582050	0.301080	0.695640
C10331	C1033	0.573650	0.281530	0.687400
H6351	H635	0.579700	0.275300	0.674900
C10341	C1034	0.556140	0.271310	0.697880
H6361	H636	0.550500	0.258200	0.692400
C10351	C1035	0.600550	0.312090	0.683350
C10361	C1036	0.615120	0.323440	0.696760
H6371	H637	0.613200	0.323400	0.711900
C10371	C1037	0.632540	0.334930	0.687520
H6381	H638	0.642300	0.342500	0.696500
C10381	C1038	0.635400	0.335050	0.664880
C10391	C1039	0.620830	0.323700	0.651480
H6391	H639	0.622700	0.323800	0.636300
C10401	C1040	0.603410	0.312210	0.660710
H6401	H640	0.593700	0.304600	0.651700
O1611	O161	0.221610	0.745290	0.982840
O1621	O162	0.250320	0.719330	0.975150
C10411	C1041	0.232230	0.730100	0.971870
C10421	C1042	0.219350	0.716610	0.952970
C10431	C1043	0.199800	0.724850	0.944570
H6411	H641	0.193500	0.737400	0.950700
C10441	C1044	0.189580	0.714370	0.927060
H6421	H642	0.176500	0.719900	0.921400
C10451	C1045	0.198920	0.695640	0.917950
C10461	C1046	0.218470	0.687400	0.926350
H6431	H643	0.224700	0.674900	0.920300
C10471	C1047	0.228690	0.697880	0.943860
H6441	H644	0.241800	0.692400	0.949500
C10481	C1048	0.187910	0.683350	0.899450
C10491	C1049	0.176560	0.696760	0.884880
H6451	H645	0.176600	0.711900	0.886800
C10501	C1050	0.165070	0.687520	0.867460
H6461	H646	0.157500	0.696500	0.857700
C10511	C1051	0.164950	0.664880	0.864600
C10521	C1052	0.176300	0.651480	0.879170
H6471	H647	0.176200	0.636300	0.877300
C10531	C1053	0.187790	0.660710	0.896590
H6481	H648	0.195400	0.651700	0.906300
O1631	O163	0.221610	0.245290	0.482840
O1641	O164	0.250320	0.219330	0.475150
C10541	C1054	0.232230	0.230100	0.471870
C10551	C1055	0.219350	0.216610	0.452970
C10561	C1056	0.199800	0.224850	0.444570
H6491	H649	0.193500	0.237400	0.450700
C10571	C1057	0.189580	0.214370	0.427060
H6501	H650	0.176500	0.219900	0.421400
C10581	C1058	0.198920	0.195640	0.417950
C10591	C1059	0.218470	0.187400	0.426350
H6511	H651	0.224700	0.174900	0.420300
C10601	C1060	0.228690	0.197880	0.443860
H6521	H652	0.241800	0.192400	0.449500
C10611	C1061	0.187910	0.183350	0.399450
C10621	C1062	0.176560	0.196760	0.384880
H6531	H653	0.176600	0.211900	0.386800
C10631	C1063	0.165070	0.187520	0.367460
H6541	H654	0.157500	0.196500	0.357700
C10641	C1064	0.164950	0.164880	0.364600
C10651	C1065	0.176300	0.151480	0.379170
H6551	H655	0.176200	0.136300	0.377300
C10661	C1066	0.187790	0.160710	0.396590
H6561	H656	0.195400	0.151700	0.406300
O1651	O165	0.721610	0.745290	0.482840
O1661	O166	0.750320	0.719330	0.475150
C10671	C1067	0.732230	0.730100	0.471870
C10681	C1068	0.719350	0.716610	0.452970
C10691	C1069	0.699800	0.724850	0.444570
H6571	H657	0.693500	0.737400	0.450700
C10701	C1070	0.689580	0.714370	0.427060
H6581	H658	0.676500	0.719900	0.421400
C10711	C1071	0.698920	0.695640	0.417950
C10721	C1072	0.718470	0.687400	0.426350
H6591	H659	0.724700	0.674900	0.420300
C10731	C1073	0.728690	0.697880	0.443860
H6601	H660	0.741800	0.692400	0.449500
C10741	C1074	0.687910	0.683350	0.399450
C10751	C1075	0.676560	0.696760	0.384880
H6611	H661	0.676600	0.711900	0.386800
C10761	C1076	0.665070	0.687520	0.367460
H6621	H662	0.657500	0.696500	0.357700
C10771	C1077	0.664950	0.664880	0.364600
C10781	C1078	0.676300	0.651480	0.379170
H6631	H663	0.676200	0.636300	0.377300
C10791	C1079	0.687790	0.660710	0.396590
H6641	H664	0.695400	0.651700	0.406300
O1671	O167	0.721610	0.245290	0.982840
O1681	O168	0.750320	0.219330	0.975150
C10801	C1080	0.732230	0.230100	0.971870
C10811	C1081	0.719350	0.216610	0.952970
C10821	C1082	0.699800	0.224850	0.944570
H6651	H665	0.693500	0.237400	0.950700
C10831	C1083	0.689580	0.214370	0.927060
H6661	H666	0.676500	0.219900	0.921400
C10841	C1084	0.698920	0.195640	0.917950
C10851	C1085	0.718470	0.187400	0.926350
H6671	H667	0.724700	0.174900	0.920300
C10861	C1086	0.728690	0.197880	0.943860
H6681	H668	0.741800	0.192400	0.949500
C10871	C1087	0.687910	0.183350	0.899450
C10881	C1088	0.676560	0.196760	0.884880
H6691	H669	0.676600	0.211900	0.886800
C10891	C1089	0.665070	0.187520	0.867460
H6701	H670	0.657500	0.196500	0.857700
C10901	C1090	0.664950	0.164880	0.864600
C10911	C1091	0.676300	0.151480	0.879170
H6711	H671	0.676200	0.136300	0.877300
C10921	C1092	0.687790	0.160710	0.896590
H6721	H672	0.695400	0.151700	0.906300
O1691	O169	0.221610	0.254710	0.017160
O1701	O170	0.250320	0.280670	0.024850
C10931	C1093	0.232230	0.269900	0.028130
C10941	C1094	0.219350	0.283390	0.047030
C10951	C1095	0.199800	0.275150	0.055430
H6731	H673	0.193500	0.262600	0.049300
C10961	C1096	0.189580	0.285630	0.072940
H6741	H674	0.176500	0.280100	0.078600
C10971	C1097	0.198920	0.304360	0.082050
C10981	C1098	0.218470	0.312600	0.073650
H6751	H675	0.224700	0.325100	0.079700
C10991	C1099	0.228690	0.302120	0.056140
H6761	H676	0.241800	0.307600	0.050500
C11001	C1100	0.187910	0.316650	0.100550
C11011	C1101	0.176560	0.303240	0.115120
H6771	H677	0.176600	0.288100	0.113200
C11021	C1102	0.165070	0.312480	0.132540
H6781	H678	0.157500	0.303500	0.142300
C11031	C1103	0.164950	0.335120	0.135400
C11041	C1104	0.176300	0.348520	0.120830
H6791	H679	0.176200	0.363700	0.122700
C11051	C1105	0.187790	0.339290	0.103410
H6801	H680	0.195400	0.348300	0.093700
O1711	O171	0.221610	0.754710	0.517160
O1721	O172	0.250320	0.780670	0.524850
C11061	C1106	0.232230	0.769900	0.528130
C11071	C1107	0.219350	0.783390	0.547030
C11081	C1108	0.199800	0.775150	0.555430
H6811	H681	0.193500	0.762600	0.549300
C11091	C1109	0.189580	0.785630	0.572940
H6821	H682	0.176500	0.780100	0.578600
C11101	C1110	0.198920	0.804360	0.582050
C11111	C1111	0.218470	0.812600	0.573650
H6831	H683	0.224700	0.825100	0.579700
C11121	C1112	0.228690	0.802120	0.556140
H6841	H684	0.241800	0.807600	0.550500
C11131	C1113	0.187910	0.816650	0.600550
C11141	C1114	0.176560	0.803240	0.615120
H6851	H685	0.176600	0.788100	0.613200
C11151	C1115	0.165070	0.812480	0.632540
H6861	H686	0.157500	0.803500	0.642300
C11161	C1116	0.164950	0.835120	0.635400
C11171	C1117	0.176300	0.848520	0.620830
H6871	H687	0.176200	0.863700	0.622700
C11181	C1118	0.187790	0.839290	0.603410
H6881	H688	0.195400	0.848300	0.593700
O1731	O173	0.721610	0.254710	0.517160
O1741	O174	0.750320	0.280670	0.524850
C11191	C1119	0.732230	0.269900	0.528130
C11201	C1120	0.719350	0.283390	0.547030
C11211	C1121	0.699800	0.275150	0.555430
H6891	H689	0.693500	0.262600	0.549300
C11221	C1122	0.689580	0.285630	0.572940
H6901	H690	0.676500	0.280100	0.578600
C11231	C1123	0.698920	0.304360	0.582050
C11241	C1124	0.718470	0.312600	0.573650
H6911	H691	0.724700	0.325100	0.579700
C11251	C1125	0.728690	0.302120	0.556140
H6921	H692	0.741800	0.307600	0.550500
C11261	C1126	0.687910	0.316650	0.600550
C11271	C1127	0.676560	0.303240	0.615120
H6931	H693	0.676600	0.288100	0.613200
C11281	C1128	0.665070	0.312480	0.632540
H6941	H694	0.657500	0.303500	0.642300
C11291	C1129	0.664950	0.335120	0.635400
C11301	C1130	0.676300	0.348520	0.620830
H6951	H695	0.676200	0.363700	0.622700
C11311	C1131	0.687790	0.339290	0.603410
H6961	H696	0.695400	0.348300	0.593700
O1751	O175	0.721610	0.754710	0.017160
O1761	O176	0.750320	0.780670	0.024850
C11321	C1132	0.732230	0.769900	0.028130
C11331	C1133	0.719350	0.783390	0.047030
C11341	C1134	0.699800	0.775150	0.055430
H6971	H697	0.693500	0.762600	0.049300
C11351	C1135	0.689580	0.785630	0.072940
H6981	H698	0.676500	0.780100	0.078600
C11361	C1136	0.698920	0.804360	0.082050
C11371	C1137	0.718470	0.812600	0.073650
H6991	H699	0.724700	0.825100	0.079700
C11381	C1138	0.728690	0.802120	0.056140
H7001	H700	0.741800	0.807600	0.050500
C11391	C1139	0.687910	0.816650	0.100550
C11401	C1140	0.676560	0.803240	0.115120
H7011	H701	0.676600	0.788100	0.113200
C11411	C1141	0.665070	0.812480	0.132540
H7021	H702	0.657500	0.803500	0.142300
C11421	C1142	0.664950	0.835120	0.135400
C11431	C1143	0.676300	0.848520	0.120830
H7031	H703	0.676200	0.863700	0.122700
C11441	C1144	0.687790	0.839290	0.103410
H7041	H704	0.695400	0.848300	0.093700
O1771	O177	0.778390	0.745290	0.017160
O1781	O178	0.749680	0.719330	0.024850
C11451	C1145	0.767770	0.730100	0.028130
C11461	C1146	0.780650	0.716610	0.047030
C11471	C1147	0.800200	0.724850	0.055430
H7051	H705	0.806500	0.737400	0.049300
C11481	C1148	0.810420	0.714370	0.072940
H7061	H706	0.823500	0.719900	0.078600
C11491	C1149	0.801080	0.695640	0.082050
C11501	C1150	0.781530	0.687400	0.073650
H7071	H707	0.775300	0.674900	0.079700
C11511	C1151	0.771310	0.697880	0.056140
H7081	H708	0.758200	0.692400	0.050500
C11521	C1152	0.812090	0.683350	0.100550
C11531	C1153	0.823440	0.696760	0.115120
H7091	H709	0.823400	0.711900	0.113200
C11541	C1154	0.834930	0.687520	0.132540
H7101	H710	0.842500	0.696500	0.142300
C11551	C1155	0.835050	0.664880	0.135400
C11561	C1156	0.823700	0.651480	0.120830
H7111	H711	0.823800	0.636300	0.122700
C11571	C1157	0.812210	0.660710	0.103410
H7121	H712	0.804600	0.651700	0.093700
O1791	O179	0.778390	0.245290	0.517160
O1801	O180	0.749680	0.219330	0.524850
C11581	C1158	0.767770	0.230100	0.528130
C11591	C1159	0.780650	0.216610	0.547030
C11601	C1160	0.800200	0.224850	0.555430
H7131	H713	0.806500	0.237400	0.549300
C11611	C1161	0.810420	0.214370	0.572940
H7141	H714	0.823500	0.219900	0.578600
C11621	C1162	0.801080	0.195640	0.582050
C11631	C1163	0.781530	0.187400	0.573650
H7151	H715	0.775300	0.174900	0.579700
C11641	C1164	0.771310	0.197880	0.556140
H7161	H716	0.758200	0.192400	0.550500
C11651	C1165	0.812090	0.183350	0.600550
C11661	C1166	0.823440	0.196760	0.615120
H7171	H717	0.823400	0.211900	0.613200
C11671	C1167	0.834930	0.187520	0.632540
H7181	H718	0.842500	0.196500	0.642300
C11681	C1168	0.835050	0.164880	0.635400
C11691	C1169	0.823700	0.151480	0.620830
H7191	H719	0.823800	0.136300	0.622700
C11701	C1170	0.812210	0.160710	0.603410
H7201	H720	0.804600	0.151700	0.593700
O1811	O181	0.278390	0.745290	0.517160
O1821	O182	0.249680	0.719330	0.524850
C11711	C1171	0.267770	0.730100	0.528130
C11721	C1172	0.280650	0.716610	0.547030
C11731	C1173	0.300200	0.724850	0.555430
H7211	H721	0.306500	0.737400	0.549300
C11741	C1174	0.310420	0.714370	0.572940
H7221	H722	0.323500	0.719900	0.578600
C11751	C1175	0.301080	0.695640	0.582050
C11761	C1176	0.281530	0.687400	0.573650
H7231	H723	0.275300	0.674900	0.579700
C11771	C1177	0.271310	0.697880	0.556140
H7241	H724	0.258200	0.692400	0.550500
C11781	C1178	0.312090	0.683350	0.600550
C11791	C1179	0.323440	0.696760	0.615120
H7251	H725	0.323400	0.711900	0.613200
C11801	C1180	0.334930	0.687520	0.632540
H7261	H726	0.342500	0.696500	0.642300
C11811	C1181	0.335050	0.664880	0.635400
C11821	C1182	0.323700	0.651480	0.620830
H7271	H727	0.323800	0.636300	0.622700
C11831	C1183	0.312210	0.660710	0.603410
H7281	H728	0.304600	0.651700	0.593700
O1831	O183	0.278390	0.245290	0.017160
O1841	O184	0.249680	0.219330	0.024850
C11841	C1184	0.267770	0.230100	0.028130
C11851	C1185	0.280650	0.216610	0.047030
C11861	C1186	0.300200	0.224850	0.055430
H7291	H729	0.306500	0.237400	0.049300
C11871	C1187	0.310420	0.214370	0.072940
H7301	H730	0.323500	0.219900	0.078600
C11881	C1188	0.301080	0.195640	0.082050
C11891	C1189	0.281530	0.187400	0.073650
H7311	H731	0.275300	0.174900	0.079700
C11901	C1190	0.271310	0.197880	0.056140
H7321	H732	0.258200	0.192400	0.050500
C11911	C1191	0.312090	0.183350	0.100550
C11921	C1192	0.323440	0.196760	0.115120
H7331	H733	0.323400	0.211900	0.113200
C11931	C1193	0.334930	0.187520	0.132540
H7341	H734	0.342500	0.196500	0.142300
C11941	C1194	0.335050	0.164880	0.135400
C11951	C1195	0.323700	0.151480	0.120830
H7351	H735	0.323800	0.136300	0.122700
C11961	C1196	0.312210	0.160710	0.103410
H7361	H736	0.304600	0.151700	0.093700
O1851	O185	0.778390	0.254710	0.982840
O1861	O186	0.749680	0.280670	0.975150
C11971	C1197	0.767770	0.269900	0.971870
C11981	C1198	0.780650	0.283390	0.952970
C11991	C1199	0.800200	0.275150	0.944570
H7371	H737	0.806500	0.262600	0.950700
C12001	C1200	0.810420	0.285630	0.927060
H7381	H738	0.823500	0.280100	0.921400
C12011	C1201	0.801080	0.304360	0.917950
C12021	C1202	0.781530	0.312600	0.926350
H7391	H739	0.775300	0.325100	0.920300
C12031	C1203	0.771310	0.302120	0.943860
H7401	H740	0.758200	0.307600	0.949500
C12041	C1204	0.812090	0.316650	0.899450
C12051	C1205	0.823440	0.303240	0.884880
H7411	H741	0.823400	0.288100	0.886800
C12061	C1206	0.834930	0.312480	0.867460
H7421	H742	0.842500	0.303500	0.857700
C12071	C1207	0.835050	0.335120	0.864600
C12081	C1208	0.823700	0.348520	0.879170
H7431	H743	0.823800	0.363700	0.877300
C12091	C1209	0.812210	0.339290	0.896590
H7441	H744	0.804600	0.348300	0.906300
O1871	O187	0.778390	0.754710	0.482840
O1881	O188	0.749680	0.780670	0.475150
C12101	C1210	0.767770	0.769900	0.471870
C12111	C1211	0.780650	0.783390	0.452970
C12121	C1212	0.800200	0.775150	0.444570
H7451	H745	0.806500	0.762600	0.450700
C12131	C1213	0.810420	0.785630	0.427060
H7461	H746	0.823500	0.780100	0.421400
C12141	C1214	0.801080	0.804360	0.417950
C12151	C1215	0.781530	0.812600	0.426350
H7471	H747	0.775300	0.825100	0.420300
C12161	C1216	0.771310	0.802120	0.443860
H7481	H748	0.758200	0.807600	0.449500
C12171	C1217	0.812090	0.816650	0.399450
C12181	C1218	0.823440	0.803240	0.384880
H7491	H749	0.823400	0.788100	0.386800
C12191	C1219	0.834930	0.812480	0.367460
H7501	H750	0.842500	0.803500	0.357700
C12201	C1220	0.835050	0.835120	0.364600
C12211	C1221	0.823700	0.848520	0.379170
H7511	H751	0.823800	0.863700	0.377300
C12221	C1222	0.812210	0.839290	0.396590
H7521	H752	0.804600	0.848300	0.406300
O1891	O189	0.278390	0.254710	0.482840
O1901	O190	0.249680	0.280670	0.475150
C12231	C1223	0.267770	0.269900	0.471870
C12241	C1224	0.280650	0.283390	0.452970
C12251	C1225	0.300200	0.275150	0.444570
H7531	H753	0.306500	0.262600	0.450700
C12261	C1226	0.310420	0.285630	0.427060
H7541	H754	0.323500	0.280100	0.421400
C12271	C1227	0.301080	0.304360	0.417950
C12281	C1228	0.281530	0.312600	0.426350
H7551	H755	0.275300	0.325100	0.420300
C12291	C1229	0.271310	0.302120	0.443860
H7561	H756	0.258200	0.307600	0.449500
C12301	C1230	0.312090	0.316650	0.399450
C12311	C1231	0.323440	0.303240	0.384880
H7571	H757	0.323400	0.288100	0.386800
C12321	C1232	0.334930	0.312480	0.367460
H7581	H758	0.342500	0.303500	0.357700
C12331	C1233	0.335050	0.335120	0.364600
C12341	C1234	0.323700	0.348520	0.379170
H7591	H759	0.323800	0.363700	0.377300
C12351	C1235	0.312210	0.339290	0.396590
H7601	H760	0.304600	0.348300	0.406300
O1911	O191	0.278390	0.754710	0.982840
O1921	O192	0.249680	0.780670	0.975150
C12361	C1236	0.267770	0.769900	0.971870
C12371	C1237	0.280650	0.783390	0.952970
C12381	C1238	0.300200	0.775150	0.944570
H7611	H761	0.306500	0.762600	0.950700
C12391	C1239	0.310420	0.785630	0.927060
H7621	H762	0.323500	0.780100	0.921400
C12401	C1240	0.301080	0.804360	0.917950
C12411	C1241	0.281530	0.812600	0.926350
H7631	H763	0.275300	0.825100	0.920300
C12421	C1242	0.271310	0.802120	0.943860
H7641	H764	0.258200	0.807600	0.949500
C12431	C1243	0.312090	0.816650	0.899450
C12441	C1244	0.323440	0.803240	0.884880
H7651	H765	0.323400	0.788100	0.886800
C12451	C1245	0.334930	0.812480	0.867460
H7661	H766	0.342500	0.803500	0.857700
C12461	C1246	0.335050	0.835120	0.864600
C12471	C1247	0.323700	0.848520	0.879170
H7671	H767	0.323800	0.863700	0.877300
C12481	C1248	0.312210	0.839290	0.896590
H7681	H768	0.304600	0.848300	0.906300
Cu11	Cu1	0.000000	0.765240	0.234760
Cu21	Cu2	0.000000	0.265240	0.734760
Cu31	Cu3	0.500000	0.765240	0.734760
Cu41	Cu4	0.500000	0.265240	0.234760
Cu51	Cu5	0.000000	0.234760	0.234760
Cu61	Cu6	0.000000	0.734760	0.734760
Cu71	Cu7	0.500000	0.234760	0.734760
Cu81	Cu8	0.500000	0.734760	0.234760
Cu91	Cu9	0.000000	0.765240	0.765240
Cu101	Cu10	0.000000	0.265240	0.265240
Cu111	Cu11	0.500000	0.765240	0.265240
Cu121	Cu12	0.500000	0.265240	0.765240
Cu131	Cu13	0.000000	0.234760	0.765240
Cu141	Cu14	0.000000	0.734760	0.265240
Cu151	Cu15	0.500000	0.234760	0.265240
Cu161	Cu16	0.500000	0.734760	0.765240
Cu171	Cu17	0.234760	0.000000	0.765240
Cu181	Cu18	0.234760	0.500000	0.265240
Cu191	Cu19	0.734760	0.000000	0.265240
Cu201	Cu20	0.734760	0.500000	0.765240
Cu211	Cu21	0.234760	0.000000	0.234760
Cu221	Cu22	0.234760	0.500000	0.734760
Cu231	Cu23	0.734760	0.000000	0.734760
Cu241	Cu24	0.734760	0.500000	0.234760
Cu251	Cu25	0.765240	0.000000	0.765240
Cu261	Cu26	0.765240	0.500000	0.265240
Cu271	Cu27	0.265240	0.000000	0.265240
Cu281	Cu28	0.265240	0.500000	0.765240
Cu291	Cu29	0.765240	0.000000	0.234760
Cu301	Cu30	0.765240	0.500000	0.734760
Cu311	Cu31	0.265240	0.000000	0.734760
Cu321	Cu32	0.265240	0.500000	0.234760
Cu331	Cu33	0.765240	0.234760	0.000000
Cu341	Cu34	0.765240	0.734760	0.500000
Cu351	Cu35	0.265240	0.234760	0.500000
Cu361	Cu36	0.265240	0.734760	0.000000
Cu371	Cu37	0.234760	0.234760	0.000000
Cu381	Cu38	0.234760	0.734760	0.500000
Cu391	Cu39	0.734760	0.234760	0.500000
Cu401	Cu40	0.734760	0.734760	0.000000
Cu411	Cu41	0.765240	0.765240	0.000000
Cu421	Cu42	0.765240	0.265240	0.500000
Cu431	Cu43	0.265240	0.765240	0.500000
Cu441	Cu44	0.265240	0.265240	0.000000
Cu451	Cu45	0.234760	0.765240	0.000000
Cu461	Cu46	0.234760	0.265240	0.500000
Cu471	Cu47	0.734760	0.765240	0.500000
Cu481	Cu48	0.734760	0.265240	0.000000
N11	N1	0.155020	0.655020	0.155020
N21	N2	0.655020	0.655020	0.655020
N31	N3	0.844980	0.344980	0.155020
N41	N4	0.844980	0.844980	0.655020
N51	N5	0.844980	0.655020	0.844980
N61	N6	0.155020	0.344980	0.844980
N71	N7	0.655020	0.844980	0.844980
N81	N8	0.155020	0.155020	0.655020
N91	N9	0.155020	0.844980	0.344980
N101	N10	0.844980	0.155020	0.344980
N111	N11	0.655020	0.155020	0.155020
N121	N12	0.344980	0.155020	0.844980
N131	N13	0.344980	0.655020	0.344980
N141	N14	0.655020	0.344980	0.344980
N151	N15	0.344980	0.844980	0.155020
N161	N16	0.344980	0.344980	0.655020
N171	N17	0.655020	0.155020	0.844980
N181	N18	0.655020	0.655020	0.344980
N191	N19	0.344980	0.844980	0.844980
N201	N20	0.344980	0.344980	0.344980
N211	N21	0.655020	0.844980	0.155020
N221	N22	0.655020	0.344980	0.655020
N231	N23	0.344980	0.155020	0.155020
N241	N24	0.344980	0.655020	0.655020
N251	N25	0.844980	0.155020	0.655020
N261	N26	0.844980	0.655020	0.155020
N271	N27	0.155020	0.155020	0.344980
N281	N28	0.155020	0.655020	0.844980
N291	N29	0.844980	0.844980	0.344980
N301	N30	0.155020	0.844980	0.655020
N311	N31	0.155020	0.344980	0.155020
N321	N32	0.844980	0.344980	0.844980
