data_AVAKEP_clean_PM
_symmetry_space_group_name_H-M	'P1'
_cell_length_a	35.400000
_cell_length_b	35.400000
_cell_length_c	35.400000
_cell_angle_alpha	90.000000
_cell_angle_beta	90.000000
_cell_angle_gamma	90.000000
_symmetry_Int_Tables_number 1

loop_
_symmetry_equiv_pos_as_xyz
'x,y,z'

loop_
_atom_site_label
_atom_site_type_symbol
_atom_site_fract_x
_atom_site_fract_y
_atom_site_fract_z
O11	O1	0.039400	0.539210	0.781580
C11	C1	0.095800	0.592200	0.783800
H11	H1	0.087600	0.582100	0.806600
C21	C2	0.124000	0.619300	0.783100
H21	H2	0.135100	0.626600	0.805800
C31	C3	0.192600	0.667100	0.777900
H31	H3	0.192900	0.649300	0.797200
C41	C4	0.219800	0.696000	0.776800
C51	C5	0.269500	0.652200	0.806200
H41	H4	0.250300	0.633200	0.807700
H51	H5	0.283600	0.649000	0.783300
H61	H6	0.286200	0.650000	0.827500
O21	O2	0.960600	0.460790	0.781580
C61	C6	0.904200	0.407800	0.783800
H71	H7	0.912400	0.417900	0.806600
C71	C7	0.876000	0.380700	0.783100
H81	H8	0.864900	0.373400	0.805800
C81	C8	0.807400	0.332900	0.777900
H91	H9	0.807100	0.350700	0.797200
C91	C9	0.780200	0.304000	0.776800
C101	C10	0.730500	0.347800	0.806200
H101	H10	0.749700	0.366800	0.807700
H111	H11	0.716400	0.351000	0.783300
H121	H12	0.713800	0.350000	0.827500
O31	O3	0.960600	0.539210	0.218420
C111	C11	0.904200	0.592200	0.216200
H131	H13	0.912400	0.582100	0.193400
C121	C12	0.876000	0.619300	0.216900
H141	H14	0.864900	0.626600	0.194200
C131	C13	0.807400	0.667100	0.222100
H151	H15	0.807100	0.649300	0.202800
C141	C14	0.780200	0.696000	0.223200
C151	C15	0.730500	0.652200	0.193800
H161	H16	0.749700	0.633200	0.192300
H171	H17	0.716400	0.649000	0.216700
H181	H18	0.713800	0.650000	0.172500
O41	O4	0.039400	0.460790	0.218420
C161	C16	0.095800	0.407800	0.216200
H191	H19	0.087600	0.417900	0.193400
C171	C17	0.124000	0.380700	0.216900
H201	H20	0.135100	0.373400	0.194200
C181	C18	0.192600	0.332900	0.222100
H211	H21	0.192900	0.350700	0.202800
C191	C19	0.219800	0.304000	0.223200
C201	C20	0.269500	0.347800	0.193800
H221	H22	0.250300	0.366800	0.192300
H231	H23	0.283600	0.351000	0.216700
H241	H24	0.286200	0.350000	0.172500
O51	O5	0.781580	0.039400	0.539210
C211	C21	0.783800	0.095800	0.592200
H251	H25	0.806600	0.087600	0.582100
C221	C22	0.783100	0.124000	0.619300
H261	H26	0.805800	0.135100	0.626600
C231	C23	0.777900	0.192600	0.667100
H271	H27	0.797200	0.192900	0.649300
C241	C24	0.776800	0.219800	0.696000
C251	C25	0.806200	0.269500	0.652200
H281	H28	0.807700	0.250300	0.633200
H291	H29	0.783300	0.283600	0.649000
H301	H30	0.827500	0.286200	0.650000
O61	O6	0.781580	0.960600	0.460790
C261	C26	0.783800	0.904200	0.407800
H311	H31	0.806600	0.912400	0.417900
C271	C27	0.783100	0.876000	0.380700
H321	H32	0.805800	0.864900	0.373400
C281	C28	0.777900	0.807400	0.332900
H331	H33	0.797200	0.807100	0.350700
C291	C29	0.776800	0.780200	0.304000
C301	C30	0.806200	0.730500	0.347800
H341	H34	0.807700	0.749700	0.366800
H351	H35	0.783300	0.716400	0.351000
H361	H36	0.827500	0.713800	0.350000
O71	O7	0.218420	0.960600	0.539210
C311	C31	0.216200	0.904200	0.592200
H371	H37	0.193400	0.912400	0.582100
C321	C32	0.216900	0.876000	0.619300
H381	H38	0.194200	0.864900	0.626600
C331	C33	0.222100	0.807400	0.667100
H391	H39	0.202800	0.807100	0.649300
C341	C34	0.223200	0.780200	0.696000
C351	C35	0.193800	0.730500	0.652200
H401	H40	0.192300	0.749700	0.633200
H411	H41	0.216700	0.716400	0.649000
H421	H42	0.172500	0.713800	0.650000
O81	O8	0.218420	0.039400	0.460790
C361	C36	0.216200	0.095800	0.407800
H431	H43	0.193400	0.087600	0.417900
C371	C37	0.216900	0.124000	0.380700
H441	H44	0.194200	0.135100	0.373400
C381	C38	0.222100	0.192600	0.332900
H451	H45	0.202800	0.192900	0.350700
C391	C39	0.223200	0.219800	0.304000
C401	C40	0.193800	0.269500	0.347800
H461	H46	0.192300	0.250300	0.366800
H471	H47	0.216700	0.283600	0.351000
H481	H48	0.172500	0.286200	0.350000
O91	O9	0.539210	0.781580	0.039400
C411	C41	0.592200	0.783800	0.095800
H491	H49	0.582100	0.806600	0.087600
C421	C42	0.619300	0.783100	0.124000
H501	H50	0.626600	0.805800	0.135100
C431	C43	0.667100	0.777900	0.192600
H511	H51	0.649300	0.797200	0.192900
C441	C44	0.696000	0.776800	0.219800
C451	C45	0.652200	0.806200	0.269500
H521	H52	0.633200	0.807700	0.250300
H531	H53	0.649000	0.783300	0.283600
H541	H54	0.650000	0.827500	0.286200
O101	O10	0.460790	0.781580	0.960600
C461	C46	0.407800	0.783800	0.904200
H551	H55	0.417900	0.806600	0.912400
C471	C47	0.380700	0.783100	0.876000
H561	H56	0.373400	0.805800	0.864900
C481	C48	0.332900	0.777900	0.807400
H571	H57	0.350700	0.797200	0.807100
C491	C49	0.304000	0.776800	0.780200
C501	C50	0.347800	0.806200	0.730500
H581	H58	0.366800	0.807700	0.749700
H591	H59	0.351000	0.783300	0.716400
H601	H60	0.350000	0.827500	0.713800
O111	O11	0.539210	0.218420	0.960600
C511	C51	0.592200	0.216200	0.904200
H611	H61	0.582100	0.193400	0.912400
C521	C52	0.619300	0.216900	0.876000
H621	H62	0.626600	0.194200	0.864900
C531	C53	0.667100	0.222100	0.807400
H631	H63	0.649300	0.202800	0.807100
C541	C54	0.696000	0.223200	0.780200
C551	C55	0.652200	0.193800	0.730500
H641	H64	0.633200	0.192300	0.749700
H651	H65	0.649000	0.216700	0.716400
H661	H66	0.650000	0.172500	0.713800
O121	O12	0.460790	0.218420	0.039400
C561	C56	0.407800	0.216200	0.095800
H671	H67	0.417900	0.193400	0.087600
C571	C57	0.380700	0.216900	0.124000
H681	H68	0.373400	0.194200	0.135100
C581	C58	0.332900	0.222100	0.192600
H691	H69	0.350700	0.202800	0.192900
C591	C59	0.304000	0.223200	0.219800
C601	C60	0.347800	0.193800	0.269500
H701	H70	0.366800	0.192300	0.250300
H711	H71	0.351000	0.216700	0.283600
H721	H72	0.350000	0.172500	0.286200
O131	O13	0.039210	0.539400	0.718420
C611	C61	0.092200	0.595800	0.716200
H731	H73	0.082100	0.587600	0.693400
C621	C62	0.119300	0.624000	0.716900
H741	H74	0.126600	0.635100	0.694200
C631	C63	0.167100	0.692600	0.722100
H751	H75	0.149300	0.692900	0.702800
C641	C64	0.196000	0.719800	0.723200
C651	C65	0.152200	0.769500	0.693800
H761	H76	0.133200	0.750300	0.692300
H771	H77	0.149000	0.783600	0.716700
H781	H78	0.150000	0.786200	0.672500
O141	O14	0.960790	0.460600	0.718420
C661	C66	0.907800	0.404200	0.716200
H791	H79	0.917900	0.412400	0.693400
C671	C67	0.880700	0.376000	0.716900
H801	H80	0.873400	0.364900	0.694200
C681	C68	0.832900	0.307400	0.722100
H811	H81	0.850700	0.307100	0.702800
C691	C69	0.804000	0.280200	0.723200
C701	C70	0.847800	0.230500	0.693800
H821	H82	0.866800	0.249700	0.692300
H831	H83	0.851000	0.216400	0.716700
H841	H84	0.850000	0.213800	0.672500
O151	O15	0.039210	0.460600	0.281580
C711	C71	0.092200	0.404200	0.283800
H851	H85	0.082100	0.412400	0.306600
C721	C72	0.119300	0.376000	0.283100
H861	H86	0.126600	0.364900	0.305800
C731	C73	0.167100	0.307400	0.277900
H871	H87	0.149300	0.307100	0.297200
C741	C74	0.196000	0.280200	0.276800
C751	C75	0.152200	0.230500	0.306200
H881	H88	0.133200	0.249700	0.307700
H891	H89	0.149000	0.216400	0.283300
H901	H90	0.150000	0.213800	0.327500
O161	O16	0.960790	0.539400	0.281580
C761	C76	0.907800	0.595800	0.283800
H911	H91	0.917900	0.587600	0.306600
C771	C77	0.880700	0.624000	0.283100
H921	H92	0.873400	0.635100	0.305800
C781	C78	0.832900	0.692600	0.277900
H931	H93	0.850700	0.692900	0.297200
C791	C79	0.804000	0.719800	0.276800
C801	C80	0.847800	0.769500	0.306200
H941	H94	0.866800	0.750300	0.307700
H951	H95	0.851000	0.783600	0.283300
H961	H96	0.850000	0.786200	0.327500
O171	O17	0.539400	0.281580	0.960790
C811	C81	0.595800	0.283800	0.907800
H971	H97	0.587600	0.306600	0.917900
C821	C82	0.624000	0.283100	0.880700
H981	H98	0.635100	0.305800	0.873400
C831	C83	0.692600	0.277900	0.832900
H991	H99	0.692900	0.297200	0.850700
C841	C84	0.719800	0.276800	0.804000
C851	C85	0.769500	0.306200	0.847800
H1001	H100	0.750300	0.307700	0.866800
H1011	H101	0.783600	0.283300	0.851000
H1021	H102	0.786200	0.327500	0.850000
O181	O18	0.460600	0.281580	0.039210
C861	C86	0.404200	0.283800	0.092200
H1031	H103	0.412400	0.306600	0.082100
C871	C87	0.376000	0.283100	0.119300
H1041	H104	0.364900	0.305800	0.126600
C881	C88	0.307400	0.277900	0.167100
H1051	H105	0.307100	0.297200	0.149300
C891	C89	0.280200	0.276800	0.196000
C901	C90	0.230500	0.306200	0.152200
H1061	H106	0.249700	0.307700	0.133200
H1071	H107	0.216400	0.283300	0.149000
H1081	H108	0.213800	0.327500	0.150000
O191	O19	0.460600	0.718420	0.960790
C911	C91	0.404200	0.716200	0.907800
H1091	H109	0.412400	0.693400	0.917900
C921	C92	0.376000	0.716900	0.880700
H1101	H110	0.364900	0.694200	0.873400
C931	C93	0.307400	0.722100	0.832900
H1111	H111	0.307100	0.702800	0.850700
C941	C94	0.280200	0.723200	0.804000
C951	C95	0.230500	0.693800	0.847800
H1121	H112	0.249700	0.692300	0.866800
H1131	H113	0.216400	0.716700	0.851000
H1141	H114	0.213800	0.672500	0.850000
O201	O20	0.539400	0.718420	0.039210
C961	C96	0.595800	0.716200	0.092200
H1151	H115	0.587600	0.693400	0.082100
C971	C97	0.624000	0.716900	0.119300
H1161	H116	0.635100	0.694200	0.126600
C981	C98	0.692600	0.722100	0.167100
H1171	H117	0.692900	0.702800	0.149300
C991	C99	0.719800	0.723200	0.196000
C1001	C100	0.769500	0.693800	0.152200
H1181	H118	0.750300	0.692300	0.133200
H1191	H119	0.783600	0.716700	0.149000
H1201	H120	0.786200	0.672500	0.150000
O211	O21	0.281580	0.039210	0.460600
C1011	C101	0.283800	0.092200	0.404200
H1211	H121	0.306600	0.082100	0.412400
C1021	C102	0.283100	0.119300	0.376000
H1221	H122	0.305800	0.126600	0.364900
C1031	C103	0.277900	0.167100	0.307400
H1231	H123	0.297200	0.149300	0.307100
C1041	C104	0.276800	0.196000	0.280200
C1051	C105	0.306200	0.152200	0.230500
H1241	H124	0.307700	0.133200	0.249700
H1251	H125	0.283300	0.149000	0.216400
H1261	H126	0.327500	0.150000	0.213800
O221	O22	0.281580	0.960790	0.539400
C1061	C106	0.283800	0.907800	0.595800
H1271	H127	0.306600	0.917900	0.587600
C1071	C107	0.283100	0.880700	0.624000
H1281	H128	0.305800	0.873400	0.635100
C1081	C108	0.277900	0.832900	0.692600
H1291	H129	0.297200	0.850700	0.692900
C1091	C109	0.276800	0.804000	0.719800
C1101	C110	0.306200	0.847800	0.769500
H1301	H130	0.307700	0.866800	0.750300
H1311	H131	0.283300	0.851000	0.783600
H1321	H132	0.327500	0.850000	0.786200
O231	O23	0.718420	0.039210	0.539400
C1111	C111	0.716200	0.092200	0.595800
H1331	H133	0.693400	0.082100	0.587600
C1121	C112	0.716900	0.119300	0.624000
H1341	H134	0.694200	0.126600	0.635100
C1131	C113	0.722100	0.167100	0.692600
H1351	H135	0.702800	0.149300	0.692900
C1141	C114	0.723200	0.196000	0.719800
C1151	C115	0.693800	0.152200	0.769500
H1361	H136	0.692300	0.133200	0.750300
H1371	H137	0.716700	0.149000	0.783600
H1381	H138	0.672500	0.150000	0.786200
O241	O24	0.718420	0.960790	0.460600
C1161	C116	0.716200	0.907800	0.404200
H1391	H139	0.693400	0.917900	0.412400
C1171	C117	0.716900	0.880700	0.376000
H1401	H140	0.694200	0.873400	0.364900
C1181	C118	0.722100	0.832900	0.307400
H1411	H141	0.702800	0.850700	0.307100
C1191	C119	0.723200	0.804000	0.280200
C1201	C120	0.693800	0.847800	0.230500
H1421	H142	0.692300	0.866800	0.249700
H1431	H143	0.716700	0.851000	0.216400
H1441	H144	0.672500	0.850000	0.213800
O251	O25	0.960600	0.460790	0.218420
C1211	C121	0.904200	0.407800	0.216200
H1451	H145	0.912400	0.417900	0.193400
C1221	C122	0.876000	0.380700	0.216900
H1461	H146	0.864900	0.373400	0.194200
C1231	C123	0.807400	0.332900	0.222100
H1471	H147	0.807100	0.350700	0.202800
C1241	C124	0.780200	0.304000	0.223200
C1251	C125	0.730500	0.347800	0.193800
H1481	H148	0.749700	0.366800	0.192300
H1491	H149	0.716400	0.351000	0.216700
H1501	H150	0.713800	0.350000	0.172500
O261	O26	0.039400	0.539210	0.218420
C1261	C126	0.095800	0.592200	0.216200
H1511	H151	0.087600	0.582100	0.193400
C1271	C127	0.124000	0.619300	0.216900
H1521	H152	0.135100	0.626600	0.194200
C1281	C128	0.192600	0.667100	0.222100
H1531	H153	0.192900	0.649300	0.202800
C1291	C129	0.219800	0.696000	0.223200
C1301	C130	0.269500	0.652200	0.193800
H1541	H154	0.250300	0.633200	0.192300
H1551	H155	0.283600	0.649000	0.216700
H1561	H156	0.286200	0.650000	0.172500
O271	O27	0.039400	0.460790	0.781580
C1311	C131	0.095800	0.407800	0.783800
H1571	H157	0.087600	0.417900	0.806600
C1321	C132	0.124000	0.380700	0.783100
H1581	H158	0.135100	0.373400	0.805800
C1331	C133	0.192600	0.332900	0.777900
H1591	H159	0.192900	0.350700	0.797200
C1341	C134	0.219800	0.304000	0.776800
C1351	C135	0.269500	0.347800	0.806200
H1601	H160	0.250300	0.366800	0.807700
H1611	H161	0.283600	0.351000	0.783300
H1621	H162	0.286200	0.350000	0.827500
O281	O28	0.960600	0.539210	0.781580
C1361	C136	0.904200	0.592200	0.783800
H1631	H163	0.912400	0.582100	0.806600
C1371	C137	0.876000	0.619300	0.783100
H1641	H164	0.864900	0.626600	0.805800
C1381	C138	0.807400	0.667100	0.777900
H1651	H165	0.807100	0.649300	0.797200
C1391	C139	0.780200	0.696000	0.776800
C1401	C140	0.730500	0.652200	0.806200
H1661	H166	0.749700	0.633200	0.807700
H1671	H167	0.716400	0.649000	0.783300
H1681	H168	0.713800	0.650000	0.827500
O291	O29	0.218420	0.960600	0.460790
C1411	C141	0.216200	0.904200	0.407800
H1691	H169	0.193400	0.912400	0.417900
C1421	C142	0.216900	0.876000	0.380700
H1701	H170	0.194200	0.864900	0.373400
C1431	C143	0.222100	0.807400	0.332900
H1711	H171	0.202800	0.807100	0.350700
C1441	C144	0.223200	0.780200	0.304000
C1451	C145	0.193800	0.730500	0.347800
H1721	H172	0.192300	0.749700	0.366800
H1731	H173	0.216700	0.716400	0.351000
H1741	H174	0.172500	0.713800	0.350000
O301	O30	0.218420	0.039400	0.539210
C1461	C146	0.216200	0.095800	0.592200
H1751	H175	0.193400	0.087600	0.582100
C1471	C147	0.216900	0.124000	0.619300
H1761	H176	0.194200	0.135100	0.626600
C1481	C148	0.222100	0.192600	0.667100
H1771	H177	0.202800	0.192900	0.649300
C1491	C149	0.223200	0.219800	0.696000
C1501	C150	0.193800	0.269500	0.652200
H1781	H178	0.192300	0.250300	0.633200
H1791	H179	0.216700	0.283600	0.649000
H1801	H180	0.172500	0.286200	0.650000
O311	O31	0.781580	0.039400	0.460790
C1511	C151	0.783800	0.095800	0.407800
H1811	H181	0.806600	0.087600	0.417900
C1521	C152	0.783100	0.124000	0.380700
H1821	H182	0.805800	0.135100	0.373400
C1531	C153	0.777900	0.192600	0.332900
H1831	H183	0.797200	0.192900	0.350700
C1541	C154	0.776800	0.219800	0.304000
C1551	C155	0.806200	0.269500	0.347800
H1841	H184	0.807700	0.250300	0.366800
H1851	H185	0.783300	0.283600	0.351000
H1861	H186	0.827500	0.286200	0.350000
O321	O32	0.781580	0.960600	0.539210
C1561	C156	0.783800	0.904200	0.592200
H1871	H187	0.806600	0.912400	0.582100
C1571	C157	0.783100	0.876000	0.619300
H1881	H188	0.805800	0.864900	0.626600
C1581	C158	0.777900	0.807400	0.667100
H1891	H189	0.797200	0.807100	0.649300
C1591	C159	0.776800	0.780200	0.696000
C1601	C160	0.806200	0.730500	0.652200
H1901	H190	0.807700	0.749700	0.633200
H1911	H191	0.783300	0.716400	0.649000
H1921	H192	0.827500	0.713800	0.650000
O331	O33	0.460790	0.218420	0.960600
C1611	C161	0.407800	0.216200	0.904200
H1931	H193	0.417900	0.193400	0.912400
C1621	C162	0.380700	0.216900	0.876000
H1941	H194	0.373400	0.194200	0.864900
C1631	C163	0.332900	0.222100	0.807400
H1951	H195	0.350700	0.202800	0.807100
C1641	C164	0.304000	0.223200	0.780200
C1651	C165	0.347800	0.193800	0.730500
H1961	H196	0.366800	0.192300	0.749700
H1971	H197	0.351000	0.216700	0.716400
H1981	H198	0.350000	0.172500	0.713800
O341	O34	0.539210	0.218420	0.039400
C1661	C166	0.592200	0.216200	0.095800
H1991	H199	0.582100	0.193400	0.087600
C1671	C167	0.619300	0.216900	0.124000
H2001	H200	0.626600	0.194200	0.135100
C1681	C168	0.667100	0.222100	0.192600
H2011	H201	0.649300	0.202800	0.192900
C1691	C169	0.696000	0.223200	0.219800
C1701	C170	0.652200	0.193800	0.269500
H2021	H202	0.633200	0.192300	0.250300
H2031	H203	0.649000	0.216700	0.283600
H2041	H204	0.650000	0.172500	0.286200
O351	O35	0.460790	0.781580	0.039400
C1711	C171	0.407800	0.783800	0.095800
H2051	H205	0.417900	0.806600	0.087600
C1721	C172	0.380700	0.783100	0.124000
H2061	H206	0.373400	0.805800	0.135100
C1731	C173	0.332900	0.777900	0.192600
H2071	H207	0.350700	0.797200	0.192900
C1741	C174	0.304000	0.776800	0.219800
C1751	C175	0.347800	0.806200	0.269500
H2081	H208	0.366800	0.807700	0.250300
H2091	H209	0.351000	0.783300	0.283600
H2101	H210	0.350000	0.827500	0.286200
O361	O36	0.539210	0.781580	0.960600
C1761	C176	0.592200	0.783800	0.904200
H2111	H211	0.582100	0.806600	0.912400
C1771	C177	0.619300	0.783100	0.876000
H2121	H212	0.626600	0.805800	0.864900
C1781	C178	0.667100	0.777900	0.807400
H2131	H213	0.649300	0.797200	0.807100
C1791	C179	0.696000	0.776800	0.780200
C1801	C180	0.652200	0.806200	0.730500
H2141	H214	0.633200	0.807700	0.749700
H2151	H215	0.649000	0.783300	0.716400
H2161	H216	0.650000	0.827500	0.713800
O371	O37	0.960790	0.460600	0.281580
C1811	C181	0.907800	0.404200	0.283800
H2171	H217	0.917900	0.412400	0.306600
C1821	C182	0.880700	0.376000	0.283100
H2181	H218	0.873400	0.364900	0.305800
C1831	C183	0.832900	0.307400	0.277900
H2191	H219	0.850700	0.307100	0.297200
C1841	C184	0.804000	0.280200	0.276800
C1851	C185	0.847800	0.230500	0.306200
H2201	H220	0.866800	0.249700	0.307700
H2211	H221	0.851000	0.216400	0.283300
H2221	H222	0.850000	0.213800	0.327500
O381	O38	0.039210	0.539400	0.281580
C1861	C186	0.092200	0.595800	0.283800
H2231	H223	0.082100	0.587600	0.306600
C1871	C187	0.119300	0.624000	0.283100
H2241	H224	0.126600	0.635100	0.305800
C1881	C188	0.167100	0.692600	0.277900
H2251	H225	0.149300	0.692900	0.297200
C1891	C189	0.196000	0.719800	0.276800
C1901	C190	0.152200	0.769500	0.306200
H2261	H226	0.133200	0.750300	0.307700
H2271	H227	0.149000	0.783600	0.283300
H2281	H228	0.150000	0.786200	0.327500
O391	O39	0.960790	0.539400	0.718420
C1911	C191	0.907800	0.595800	0.716200
H2291	H229	0.917900	0.587600	0.693400
C1921	C192	0.880700	0.624000	0.716900
H2301	H230	0.873400	0.635100	0.694200
C1931	C193	0.832900	0.692600	0.722100
H2311	H231	0.850700	0.692900	0.702800
C1941	C194	0.804000	0.719800	0.723200
C1951	C195	0.847800	0.769500	0.693800
H2321	H232	0.866800	0.750300	0.692300
H2331	H233	0.851000	0.783600	0.716700
H2341	H234	0.850000	0.786200	0.672500
O401	O40	0.039210	0.460600	0.718420
C1961	C196	0.092200	0.404200	0.716200
H2351	H235	0.082100	0.412400	0.693400
C1971	C197	0.119300	0.376000	0.716900
H2361	H236	0.126600	0.364900	0.694200
C1981	C198	0.167100	0.307400	0.722100
H2371	H237	0.149300	0.307100	0.702800
C1991	C199	0.196000	0.280200	0.723200
C2001	C200	0.152200	0.230500	0.693800
H2381	H238	0.133200	0.249700	0.692300
H2391	H239	0.149000	0.216400	0.716700
H2401	H240	0.150000	0.213800	0.672500
O411	O41	0.460600	0.718420	0.039210
C2011	C201	0.404200	0.716200	0.092200
H2411	H241	0.412400	0.693400	0.082100
C2021	C202	0.376000	0.716900	0.119300
H2421	H242	0.364900	0.694200	0.126600
C2031	C203	0.307400	0.722100	0.167100
H2431	H243	0.307100	0.702800	0.149300
C2041	C204	0.280200	0.723200	0.196000
C2051	C205	0.230500	0.693800	0.152200
H2441	H244	0.249700	0.692300	0.133200
H2451	H245	0.216400	0.716700	0.149000
H2461	H246	0.213800	0.672500	0.150000
O421	O42	0.539400	0.718420	0.960790
C2061	C206	0.595800	0.716200	0.907800
H2471	H247	0.587600	0.693400	0.917900
C2071	C207	0.624000	0.716900	0.880700
H2481	H248	0.635100	0.694200	0.873400
C2081	C208	0.692600	0.722100	0.832900
H2491	H249	0.692900	0.702800	0.850700
C2091	C209	0.719800	0.723200	0.804000
C2101	C210	0.769500	0.693800	0.847800
H2501	H250	0.750300	0.692300	0.866800
H2511	H251	0.783600	0.716700	0.851000
H2521	H252	0.786200	0.672500	0.850000
O431	O43	0.539400	0.281580	0.039210
C2111	C211	0.595800	0.283800	0.092200
H2531	H253	0.587600	0.306600	0.082100
C2121	C212	0.624000	0.283100	0.119300
H2541	H254	0.635100	0.305800	0.126600
C2131	C213	0.692600	0.277900	0.167100
H2551	H255	0.692900	0.297200	0.149300
C2141	C214	0.719800	0.276800	0.196000
C2151	C215	0.769500	0.306200	0.152200
H2561	H256	0.750300	0.307700	0.133200
H2571	H257	0.783600	0.283300	0.149000
H2581	H258	0.786200	0.327500	0.150000
O441	O44	0.460600	0.281580	0.960790
C2161	C216	0.404200	0.283800	0.907800
H2591	H259	0.412400	0.306600	0.917900
C2171	C217	0.376000	0.283100	0.880700
H2601	H260	0.364900	0.305800	0.873400
C2181	C218	0.307400	0.277900	0.832900
H2611	H261	0.307100	0.297200	0.850700
C2191	C219	0.280200	0.276800	0.804000
C2201	C220	0.230500	0.306200	0.847800
H2621	H262	0.249700	0.307700	0.866800
H2631	H263	0.216400	0.283300	0.851000
H2641	H264	0.213800	0.327500	0.850000
O451	O45	0.718420	0.960790	0.539400
C2211	C221	0.716200	0.907800	0.595800
H2651	H265	0.693400	0.917900	0.587600
C2221	C222	0.716900	0.880700	0.624000
H2661	H266	0.694200	0.873400	0.635100
C2231	C223	0.722100	0.832900	0.692600
H2671	H267	0.702800	0.850700	0.692900
C2241	C224	0.723200	0.804000	0.719800
C2251	C225	0.693800	0.847800	0.769500
H2681	H268	0.692300	0.866800	0.750300
H2691	H269	0.716700	0.851000	0.783600
H2701	H270	0.672500	0.850000	0.786200
O461	O46	0.718420	0.039210	0.460600
C2261	C226	0.716200	0.092200	0.404200
H2711	H271	0.693400	0.082100	0.412400
C2271	C227	0.716900	0.119300	0.376000
H2721	H272	0.694200	0.126600	0.364900
C2281	C228	0.722100	0.167100	0.307400
H2731	H273	0.702800	0.149300	0.307100
C2291	C229	0.723200	0.196000	0.280200
C2301	C230	0.693800	0.152200	0.230500
H2741	H274	0.692300	0.133200	0.249700
H2751	H275	0.716700	0.149000	0.216400
H2761	H276	0.672500	0.150000	0.213800
O471	O47	0.281580	0.960790	0.460600
C2311	C231	0.283800	0.907800	0.404200
H2771	H277	0.306600	0.917900	0.412400
C2321	C232	0.283100	0.880700	0.376000
H2781	H278	0.305800	0.873400	0.364900
C2331	C233	0.277900	0.832900	0.307400
H2791	H279	0.297200	0.850700	0.307100
C2341	C234	0.276800	0.804000	0.280200
C2351	C235	0.306200	0.847800	0.230500
H2801	H280	0.307700	0.866800	0.249700
H2811	H281	0.283300	0.851000	0.216400
H2821	H282	0.327500	0.850000	0.213800
O481	O48	0.281580	0.039210	0.539400
C2361	C236	0.283800	0.092200	0.595800
H2831	H283	0.306600	0.082100	0.587600
C2371	C237	0.283100	0.119300	0.624000
H2841	H284	0.305800	0.126600	0.635100
C2381	C238	0.277900	0.167100	0.692600
H2851	H285	0.297200	0.149300	0.692900
C2391	C239	0.276800	0.196000	0.719800
C2401	C240	0.306200	0.152200	0.769500
H2861	H286	0.307700	0.133200	0.750300
H2871	H287	0.283300	0.149000	0.783600
H2881	H288	0.327500	0.150000	0.786200
Cu11	Cu1	0.000000	0.500000	0.787720
Cu21	Cu2	0.000000	0.500000	0.212280
Cu31	Cu3	0.787720	0.000000	0.500000
Cu41	Cu4	0.212280	0.000000	0.500000
Cu51	Cu5	0.500000	0.787720	0.000000
Cu61	Cu6	0.500000	0.212280	0.000000
Cu71	Cu7	0.000000	0.500000	0.712280
Cu81	Cu8	0.000000	0.500000	0.287720
Cu91	Cu9	0.500000	0.287720	0.000000
Cu101	Cu10	0.500000	0.712280	0.000000
Cu111	Cu11	0.287720	0.000000	0.500000
Cu121	Cu12	0.712280	0.000000	0.500000
N11	N1	0.250000	0.750000	0.750000
N21	N2	0.750000	0.250000	0.750000
N31	N3	0.750000	0.750000	0.250000
N41	N4	0.250000	0.250000	0.250000
N51	N5	0.750000	0.250000	0.250000
N61	N6	0.250000	0.750000	0.250000
N71	N7	0.250000	0.250000	0.750000
N81	N8	0.750000	0.750000	0.750000
C2411	C241	0.050500	0.550500	0.750000
C2421	C242	0.080200	0.580200	0.750000
C2431	C243	0.136000	0.636000	0.750000
C2441	C244	0.165500	0.665500	0.750000
C2451	C245	0.223500	0.723500	0.750000
C2461	C246	0.949500	0.449500	0.750000
C2471	C247	0.919800	0.419800	0.750000
C2481	C248	0.864000	0.364000	0.750000
C2491	C249	0.834500	0.334500	0.750000
C2501	C250	0.776500	0.276500	0.750000
C2511	C251	0.949500	0.550500	0.250000
C2521	C252	0.919800	0.580200	0.250000
C2531	C253	0.864000	0.636000	0.250000
C2541	C254	0.834500	0.665500	0.250000
C2551	C255	0.776500	0.723500	0.250000
C2561	C256	0.050500	0.449500	0.250000
C2571	C257	0.080200	0.419800	0.250000
C2581	C258	0.136000	0.364000	0.250000
C2591	C259	0.165500	0.334500	0.250000
C2601	C260	0.223500	0.276500	0.250000
C2611	C261	0.750000	0.050500	0.550500
C2621	C262	0.750000	0.080200	0.580200
C2631	C263	0.750000	0.136000	0.636000
C2641	C264	0.750000	0.165500	0.665500
C2651	C265	0.750000	0.223500	0.723500
C2661	C266	0.750000	0.949500	0.449500
C2671	C267	0.750000	0.919800	0.419800
C2681	C268	0.750000	0.864000	0.364000
C2691	C269	0.750000	0.834500	0.334500
C2701	C270	0.750000	0.776500	0.276500
C2711	C271	0.250000	0.949500	0.550500
C2721	C272	0.250000	0.919800	0.580200
C2731	C273	0.250000	0.864000	0.636000
C2741	C274	0.250000	0.834500	0.665500
C2751	C275	0.250000	0.776500	0.723500
C2761	C276	0.250000	0.050500	0.449500
C2771	C277	0.250000	0.080200	0.419800
C2781	C278	0.250000	0.136000	0.364000
C2791	C279	0.250000	0.165500	0.334500
C2801	C280	0.250000	0.223500	0.276500
C2811	C281	0.550500	0.750000	0.050500
C2821	C282	0.580200	0.750000	0.080200
C2831	C283	0.636000	0.750000	0.136000
C2841	C284	0.665500	0.750000	0.165500
C2851	C285	0.723500	0.750000	0.223500
C2861	C286	0.449500	0.750000	0.949500
C2871	C287	0.419800	0.750000	0.919800
C2881	C288	0.364000	0.750000	0.864000
C2891	C289	0.334500	0.750000	0.834500
C2901	C290	0.276500	0.750000	0.776500
C2911	C291	0.550500	0.250000	0.949500
C2921	C292	0.580200	0.250000	0.919800
C2931	C293	0.636000	0.250000	0.864000
C2941	C294	0.665500	0.250000	0.834500
C2951	C295	0.723500	0.250000	0.776500
C2961	C296	0.449500	0.250000	0.050500
C2971	C297	0.419800	0.250000	0.080200
C2981	C298	0.364000	0.250000	0.136000
C2991	C299	0.334500	0.250000	0.165500
C3001	C300	0.276500	0.250000	0.223500
C3011	C301	0.949500	0.449500	0.250000
C3021	C302	0.919800	0.419800	0.250000
C3031	C303	0.864000	0.364000	0.250000
C3041	C304	0.834500	0.334500	0.250000
C3051	C305	0.776500	0.276500	0.250000
C3061	C306	0.050500	0.550500	0.250000
C3071	C307	0.080200	0.580200	0.250000
C3081	C308	0.136000	0.636000	0.250000
C3091	C309	0.165500	0.665500	0.250000
C3101	C310	0.223500	0.723500	0.250000
C3111	C311	0.050500	0.449500	0.750000
C3121	C312	0.080200	0.419800	0.750000
C3131	C313	0.136000	0.364000	0.750000
C3141	C314	0.165500	0.334500	0.750000
C3151	C315	0.223500	0.276500	0.750000
C3161	C316	0.949500	0.550500	0.750000
C3171	C317	0.919800	0.580200	0.750000
C3181	C318	0.864000	0.636000	0.750000
C3191	C319	0.834500	0.665500	0.750000
C3201	C320	0.776500	0.723500	0.750000
C3211	C321	0.250000	0.949500	0.449500
C3221	C322	0.250000	0.919800	0.419800
C3231	C323	0.250000	0.864000	0.364000
C3241	C324	0.250000	0.834500	0.334500
C3251	C325	0.250000	0.776500	0.276500
C3261	C326	0.250000	0.050500	0.550500
C3271	C327	0.250000	0.080200	0.580200
C3281	C328	0.250000	0.136000	0.636000
C3291	C329	0.250000	0.165500	0.665500
C3301	C330	0.250000	0.223500	0.723500
C3311	C331	0.750000	0.050500	0.449500
C3321	C332	0.750000	0.080200	0.419800
C3331	C333	0.750000	0.136000	0.364000
C3341	C334	0.750000	0.165500	0.334500
C3351	C335	0.750000	0.223500	0.276500
C3361	C336	0.750000	0.949500	0.550500
C3371	C337	0.750000	0.919800	0.580200
C3381	C338	0.750000	0.864000	0.636000
C3391	C339	0.750000	0.834500	0.665500
C3401	C340	0.750000	0.776500	0.723500
C3411	C341	0.449500	0.250000	0.949500
C3421	C342	0.419800	0.250000	0.919800
C3431	C343	0.364000	0.250000	0.864000
C3441	C344	0.334500	0.250000	0.834500
C3451	C345	0.276500	0.250000	0.776500
C3461	C346	0.550500	0.250000	0.050500
C3471	C347	0.580200	0.250000	0.080200
C3481	C348	0.636000	0.250000	0.136000
C3491	C349	0.665500	0.250000	0.165500
C3501	C350	0.723500	0.250000	0.223500
C3511	C351	0.449500	0.750000	0.050500
C3521	C352	0.419800	0.750000	0.080200
C3531	C353	0.364000	0.750000	0.136000
C3541	C354	0.334500	0.750000	0.165500
C3551	C355	0.276500	0.750000	0.223500
C3561	C356	0.550500	0.750000	0.949500
C3571	C357	0.580200	0.750000	0.919800
C3581	C358	0.636000	0.750000	0.864000
C3591	C359	0.665500	0.750000	0.834500
C3601	C360	0.723500	0.750000	0.776500
C3611	C361	0.250000	0.693600	0.806400
C3621	C362	0.750000	0.306400	0.806400
C3631	C363	0.750000	0.693600	0.193600
C3641	C364	0.250000	0.306400	0.193600
C3651	C365	0.806400	0.250000	0.693600
C3661	C366	0.806400	0.750000	0.306400
C3671	C367	0.193600	0.750000	0.693600
C3681	C368	0.193600	0.250000	0.306400
C3691	C369	0.693600	0.806400	0.250000
C3701	C370	0.306400	0.806400	0.750000
C3711	C371	0.693600	0.193600	0.750000
C3721	C372	0.306400	0.193600	0.250000
C3731	C373	0.750000	0.306400	0.193600
C3741	C374	0.250000	0.693600	0.193600
C3751	C375	0.250000	0.306400	0.806400
C3761	C376	0.750000	0.693600	0.806400
C3771	C377	0.193600	0.750000	0.306400
C3781	C378	0.193600	0.250000	0.693600
C3791	C379	0.806400	0.250000	0.306400
C3801	C380	0.806400	0.750000	0.693600
C3811	C381	0.306400	0.193600	0.750000
C3821	C382	0.693600	0.193600	0.250000
C3831	C383	0.306400	0.806400	0.250000
C3841	C384	0.693600	0.806400	0.750000
