data_AVAKAL_clean_PM
_symmetry_space_group_name_H-M	'P1'
_cell_length_a	35.490000
_cell_length_b	35.490000
_cell_length_c	35.490000
_cell_angle_alpha	90.000000
_cell_angle_beta	90.000000
_cell_angle_gamma	90.000000
_symmetry_Int_Tables_number 1

loop_
_symmetry_equiv_pos_as_xyz
'x,y,z'

loop_
_atom_site_label
_atom_site_type_symbol
_atom_site_fract_x
_atom_site_fract_y
_atom_site_fract_z
O11	O1	0.462540	0.037460	0.219220
C11	C1	0.406700	0.095100	0.218100
H11	H1	0.415700	0.087200	0.194800
C21	C2	0.377000	0.125100	0.219100
H21	H2	0.369400	0.134500	0.195900
C31	C3	0.319800	0.178500	0.214100
H31	H3	0.329300	0.168500	0.191900
C41	C4	0.293200	0.204400	0.216400
H41	H4	0.282600	0.212800	0.194000
O21	O2	0.537460	0.962540	0.219220
C51	C5	0.593300	0.904900	0.218100
H51	H5	0.584300	0.912800	0.194800
C61	C6	0.623000	0.874900	0.219100
H61	H6	0.630600	0.865500	0.195900
C71	C7	0.680200	0.821500	0.214100
H71	H7	0.670700	0.831500	0.191900
C81	C8	0.706800	0.795600	0.216400
H81	H8	0.717400	0.787200	0.194000
O31	O3	0.537460	0.037460	0.780780
C91	C9	0.593300	0.095100	0.781900
H91	H9	0.584300	0.087200	0.805200
C101	C10	0.623000	0.125100	0.780900
H101	H10	0.630600	0.134500	0.804100
C111	C11	0.680200	0.178500	0.785900
H111	H11	0.670700	0.168500	0.808100
C121	C12	0.706800	0.204400	0.783600
H121	H12	0.717400	0.212800	0.806000
O41	O4	0.462540	0.962540	0.780780
C131	C13	0.406700	0.904900	0.781900
H131	H13	0.415700	0.912800	0.805200
C141	C14	0.377000	0.874900	0.780900
H141	H14	0.369400	0.865500	0.804100
C151	C15	0.319800	0.821500	0.785900
H151	H15	0.329300	0.831500	0.808100
C161	C16	0.293200	0.795600	0.783600
H161	H16	0.282600	0.787200	0.806000
O51	O5	0.219220	0.462540	0.037460
C171	C17	0.218100	0.406700	0.095100
H171	H17	0.194800	0.415700	0.087200
C181	C18	0.219100	0.377000	0.125100
H181	H18	0.195900	0.369400	0.134500
C191	C19	0.214100	0.319800	0.178500
H191	H19	0.191900	0.329300	0.168500
C201	C20	0.216400	0.293200	0.204400
H201	H20	0.194000	0.282600	0.212800
O61	O6	0.219220	0.537460	0.962540
C211	C21	0.218100	0.593300	0.904900
H211	H21	0.194800	0.584300	0.912800
C221	C22	0.219100	0.623000	0.874900
H221	H22	0.195900	0.630600	0.865500
C231	C23	0.214100	0.680200	0.821500
H231	H23	0.191900	0.670700	0.831500
C241	C24	0.216400	0.706800	0.795600
H241	H24	0.194000	0.717400	0.787200
O71	O7	0.780780	0.537460	0.037460
C251	C25	0.781900	0.593300	0.095100
H251	H25	0.805200	0.584300	0.087200
C261	C26	0.780900	0.623000	0.125100
H261	H26	0.804100	0.630600	0.134500
C271	C27	0.785900	0.680200	0.178500
H271	H27	0.808100	0.670700	0.168500
C281	C28	0.783600	0.706800	0.204400
H281	H28	0.806000	0.717400	0.212800
O81	O8	0.780780	0.462540	0.962540
C291	C29	0.781900	0.406700	0.904900
H291	H29	0.805200	0.415700	0.912800
C301	C30	0.780900	0.377000	0.874900
H301	H30	0.804100	0.369400	0.865500
C311	C31	0.785900	0.319800	0.821500
H311	H31	0.808100	0.329300	0.831500
C321	C32	0.783600	0.293200	0.795600
H321	H32	0.806000	0.282600	0.787200
O91	O9	0.037460	0.219220	0.462540
C331	C33	0.095100	0.218100	0.406700
H331	H33	0.087200	0.194800	0.415700
C341	C34	0.125100	0.219100	0.377000
H341	H34	0.134500	0.195900	0.369400
C351	C35	0.178500	0.214100	0.319800
H351	H35	0.168500	0.191900	0.329300
C361	C36	0.204400	0.216400	0.293200
H361	H36	0.212800	0.194000	0.282600
O101	O10	0.962540	0.219220	0.537460
C371	C37	0.904900	0.218100	0.593300
H371	H37	0.912800	0.194800	0.584300
C381	C38	0.874900	0.219100	0.623000
H381	H38	0.865500	0.195900	0.630600
C391	C39	0.821500	0.214100	0.680200
H391	H39	0.831500	0.191900	0.670700
C401	C40	0.795600	0.216400	0.706800
H401	H40	0.787200	0.194000	0.717400
O111	O11	0.037460	0.780780	0.537460
C411	C41	0.095100	0.781900	0.593300
H411	H41	0.087200	0.805200	0.584300
C421	C42	0.125100	0.780900	0.623000
H421	H42	0.134500	0.804100	0.630600
C431	C43	0.178500	0.785900	0.680200
H431	H43	0.168500	0.808100	0.670700
C441	C44	0.204400	0.783600	0.706800
H441	H44	0.212800	0.806000	0.717400
O121	O12	0.962540	0.780780	0.462540
C451	C45	0.904900	0.781900	0.406700
H451	H45	0.912800	0.805200	0.415700
C461	C46	0.874900	0.780900	0.377000
H461	H46	0.865500	0.804100	0.369400
C471	C47	0.821500	0.785900	0.319800
H471	H47	0.831500	0.808100	0.329300
C481	C48	0.795600	0.783600	0.293200
H481	H48	0.787200	0.806000	0.282600
O131	O13	0.537460	0.962540	0.280780
C491	C49	0.595100	0.906700	0.281900
H491	H49	0.587200	0.915700	0.305200
C501	C50	0.625100	0.877000	0.280900
H501	H50	0.634500	0.869400	0.304100
C511	C51	0.678500	0.819800	0.285900
H511	H51	0.668500	0.829300	0.308100
C521	C52	0.704400	0.793200	0.283600
H521	H52	0.712800	0.782600	0.306000
O141	O14	0.462540	0.037460	0.280780
C531	C53	0.404900	0.093300	0.281900
H531	H53	0.412800	0.084300	0.305200
C541	C54	0.374900	0.123000	0.280900
H541	H54	0.365500	0.130600	0.304100
C551	C55	0.321500	0.180200	0.285900
H551	H55	0.331500	0.170700	0.308100
C561	C56	0.295600	0.206800	0.283600
H561	H56	0.287200	0.217400	0.306000
O151	O15	0.537460	0.037460	0.719220
C571	C57	0.595100	0.093300	0.718100
H571	H57	0.587200	0.084300	0.694800
C581	C58	0.625100	0.123000	0.719100
H581	H58	0.634500	0.130600	0.695900
C591	C59	0.678500	0.180200	0.714100
H591	H59	0.668500	0.170700	0.691900
C601	C60	0.704400	0.206800	0.716400
H601	H60	0.712800	0.217400	0.694000
O161	O16	0.462540	0.962540	0.719220
C611	C61	0.404900	0.906700	0.718100
H611	H61	0.412800	0.915700	0.694800
C621	C62	0.374900	0.877000	0.719100
H621	H62	0.365500	0.869400	0.695900
C631	C63	0.321500	0.819800	0.714100
H631	H63	0.331500	0.829300	0.691900
C641	C64	0.295600	0.793200	0.716400
H641	H64	0.287200	0.782600	0.694000
O171	O17	0.962540	0.719220	0.462540
C651	C65	0.906700	0.718100	0.404900
H651	H65	0.915700	0.694800	0.412800
C661	C66	0.877000	0.719100	0.374900
H661	H66	0.869400	0.695900	0.365500
C671	C67	0.819800	0.714100	0.321500
H671	H67	0.829300	0.691900	0.331500
C681	C68	0.793200	0.716400	0.295600
H681	H68	0.782600	0.694000	0.287200
O181	O18	0.037460	0.719220	0.537460
C691	C69	0.093300	0.718100	0.595100
H691	H69	0.084300	0.694800	0.587200
C701	C70	0.123000	0.719100	0.625100
H701	H70	0.130600	0.695900	0.634500
C711	C71	0.180200	0.714100	0.678500
H711	H71	0.170700	0.691900	0.668500
C721	C72	0.206800	0.716400	0.704400
H721	H72	0.217400	0.694000	0.712800
O191	O19	0.037460	0.280780	0.462540
C731	C73	0.093300	0.281900	0.404900
H731	H73	0.084300	0.305200	0.412800
C741	C74	0.123000	0.280900	0.374900
H741	H74	0.130600	0.304100	0.365500
C751	C75	0.180200	0.285900	0.321500
H751	H75	0.170700	0.308100	0.331500
C761	C76	0.206800	0.283600	0.295600
H761	H76	0.217400	0.306000	0.287200
O201	O20	0.962540	0.280780	0.537460
C771	C77	0.906700	0.281900	0.595100
H771	H77	0.915700	0.305200	0.587200
C781	C78	0.877000	0.280900	0.625100
H781	H78	0.869400	0.304100	0.634500
C791	C79	0.819800	0.285900	0.678500
H791	H79	0.829300	0.308100	0.668500
C801	C80	0.793200	0.283600	0.704400
H801	H80	0.782600	0.306000	0.712800
O211	O21	0.719220	0.537460	0.037460
C811	C81	0.718100	0.595100	0.093300
H811	H81	0.694800	0.587200	0.084300
C821	C82	0.719100	0.625100	0.123000
H821	H82	0.695900	0.634500	0.130600
C831	C83	0.714100	0.678500	0.180200
H831	H83	0.691900	0.668500	0.170700
C841	C84	0.716400	0.704400	0.206800
H841	H84	0.694000	0.712800	0.217400
O221	O22	0.719220	0.462540	0.962540
C851	C85	0.718100	0.404900	0.906700
H851	H85	0.694800	0.412800	0.915700
C861	C86	0.719100	0.374900	0.877000
H861	H86	0.695900	0.365500	0.869400
C871	C87	0.714100	0.321500	0.819800
H871	H87	0.691900	0.331500	0.829300
C881	C88	0.716400	0.295600	0.793200
H881	H88	0.694000	0.287200	0.782600
O231	O23	0.280780	0.537460	0.962540
C891	C89	0.281900	0.595100	0.906700
H891	H89	0.305200	0.587200	0.915700
C901	C90	0.280900	0.625100	0.877000
H901	H90	0.304100	0.634500	0.869400
C911	C91	0.285900	0.678500	0.819800
H911	H91	0.308100	0.668500	0.829300
C921	C92	0.283600	0.704400	0.793200
H921	H92	0.306000	0.712800	0.782600
O241	O24	0.280780	0.462540	0.037460
C931	C93	0.281900	0.404900	0.093300
H931	H93	0.305200	0.412800	0.084300
C941	C94	0.280900	0.374900	0.123000
H941	H94	0.304100	0.365500	0.130600
C951	C95	0.285900	0.321500	0.180200
H951	H95	0.308100	0.331500	0.170700
C961	C96	0.283600	0.295600	0.206800
H961	H96	0.306000	0.287200	0.217400
O251	O25	0.537460	0.962540	0.780780
C971	C97	0.593300	0.904900	0.781900
H971	H97	0.584300	0.912800	0.805200
C981	C98	0.623000	0.874900	0.780900
H981	H98	0.630600	0.865500	0.804100
C991	C99	0.680200	0.821500	0.785900
H991	H99	0.670700	0.831500	0.808100
C1001	C100	0.706800	0.795600	0.783600
H1001	H100	0.717400	0.787200	0.806000
O261	O26	0.462540	0.037460	0.780780
C1011	C101	0.406700	0.095100	0.781900
H1011	H101	0.415700	0.087200	0.805200
C1021	C102	0.377000	0.125100	0.780900
H1021	H102	0.369400	0.134500	0.804100
C1031	C103	0.319800	0.178500	0.785900
H1031	H103	0.329300	0.168500	0.808100
C1041	C104	0.293200	0.204400	0.783600
H1041	H104	0.282600	0.212800	0.806000
O271	O27	0.462540	0.962540	0.219220
C1051	C105	0.406700	0.904900	0.218100
H1051	H105	0.415700	0.912800	0.194800
C1061	C106	0.377000	0.874900	0.219100
H1061	H106	0.369400	0.865500	0.195900
C1071	C107	0.319800	0.821500	0.214100
H1071	H107	0.329300	0.831500	0.191900
C1081	C108	0.293200	0.795600	0.216400
H1081	H108	0.282600	0.787200	0.194000
O281	O28	0.537460	0.037460	0.219220
C1091	C109	0.593300	0.095100	0.218100
H1091	H109	0.584300	0.087200	0.194800
C1101	C110	0.623000	0.125100	0.219100
H1101	H110	0.630600	0.134500	0.195900
C1111	C111	0.680200	0.178500	0.214100
H1111	H111	0.670700	0.168500	0.191900
C1121	C112	0.706800	0.204400	0.216400
H1121	H112	0.717400	0.212800	0.194000
O291	O29	0.780780	0.537460	0.962540
C1131	C113	0.781900	0.593300	0.904900
H1131	H113	0.805200	0.584300	0.912800
C1141	C114	0.780900	0.623000	0.874900
H1141	H114	0.804100	0.630600	0.865500
C1151	C115	0.785900	0.680200	0.821500
H1151	H115	0.808100	0.670700	0.831500
C1161	C116	0.783600	0.706800	0.795600
H1161	H116	0.806000	0.717400	0.787200
O301	O30	0.780780	0.462540	0.037460
C1171	C117	0.781900	0.406700	0.095100
H1171	H117	0.805200	0.415700	0.087200
C1181	C118	0.780900	0.377000	0.125100
H1181	H118	0.804100	0.369400	0.134500
C1191	C119	0.785900	0.319800	0.178500
H1191	H119	0.808100	0.329300	0.168500
C1201	C120	0.783600	0.293200	0.204400
H1201	H120	0.806000	0.282600	0.212800
O311	O31	0.219220	0.462540	0.962540
C1211	C121	0.218100	0.406700	0.904900
H1211	H121	0.194800	0.415700	0.912800
C1221	C122	0.219100	0.377000	0.874900
H1221	H122	0.195900	0.369400	0.865500
C1231	C123	0.214100	0.319800	0.821500
H1231	H123	0.191900	0.329300	0.831500
C1241	C124	0.216400	0.293200	0.795600
H1241	H124	0.194000	0.282600	0.787200
O321	O32	0.219220	0.537460	0.037460
C1251	C125	0.218100	0.593300	0.095100
H1251	H125	0.194800	0.584300	0.087200
C1261	C126	0.219100	0.623000	0.125100
H1261	H126	0.195900	0.630600	0.134500
C1271	C127	0.214100	0.680200	0.178500
H1271	H127	0.191900	0.670700	0.168500
C1281	C128	0.216400	0.706800	0.204400
H1281	H128	0.194000	0.717400	0.212800
O331	O33	0.962540	0.780780	0.537460
C1291	C129	0.904900	0.781900	0.593300
H1291	H129	0.912800	0.805200	0.584300
C1301	C130	0.874900	0.780900	0.623000
H1301	H130	0.865500	0.804100	0.630600
C1311	C131	0.821500	0.785900	0.680200
H1311	H131	0.831500	0.808100	0.670700
C1321	C132	0.795600	0.783600	0.706800
H1321	H132	0.787200	0.806000	0.717400
O341	O34	0.037460	0.780780	0.462540
C1331	C133	0.095100	0.781900	0.406700
H1331	H133	0.087200	0.805200	0.415700
C1341	C134	0.125100	0.780900	0.377000
H1341	H134	0.134500	0.804100	0.369400
C1351	C135	0.178500	0.785900	0.319800
H1351	H135	0.168500	0.808100	0.329300
C1361	C136	0.204400	0.783600	0.293200
H1361	H136	0.212800	0.806000	0.282600
O351	O35	0.962540	0.219220	0.462540
C1371	C137	0.904900	0.218100	0.406700
H1371	H137	0.912800	0.194800	0.415700
C1381	C138	0.874900	0.219100	0.377000
H1381	H138	0.865500	0.195900	0.369400
C1391	C139	0.821500	0.214100	0.319800
H1391	H139	0.831500	0.191900	0.329300
C1401	C140	0.795600	0.216400	0.293200
H1401	H140	0.787200	0.194000	0.282600
O361	O36	0.037460	0.219220	0.537460
C1411	C141	0.095100	0.218100	0.593300
H1411	H141	0.087200	0.194800	0.584300
C1421	C142	0.125100	0.219100	0.623000
H1421	H142	0.134500	0.195900	0.630600
C1431	C143	0.178500	0.214100	0.680200
H1431	H143	0.168500	0.191900	0.670700
C1441	C144	0.204400	0.216400	0.706800
H1441	H144	0.212800	0.194000	0.717400
O371	O37	0.462540	0.037460	0.719220
C1451	C145	0.404900	0.093300	0.718100
H1451	H145	0.412800	0.084300	0.694800
C1461	C146	0.374900	0.123000	0.719100
H1461	H146	0.365500	0.130600	0.695900
C1471	C147	0.321500	0.180200	0.714100
H1471	H147	0.331500	0.170700	0.691900
C1481	C148	0.295600	0.206800	0.716400
H1481	H148	0.287200	0.217400	0.694000
O381	O38	0.537460	0.962540	0.719220
C1491	C149	0.595100	0.906700	0.718100
H1491	H149	0.587200	0.915700	0.694800
C1501	C150	0.625100	0.877000	0.719100
H1501	H150	0.634500	0.869400	0.695900
C1511	C151	0.678500	0.819800	0.714100
H1511	H151	0.668500	0.829300	0.691900
C1521	C152	0.704400	0.793200	0.716400
H1521	H152	0.712800	0.782600	0.694000
O391	O39	0.462540	0.962540	0.280780
C1531	C153	0.404900	0.906700	0.281900
H1531	H153	0.412800	0.915700	0.305200
C1541	C154	0.374900	0.877000	0.280900
H1541	H154	0.365500	0.869400	0.304100
C1551	C155	0.321500	0.819800	0.285900
H1551	H155	0.331500	0.829300	0.308100
C1561	C156	0.295600	0.793200	0.283600
H1561	H156	0.287200	0.782600	0.306000
O401	O40	0.537460	0.037460	0.280780
C1571	C157	0.595100	0.093300	0.281900
H1571	H157	0.587200	0.084300	0.305200
C1581	C158	0.625100	0.123000	0.280900
H1581	H158	0.634500	0.130600	0.304100
C1591	C159	0.678500	0.180200	0.285900
H1591	H159	0.668500	0.170700	0.308100
C1601	C160	0.704400	0.206800	0.283600
H1601	H160	0.712800	0.217400	0.306000
O411	O41	0.037460	0.280780	0.537460
C1611	C161	0.093300	0.281900	0.595100
H1611	H161	0.084300	0.305200	0.587200
C1621	C162	0.123000	0.280900	0.625100
H1621	H162	0.130600	0.304100	0.634500
C1631	C163	0.180200	0.285900	0.678500
H1631	H163	0.170700	0.308100	0.668500
C1641	C164	0.206800	0.283600	0.704400
H1641	H164	0.217400	0.306000	0.712800
O421	O42	0.962540	0.280780	0.462540
C1651	C165	0.906700	0.281900	0.404900
H1651	H165	0.915700	0.305200	0.412800
C1661	C166	0.877000	0.280900	0.374900
H1661	H166	0.869400	0.304100	0.365500
C1671	C167	0.819800	0.285900	0.321500
H1671	H167	0.829300	0.308100	0.331500
C1681	C168	0.793200	0.283600	0.295600
H1681	H168	0.782600	0.306000	0.287200
O431	O43	0.962540	0.719220	0.537460
C1691	C169	0.906700	0.718100	0.595100
H1691	H169	0.915700	0.694800	0.587200
C1701	C170	0.877000	0.719100	0.625100
H1701	H170	0.869400	0.695900	0.634500
C1711	C171	0.819800	0.714100	0.678500
H1711	H171	0.829300	0.691900	0.668500
C1721	C172	0.793200	0.716400	0.704400
H1721	H172	0.782600	0.694000	0.712800
O441	O44	0.037460	0.719220	0.462540
C1731	C173	0.093300	0.718100	0.404900
H1731	H173	0.084300	0.694800	0.412800
C1741	C174	0.123000	0.719100	0.374900
H1741	H174	0.130600	0.695900	0.365500
C1751	C175	0.180200	0.714100	0.321500
H1751	H175	0.170700	0.691900	0.331500
C1761	C176	0.206800	0.716400	0.295600
H1761	H176	0.217400	0.694000	0.287200
O451	O45	0.280780	0.462540	0.962540
C1771	C177	0.281900	0.404900	0.906700
H1771	H177	0.305200	0.412800	0.915700
C1781	C178	0.280900	0.374900	0.877000
H1781	H178	0.304100	0.365500	0.869400
C1791	C179	0.285900	0.321500	0.819800
H1791	H179	0.308100	0.331500	0.829300
C1801	C180	0.283600	0.295600	0.793200
H1801	H180	0.306000	0.287200	0.782600
O461	O46	0.280780	0.537460	0.037460
C1811	C181	0.281900	0.595100	0.093300
H1811	H181	0.305200	0.587200	0.084300
C1821	C182	0.280900	0.625100	0.123000
H1821	H182	0.304100	0.634500	0.130600
C1831	C183	0.285900	0.678500	0.180200
H1831	H183	0.308100	0.668500	0.170700
C1841	C184	0.283600	0.704400	0.206800
H1841	H184	0.306000	0.712800	0.217400
O471	O47	0.719220	0.462540	0.037460
C1851	C185	0.718100	0.404900	0.093300
H1851	H185	0.694800	0.412800	0.084300
C1861	C186	0.719100	0.374900	0.123000
H1861	H186	0.695900	0.365500	0.130600
C1871	C187	0.714100	0.321500	0.180200
H1871	H187	0.691900	0.331500	0.170700
C1881	C188	0.716400	0.295600	0.206800
H1881	H188	0.694000	0.287200	0.217400
O481	O48	0.719220	0.537460	0.962540
C1891	C189	0.718100	0.595100	0.906700
H1891	H189	0.694800	0.587200	0.915700
C1901	C190	0.719100	0.625100	0.877000
H1901	H190	0.695900	0.634500	0.869400
C1911	C191	0.714100	0.678500	0.819800
H1911	H191	0.691900	0.668500	0.829300
C1921	C192	0.716400	0.704400	0.793200
H1921	H192	0.694000	0.712800	0.782600
Cu11	Cu1	0.500000	0.000000	0.212790
Cu21	Cu2	0.500000	0.000000	0.787210
Cu31	Cu3	0.212790	0.500000	0.000000
Cu41	Cu4	0.787210	0.500000	0.000000
Cu51	Cu5	0.000000	0.212790	0.500000
Cu61	Cu6	0.000000	0.787210	0.500000
Cu71	Cu7	0.500000	0.000000	0.287210
Cu81	Cu8	0.500000	0.000000	0.712790
Cu91	Cu9	0.000000	0.712790	0.500000
Cu101	Cu10	0.000000	0.287210	0.500000
Cu111	Cu11	0.712790	0.500000	0.000000
Cu121	Cu12	0.287210	0.500000	0.000000
N11	N1	0.250000	0.250000	0.250000
N21	N2	0.750000	0.750000	0.250000
N31	N3	0.750000	0.250000	0.750000
N41	N4	0.250000	0.750000	0.750000
N51	N5	0.750000	0.750000	0.750000
N61	N6	0.250000	0.250000	0.750000
N71	N7	0.250000	0.750000	0.250000
N81	N8	0.750000	0.250000	0.250000
C1931	C193	0.449200	0.050800	0.250000
C1941	C194	0.421000	0.079000	0.250000
C1951	C195	0.359600	0.140400	0.250000
C1961	C196	0.331300	0.168700	0.250000
C1971	C197	0.279450	0.220550	0.250000
C1981	C198	0.550800	0.949200	0.250000
C1991	C199	0.579000	0.921000	0.250000
C2001	C200	0.640400	0.859600	0.250000
C2011	C201	0.668700	0.831300	0.250000
C2021	C202	0.720550	0.779450	0.250000
C2031	C203	0.550800	0.050800	0.750000
C2041	C204	0.579000	0.079000	0.750000
C2051	C205	0.640400	0.140400	0.750000
C2061	C206	0.668700	0.168700	0.750000
C2071	C207	0.720550	0.220550	0.750000
C2081	C208	0.449200	0.949200	0.750000
C2091	C209	0.421000	0.921000	0.750000
C2101	C210	0.359600	0.859600	0.750000
C2111	C211	0.331300	0.831300	0.750000
C2121	C212	0.279450	0.779450	0.750000
C2131	C213	0.250000	0.449200	0.050800
C2141	C214	0.250000	0.421000	0.079000
C2151	C215	0.250000	0.359600	0.140400
C2161	C216	0.250000	0.331300	0.168700
C2171	C217	0.250000	0.279450	0.220550
C2181	C218	0.250000	0.550800	0.949200
C2191	C219	0.250000	0.579000	0.921000
C2201	C220	0.250000	0.640400	0.859600
C2211	C221	0.250000	0.668700	0.831300
C2221	C222	0.250000	0.720550	0.779450
C2231	C223	0.750000	0.550800	0.050800
C2241	C224	0.750000	0.579000	0.079000
C2251	C225	0.750000	0.640400	0.140400
C2261	C226	0.750000	0.668700	0.168700
C2271	C227	0.750000	0.720550	0.220550
C2281	C228	0.750000	0.449200	0.949200
C2291	C229	0.750000	0.421000	0.921000
C2301	C230	0.750000	0.359600	0.859600
C2311	C231	0.750000	0.331300	0.831300
C2321	C232	0.750000	0.279450	0.779450
C2331	C233	0.050800	0.250000	0.449200
C2341	C234	0.079000	0.250000	0.421000
C2351	C235	0.140400	0.250000	0.359600
C2361	C236	0.168700	0.250000	0.331300
C2371	C237	0.220550	0.250000	0.279450
C2381	C238	0.949200	0.250000	0.550800
C2391	C239	0.921000	0.250000	0.579000
C2401	C240	0.859600	0.250000	0.640400
C2411	C241	0.831300	0.250000	0.668700
C2421	C242	0.779450	0.250000	0.720550
C2431	C243	0.050800	0.750000	0.550800
C2441	C244	0.079000	0.750000	0.579000
C2451	C245	0.140400	0.750000	0.640400
C2461	C246	0.168700	0.750000	0.668700
C2471	C247	0.220550	0.750000	0.720550
C2481	C248	0.949200	0.750000	0.449200
C2491	C249	0.921000	0.750000	0.421000
C2501	C250	0.859600	0.750000	0.359600
C2511	C251	0.831300	0.750000	0.331300
C2521	C252	0.779450	0.750000	0.279450
C2531	C253	0.550800	0.949200	0.750000
C2541	C254	0.579000	0.921000	0.750000
C2551	C255	0.640400	0.859600	0.750000
C2561	C256	0.668700	0.831300	0.750000
C2571	C257	0.720550	0.779450	0.750000
C2581	C258	0.449200	0.050800	0.750000
C2591	C259	0.421000	0.079000	0.750000
C2601	C260	0.359600	0.140400	0.750000
C2611	C261	0.331300	0.168700	0.750000
C2621	C262	0.279450	0.220550	0.750000
C2631	C263	0.449200	0.949200	0.250000
C2641	C264	0.421000	0.921000	0.250000
C2651	C265	0.359600	0.859600	0.250000
C2661	C266	0.331300	0.831300	0.250000
C2671	C267	0.279450	0.779450	0.250000
C2681	C268	0.550800	0.050800	0.250000
C2691	C269	0.579000	0.079000	0.250000
C2701	C270	0.640400	0.140400	0.250000
C2711	C271	0.668700	0.168700	0.250000
C2721	C272	0.720550	0.220550	0.250000
C2731	C273	0.750000	0.550800	0.949200
C2741	C274	0.750000	0.579000	0.921000
C2751	C275	0.750000	0.640400	0.859600
C2761	C276	0.750000	0.668700	0.831300
C2771	C277	0.750000	0.720550	0.779450
C2781	C278	0.750000	0.449200	0.050800
C2791	C279	0.750000	0.421000	0.079000
C2801	C280	0.750000	0.359600	0.140400
C2811	C281	0.750000	0.331300	0.168700
C2821	C282	0.750000	0.279450	0.220550
C2831	C283	0.250000	0.449200	0.949200
C2841	C284	0.250000	0.421000	0.921000
C2851	C285	0.250000	0.359600	0.859600
C2861	C286	0.250000	0.331300	0.831300
C2871	C287	0.250000	0.279450	0.779450
C2881	C288	0.250000	0.550800	0.050800
C2891	C289	0.250000	0.579000	0.079000
C2901	C290	0.250000	0.640400	0.140400
C2911	C291	0.250000	0.668700	0.168700
C2921	C292	0.250000	0.720550	0.220550
C2931	C293	0.949200	0.750000	0.550800
C2941	C294	0.921000	0.750000	0.579000
C2951	C295	0.859600	0.750000	0.640400
C2961	C296	0.831300	0.750000	0.668700
C2971	C297	0.779450	0.750000	0.720550
C2981	C298	0.050800	0.750000	0.449200
C2991	C299	0.079000	0.750000	0.421000
C3001	C300	0.140400	0.750000	0.359600
C3011	C301	0.168700	0.750000	0.331300
C3021	C302	0.220550	0.750000	0.279450
C3031	C303	0.949200	0.250000	0.449200
C3041	C304	0.921000	0.250000	0.421000
C3051	C305	0.859600	0.250000	0.359600
C3061	C306	0.831300	0.250000	0.331300
C3071	C307	0.779450	0.250000	0.279450
C3081	C308	0.050800	0.250000	0.550800
C3091	C309	0.079000	0.250000	0.579000
C3101	C310	0.140400	0.250000	0.640400
C3111	C311	0.168700	0.250000	0.668700
C3121	C312	0.220550	0.250000	0.720550
