data_AVAQIX_clean_PM
_symmetry_space_group_name_H-M	'P1'
_cell_length_a	12.339700
_cell_length_b	15.505000
_cell_length_c	18.943700
_cell_angle_alpha	90.000000
_cell_angle_beta	90.000000
_cell_angle_gamma	90.000000
_symmetry_Int_Tables_number 1

loop_
_symmetry_equiv_pos_as_xyz
'x,y,z'

loop_
_atom_site_label
_atom_site_type_symbol
_atom_site_fract_x
_atom_site_fract_y
_atom_site_fract_z
Cd11	Cd1	0.688660	0.784000	0.317820
Cd21	Cd2	0.311340	0.284000	0.182180
H11	H1	0.307000	0.076800	0.158100
H21	H2	0.395700	0.950100	0.184400
H31	H3	0.580700	0.082800	0.320400
H41	H4	0.487900	0.205500	0.289400
H51	H5	0.345100	0.177100	0.034300
H61	H6	0.459700	0.158000	0.940300
H71	H7	0.615900	0.370800	0.999600
H81	H8	0.500600	0.381600	0.093700
H91	H9	0.693000	0.576800	0.341900
H101	H10	0.604300	0.450100	0.315600
H111	H11	0.419300	0.582800	0.179600
H121	H12	0.512100	0.705500	0.210600
H131	H13	0.654900	0.677100	0.465700
H141	H14	0.540300	0.658000	0.559700
H151	H15	0.384100	0.870800	0.500400
H161	H16	0.499400	0.881600	0.406300
C11	C1	0.363300	0.077980	0.190720
C21	C2	0.416080	0.001290	0.206310
C31	C3	0.499490	0.002440	0.254910
C41	C4	0.525840	0.080160	0.286830
C51	C5	0.469360	0.153570	0.267920
C61	C6	0.561330	0.921440	0.274170
C71	C7	0.401850	0.215810	0.028090
C81	C8	0.470170	0.203920	0.971100
C91	C9	0.553860	0.261050	0.960640
C101	C10	0.562650	0.329160	0.006400
C111	C11	0.492170	0.335670	0.062580
C121	C12	0.637780	0.247140	0.903940
C131	C13	0.636700	0.577980	0.309280
C141	C14	0.583920	0.501290	0.293690
C151	C15	0.500510	0.502440	0.245090
C161	C16	0.474160	0.580160	0.213170
C171	C17	0.530640	0.653570	0.232080
C181	C18	0.438670	0.421440	0.225830
C191	C19	0.598150	0.715810	0.471910
C201	C20	0.529830	0.703920	0.528900
C211	C21	0.446140	0.761050	0.539360
C221	C22	0.437350	0.829160	0.493600
C231	C23	0.507830	0.835670	0.437420
C241	C24	0.362220	0.747140	0.596060
N11	N1	0.389330	0.153740	0.220340
N21	N2	0.412850	0.279580	0.074490
N31	N3	0.610670	0.653740	0.279660
N41	N4	0.587150	0.779580	0.425510
O11	O1	0.521590	0.849930	0.258830
O21	O2	0.648930	0.930150	0.305860
O31	O3	0.654220	0.171890	0.883370
O41	O4	0.690240	0.311160	0.882920
O51	O5	0.478410	0.349930	0.241170
O61	O6	0.351070	0.430150	0.194140
O71	O7	0.345780	0.671890	0.616630
O81	O8	0.309760	0.811160	0.617080
Cd31	Cd3	0.811340	0.216000	0.817820
Cd41	Cd4	0.188660	0.716000	0.682180
H171	H17	0.154900	0.822900	0.534300
H181	H18	0.040300	0.842000	0.440300
H191	H19	0.884100	0.629200	0.499600
H201	H20	0.999400	0.618400	0.593700
H211	H21	0.193000	0.923200	0.658100
H221	H22	0.104300	0.049900	0.684400
H231	H23	0.919300	0.917200	0.820400
H241	H24	0.012100	0.794500	0.789400
H251	H25	0.845100	0.322900	0.965700
H261	H26	0.959700	0.342000	0.059700
H271	H27	0.115900	0.129200	0.000400
H281	H28	0.000600	0.118400	0.906300
H291	H29	0.807000	0.423200	0.841900
H301	H30	0.895700	0.549900	0.815600
H311	H31	0.080700	0.417200	0.679600
H321	H32	0.987900	0.294500	0.710600
C251	C25	0.098150	0.784190	0.528090
C261	C26	0.029830	0.796080	0.471100
C271	C27	0.946140	0.738950	0.460640
C281	C28	0.937350	0.670840	0.506400
C291	C29	0.007830	0.664330	0.562580
C301	C30	0.862220	0.752860	0.403940
C311	C31	0.136700	0.922020	0.690720
C321	C32	0.083920	0.998710	0.706310
C331	C33	0.000510	0.997560	0.754910
C341	C34	0.974160	0.919840	0.786830
C351	C35	0.030640	0.846430	0.767920
C361	C36	0.938670	0.078560	0.774170
C371	C37	0.901850	0.284190	0.971910
C381	C38	0.970170	0.296080	0.028900
C391	C39	0.053860	0.238950	0.039360
C401	C40	0.062650	0.170840	0.993600
C411	C41	0.992170	0.164330	0.937420
C421	C42	0.137780	0.252860	0.096060
C431	C43	0.863300	0.422020	0.809280
C441	C44	0.916080	0.498710	0.793690
C451	C45	0.999490	0.497560	0.745090
C461	C46	0.025840	0.419840	0.713170
C471	C47	0.969360	0.346430	0.732080
C481	C48	0.061330	0.578560	0.725830
N51	N5	0.087150	0.720420	0.574490
N61	N6	0.110670	0.846260	0.720340
N71	N7	0.912850	0.220420	0.925510
N81	N8	0.889330	0.346260	0.779660
O91	O9	0.845780	0.828110	0.383370
O101	O10	0.809760	0.688840	0.382920
O111	O11	0.978410	0.150070	0.758830
O121	O12	0.851070	0.069850	0.805860
O131	O13	0.154220	0.328110	0.116630
O141	O14	0.190240	0.188840	0.117080
O151	O15	0.021590	0.650070	0.741170
O161	O16	0.148930	0.569850	0.694140
Cd51	Cd5	0.311340	0.216000	0.682180
Cd61	Cd6	0.688660	0.716000	0.817820
H331	H33	0.693000	0.923200	0.841900
H341	H34	0.604300	0.049900	0.815600
H351	H35	0.419300	0.917200	0.679600
H361	H36	0.512100	0.794500	0.710600
H371	H37	0.654900	0.822900	0.965700
H381	H38	0.540300	0.842000	0.059700
H391	H39	0.384100	0.629200	0.000400
H401	H40	0.499400	0.618400	0.906300
H411	H41	0.307000	0.423200	0.658100
H421	H42	0.395700	0.549900	0.684400
H431	H43	0.580700	0.417200	0.820400
H441	H44	0.487900	0.294500	0.789400
H451	H45	0.345100	0.322900	0.534300
H461	H46	0.459700	0.342000	0.440300
H471	H47	0.615900	0.129200	0.499600
H481	H48	0.500600	0.118400	0.593700
C491	C49	0.636700	0.922020	0.809280
C501	C50	0.583920	0.998710	0.793690
C511	C51	0.500510	0.997560	0.745090
C521	C52	0.474160	0.919840	0.713170
C531	C53	0.530640	0.846430	0.732080
C541	C54	0.438670	0.078560	0.725830
C551	C55	0.598150	0.784190	0.971910
C561	C56	0.529830	0.796080	0.028900
C571	C57	0.446140	0.738950	0.039360
C581	C58	0.437350	0.670840	0.993600
C591	C59	0.507830	0.664330	0.937420
C601	C60	0.362220	0.752860	0.096060
C611	C61	0.363300	0.422020	0.690720
C621	C62	0.416080	0.498710	0.706310
C631	C63	0.499490	0.497560	0.754910
C641	C64	0.525840	0.419840	0.786830
C651	C65	0.469360	0.346430	0.767920
C661	C66	0.561330	0.578560	0.774170
C671	C67	0.401850	0.284190	0.528090
C681	C68	0.470170	0.296080	0.471100
C691	C69	0.553860	0.238950	0.460640
C701	C70	0.562650	0.170840	0.506400
C711	C71	0.492170	0.164330	0.562580
C721	C72	0.637780	0.252860	0.403940
N91	N9	0.610670	0.846260	0.779660
N101	N10	0.587150	0.720420	0.925510
N111	N11	0.389330	0.346260	0.720340
N121	N12	0.412850	0.220420	0.574490
O171	O17	0.478410	0.150070	0.741170
O181	O18	0.351070	0.069850	0.694140
O191	O19	0.345780	0.828110	0.116630
O201	O20	0.309760	0.688840	0.117080
O211	O21	0.521590	0.650070	0.758830
O221	O22	0.648930	0.569850	0.805860
O231	O23	0.654220	0.328110	0.383370
O241	O24	0.690240	0.188840	0.382920
Cd71	Cd7	0.188660	0.784000	0.182180
Cd81	Cd8	0.811340	0.284000	0.317820
H491	H49	0.845100	0.177100	0.465700
H501	H50	0.959700	0.158000	0.559700
H511	H51	0.115900	0.370800	0.500400
H521	H52	0.000600	0.381600	0.406300
H531	H53	0.807000	0.076800	0.341900
H541	H54	0.895700	0.950100	0.315600
H551	H55	0.080700	0.082800	0.179600
H561	H56	0.987900	0.205500	0.210600
H571	H57	0.154900	0.677100	0.034300
H581	H58	0.040300	0.658000	0.940300
H591	H59	0.884100	0.870800	0.999600
H601	H60	0.999400	0.881600	0.093700
H611	H61	0.193000	0.576800	0.158100
H621	H62	0.104300	0.450100	0.184400
H631	H63	0.919300	0.582800	0.320400
H641	H64	0.012100	0.705500	0.289400
C731	C73	0.901850	0.215810	0.471910
C741	C74	0.970170	0.203920	0.528900
C751	C75	0.053860	0.261050	0.539360
C761	C76	0.062650	0.329160	0.493600
C771	C77	0.992170	0.335670	0.437420
C781	C78	0.137780	0.247140	0.596060
C791	C79	0.863300	0.077980	0.309280
C801	C80	0.916080	0.001290	0.293690
C811	C81	0.999490	0.002440	0.245090
C821	C82	0.025840	0.080160	0.213170
C831	C83	0.969360	0.153570	0.232080
C841	C84	0.061330	0.921440	0.225830
C851	C85	0.098150	0.715810	0.028090
C861	C86	0.029830	0.703920	0.971100
C871	C87	0.946140	0.761050	0.960640
C881	C88	0.937350	0.829160	0.006400
C891	C89	0.007830	0.835670	0.062580
C901	C90	0.862220	0.747140	0.903940
C911	C91	0.136700	0.577980	0.190720
C921	C92	0.083920	0.501290	0.206310
C931	C93	0.000510	0.502440	0.254910
C941	C94	0.974160	0.580160	0.286830
C951	C95	0.030640	0.653570	0.267920
C961	C96	0.938670	0.421440	0.274170
N131	N13	0.912850	0.279580	0.425510
N141	N14	0.889330	0.153740	0.279660
N151	N15	0.087150	0.779580	0.074490
N161	N16	0.110670	0.653740	0.220340
O251	O25	0.154220	0.171890	0.616630
O261	O26	0.190240	0.311160	0.617080
O271	O27	0.021590	0.849930	0.241170
O281	O28	0.148930	0.930150	0.194140
O291	O29	0.845780	0.671890	0.883370
O301	O30	0.809760	0.811160	0.882920
O311	O31	0.978410	0.349930	0.258830
O321	O32	0.851070	0.430150	0.305860
