data_AVAQIX01_clean_PM
_symmetry_space_group_name_H-M	'P1'
_cell_length_a	12.246300
_cell_length_b	15.457700
_cell_length_c	18.845400
_cell_angle_alpha	90.000000
_cell_angle_beta	90.000000
_cell_angle_gamma	90.000000
_symmetry_Int_Tables_number 1

loop_
_symmetry_equiv_pos_as_xyz
'x,y,z'

loop_
_atom_site_label
_atom_site_type_symbol
_atom_site_fract_x
_atom_site_fract_y
_atom_site_fract_z
Cd11	Cd1	0.192500	0.215350	0.316040
O11	O1	0.348300	0.169680	0.383570
O21	O2	0.312600	0.310110	0.382370
C11	C1	0.364900	0.245900	0.404540
C21	C2	0.449000	0.259800	0.461860
C31	C3	0.442000	0.331200	0.505200
H11	H1	0.389200	0.374900	0.496300
C41	C4	0.513100	0.338200	0.562000
H21	H2	0.506500	0.386900	0.592500
N11	N1	0.590900	0.279660	0.576170
C51	C5	0.600700	0.213300	0.531200
H31	H3	0.657500	0.172500	0.539000
C61	C6	0.531700	0.201200	0.473700
H41	H4	0.541300	0.153100	0.442900
N21	N2	0.114400	0.346070	0.277720
C71	C7	0.138700	0.422200	0.308710
H51	H5	0.196000	0.423500	0.342700
C81	C8	0.084500	0.498900	0.293530
H61	H6	0.104300	0.551300	0.316500
C91	C9	0.000300	0.497100	0.243960
C101	C10	0.975700	0.419000	0.210640
H71	H7	0.919600	0.416000	0.175900
C111	C11	0.034700	0.345500	0.229200
H81	H8	0.017600	0.292400	0.206300
C121	C12	0.935900	0.577500	0.225780
O31	O3	0.974570	0.650220	0.241900
O41	O4	0.847060	0.568080	0.193930
Cd21	Cd2	0.307500	0.784650	0.816040
O51	O5	0.151700	0.830320	0.883570
O61	O6	0.187400	0.689890	0.882370
C131	C13	0.135100	0.754100	0.904540
C141	C14	0.051000	0.740200	0.961860
C151	C15	0.058000	0.668800	0.005200
H91	H9	0.110800	0.625100	0.996300
C161	C16	0.986900	0.661800	0.062000
H101	H10	0.993500	0.613100	0.092500
N31	N3	0.909100	0.720340	0.076170
C171	C17	0.899300	0.786700	0.031200
H111	H11	0.842500	0.827500	0.039000
C181	C18	0.968300	0.798800	0.973700
H121	H12	0.958700	0.846900	0.942900
N41	N4	0.385600	0.653930	0.777720
C191	C19	0.361300	0.577800	0.808710
H131	H13	0.304000	0.576500	0.842700
C201	C20	0.415500	0.501100	0.793530
H141	H14	0.395700	0.448700	0.816500
C211	C21	0.499700	0.502900	0.743960
C221	C22	0.524300	0.581000	0.710640
H151	H15	0.580400	0.584000	0.675900
C231	C23	0.465300	0.654500	0.729200
H161	H16	0.482400	0.707600	0.706300
C241	C24	0.564100	0.422500	0.725780
O71	O7	0.525430	0.349780	0.741900
O81	O8	0.652940	0.431920	0.693930
Cd31	Cd3	0.807500	0.715350	0.183960
O91	O9	0.651700	0.669680	0.116430
O101	O10	0.687400	0.810110	0.117630
C251	C25	0.635100	0.745900	0.095460
C261	C26	0.551000	0.759800	0.038140
C271	C27	0.558000	0.831200	0.994800
H171	H17	0.610800	0.874900	0.003700
C281	C28	0.486900	0.838200	0.938000
H181	H18	0.493500	0.886900	0.907500
N51	N5	0.409100	0.779660	0.923830
C291	C29	0.399300	0.713300	0.968800
H191	H19	0.342500	0.672500	0.961000
C301	C30	0.468300	0.701200	0.026300
H201	H20	0.458700	0.653100	0.057100
N61	N6	0.885600	0.846070	0.222280
C311	C31	0.861300	0.922200	0.191290
H211	H21	0.804000	0.923500	0.157300
C321	C32	0.915500	0.998900	0.206470
H221	H22	0.895700	0.051300	0.183500
C331	C33	0.999700	0.997100	0.256040
C341	C34	0.024300	0.919000	0.289360
H231	H23	0.080400	0.916000	0.324100
C351	C35	0.965300	0.845500	0.270800
H241	H24	0.982400	0.792400	0.293700
C361	C36	0.064100	0.077500	0.274220
O111	O11	0.025430	0.150220	0.258100
O121	O12	0.152940	0.068080	0.306070
Cd41	Cd4	0.692500	0.284650	0.683960
O131	O13	0.848300	0.330320	0.616430
O141	O14	0.812600	0.189890	0.617630
C371	C37	0.864900	0.254100	0.595460
C381	C38	0.949000	0.240200	0.538140
C391	C39	0.942000	0.168800	0.494800
H251	H25	0.889200	0.125100	0.503700
C401	C40	0.013100	0.161800	0.438000
H261	H26	0.006500	0.113100	0.407500
N71	N7	0.090900	0.220340	0.423830
C411	C41	0.100700	0.286700	0.468800
H271	H27	0.157500	0.327500	0.461000
C421	C42	0.031700	0.298800	0.526300
H281	H28	0.041300	0.346900	0.557100
N81	N8	0.614400	0.153930	0.722280
C431	C43	0.638700	0.077800	0.691290
H291	H29	0.696000	0.076500	0.657300
C441	C44	0.584500	0.001100	0.706470
H301	H30	0.604300	0.948700	0.683500
C451	C45	0.500300	0.002900	0.756040
C461	C46	0.475700	0.081000	0.789360
H311	H31	0.419600	0.084000	0.824100
C471	C47	0.534700	0.154500	0.770800
H321	H32	0.517600	0.207600	0.793700
C481	C48	0.435900	0.922500	0.774220
O151	O15	0.474570	0.849780	0.758100
O161	O16	0.347060	0.931920	0.806070
Cd51	Cd5	0.807500	0.784650	0.683960
O171	O17	0.651700	0.830320	0.616430
O181	O18	0.687400	0.689890	0.617630
C491	C49	0.635100	0.754100	0.595460
C501	C50	0.551000	0.740200	0.538140
C511	C51	0.558000	0.668800	0.494800
H331	H33	0.610800	0.625100	0.503700
C521	C52	0.486900	0.661800	0.438000
H341	H34	0.493500	0.613100	0.407500
N91	N9	0.409100	0.720340	0.423830
C531	C53	0.399300	0.786700	0.468800
H351	H35	0.342500	0.827500	0.461000
C541	C54	0.468300	0.798800	0.526300
H361	H36	0.458700	0.846900	0.557100
N101	N10	0.885600	0.653930	0.722280
C551	C55	0.861300	0.577800	0.691290
H371	H37	0.804000	0.576500	0.657300
C561	C56	0.915500	0.501100	0.706470
H381	H38	0.895700	0.448700	0.683500
C571	C57	0.999700	0.502900	0.756040
C581	C58	0.024300	0.581000	0.789360
H391	H39	0.080400	0.584000	0.824100
C591	C59	0.965300	0.654500	0.770800
H401	H40	0.982400	0.707600	0.793700
C601	C60	0.064100	0.422500	0.774220
O191	O19	0.025430	0.349780	0.758100
O201	O20	0.152940	0.431920	0.806070
Cd61	Cd6	0.692500	0.215350	0.183960
O211	O21	0.848300	0.169680	0.116430
O221	O22	0.812600	0.310110	0.117630
C611	C61	0.864900	0.245900	0.095460
C621	C62	0.949000	0.259800	0.038140
C631	C63	0.942000	0.331200	0.994800
H411	H41	0.889200	0.374900	0.003700
C641	C64	0.013100	0.338200	0.938000
H421	H42	0.006500	0.386900	0.907500
N111	N11	0.090900	0.279660	0.923830
C651	C65	0.100700	0.213300	0.968800
H431	H43	0.157500	0.172500	0.961000
C661	C66	0.031700	0.201200	0.026300
H441	H44	0.041300	0.153100	0.057100
N121	N12	0.614400	0.346070	0.222280
C671	C67	0.638700	0.422200	0.191290
H451	H45	0.696000	0.423500	0.157300
C681	C68	0.584500	0.498900	0.206470
H461	H46	0.604300	0.551300	0.183500
C691	C69	0.500300	0.497100	0.256040
C701	C70	0.475700	0.419000	0.289360
H471	H47	0.419600	0.416000	0.324100
C711	C71	0.534700	0.345500	0.270800
H481	H48	0.517600	0.292400	0.293700
C721	C72	0.435900	0.577500	0.274220
O231	O23	0.474570	0.650220	0.258100
O241	O24	0.347060	0.568080	0.306070
Cd71	Cd7	0.192500	0.284650	0.816040
O251	O25	0.348300	0.330320	0.883570
O261	O26	0.312600	0.189890	0.882370
C731	C73	0.364900	0.254100	0.904540
C741	C74	0.449000	0.240200	0.961860
C751	C75	0.442000	0.168800	0.005200
H491	H49	0.389200	0.125100	0.996300
C761	C76	0.513100	0.161800	0.062000
H501	H50	0.506500	0.113100	0.092500
N131	N13	0.590900	0.220340	0.076170
C771	C77	0.600700	0.286700	0.031200
H511	H51	0.657500	0.327500	0.039000
C781	C78	0.531700	0.298800	0.973700
H521	H52	0.541300	0.346900	0.942900
N141	N14	0.114400	0.153930	0.777720
C791	C79	0.138700	0.077800	0.808710
H531	H53	0.196000	0.076500	0.842700
C801	C80	0.084500	0.001100	0.793530
H541	H54	0.104300	0.948700	0.816500
C811	C81	0.000300	0.002900	0.743960
C821	C82	0.975700	0.081000	0.710640
H551	H55	0.919600	0.084000	0.675900
C831	C83	0.034700	0.154500	0.729200
H561	H56	0.017600	0.207600	0.706300
C841	C84	0.935900	0.922500	0.725780
O271	O27	0.974570	0.849780	0.741900
O281	O28	0.847060	0.931920	0.693930
Cd81	Cd8	0.307500	0.715350	0.316040
O291	O29	0.151700	0.669680	0.383570
O301	O30	0.187400	0.810110	0.382370
C851	C85	0.135100	0.745900	0.404540
C861	C86	0.051000	0.759800	0.461860
C871	C87	0.058000	0.831200	0.505200
H571	H57	0.110800	0.874900	0.496300
C881	C88	0.986900	0.838200	0.562000
H581	H58	0.993500	0.886900	0.592500
N151	N15	0.909100	0.779660	0.576170
C891	C89	0.899300	0.713300	0.531200
H591	H59	0.842500	0.672500	0.539000
C901	C90	0.968300	0.701200	0.473700
H601	H60	0.958700	0.653100	0.442900
N161	N16	0.385600	0.846070	0.277720
C911	C91	0.361300	0.922200	0.308710
H611	H61	0.304000	0.923500	0.342700
C921	C92	0.415500	0.998900	0.293530
H621	H62	0.395700	0.051300	0.316500
C931	C93	0.499700	0.997100	0.243960
C941	C94	0.524300	0.919000	0.210640
H631	H63	0.580400	0.916000	0.175900
C951	C95	0.465300	0.845500	0.229200
H641	H64	0.482400	0.792400	0.206300
C961	C96	0.564100	0.077500	0.225780
O311	O31	0.525430	0.150220	0.241900
O321	O32	0.652940	0.068080	0.193930
