data_AVESUR_clean_PM
_symmetry_space_group_name_H-M	'P1'
_cell_length_a	29.218000
_cell_length_b	11.191200
_cell_length_c	22.983300
_cell_angle_alpha	90.000000
_cell_angle_beta	90.000000
_cell_angle_gamma	90.000000
_symmetry_Int_Tables_number 1

loop_
_symmetry_equiv_pos_as_xyz
'x,y,z'

loop_
_atom_site_label
_atom_site_type_symbol
_atom_site_fract_x
_atom_site_fract_y
_atom_site_fract_z
Cd11	Cd1	0.114800	0.543110	0.191350
Cd21	Cd2	0.061840	0.753610	0.093480
O11	O1	0.108900	0.578900	0.092100
O21	O2	0.179000	0.548000	0.119900
O31	O3	0.324500	0.535500	0.762400
O41	O4	0.395300	0.536200	0.791700
O51	O5	0.373000	0.656100	0.058800
O61	O6	0.425200	0.696500	0.995100
O71	O7	0.962700	0.446800	0.812600
O81	O8	0.991900	0.376400	0.896100
O91	O9	0.122600	0.753700	0.709800
O101	O10	0.059800	0.664000	0.679800
C11	C1	0.151400	0.565300	0.081200
C21	C2	0.166400	0.569900	0.018100
C31	C3	0.211900	0.572400	0.004800
H11	H1	0.233600	0.569200	0.034300
C41	C4	0.225900	0.579700	0.946800
C51	C5	0.192800	0.582400	0.903900
H21	H2	0.202000	0.588900	0.865300
C61	C6	0.146600	0.575700	0.916200
C71	C7	0.133500	0.570200	0.974600
H31	H3	0.102600	0.566600	0.984400
C81	C8	0.353300	0.542600	0.801200
C91	C9	0.385600	0.659300	0.007900
C101	C10	0.337900	0.568300	0.862000
C111	C11	0.368600	0.596600	0.904400
H41	H4	0.399700	0.598100	0.895800
C121	C12	0.353500	0.623900	0.961700
C131	C13	0.308400	0.614300	0.973500
H51	H5	0.298800	0.627200	0.011600
C141	C14	0.275900	0.586500	0.932200
C151	C15	0.291600	0.558400	0.876300
H61	H6	0.270900	0.532800	0.848200
C161	C16	0.993600	0.438200	0.848400
C171	C17	0.089100	0.686600	0.717700
C181	C18	0.037500	0.505900	0.837500
C191	C19	0.043200	0.560900	0.785800
H71	H7	0.020500	0.556400	0.757600
C201	C20	0.083200	0.624300	0.774800
C211	C21	0.116300	0.630600	0.817700
H81	H8	0.142800	0.674600	0.810600
C221	C22	0.111400	0.574000	0.870500
C231	C23	0.071100	0.510700	0.880000
H91	H9	0.066600	0.471300	0.915200
Cd31	Cd3	0.385200	0.956890	0.191350
Cd41	Cd4	0.438160	0.746390	0.093480
O111	O11	0.391100	0.921100	0.092100
O121	O12	0.321000	0.952000	0.119900
O131	O13	0.175500	0.964500	0.762400
O141	O14	0.104700	0.963800	0.791700
O151	O15	0.127000	0.843900	0.058800
O161	O16	0.074800	0.803500	0.995100
O171	O17	0.537300	0.053200	0.812600
O181	O18	0.508100	0.123600	0.896100
O191	O19	0.377400	0.746300	0.709800
O201	O20	0.440200	0.836000	0.679800
C241	C24	0.348600	0.934700	0.081200
C251	C25	0.333600	0.930100	0.018100
C261	C26	0.288100	0.927600	0.004800
H101	H10	0.266400	0.930800	0.034300
C271	C27	0.274100	0.920300	0.946800
C281	C28	0.307200	0.917600	0.903900
H111	H11	0.298000	0.911100	0.865300
C291	C29	0.353400	0.924300	0.916200
C301	C30	0.366500	0.929800	0.974600
H121	H12	0.397400	0.933400	0.984400
C311	C31	0.146700	0.957400	0.801200
C321	C32	0.114400	0.840700	0.007900
C331	C33	0.162100	0.931700	0.862000
C341	C34	0.131400	0.903400	0.904400
H131	H13	0.100300	0.901900	0.895800
C351	C35	0.146500	0.876100	0.961700
C361	C36	0.191600	0.885700	0.973500
H141	H14	0.201200	0.872800	0.011600
C371	C37	0.224100	0.913500	0.932200
C381	C38	0.208400	0.941600	0.876300
H151	H15	0.229100	0.967200	0.848200
C391	C39	0.506400	0.061800	0.848400
C401	C40	0.410900	0.813400	0.717700
C411	C41	0.462500	0.994100	0.837500
C421	C42	0.456800	0.939100	0.785800
H161	H16	0.479500	0.943600	0.757600
C431	C43	0.416800	0.875700	0.774800
C441	C44	0.383700	0.869400	0.817700
H171	H17	0.357200	0.825400	0.810600
C451	C45	0.388600	0.926000	0.870500
C461	C46	0.428900	0.989300	0.880000
H181	H18	0.433400	0.028700	0.915200
Cd51	Cd5	0.885200	0.043110	0.308650
Cd61	Cd6	0.938160	0.253610	0.406520
O211	O21	0.891100	0.078900	0.407900
O221	O22	0.821000	0.048000	0.380100
O231	O23	0.675500	0.035500	0.737600
O241	O24	0.604700	0.036200	0.708300
O251	O25	0.627000	0.156100	0.441200
O261	O26	0.574800	0.196500	0.504900
O271	O27	0.037300	0.946800	0.687400
O281	O28	0.008100	0.876400	0.603900
O291	O29	0.877400	0.253700	0.790200
O301	O30	0.940200	0.164000	0.820200
C471	C47	0.848600	0.065300	0.418800
C481	C48	0.833600	0.069900	0.481900
C491	C49	0.788100	0.072400	0.495200
H191	H19	0.766400	0.069200	0.465700
C501	C50	0.774100	0.079700	0.553200
C511	C51	0.807200	0.082400	0.596100
H201	H20	0.798000	0.088900	0.634700
C521	C52	0.853400	0.075700	0.583800
C531	C53	0.866500	0.070200	0.525400
H211	H21	0.897400	0.066600	0.515600
C541	C54	0.646700	0.042600	0.698800
C551	C55	0.614400	0.159300	0.492100
C561	C56	0.662100	0.068300	0.638000
C571	C57	0.631400	0.096600	0.595600
H221	H22	0.600300	0.098100	0.604200
C581	C58	0.646500	0.123900	0.538300
C591	C59	0.691600	0.114300	0.526500
H231	H23	0.701200	0.127200	0.488400
C601	C60	0.724100	0.086500	0.567800
C611	C61	0.708400	0.058400	0.623700
H241	H24	0.729100	0.032800	0.651800
C621	C62	0.006400	0.938200	0.651600
C631	C63	0.910900	0.186600	0.782300
C641	C64	0.962500	0.005900	0.662500
C651	C65	0.956800	0.060900	0.714200
H251	H25	0.979500	0.056400	0.742400
C661	C66	0.916800	0.124300	0.725200
C671	C67	0.883700	0.130600	0.682300
H261	H26	0.857200	0.174600	0.689400
C681	C68	0.888600	0.074000	0.629500
C691	C69	0.928900	0.010700	0.620000
H271	H27	0.933400	0.971300	0.584800
Cd71	Cd7	0.614800	0.456890	0.308650
Cd81	Cd8	0.561840	0.246390	0.406520
O311	O31	0.608900	0.421100	0.407900
O321	O32	0.679000	0.452000	0.380100
O331	O33	0.824500	0.464500	0.737600
O341	O34	0.895300	0.463800	0.708300
O351	O35	0.873000	0.343900	0.441200
O361	O36	0.925200	0.303500	0.504900
O371	O37	0.462700	0.553200	0.687400
O381	O38	0.491900	0.623600	0.603900
O391	O39	0.622600	0.246300	0.790200
O401	O40	0.559800	0.336000	0.820200
C701	C70	0.651400	0.434700	0.418800
C711	C71	0.666400	0.430100	0.481900
C721	C72	0.711900	0.427600	0.495200
H281	H28	0.733600	0.430800	0.465700
C731	C73	0.725900	0.420300	0.553200
C741	C74	0.692800	0.417600	0.596100
H291	H29	0.702000	0.411100	0.634700
C751	C75	0.646600	0.424300	0.583800
C761	C76	0.633500	0.429800	0.525400
H301	H30	0.602600	0.433400	0.515600
C771	C77	0.853300	0.457400	0.698800
C781	C78	0.885600	0.340700	0.492100
C791	C79	0.837900	0.431700	0.638000
C801	C80	0.868600	0.403400	0.595600
H311	H31	0.899700	0.401900	0.604200
C811	C81	0.853500	0.376100	0.538300
C821	C82	0.808400	0.385700	0.526500
H321	H32	0.798800	0.372800	0.488400
C831	C83	0.775900	0.413500	0.567800
C841	C84	0.791600	0.441600	0.623700
H331	H33	0.770900	0.467200	0.651800
C851	C85	0.493600	0.561800	0.651600
C861	C86	0.589100	0.313400	0.782300
C871	C87	0.537500	0.494100	0.662500
C881	C88	0.543200	0.439100	0.714200
H341	H34	0.520500	0.443600	0.742400
C891	C89	0.583200	0.375700	0.725200
C901	C90	0.616300	0.369400	0.682300
H351	H35	0.642800	0.325400	0.689400
C911	C91	0.611400	0.426000	0.629500
C921	C92	0.571100	0.489300	0.620000
H361	H36	0.566600	0.528700	0.584800
Cd91	Cd9	0.885200	0.456890	0.808650
Cd101	Cd10	0.938160	0.246390	0.906520
O411	O41	0.891100	0.421100	0.907900
O421	O42	0.821000	0.452000	0.880100
O431	O43	0.675500	0.464500	0.237600
O441	O44	0.604700	0.463800	0.208300
O451	O45	0.627000	0.343900	0.941200
O461	O46	0.574800	0.303500	0.004900
O471	O47	0.037300	0.553200	0.187400
O481	O48	0.008100	0.623600	0.103900
O491	O49	0.877400	0.246300	0.290200
O501	O50	0.940200	0.336000	0.320200
C931	C93	0.848600	0.434700	0.918800
C941	C94	0.833600	0.430100	0.981900
C951	C95	0.788100	0.427600	0.995200
H371	H37	0.766400	0.430800	0.965700
C961	C96	0.774100	0.420300	0.053200
C971	C97	0.807200	0.417600	0.096100
H381	H38	0.798000	0.411100	0.134700
C981	C98	0.853400	0.424300	0.083800
C991	C99	0.866500	0.429800	0.025400
H391	H39	0.897400	0.433400	0.015600
C1001	C100	0.646700	0.457400	0.198800
C1011	C101	0.614400	0.340700	0.992100
C1021	C102	0.662100	0.431700	0.138000
C1031	C103	0.631400	0.403400	0.095600
H401	H40	0.600300	0.401900	0.104200
C1041	C104	0.646500	0.376100	0.038300
C1051	C105	0.691600	0.385700	0.026500
H411	H41	0.701200	0.372800	0.988400
C1061	C106	0.724100	0.413500	0.067800
C1071	C107	0.708400	0.441600	0.123700
H421	H42	0.729100	0.467200	0.151800
C1081	C108	0.006400	0.561800	0.151600
C1091	C109	0.910900	0.313400	0.282300
C1101	C110	0.962500	0.494100	0.162500
C1111	C111	0.956800	0.439100	0.214200
H431	H43	0.979500	0.443600	0.242400
C1121	C112	0.916800	0.375700	0.225200
C1131	C113	0.883700	0.369400	0.182300
H441	H44	0.857200	0.325400	0.189400
C1141	C114	0.888600	0.426000	0.129500
C1151	C115	0.928900	0.489300	0.120000
H451	H45	0.933400	0.528700	0.084800
Cd111	Cd11	0.614800	0.043110	0.808650
Cd121	Cd12	0.561840	0.253610	0.906520
O511	O51	0.608900	0.078900	0.907900
O521	O52	0.679000	0.048000	0.880100
O531	O53	0.824500	0.035500	0.237600
O541	O54	0.895300	0.036200	0.208300
O551	O55	0.873000	0.156100	0.941200
O561	O56	0.925200	0.196500	0.004900
O571	O57	0.462700	0.946800	0.187400
O581	O58	0.491900	0.876400	0.103900
O591	O59	0.622600	0.253700	0.290200
O601	O60	0.559800	0.164000	0.320200
C1161	C116	0.651400	0.065300	0.918800
C1171	C117	0.666400	0.069900	0.981900
C1181	C118	0.711900	0.072400	0.995200
H461	H46	0.733600	0.069200	0.965700
C1191	C119	0.725900	0.079700	0.053200
C1201	C120	0.692800	0.082400	0.096100
H471	H47	0.702000	0.088900	0.134700
C1211	C121	0.646600	0.075700	0.083800
C1221	C122	0.633500	0.070200	0.025400
H481	H48	0.602600	0.066600	0.015600
C1231	C123	0.853300	0.042600	0.198800
C1241	C124	0.885600	0.159300	0.992100
C1251	C125	0.837900	0.068300	0.138000
C1261	C126	0.868600	0.096600	0.095600
H491	H49	0.899700	0.098100	0.104200
C1271	C127	0.853500	0.123900	0.038300
C1281	C128	0.808400	0.114300	0.026500
H501	H50	0.798800	0.127200	0.988400
C1291	C129	0.775900	0.086500	0.067800
C1301	C130	0.791600	0.058400	0.123700
H511	H51	0.770900	0.032800	0.151800
C1311	C131	0.493600	0.938200	0.151600
C1321	C132	0.589100	0.186600	0.282300
C1331	C133	0.537500	0.005900	0.162500
C1341	C134	0.543200	0.060900	0.214200
H521	H52	0.520500	0.056400	0.242400
C1351	C135	0.583200	0.124300	0.225200
C1361	C136	0.616300	0.130600	0.182300
H531	H53	0.642800	0.174600	0.189400
C1371	C137	0.611400	0.074000	0.129500
C1381	C138	0.571100	0.010700	0.120000
H541	H54	0.566600	0.971300	0.084800
Cd131	Cd13	0.114800	0.956890	0.691350
Cd141	Cd14	0.061840	0.746390	0.593480
O611	O61	0.108900	0.921100	0.592100
O621	O62	0.179000	0.952000	0.619900
O631	O63	0.324500	0.964500	0.262400
O641	O64	0.395300	0.963800	0.291700
O651	O65	0.373000	0.843900	0.558800
O661	O66	0.425200	0.803500	0.495100
O671	O67	0.962700	0.053200	0.312600
O681	O68	0.991900	0.123600	0.396100
O691	O69	0.122600	0.746300	0.209800
O701	O70	0.059800	0.836000	0.179800
C1391	C139	0.151400	0.934700	0.581200
C1401	C140	0.166400	0.930100	0.518100
C1411	C141	0.211900	0.927600	0.504800
H551	H55	0.233600	0.930800	0.534300
C1421	C142	0.225900	0.920300	0.446800
C1431	C143	0.192800	0.917600	0.403900
H561	H56	0.202000	0.911100	0.365300
C1441	C144	0.146600	0.924300	0.416200
C1451	C145	0.133500	0.929800	0.474600
H571	H57	0.102600	0.933400	0.484400
C1461	C146	0.353300	0.957400	0.301200
C1471	C147	0.385600	0.840700	0.507900
C1481	C148	0.337900	0.931700	0.362000
C1491	C149	0.368600	0.903400	0.404400
H581	H58	0.399700	0.901900	0.395800
C1501	C150	0.353500	0.876100	0.461700
C1511	C151	0.308400	0.885700	0.473500
H591	H59	0.298800	0.872800	0.511600
C1521	C152	0.275900	0.913500	0.432200
C1531	C153	0.291600	0.941600	0.376300
H601	H60	0.270900	0.967200	0.348200
C1541	C154	0.993600	0.061800	0.348400
C1551	C155	0.089100	0.813400	0.217700
C1561	C156	0.037500	0.994100	0.337500
C1571	C157	0.043200	0.939100	0.285800
H611	H61	0.020500	0.943600	0.257600
C1581	C158	0.083200	0.875700	0.274800
C1591	C159	0.116300	0.869400	0.317700
H621	H62	0.142800	0.825400	0.310600
C1601	C160	0.111400	0.926000	0.370500
C1611	C161	0.071100	0.989300	0.380000
H631	H63	0.066600	0.028700	0.415200
Cd151	Cd15	0.385200	0.543110	0.691350
Cd161	Cd16	0.438160	0.753610	0.593480
O711	O71	0.391100	0.578900	0.592100
O721	O72	0.321000	0.548000	0.619900
O731	O73	0.175500	0.535500	0.262400
O741	O74	0.104700	0.536200	0.291700
O751	O75	0.127000	0.656100	0.558800
O761	O76	0.074800	0.696500	0.495100
O771	O77	0.537300	0.446800	0.312600
O781	O78	0.508100	0.376400	0.396100
O791	O79	0.377400	0.753700	0.209800
O801	O80	0.440200	0.664000	0.179800
C1621	C162	0.348600	0.565300	0.581200
C1631	C163	0.333600	0.569900	0.518100
C1641	C164	0.288100	0.572400	0.504800
H641	H64	0.266400	0.569200	0.534300
C1651	C165	0.274100	0.579700	0.446800
C1661	C166	0.307200	0.582400	0.403900
H651	H65	0.298000	0.588900	0.365300
C1671	C167	0.353400	0.575700	0.416200
C1681	C168	0.366500	0.570200	0.474600
H661	H66	0.397400	0.566600	0.484400
C1691	C169	0.146700	0.542600	0.301200
C1701	C170	0.114400	0.659300	0.507900
C1711	C171	0.162100	0.568300	0.362000
C1721	C172	0.131400	0.596600	0.404400
H671	H67	0.100300	0.598100	0.395800
C1731	C173	0.146500	0.623900	0.461700
C1741	C174	0.191600	0.614300	0.473500
H681	H68	0.201200	0.627200	0.511600
C1751	C175	0.224100	0.586500	0.432200
C1761	C176	0.208400	0.558400	0.376300
H691	H69	0.229100	0.532800	0.348200
C1771	C177	0.506400	0.438200	0.348400
C1781	C178	0.410900	0.686600	0.217700
C1791	C179	0.462500	0.505900	0.337500
C1801	C180	0.456800	0.560900	0.285800
H701	H70	0.479500	0.556400	0.257600
C1811	C181	0.416800	0.624300	0.274800
C1821	C182	0.383700	0.630600	0.317700
H711	H71	0.357200	0.674600	0.310600
C1831	C183	0.388600	0.574000	0.370500
C1841	C184	0.428900	0.510700	0.380000
H721	H72	0.433400	0.471300	0.415200
