data_AVEVEE_clean_PM
_symmetry_space_group_name_H-M	'P1'
_cell_length_a	9.866900
_cell_length_b	10.425000
_cell_length_c	12.439700
_cell_angle_alpha	111.316000
_cell_angle_beta	102.568000
_cell_angle_gamma	93.862500
_symmetry_Int_Tables_number 1

loop_
_symmetry_equiv_pos_as_xyz
'x,y,z'

loop_
_atom_site_label
_atom_site_type_symbol
_atom_site_fract_x
_atom_site_fract_y
_atom_site_fract_z
C11	C1	0.738600	0.302800	0.408000
C21	C2	0.894600	0.322400	0.461900
C31	C3	0.947600	0.396000	0.584400
H11	H1	0.887800	0.433800	0.631900
C41	C4	0.089300	0.412100	0.634400
C51	C5	0.181900	0.360000	0.565900
H21	H2	0.277600	0.372100	0.601300
C61	C6	0.128500	0.289300	0.443200
C71	C7	0.984600	0.269500	0.391400
H31	H3	0.949000	0.220800	0.309400
C81	C8	0.226200	0.236400	0.366800
C91	C9	0.298500	0.529900	0.940900
C101	C10	0.326600	0.675200	0.989600
H41	H4	0.305600	0.725100	0.941100
C111	C11	0.386300	0.744300	0.111300
C121	C12	0.416800	0.668500	0.182900
H51	H5	0.456200	0.715100	0.264700
C131	C13	0.388800	0.523700	0.133300
C141	C14	0.331800	0.454300	0.010900
H61	H6	0.316300	0.357300	0.976500
C151	C15	0.422800	0.441400	0.210500
C161	C16	0.414400	0.901000	0.165500
Cd11	Cd1	0.453300	0.178850	0.258270
N11	N1	0.141600	0.490500	0.762200
N21	N2	0.243100	0.451700	0.814600
O11	O1	0.689500	0.224600	0.300300
O21	O2	0.666100	0.363400	0.475800
O31	O3	0.181400	0.145700	0.264700
O41	O4	0.357600	0.286200	0.411100
O51	O5	0.394700	0.310600	0.158300
O61	O6	0.476600	0.507000	0.319000
O71	O7	0.389200	0.966100	0.099000
O81	O8	0.461000	0.961800	0.276200
O91	O9	0.065300	0.574000	0.813100
O101	O10	0.250300	0.317200	0.777900
C171	C17	0.261400	0.697200	0.592000
C181	C18	0.105400	0.677600	0.538100
C191	C19	0.052400	0.604000	0.415600
H71	H7	0.112200	0.566200	0.368100
C201	C20	0.910700	0.587900	0.365600
C211	C21	0.818100	0.640000	0.434100
H81	H8	0.722400	0.627900	0.398700
C221	C22	0.871500	0.710700	0.556800
C231	C23	0.015400	0.730500	0.608600
H91	H9	0.051000	0.779200	0.690600
C241	C24	0.773800	0.763600	0.633200
C251	C25	0.701500	0.470100	0.059100
C261	C26	0.673400	0.324800	0.010400
H101	H10	0.694400	0.274900	0.058900
C271	C27	0.613700	0.255700	0.888700
C281	C28	0.583200	0.331500	0.817100
H111	H11	0.543800	0.284900	0.735300
C291	C29	0.611200	0.476300	0.866700
C301	C30	0.668200	0.545700	0.989100
H121	H12	0.683700	0.642700	0.023500
C311	C31	0.577200	0.558600	0.789500
C321	C32	0.585600	0.099000	0.834500
Cd21	Cd2	0.546700	0.821150	0.741730
N31	N3	0.858400	0.509500	0.237800
N41	N4	0.756900	0.548300	0.185400
O111	O11	0.310500	0.775400	0.699700
O121	O12	0.333900	0.636600	0.524200
O131	O13	0.818600	0.854300	0.735300
O141	O14	0.642400	0.713800	0.588900
O151	O15	0.605300	0.689400	0.841700
O161	O16	0.523400	0.493000	0.681000
O171	O17	0.610800	0.033900	0.901000
O181	O18	0.539000	0.038200	0.723800
O191	O19	0.934700	0.426000	0.186900
O201	O20	0.749700	0.682800	0.222100
Cd31	Cd3	0.500000	0.500000	0.500000
