data_AVIHIY_clean_PM
_symmetry_space_group_name_H-M	'P1'
_cell_length_a	10.255000
_cell_length_b	10.255000
_cell_length_c	14.494000
_cell_angle_alpha	90.000000
_cell_angle_beta	90.000000
_cell_angle_gamma	90.000000
_symmetry_Int_Tables_number 1

loop_
_symmetry_equiv_pos_as_xyz
'x,y,z'

loop_
_atom_site_label
_atom_site_type_symbol
_atom_site_fract_x
_atom_site_fract_y
_atom_site_fract_z
Ho11	Ho1	0.850220	0.849830	0.705350
O11	O1	0.933900	0.664300	0.640800
C11	C1	0.909000	0.183100	0.740600
C21	C2	0.044700	0.393600	0.504000
H11	H1	0.075600	0.438700	0.452900
C31	C3	0.084400	0.182700	0.419900
O21	O2	0.094300	0.241200	0.344300
C41	C4	0.958200	0.393800	0.658300
H21	H2	0.930400	0.439300	0.710200
C51	C5	0.002000	0.461800	0.581400
O31	O3	0.078900	0.662900	0.525100
C61	C6	0.955800	0.259500	0.658300
O41	O4	0.108200	0.065200	0.429600
C71	C7	0.041200	0.260400	0.503200
C81	C8	0.003600	0.610500	0.582900
C91	C9	0.997800	0.191700	0.579700
H31	H3	0.996600	0.101000	0.578900
O51	O5	0.905300	0.238800	0.816200
O61	O6	0.879800	0.067900	0.729700
Ho21	Ho2	0.149780	0.150170	0.205350
O71	O7	0.066100	0.335700	0.140800
C101	C10	0.091000	0.816900	0.240600
C111	C11	0.955300	0.606400	0.004000
H41	H4	0.924400	0.561300	0.952900
C121	C12	0.915600	0.817300	0.919900
O81	O8	0.905700	0.758800	0.844300
C131	C13	0.041800	0.606200	0.158300
H51	H5	0.069600	0.560700	0.210200
C141	C14	0.998000	0.538200	0.081400
O91	O9	0.921100	0.337100	0.025100
C151	C15	0.044200	0.740500	0.158300
O101	O10	0.891800	0.934800	0.929600
C161	C16	0.958800	0.739600	0.003200
C171	C17	0.996400	0.389500	0.082900
C181	C18	0.002200	0.808300	0.079700
H61	H6	0.003400	0.899000	0.078900
O111	O11	0.094700	0.761200	0.316200
O121	O12	0.120200	0.932100	0.229700
Ho31	Ho3	0.150170	0.850220	0.455350
O131	O13	0.335700	0.933900	0.390800
C191	C19	0.816900	0.909000	0.490600
C201	C20	0.606400	0.044700	0.254000
H71	H7	0.561300	0.075600	0.202900
C211	C21	0.817300	0.084400	0.169900
O141	O14	0.758800	0.094300	0.094300
C221	C22	0.606200	0.958200	0.408300
H81	H8	0.560700	0.930400	0.460200
C231	C23	0.538200	0.002000	0.331400
O151	O15	0.337100	0.078900	0.275100
C241	C24	0.740500	0.955800	0.408300
O161	O16	0.934800	0.108200	0.179600
C251	C25	0.739600	0.041200	0.253200
C261	C26	0.389500	0.003600	0.332900
C271	C27	0.808300	0.997800	0.329700
H91	H9	0.899000	0.996600	0.328900
O171	O17	0.761200	0.905300	0.566200
O181	O18	0.932100	0.879800	0.479700
Ho41	Ho4	0.849830	0.149780	0.955350
O191	O19	0.664300	0.066100	0.890800
C281	C28	0.183100	0.091000	0.990600
C291	C29	0.393600	0.955300	0.754000
H101	H10	0.438700	0.924400	0.702900
C301	C30	0.182700	0.915600	0.669900
O201	O20	0.241200	0.905700	0.594300
C311	C31	0.393800	0.041800	0.908300
H111	H11	0.439300	0.069600	0.960200
C321	C32	0.461800	0.998000	0.831400
O211	O21	0.662900	0.921100	0.775100
C331	C33	0.259500	0.044200	0.908300
O221	O22	0.065200	0.891800	0.679600
C341	C34	0.260400	0.958800	0.753200
C351	C35	0.610500	0.996400	0.832900
C361	C36	0.191700	0.002200	0.829700
H121	H12	0.101000	0.003400	0.828900
O231	O23	0.238800	0.094700	0.066200
O241	O24	0.067900	0.120200	0.979700
