data_AVIHOE_clean_PM
_symmetry_space_group_name_H-M	'P1'
_cell_length_a	10.200000
_cell_length_b	10.200000
_cell_length_c	14.438600
_cell_angle_alpha	90.000000
_cell_angle_beta	90.000000
_cell_angle_gamma	90.000000
_symmetry_Int_Tables_number 1

loop_
_symmetry_equiv_pos_as_xyz
'x,y,z'

loop_
_atom_site_label
_atom_site_type_symbol
_atom_site_fract_x
_atom_site_fract_y
_atom_site_fract_z
O11	O1	0.335000	0.926500	0.191900
O21	O2	0.935200	0.885200	0.100100
O31	O3	0.760100	0.903900	0.012800
C11	C1	0.818900	0.911500	0.089800
C21	C2	0.740600	0.958400	0.172700
C31	C3	0.605700	0.957300	0.172700
H11	H1	0.559300	0.927200	0.119800
O41	O4	0.665000	0.073500	0.691900
O51	O5	0.064800	0.114800	0.600100
O61	O6	0.239900	0.096100	0.512800
C41	C4	0.181100	0.088500	0.589800
C51	C5	0.259400	0.041600	0.672700
C61	C6	0.394300	0.042700	0.672700
H21	H2	0.440700	0.072800	0.619800
O71	O7	0.073500	0.335000	0.441900
O81	O8	0.114800	0.935200	0.350100
O91	O9	0.096100	0.760100	0.262800
C71	C7	0.088500	0.818900	0.339800
C81	C8	0.041600	0.740600	0.422700
C91	C9	0.042700	0.605700	0.422700
H31	H3	0.072800	0.559300	0.369800
O101	O10	0.926500	0.665000	0.941900
O111	O11	0.885200	0.064800	0.850100
O121	O12	0.903900	0.239900	0.762800
C101	C10	0.911500	0.181100	0.839800
C111	C11	0.958400	0.259400	0.922700
C121	C12	0.957300	0.394300	0.922700
H41	H4	0.927200	0.440700	0.869800
O131	O13	0.665000	0.926500	0.808100
O141	O14	0.064800	0.885200	0.899900
O151	O15	0.239900	0.903900	0.987200
C131	C13	0.181100	0.911500	0.910200
C141	C14	0.259400	0.958400	0.827300
C151	C15	0.394300	0.957300	0.827300
H51	H5	0.440700	0.927200	0.880200
O161	O16	0.335000	0.073500	0.308100
O171	O17	0.935200	0.114800	0.399900
O181	O18	0.760100	0.096100	0.487200
C161	C16	0.818900	0.088500	0.410200
C171	C17	0.740600	0.041600	0.327300
C181	C18	0.605700	0.042700	0.327300
H61	H6	0.559300	0.072800	0.380200
O191	O19	0.926500	0.335000	0.558100
O201	O20	0.885200	0.935200	0.649900
O211	O21	0.903900	0.760100	0.737200
C191	C19	0.911500	0.818900	0.660200
C201	C20	0.958400	0.740600	0.577300
C211	C21	0.957300	0.605700	0.577300
H71	H7	0.927200	0.559300	0.630200
O221	O22	0.073500	0.665000	0.058100
O231	O23	0.114800	0.064800	0.149900
O241	O24	0.096100	0.239900	0.237200
C221	C22	0.088500	0.181100	0.160200
C231	C23	0.041600	0.259400	0.077300
C241	C24	0.042700	0.394300	0.077300
H81	H8	0.072800	0.440700	0.130200
Tm11	Tm1	0.149780	0.850220	0.125000
Tm21	Tm2	0.850220	0.149780	0.625000
Tm31	Tm3	0.149780	0.149780	0.375000
Tm41	Tm4	0.850220	0.850220	0.875000
C251	C25	0.537500	0.000000	0.250000
C261	C26	0.808200	0.000000	0.250000
H91	H9	0.901300	0.000000	0.250000
C271	C27	0.389800	0.000000	0.250000
C281	C28	0.462500	0.000000	0.750000
C291	C29	0.191800	0.000000	0.750000
H101	H10	0.098700	0.000000	0.750000
C301	C30	0.610200	0.000000	0.750000
C311	C31	0.000000	0.537500	0.500000
C321	C32	0.000000	0.808200	0.500000
H111	H11	0.000000	0.901300	0.500000
C331	C33	0.000000	0.389800	0.500000
C341	C34	0.000000	0.462500	0.000000
C351	C35	0.000000	0.191800	0.000000
H121	H12	0.000000	0.098700	0.000000
C361	C36	0.000000	0.610200	0.000000
