data_AVIVUW_clean_PM
_symmetry_space_group_name_H-M	'P1'
_cell_length_a	22.963000
_cell_length_b	22.963000
_cell_length_c	34.546000
_cell_angle_alpha	90.000000
_cell_angle_beta	90.000000
_cell_angle_gamma	90.000000
_symmetry_Int_Tables_number 1

loop_
_symmetry_equiv_pos_as_xyz
'x,y,z'

loop_
_atom_site_label
_atom_site_type_symbol
_atom_site_fract_x
_atom_site_fract_y
_atom_site_fract_z
N11	N1	0.233070	0.089300	0.638100
C11	C1	0.215500	0.122700	0.667030
H11	H1	0.243300	0.144800	0.680000
C21	C2	0.158800	0.126700	0.678940
H21	H2	0.149100	0.151000	0.699500
C31	C3	0.115650	0.094300	0.660270
C41	C4	0.134300	0.060300	0.629410
H31	H3	0.107800	0.038500	0.615200
C51	C5	0.192600	0.059300	0.620180
H41	H4	0.204200	0.035600	0.599700
C61	C6	0.054170	0.096450	0.672190
C71	C7	0.031190	0.101550	0.708620
C81	C8	0.065150	0.100400	0.745310
C91	C9	0.088000	0.050100	0.759540
H51	H5	0.084600	0.016000	0.745200
C101	C10	0.115600	0.048700	0.794150
H61	H6	0.130000	0.013100	0.802700
N21	N2	0.345350	0.126590	0.567010
C111	C11	0.395400	0.147900	0.553120
H71	H7	0.429100	0.142900	0.567700
C121	C12	0.073300	0.149500	0.768320
H81	H8	0.059000	0.185300	0.760100
N31	N3	0.733070	0.589300	0.138100
C131	C13	0.715500	0.622700	0.167030
H91	H9	0.743300	0.644800	0.180000
C141	C14	0.658800	0.626700	0.178940
H101	H10	0.649100	0.651000	0.199500
C151	C15	0.615650	0.594300	0.160270
C161	C16	0.634300	0.560300	0.129410
H111	H11	0.607800	0.538500	0.115200
C171	C17	0.692600	0.559300	0.120180
H121	H12	0.704200	0.535600	0.099700
C181	C18	0.554170	0.596450	0.172190
C191	C19	0.531190	0.601550	0.208620
C201	C20	0.565150	0.600400	0.245310
C211	C21	0.588000	0.550100	0.259540
H131	H13	0.584600	0.516000	0.245200
C221	C22	0.615600	0.548700	0.294150
H141	H14	0.630000	0.513100	0.302700
N41	N4	0.845350	0.626590	0.067010
C231	C23	0.895400	0.647900	0.053120
H151	H15	0.929100	0.642900	0.067700
C241	C24	0.573300	0.649500	0.268320
H161	H16	0.559000	0.685300	0.260100
N51	N5	0.266930	0.910700	0.138100
C251	C25	0.284500	0.877300	0.167030
H171	H17	0.256700	0.855200	0.180000
C261	C26	0.341200	0.873300	0.178940
H181	H18	0.350900	0.849000	0.199500
C271	C27	0.384350	0.905700	0.160270
C281	C28	0.365700	0.939700	0.129410
H191	H19	0.392200	0.961500	0.115200
C291	C29	0.307400	0.940700	0.120180
H201	H20	0.295800	0.964400	0.099700
C301	C30	0.445830	0.903550	0.172190
C311	C31	0.468810	0.898450	0.208620
C321	C32	0.434850	0.899600	0.245310
C331	C33	0.412000	0.949900	0.259540
H211	H21	0.415400	0.984000	0.245200
C341	C34	0.384400	0.951300	0.294150
H221	H22	0.370000	0.986900	0.302700
N61	N6	0.154650	0.873410	0.067010
C351	C35	0.104600	0.852100	0.053120
H231	H23	0.070900	0.857100	0.067700
C361	C36	0.426700	0.850500	0.268320
H241	H24	0.441000	0.814700	0.260100
N71	N7	0.766930	0.410700	0.638100
C371	C37	0.784500	0.377300	0.667030
H251	H25	0.756700	0.355200	0.680000
C381	C38	0.841200	0.373300	0.678940
H261	H26	0.850900	0.349000	0.699500
C391	C39	0.884350	0.405700	0.660270
C401	C40	0.865700	0.439700	0.629410
H271	H27	0.892200	0.461500	0.615200
C411	C41	0.807400	0.440700	0.620180
H281	H28	0.795800	0.464400	0.599700
C421	C42	0.945830	0.403550	0.672190
C431	C43	0.968810	0.398450	0.708620
C441	C44	0.934850	0.399600	0.745310
C451	C45	0.912000	0.449900	0.759540
H291	H29	0.915400	0.484000	0.745200
C461	C46	0.884400	0.451300	0.794150
H301	H30	0.870000	0.486900	0.802700
N81	N8	0.654650	0.373410	0.567010
C471	C47	0.604600	0.352100	0.553120
H311	H31	0.570900	0.357100	0.567700
C481	C48	0.926700	0.350500	0.768320
H321	H32	0.941000	0.314700	0.760100
N91	N9	0.160700	0.983070	0.888100
C491	C49	0.127300	0.965500	0.917030
H331	H33	0.105200	0.993300	0.930000
C501	C50	0.123300	0.908800	0.928940
H341	H34	0.099000	0.899100	0.949500
C511	C51	0.155700	0.865650	0.910270
C521	C52	0.189700	0.884300	0.879410
H351	H35	0.211500	0.857800	0.865200
C531	C53	0.190700	0.942600	0.870180
H361	H36	0.214400	0.954200	0.849700
C541	C54	0.153550	0.804170	0.922190
C551	C55	0.148450	0.781190	0.958620
C561	C56	0.149600	0.815150	0.995310
C571	C57	0.199900	0.838000	0.009540
H371	H37	0.234000	0.834600	0.995200
C581	C58	0.201300	0.865600	0.044150
H381	H38	0.236900	0.880000	0.052700
N101	N10	0.123410	0.095350	0.817010
C591	C59	0.102100	0.145400	0.803120
H391	H39	0.107100	0.179100	0.817700
C601	C60	0.100500	0.823300	0.018320
H401	H40	0.064700	0.809000	0.010100
N111	N11	0.660700	0.483070	0.388100
C611	C61	0.627300	0.465500	0.417030
H411	H41	0.605200	0.493300	0.430000
C621	C62	0.623300	0.408800	0.428940
H421	H42	0.599000	0.399100	0.449500
C631	C63	0.655700	0.365650	0.410270
C641	C64	0.689700	0.384300	0.379410
H431	H43	0.711500	0.357800	0.365200
C651	C65	0.690700	0.442600	0.370180
H441	H44	0.714400	0.454200	0.349700
C661	C66	0.653550	0.304170	0.422190
C671	C67	0.648450	0.281190	0.458620
C681	C68	0.649600	0.315150	0.495310
C691	C69	0.699900	0.338000	0.509540
H451	H45	0.734000	0.334600	0.495200
C701	C70	0.701300	0.365600	0.544150
H461	H46	0.736900	0.380000	0.552700
N121	N12	0.623410	0.595350	0.317010
C711	C71	0.602100	0.645400	0.303120
H471	H47	0.607100	0.679100	0.317700
C721	C72	0.600500	0.323300	0.518320
H481	H48	0.564700	0.309000	0.510100
N131	N13	0.339300	0.016930	0.388100
C731	C73	0.372700	0.034500	0.417030
H491	H49	0.394800	0.006700	0.430000
C741	C74	0.376700	0.091200	0.428940
H501	H50	0.401000	0.100900	0.449500
C751	C75	0.344300	0.134350	0.410270
C761	C76	0.310300	0.115700	0.379410
H511	H51	0.288500	0.142200	0.365200
C771	C77	0.309300	0.057400	0.370180
H521	H52	0.285600	0.045800	0.349700
C781	C78	0.346450	0.195830	0.422190
C791	C79	0.351550	0.218810	0.458620
C801	C80	0.350400	0.184850	0.495310
C811	C81	0.300100	0.162000	0.509540
H531	H53	0.266000	0.165400	0.495200
C821	C82	0.298700	0.134400	0.544150
H541	H54	0.263100	0.120000	0.552700
N141	N14	0.376590	0.904650	0.317010
C831	C83	0.397900	0.854600	0.303120
H551	H55	0.392900	0.820900	0.317700
C841	C84	0.399500	0.176700	0.518320
H561	H56	0.435300	0.191000	0.510100
N151	N15	0.839300	0.516930	0.888100
C851	C85	0.872700	0.534500	0.917030
H571	H57	0.894800	0.506700	0.930000
C861	C86	0.876700	0.591200	0.928940
H581	H58	0.901000	0.600900	0.949500
C871	C87	0.844300	0.634350	0.910270
C881	C88	0.810300	0.615700	0.879410
H591	H59	0.788500	0.642200	0.865200
C891	C89	0.809300	0.557400	0.870180
H601	H60	0.785600	0.545800	0.849700
C901	C90	0.846450	0.695830	0.922190
C911	C91	0.851550	0.718810	0.958620
C921	C92	0.850400	0.684850	0.995310
C931	C93	0.800100	0.662000	0.009540
H611	H61	0.766000	0.665400	0.995200
C941	C94	0.798700	0.634400	0.044150
H621	H62	0.763100	0.620000	0.052700
N161	N16	0.876590	0.404650	0.817010
C951	C95	0.897900	0.354600	0.803120
H631	H63	0.892900	0.320900	0.817700
C961	C96	0.899500	0.676700	0.018320
H641	H64	0.935300	0.691000	0.010100
N171	N17	0.266930	0.089300	0.861900
C971	C97	0.284500	0.122700	0.832970
H651	H65	0.256700	0.144800	0.820000
C981	C98	0.341200	0.126700	0.821060
H661	H66	0.350900	0.151000	0.800500
C991	C99	0.384350	0.094300	0.839730
C1001	C100	0.365700	0.060300	0.870590
H671	H67	0.392200	0.038500	0.884800
C1011	C101	0.307400	0.059300	0.879820
H681	H68	0.295800	0.035600	0.900300
C1021	C102	0.445830	0.096450	0.827810
C1031	C103	0.468810	0.101550	0.791380
C1041	C104	0.434850	0.100400	0.754690
C1051	C105	0.412000	0.050100	0.740460
H691	H69	0.415400	0.016000	0.754800
C1061	C106	0.384400	0.048700	0.705850
H701	H70	0.370000	0.013100	0.697300
N181	N18	0.154650	0.126590	0.932990
C1071	C107	0.104600	0.147900	0.946880
H711	H71	0.070900	0.142900	0.932300
C1081	C108	0.426700	0.149500	0.731680
H721	H72	0.441000	0.185300	0.739900
N191	N19	0.766930	0.589300	0.361900
C1091	C109	0.784500	0.622700	0.332970
H731	H73	0.756700	0.644800	0.320000
C1101	C110	0.841200	0.626700	0.321060
H741	H74	0.850900	0.651000	0.300500
C1111	C111	0.884350	0.594300	0.339730
C1121	C112	0.865700	0.560300	0.370590
H751	H75	0.892200	0.538500	0.384800
C1131	C113	0.807400	0.559300	0.379820
H761	H76	0.795800	0.535600	0.400300
C1141	C114	0.945830	0.596450	0.327810
C1151	C115	0.968810	0.601550	0.291380
C1161	C116	0.934850	0.600400	0.254690
C1171	C117	0.912000	0.550100	0.240460
H771	H77	0.915400	0.516000	0.254800
C1181	C118	0.884400	0.548700	0.205850
H781	H78	0.870000	0.513100	0.197300
N201	N20	0.654650	0.626590	0.432990
C1191	C119	0.604600	0.647900	0.446880
H791	H79	0.570900	0.642900	0.432300
C1201	C120	0.926700	0.649500	0.231680
H801	H80	0.941000	0.685300	0.239900
N211	N21	0.233070	0.910700	0.361900
C1211	C121	0.215500	0.877300	0.332970
H811	H81	0.243300	0.855200	0.320000
C1221	C122	0.158800	0.873300	0.321060
H821	H82	0.149100	0.849000	0.300500
C1231	C123	0.115650	0.905700	0.339730
C1241	C124	0.134300	0.939700	0.370590
H831	H83	0.107800	0.961500	0.384800
C1251	C125	0.192600	0.940700	0.379820
H841	H84	0.204200	0.964400	0.400300
C1261	C126	0.054170	0.903550	0.327810
C1271	C127	0.031190	0.898450	0.291380
C1281	C128	0.065150	0.899600	0.254690
C1291	C129	0.088000	0.949900	0.240460
H851	H85	0.084600	0.984000	0.254800
C1301	C130	0.115600	0.951300	0.205850
H861	H86	0.130000	0.986900	0.197300
N221	N22	0.345350	0.873410	0.432990
C1311	C131	0.395400	0.852100	0.446880
H871	H87	0.429100	0.857100	0.432300
C1321	C132	0.073300	0.850500	0.231680
H881	H88	0.059000	0.814700	0.239900
N231	N23	0.733070	0.410700	0.861900
C1331	C133	0.715500	0.377300	0.832970
H891	H89	0.743300	0.355200	0.820000
C1341	C134	0.658800	0.373300	0.821060
H901	H90	0.649100	0.349000	0.800500
C1351	C135	0.615650	0.405700	0.839730
C1361	C136	0.634300	0.439700	0.870590
H911	H91	0.607800	0.461500	0.884800
C1371	C137	0.692600	0.440700	0.879820
H921	H92	0.704200	0.464400	0.900300
C1381	C138	0.554170	0.403550	0.827810
C1391	C139	0.531190	0.398450	0.791380
C1401	C140	0.565150	0.399600	0.754690
C1411	C141	0.588000	0.449900	0.740460
H931	H93	0.584600	0.484000	0.754800
C1421	C142	0.615600	0.451300	0.705850
H941	H94	0.630000	0.486900	0.697300
N241	N24	0.845350	0.373410	0.932990
C1431	C143	0.895400	0.352100	0.946880
H951	H95	0.929100	0.357100	0.932300
C1441	C144	0.573300	0.350500	0.731680
H961	H96	0.559000	0.314700	0.739900
N251	N25	0.339300	0.983070	0.611900
C1451	C145	0.372700	0.965500	0.582970
H971	H97	0.394800	0.993300	0.570000
C1461	C146	0.376700	0.908800	0.571060
H981	H98	0.401000	0.899100	0.550500
C1471	C147	0.344300	0.865650	0.589730
C1481	C148	0.310300	0.884300	0.620590
H991	H99	0.288500	0.857800	0.634800
C1491	C149	0.309300	0.942600	0.629820
H1001	H100	0.285600	0.954200	0.650300
C1501	C150	0.346450	0.804170	0.577810
C1511	C151	0.351550	0.781190	0.541380
C1521	C152	0.350400	0.815150	0.504690
C1531	C153	0.300100	0.838000	0.490460
H1011	H101	0.266000	0.834600	0.504800
C1541	C154	0.298700	0.865600	0.455850
H1021	H102	0.263100	0.880000	0.447300
N261	N26	0.376590	0.095350	0.682990
C1551	C155	0.397900	0.145400	0.696880
H1031	H103	0.392900	0.179100	0.682300
C1561	C156	0.399500	0.823300	0.481680
H1041	H104	0.435300	0.809000	0.489900
N271	N27	0.839300	0.483070	0.111900
C1571	C157	0.872700	0.465500	0.082970
H1051	H105	0.894800	0.493300	0.070000
C1581	C158	0.876700	0.408800	0.071060
H1061	H106	0.901000	0.399100	0.050500
C1591	C159	0.844300	0.365650	0.089730
C1601	C160	0.810300	0.384300	0.120590
H1071	H107	0.788500	0.357800	0.134800
C1611	C161	0.809300	0.442600	0.129820
H1081	H108	0.785600	0.454200	0.150300
C1621	C162	0.846450	0.304170	0.077810
C1631	C163	0.851550	0.281190	0.041380
C1641	C164	0.850400	0.315150	0.004690
C1651	C165	0.800100	0.338000	0.990460
H1091	H109	0.766000	0.334600	0.004800
C1661	C166	0.798700	0.365600	0.955850
H1101	H110	0.763100	0.380000	0.947300
N281	N28	0.876590	0.595350	0.182990
C1671	C167	0.897900	0.645400	0.196880
H1111	H111	0.892900	0.679100	0.182300
C1681	C168	0.899500	0.323300	0.981680
H1121	H112	0.935300	0.309000	0.989900
N291	N29	0.160700	0.016930	0.111900
C1691	C169	0.127300	0.034500	0.082970
H1131	H113	0.105200	0.006700	0.070000
C1701	C170	0.123300	0.091200	0.071060
H1141	H114	0.099000	0.100900	0.050500
C1711	C171	0.155700	0.134350	0.089730
C1721	C172	0.189700	0.115700	0.120590
H1151	H115	0.211500	0.142200	0.134800
C1731	C173	0.190700	0.057400	0.129820
H1161	H116	0.214400	0.045800	0.150300
C1741	C174	0.153550	0.195830	0.077810
C1751	C175	0.148450	0.218810	0.041380
C1761	C176	0.149600	0.184850	0.004690
C1771	C177	0.199900	0.162000	0.990460
H1171	H117	0.234000	0.165400	0.004800
C1781	C178	0.201300	0.134400	0.955850
H1181	H118	0.236900	0.120000	0.947300
N301	N30	0.123410	0.904650	0.182990
C1791	C179	0.102100	0.854600	0.196880
H1191	H119	0.107100	0.820900	0.182300
C1801	C180	0.100500	0.176700	0.981680
H1201	H120	0.064700	0.191000	0.989900
N311	N31	0.660700	0.516930	0.611900
C1811	C181	0.627300	0.534500	0.582970
H1211	H121	0.605200	0.506700	0.570000
C1821	C182	0.623300	0.591200	0.571060
H1221	H122	0.599000	0.600900	0.550500
C1831	C183	0.655700	0.634350	0.589730
C1841	C184	0.689700	0.615700	0.620590
H1231	H123	0.711500	0.642200	0.634800
C1851	C185	0.690700	0.557400	0.629820
H1241	H124	0.714400	0.545800	0.650300
C1861	C186	0.653550	0.695830	0.577810
C1871	C187	0.648450	0.718810	0.541380
C1881	C188	0.649600	0.684850	0.504690
C1891	C189	0.699900	0.662000	0.490460
H1251	H125	0.734000	0.665400	0.504800
C1901	C190	0.701300	0.634400	0.455850
H1261	H126	0.736900	0.620000	0.447300
N321	N32	0.623410	0.404650	0.682990
C1911	C191	0.602100	0.354600	0.696880
H1271	H127	0.607100	0.320900	0.682300
C1921	C192	0.600500	0.676700	0.481680
H1281	H128	0.564700	0.691000	0.489900
N331	N33	0.766930	0.910700	0.361900
C1931	C193	0.784500	0.877300	0.332970
H1291	H129	0.756700	0.855200	0.320000
C1941	C194	0.841200	0.873300	0.321060
H1301	H130	0.850900	0.849000	0.300500
C1951	C195	0.884350	0.905700	0.339730
C1961	C196	0.865700	0.939700	0.370590
H1311	H131	0.892200	0.961500	0.384800
C1971	C197	0.807400	0.940700	0.379820
H1321	H132	0.795800	0.964400	0.400300
C1981	C198	0.945830	0.903550	0.327810
C1991	C199	0.968810	0.898450	0.291380
C2001	C200	0.934850	0.899600	0.254690
C2011	C201	0.912000	0.949900	0.240460
H1331	H133	0.915400	0.984000	0.254800
C2021	C202	0.884400	0.951300	0.205850
H1341	H134	0.870000	0.986900	0.197300
N341	N34	0.654650	0.873410	0.432990
C2031	C203	0.604600	0.852100	0.446880
H1351	H135	0.570900	0.857100	0.432300
C2041	C204	0.926700	0.850500	0.231680
H1361	H136	0.941000	0.814700	0.239900
N351	N35	0.266930	0.410700	0.861900
C2051	C205	0.284500	0.377300	0.832970
H1371	H137	0.256700	0.355200	0.820000
C2061	C206	0.341200	0.373300	0.821060
H1381	H138	0.350900	0.349000	0.800500
C2071	C207	0.384350	0.405700	0.839730
C2081	C208	0.365700	0.439700	0.870590
H1391	H139	0.392200	0.461500	0.884800
C2091	C209	0.307400	0.440700	0.879820
H1401	H140	0.295800	0.464400	0.900300
C2101	C210	0.445830	0.403550	0.827810
C2111	C211	0.468810	0.398450	0.791380
C2121	C212	0.434850	0.399600	0.754690
C2131	C213	0.412000	0.449900	0.740460
H1411	H141	0.415400	0.484000	0.754800
C2141	C214	0.384400	0.451300	0.705850
H1421	H142	0.370000	0.486900	0.697300
N361	N36	0.154650	0.373410	0.932990
C2151	C215	0.104600	0.352100	0.946880
H1431	H143	0.070900	0.357100	0.932300
C2161	C216	0.426700	0.350500	0.731680
H1441	H144	0.441000	0.314700	0.739900
N371	N37	0.733070	0.089300	0.861900
C2171	C217	0.715500	0.122700	0.832970
H1451	H145	0.743300	0.144800	0.820000
C2181	C218	0.658800	0.126700	0.821060
H1461	H146	0.649100	0.151000	0.800500
C2191	C219	0.615650	0.094300	0.839730
C2201	C220	0.634300	0.060300	0.870590
H1471	H147	0.607800	0.038500	0.884800
C2211	C221	0.692600	0.059300	0.879820
H1481	H148	0.704200	0.035600	0.900300
C2221	C222	0.554170	0.096450	0.827810
C2231	C223	0.531190	0.101550	0.791380
C2241	C224	0.565150	0.100400	0.754690
C2251	C225	0.588000	0.050100	0.740460
H1491	H149	0.584600	0.016000	0.754800
C2261	C226	0.615600	0.048700	0.705850
H1501	H150	0.630000	0.013100	0.697300
N381	N38	0.845350	0.126590	0.932990
C2271	C227	0.895400	0.147900	0.946880
H1511	H151	0.929100	0.142900	0.932300
C2281	C228	0.573300	0.149500	0.731680
H1521	H152	0.559000	0.185300	0.739900
N391	N39	0.233070	0.589300	0.361900
C2291	C229	0.215500	0.622700	0.332970
H1531	H153	0.243300	0.644800	0.320000
C2301	C230	0.158800	0.626700	0.321060
H1541	H154	0.149100	0.651000	0.300500
C2311	C231	0.115650	0.594300	0.339730
C2321	C232	0.134300	0.560300	0.370590
H1551	H155	0.107800	0.538500	0.384800
C2331	C233	0.192600	0.559300	0.379820
H1561	H156	0.204200	0.535600	0.400300
C2341	C234	0.054170	0.596450	0.327810
C2351	C235	0.031190	0.601550	0.291380
C2361	C236	0.065150	0.600400	0.254690
C2371	C237	0.088000	0.550100	0.240460
H1571	H157	0.084600	0.516000	0.254800
C2381	C238	0.115600	0.548700	0.205850
H1581	H158	0.130000	0.513100	0.197300
N401	N40	0.345350	0.626590	0.432990
C2391	C239	0.395400	0.647900	0.446880
H1591	H159	0.429100	0.642900	0.432300
C2401	C240	0.073300	0.649500	0.231680
H1601	H160	0.059000	0.685300	0.239900
N411	N41	0.839300	0.016930	0.111900
C2411	C241	0.872700	0.034500	0.082970
H1611	H161	0.894800	0.006700	0.070000
C2421	C242	0.876700	0.091200	0.071060
H1621	H162	0.901000	0.100900	0.050500
C2431	C243	0.844300	0.134350	0.089730
C2441	C244	0.810300	0.115700	0.120590
H1631	H163	0.788500	0.142200	0.134800
C2451	C245	0.809300	0.057400	0.129820
H1641	H164	0.785600	0.045800	0.150300
C2461	C246	0.846450	0.195830	0.077810
C2471	C247	0.851550	0.218810	0.041380
C2481	C248	0.850400	0.184850	0.004690
C2491	C249	0.800100	0.162000	0.990460
H1651	H165	0.766000	0.165400	0.004800
C2501	C250	0.798700	0.134400	0.955850
H1661	H166	0.763100	0.120000	0.947300
N421	N42	0.876590	0.904650	0.182990
C2511	C251	0.897900	0.854600	0.196880
H1671	H167	0.892900	0.820900	0.182300
C2521	C252	0.899500	0.176700	0.981680
H1681	H168	0.935300	0.191000	0.989900
N431	N43	0.339300	0.516930	0.611900
C2531	C253	0.372700	0.534500	0.582970
H1691	H169	0.394800	0.506700	0.570000
C2541	C254	0.376700	0.591200	0.571060
H1701	H170	0.401000	0.600900	0.550500
C2551	C255	0.344300	0.634350	0.589730
C2561	C256	0.310300	0.615700	0.620590
H1711	H171	0.288500	0.642200	0.634800
C2571	C257	0.309300	0.557400	0.629820
H1721	H172	0.285600	0.545800	0.650300
C2581	C258	0.346450	0.695830	0.577810
C2591	C259	0.351550	0.718810	0.541380
C2601	C260	0.350400	0.684850	0.504690
C2611	C261	0.300100	0.662000	0.490460
H1731	H173	0.266000	0.665400	0.504800
C2621	C262	0.298700	0.634400	0.455850
H1741	H174	0.263100	0.620000	0.447300
N441	N44	0.376590	0.404650	0.682990
C2631	C263	0.397900	0.354600	0.696880
H1751	H175	0.392900	0.320900	0.682300
C2641	C264	0.399500	0.676700	0.481680
H1761	H176	0.435300	0.691000	0.489900
N451	N45	0.660700	0.983070	0.611900
C2651	C265	0.627300	0.965500	0.582970
H1771	H177	0.605200	0.993300	0.570000
C2661	C266	0.623300	0.908800	0.571060
H1781	H178	0.599000	0.899100	0.550500
C2671	C267	0.655700	0.865650	0.589730
C2681	C268	0.689700	0.884300	0.620590
H1791	H179	0.711500	0.857800	0.634800
C2691	C269	0.690700	0.942600	0.629820
H1801	H180	0.714400	0.954200	0.650300
C2701	C270	0.653550	0.804170	0.577810
C2711	C271	0.648450	0.781190	0.541380
C2721	C272	0.649600	0.815150	0.504690
C2731	C273	0.699900	0.838000	0.490460
H1811	H181	0.734000	0.834600	0.504800
C2741	C274	0.701300	0.865600	0.455850
H1821	H182	0.736900	0.880000	0.447300
N461	N46	0.623410	0.095350	0.682990
C2751	C275	0.602100	0.145400	0.696880
H1831	H183	0.607100	0.179100	0.682300
C2761	C276	0.600500	0.823300	0.481680
H1841	H184	0.564700	0.809000	0.489900
N471	N47	0.160700	0.483070	0.111900
C2771	C277	0.127300	0.465500	0.082970
H1851	H185	0.105200	0.493300	0.070000
C2781	C278	0.123300	0.408800	0.071060
H1861	H186	0.099000	0.399100	0.050500
C2791	C279	0.155700	0.365650	0.089730
C2801	C280	0.189700	0.384300	0.120590
H1871	H187	0.211500	0.357800	0.134800
C2811	C281	0.190700	0.442600	0.129820
H1881	H188	0.214400	0.454200	0.150300
C2821	C282	0.153550	0.304170	0.077810
C2831	C283	0.148450	0.281190	0.041380
C2841	C284	0.149600	0.315150	0.004690
C2851	C285	0.199900	0.338000	0.990460
H1891	H189	0.234000	0.334600	0.004800
C2861	C286	0.201300	0.365600	0.955850
H1901	H190	0.236900	0.380000	0.947300
N481	N48	0.123410	0.595350	0.182990
C2871	C287	0.102100	0.645400	0.196880
H1911	H191	0.107100	0.679100	0.182300
C2881	C288	0.100500	0.323300	0.981680
H1921	H192	0.064700	0.309000	0.989900
N491	N49	0.733070	0.910700	0.138100
C2891	C289	0.715500	0.877300	0.167030
H1931	H193	0.743300	0.855200	0.180000
C2901	C290	0.658800	0.873300	0.178940
H1941	H194	0.649100	0.849000	0.199500
C2911	C291	0.615650	0.905700	0.160270
C2921	C292	0.634300	0.939700	0.129410
H1951	H195	0.607800	0.961500	0.115200
C2931	C293	0.692600	0.940700	0.120180
H1961	H196	0.704200	0.964400	0.099700
C2941	C294	0.554170	0.903550	0.172190
C2951	C295	0.531190	0.898450	0.208620
C2961	C296	0.565150	0.899600	0.245310
C2971	C297	0.588000	0.949900	0.259540
H1971	H197	0.584600	0.984000	0.245200
C2981	C298	0.615600	0.951300	0.294150
H1981	H198	0.630000	0.986900	0.302700
N501	N50	0.845350	0.873410	0.067010
C2991	C299	0.895400	0.852100	0.053120
H1991	H199	0.929100	0.857100	0.067700
C3001	C300	0.573300	0.850500	0.268320
H2001	H200	0.559000	0.814700	0.260100
N511	N51	0.233070	0.410700	0.638100
C3011	C301	0.215500	0.377300	0.667030
H2011	H201	0.243300	0.355200	0.680000
C3021	C302	0.158800	0.373300	0.678940
H2021	H202	0.149100	0.349000	0.699500
C3031	C303	0.115650	0.405700	0.660270
C3041	C304	0.134300	0.439700	0.629410
H2031	H203	0.107800	0.461500	0.615200
C3051	C305	0.192600	0.440700	0.620180
H2041	H204	0.204200	0.464400	0.599700
C3061	C306	0.054170	0.403550	0.672190
C3071	C307	0.031190	0.398450	0.708620
C3081	C308	0.065150	0.399600	0.745310
C3091	C309	0.088000	0.449900	0.759540
H2051	H205	0.084600	0.484000	0.745200
C3101	C310	0.115600	0.451300	0.794150
H2061	H206	0.130000	0.486900	0.802700
N521	N52	0.345350	0.373410	0.567010
C3111	C311	0.395400	0.352100	0.553120
H2071	H207	0.429100	0.357100	0.567700
C3121	C312	0.073300	0.350500	0.768320
H2081	H208	0.059000	0.314700	0.760100
N531	N53	0.766930	0.089300	0.638100
C3131	C313	0.784500	0.122700	0.667030
H2091	H209	0.756700	0.144800	0.680000
C3141	C314	0.841200	0.126700	0.678940
H2101	H210	0.850900	0.151000	0.699500
C3151	C315	0.884350	0.094300	0.660270
C3161	C316	0.865700	0.060300	0.629410
H2111	H211	0.892200	0.038500	0.615200
C3171	C317	0.807400	0.059300	0.620180
H2121	H212	0.795800	0.035600	0.599700
C3181	C318	0.945830	0.096450	0.672190
C3191	C319	0.968810	0.101550	0.708620
C3201	C320	0.934850	0.100400	0.745310
C3211	C321	0.912000	0.050100	0.759540
H2131	H213	0.915400	0.016000	0.745200
C3221	C322	0.884400	0.048700	0.794150
H2141	H214	0.870000	0.013100	0.802700
N541	N54	0.654650	0.126590	0.567010
C3231	C323	0.604600	0.147900	0.553120
H2151	H215	0.570900	0.142900	0.567700
C3241	C324	0.926700	0.149500	0.768320
H2161	H216	0.941000	0.185300	0.760100
N551	N55	0.266930	0.589300	0.138100
C3251	C325	0.284500	0.622700	0.167030
H2171	H217	0.256700	0.644800	0.180000
C3261	C326	0.341200	0.626700	0.178940
H2181	H218	0.350900	0.651000	0.199500
C3271	C327	0.384350	0.594300	0.160270
C3281	C328	0.365700	0.560300	0.129410
H2191	H219	0.392200	0.538500	0.115200
C3291	C329	0.307400	0.559300	0.120180
H2201	H220	0.295800	0.535600	0.099700
C3301	C330	0.445830	0.596450	0.172190
C3311	C331	0.468810	0.601550	0.208620
C3321	C332	0.434850	0.600400	0.245310
C3331	C333	0.412000	0.550100	0.259540
H2211	H221	0.415400	0.516000	0.245200
C3341	C334	0.384400	0.548700	0.294150
H2221	H222	0.370000	0.513100	0.302700
N561	N56	0.154650	0.626590	0.067010
C3351	C335	0.104600	0.647900	0.053120
H2231	H223	0.070900	0.642900	0.067700
C3361	C336	0.426700	0.649500	0.268320
H2241	H224	0.441000	0.685300	0.260100
N571	N57	0.660700	0.016930	0.388100
C3371	C337	0.627300	0.034500	0.417030
H2251	H225	0.605200	0.006700	0.430000
C3381	C338	0.623300	0.091200	0.428940
H2261	H226	0.599000	0.100900	0.449500
C3391	C339	0.655700	0.134350	0.410270
C3401	C340	0.689700	0.115700	0.379410
H2271	H227	0.711500	0.142200	0.365200
C3411	C341	0.690700	0.057400	0.370180
H2281	H228	0.714400	0.045800	0.349700
C3421	C342	0.653550	0.195830	0.422190
C3431	C343	0.648450	0.218810	0.458620
C3441	C344	0.649600	0.184850	0.495310
C3451	C345	0.699900	0.162000	0.509540
H2291	H229	0.734000	0.165400	0.495200
C3461	C346	0.701300	0.134400	0.544150
H2301	H230	0.736900	0.120000	0.552700
N581	N58	0.623410	0.904650	0.317010
C3471	C347	0.602100	0.854600	0.303120
H2311	H231	0.607100	0.820900	0.317700
C3481	C348	0.600500	0.176700	0.518320
H2321	H232	0.564700	0.191000	0.510100
N591	N59	0.160700	0.516930	0.888100
C3491	C349	0.127300	0.534500	0.917030
H2331	H233	0.105200	0.506700	0.930000
C3501	C350	0.123300	0.591200	0.928940
H2341	H234	0.099000	0.600900	0.949500
C3511	C351	0.155700	0.634350	0.910270
C3521	C352	0.189700	0.615700	0.879410
H2351	H235	0.211500	0.642200	0.865200
C3531	C353	0.190700	0.557400	0.870180
H2361	H236	0.214400	0.545800	0.849700
C3541	C354	0.153550	0.695830	0.922190
C3551	C355	0.148450	0.718810	0.958620
C3561	C356	0.149600	0.684850	0.995310
C3571	C357	0.199900	0.662000	0.009540
H2371	H237	0.234000	0.665400	0.995200
C3581	C358	0.201300	0.634400	0.044150
H2381	H238	0.236900	0.620000	0.052700
N601	N60	0.123410	0.404650	0.817010
C3591	C359	0.102100	0.354600	0.803120
H2391	H239	0.107100	0.320900	0.817700
C3601	C360	0.100500	0.676700	0.018320
H2401	H240	0.064700	0.691000	0.010100
N611	N61	0.839300	0.983070	0.888100
C3611	C361	0.872700	0.965500	0.917030
H2411	H241	0.894800	0.993300	0.930000
C3621	C362	0.876700	0.908800	0.928940
H2421	H242	0.901000	0.899100	0.949500
C3631	C363	0.844300	0.865650	0.910270
C3641	C364	0.810300	0.884300	0.879410
H2431	H243	0.788500	0.857800	0.865200
C3651	C365	0.809300	0.942600	0.870180
H2441	H244	0.785600	0.954200	0.849700
C3661	C366	0.846450	0.804170	0.922190
C3671	C367	0.851550	0.781190	0.958620
C3681	C368	0.850400	0.815150	0.995310
C3691	C369	0.800100	0.838000	0.009540
H2451	H245	0.766000	0.834600	0.995200
C3701	C370	0.798700	0.865600	0.044150
H2461	H246	0.763100	0.880000	0.052700
N621	N62	0.876590	0.095350	0.817010
C3711	C371	0.897900	0.145400	0.803120
H2471	H247	0.892900	0.179100	0.817700
C3721	C372	0.899500	0.823300	0.018320
H2481	H248	0.935300	0.809000	0.010100
N631	N63	0.339300	0.483070	0.388100
C3731	C373	0.372700	0.465500	0.417030
H2491	H249	0.394800	0.493300	0.430000
C3741	C374	0.376700	0.408800	0.428940
H2501	H250	0.401000	0.399100	0.449500
C3751	C375	0.344300	0.365650	0.410270
C3761	C376	0.310300	0.384300	0.379410
H2511	H251	0.288500	0.357800	0.365200
C3771	C377	0.309300	0.442600	0.370180
H2521	H252	0.285600	0.454200	0.349700
C3781	C378	0.346450	0.304170	0.422190
C3791	C379	0.351550	0.281190	0.458620
C3801	C380	0.350400	0.315150	0.495310
C3811	C381	0.300100	0.338000	0.509540
H2531	H253	0.266000	0.334600	0.495200
C3821	C382	0.298700	0.365600	0.544150
H2541	H254	0.263100	0.380000	0.552700
N641	N64	0.376590	0.595350	0.317010
C3831	C383	0.397900	0.645400	0.303120
H2551	H255	0.392900	0.679100	0.317700
C3841	C384	0.399500	0.323300	0.518320
H2561	H256	0.435300	0.309000	0.510100
Ag11	Ag1	0.333980	0.083980	0.625000
Ag21	Ag2	0.833980	0.583980	0.125000
Ag31	Ag3	0.166020	0.916020	0.125000
Ag41	Ag4	0.666020	0.416020	0.625000
Ag51	Ag5	0.166020	0.083980	0.875000
Ag61	Ag6	0.666020	0.583980	0.375000
Ag71	Ag7	0.333980	0.916020	0.375000
Ag81	Ag8	0.833980	0.416020	0.875000
Ag91	Ag9	0.666020	0.916020	0.375000
Ag101	Ag10	0.166020	0.416020	0.875000
Ag111	Ag11	0.833980	0.083980	0.875000
Ag121	Ag12	0.333980	0.583980	0.375000
Ag131	Ag13	0.833980	0.916020	0.125000
Ag141	Ag14	0.333980	0.416020	0.625000
Ag151	Ag15	0.666020	0.083980	0.625000
Ag161	Ag16	0.166020	0.583980	0.125000
S11	S1	0.000000	0.092550	0.638010
S21	S2	0.500000	0.592550	0.138010
S31	S3	0.500000	0.907450	0.138010
S41	S4	0.000000	0.407450	0.638010
S51	S5	0.157450	0.750000	0.888010
S61	S6	0.342550	0.250000	0.388010
S71	S7	0.500000	0.092550	0.861990
S81	S8	0.000000	0.592550	0.361990
S91	S9	0.000000	0.907450	0.361990
S101	S10	0.500000	0.407450	0.861990
S111	S11	0.342550	0.750000	0.611990
S121	S12	0.157450	0.250000	0.111990
S131	S13	0.842550	0.250000	0.111990
S141	S14	0.657450	0.750000	0.611990
S151	S15	0.657450	0.250000	0.388010
S161	S16	0.842550	0.750000	0.888010
