data_AVIVAC_clean_PM
_symmetry_space_group_name_H-M	'P1'
_cell_length_a	22.543000
_cell_length_b	22.543000
_cell_length_c	35.516700
_cell_angle_alpha	90.000000
_cell_angle_beta	90.000000
_cell_angle_gamma	90.000000
_symmetry_Int_Tables_number 1

loop_
_symmetry_equiv_pos_as_xyz
'x,y,z'

loop_
_atom_site_label
_atom_site_type_symbol
_atom_site_fract_x
_atom_site_fract_y
_atom_site_fract_z
N11	N1	0.236320	0.091760	0.641090
C11	C1	0.219000	0.123190	0.670910
H11	H1	0.248300	0.144100	0.684800
C21	C2	0.160870	0.127110	0.682760
H21	H2	0.150600	0.151400	0.703600
C31	C3	0.117730	0.095120	0.663830
C41	C4	0.135750	0.061620	0.633150
H31	H3	0.107700	0.039100	0.619200
C51	C5	0.194640	0.061270	0.623050
H41	H4	0.206200	0.037900	0.602000
C61	C6	0.055060	0.096130	0.675550
C71	C7	0.031780	0.100780	0.711340
C81	C8	0.065650	0.100690	0.747180
C91	C9	0.083740	0.048010	0.763100
H51	H5	0.077300	0.011600	0.750300
C101	C10	0.111200	0.048430	0.797680
H61	H6	0.122900	0.011500	0.808300
N21	N2	0.122380	0.097760	0.817180
C111	C11	0.106610	0.147220	0.801180
H71	H7	0.115900	0.183200	0.813800
C121	C12	0.077430	0.151080	0.767210
H81	H8	0.065500	0.188600	0.757700
N31	N3	0.736320	0.591760	0.141090
C131	C13	0.719000	0.623190	0.170910
H91	H9	0.748300	0.644100	0.184800
C141	C14	0.660870	0.627110	0.182760
H101	H10	0.650600	0.651400	0.203600
C151	C15	0.617730	0.595120	0.163830
C161	C16	0.635750	0.561620	0.133150
H111	H11	0.607700	0.539100	0.119200
C171	C17	0.694640	0.561270	0.123050
H121	H12	0.706200	0.537900	0.102000
C181	C18	0.555060	0.596130	0.175550
C191	C19	0.531780	0.600780	0.211340
C201	C20	0.565650	0.600690	0.247180
C211	C21	0.583740	0.548010	0.263100
H131	H13	0.577300	0.511600	0.250300
C221	C22	0.611200	0.548430	0.297680
H141	H14	0.622900	0.511500	0.308300
N41	N4	0.622380	0.597760	0.317180
C231	C23	0.606610	0.647220	0.301180
H151	H15	0.615900	0.683200	0.313800
C241	C24	0.577430	0.651080	0.267210
H161	H16	0.565500	0.688600	0.257700
N51	N5	0.263680	0.908240	0.141090
C251	C25	0.281000	0.876810	0.170910
H171	H17	0.251700	0.855900	0.184800
C261	C26	0.339130	0.872890	0.182760
H181	H18	0.349400	0.848600	0.203600
C271	C27	0.382270	0.904880	0.163830
C281	C28	0.364250	0.938380	0.133150
H191	H19	0.392300	0.960900	0.119200
C291	C29	0.305360	0.938730	0.123050
H201	H20	0.293800	0.962100	0.102000
C301	C30	0.444940	0.903870	0.175550
C311	C31	0.468220	0.899220	0.211340
C321	C32	0.434350	0.899310	0.247180
C331	C33	0.416260	0.951990	0.263100
H211	H21	0.422700	0.988400	0.250300
C341	C34	0.388800	0.951570	0.297680
H221	H22	0.377100	0.988500	0.308300
N61	N6	0.377620	0.902240	0.317180
C351	C35	0.393390	0.852780	0.301180
H231	H23	0.384100	0.816800	0.313800
C361	C36	0.422570	0.848920	0.267210
H241	H24	0.434500	0.811400	0.257700
N71	N7	0.763680	0.408240	0.641090
C371	C37	0.781000	0.376810	0.670910
H251	H25	0.751700	0.355900	0.684800
C381	C38	0.839130	0.372890	0.682760
H261	H26	0.849400	0.348600	0.703600
C391	C39	0.882270	0.404880	0.663830
C401	C40	0.864250	0.438380	0.633150
H271	H27	0.892300	0.460900	0.619200
C411	C41	0.805360	0.438730	0.623050
H281	H28	0.793800	0.462100	0.602000
C421	C42	0.944940	0.403870	0.675550
C431	C43	0.968220	0.399220	0.711340
C441	C44	0.934350	0.399310	0.747180
C451	C45	0.916260	0.451990	0.763100
H291	H29	0.922700	0.488400	0.750300
C461	C46	0.888800	0.451570	0.797680
H301	H30	0.877100	0.488500	0.808300
N81	N8	0.877620	0.402240	0.817180
C471	C47	0.893390	0.352780	0.801180
H311	H31	0.884100	0.316800	0.813800
C481	C48	0.922570	0.348920	0.767210
H321	H32	0.934500	0.311400	0.757700
N91	N9	0.158240	0.986320	0.891090
C491	C49	0.126810	0.969000	0.920910
H331	H33	0.105900	0.998300	0.934800
C501	C50	0.122890	0.910870	0.932760
H341	H34	0.098600	0.900600	0.953600
C511	C51	0.154880	0.867730	0.913830
C521	C52	0.188380	0.885750	0.883150
H351	H35	0.210900	0.857700	0.869200
C531	C53	0.188730	0.944640	0.873050
H361	H36	0.212100	0.956200	0.852000
C541	C54	0.153870	0.805060	0.925550
C551	C55	0.149220	0.781780	0.961340
C561	C56	0.149310	0.815650	0.997180
C571	C57	0.201990	0.833740	0.013100
H371	H37	0.238400	0.827300	0.000300
C581	C58	0.201570	0.861200	0.047680
H381	H38	0.238500	0.872900	0.058300
N101	N10	0.152240	0.872380	0.067180
C591	C59	0.102780	0.856610	0.051180
H391	H39	0.066800	0.865900	0.063800
C601	C60	0.098920	0.827430	0.017210
H401	H40	0.061400	0.815500	0.007700
N111	N11	0.658240	0.486320	0.391090
C611	C61	0.626810	0.469000	0.420910
H411	H41	0.605900	0.498300	0.434800
C621	C62	0.622890	0.410870	0.432760
H421	H42	0.598600	0.400600	0.453600
C631	C63	0.654880	0.367730	0.413830
C641	C64	0.688380	0.385750	0.383150
H431	H43	0.710900	0.357700	0.369200
C651	C65	0.688730	0.444640	0.373050
H441	H44	0.712100	0.456200	0.352000
C661	C66	0.653870	0.305060	0.425550
C671	C67	0.649220	0.281780	0.461340
C681	C68	0.649310	0.315650	0.497180
C691	C69	0.701990	0.333740	0.513100
H451	H45	0.738400	0.327300	0.500300
C701	C70	0.701570	0.361200	0.547680
H461	H46	0.738500	0.372900	0.558300
N121	N12	0.652240	0.372380	0.567180
C711	C71	0.602780	0.356610	0.551180
H471	H47	0.566800	0.365900	0.563800
C721	C72	0.598920	0.327430	0.517210
H481	H48	0.561400	0.315500	0.507700
N131	N13	0.341760	0.013680	0.391090
C731	C73	0.373190	0.031000	0.420910
H491	H49	0.394100	0.001700	0.434800
C741	C74	0.377110	0.089130	0.432760
H501	H50	0.401400	0.099400	0.453600
C751	C75	0.345120	0.132270	0.413830
C761	C76	0.311620	0.114250	0.383150
H511	H51	0.289100	0.142300	0.369200
C771	C77	0.311270	0.055360	0.373050
H521	H52	0.287900	0.043800	0.352000
C781	C78	0.346130	0.194940	0.425550
C791	C79	0.350780	0.218220	0.461340
C801	C80	0.350690	0.184350	0.497180
C811	C81	0.298010	0.166260	0.513100
H531	H53	0.261600	0.172700	0.500300
C821	C82	0.298430	0.138800	0.547680
H541	H54	0.261500	0.127100	0.558300
N141	N14	0.347760	0.127620	0.567180
C831	C83	0.397220	0.143390	0.551180
H551	H55	0.433200	0.134100	0.563800
C841	C84	0.401080	0.172570	0.517210
H561	H56	0.438600	0.184500	0.507700
N151	N15	0.841760	0.513680	0.891090
C851	C85	0.873190	0.531000	0.920910
H571	H57	0.894100	0.501700	0.934800
C861	C86	0.877110	0.589130	0.932760
H581	H58	0.901400	0.599400	0.953600
C871	C87	0.845120	0.632270	0.913830
C881	C88	0.811620	0.614250	0.883150
H591	H59	0.789100	0.642300	0.869200
C891	C89	0.811270	0.555360	0.873050
H601	H60	0.787900	0.543800	0.852000
C901	C90	0.846130	0.694940	0.925550
C911	C91	0.850780	0.718220	0.961340
C921	C92	0.850690	0.684350	0.997180
C931	C93	0.798010	0.666260	0.013100
H611	H61	0.761600	0.672700	0.000300
C941	C94	0.798430	0.638800	0.047680
H621	H62	0.761500	0.627100	0.058300
N161	N16	0.847760	0.627620	0.067180
C951	C95	0.897220	0.643390	0.051180
H631	H63	0.933200	0.634100	0.063800
C961	C96	0.901080	0.672570	0.017210
H641	H64	0.938600	0.684500	0.007700
N171	N17	0.263680	0.091760	0.858910
C971	C97	0.281000	0.123190	0.829090
H651	H65	0.251700	0.144100	0.815200
C981	C98	0.339130	0.127110	0.817240
H661	H66	0.349400	0.151400	0.796400
C991	C99	0.382270	0.095120	0.836170
C1001	C100	0.364250	0.061620	0.866850
H671	H67	0.392300	0.039100	0.880800
C1011	C101	0.305360	0.061270	0.876950
H681	H68	0.293800	0.037900	0.898000
C1021	C102	0.444940	0.096130	0.824450
C1031	C103	0.468220	0.100780	0.788660
C1041	C104	0.434350	0.100690	0.752820
C1051	C105	0.416260	0.048010	0.736900
H691	H69	0.422700	0.011600	0.749700
C1061	C106	0.388800	0.048430	0.702320
H701	H70	0.377100	0.011500	0.691700
N181	N18	0.377620	0.097760	0.682820
C1071	C107	0.393390	0.147220	0.698820
H711	H71	0.384100	0.183200	0.686200
C1081	C108	0.422570	0.151080	0.732790
H721	H72	0.434500	0.188600	0.742300
N191	N19	0.763680	0.591760	0.358910
C1091	C109	0.781000	0.623190	0.329090
H731	H73	0.751700	0.644100	0.315200
C1101	C110	0.839130	0.627110	0.317240
H741	H74	0.849400	0.651400	0.296400
C1111	C111	0.882270	0.595120	0.336170
C1121	C112	0.864250	0.561620	0.366850
H751	H75	0.892300	0.539100	0.380800
C1131	C113	0.805360	0.561270	0.376950
H761	H76	0.793800	0.537900	0.398000
C1141	C114	0.944940	0.596130	0.324450
C1151	C115	0.968220	0.600780	0.288660
C1161	C116	0.934350	0.600690	0.252820
C1171	C117	0.916260	0.548010	0.236900
H771	H77	0.922700	0.511600	0.249700
C1181	C118	0.888800	0.548430	0.202320
H781	H78	0.877100	0.511500	0.191700
N201	N20	0.877620	0.597760	0.182820
C1191	C119	0.893390	0.647220	0.198820
H791	H79	0.884100	0.683200	0.186200
C1201	C120	0.922570	0.651080	0.232790
H801	H80	0.934500	0.688600	0.242300
N211	N21	0.236320	0.908240	0.358910
C1211	C121	0.219000	0.876810	0.329090
H811	H81	0.248300	0.855900	0.315200
C1221	C122	0.160870	0.872890	0.317240
H821	H82	0.150600	0.848600	0.296400
C1231	C123	0.117730	0.904880	0.336170
C1241	C124	0.135750	0.938380	0.366850
H831	H83	0.107700	0.960900	0.380800
C1251	C125	0.194640	0.938730	0.376950
H841	H84	0.206200	0.962100	0.398000
C1261	C126	0.055060	0.903870	0.324450
C1271	C127	0.031780	0.899220	0.288660
C1281	C128	0.065650	0.899310	0.252820
C1291	C129	0.083740	0.951990	0.236900
H851	H85	0.077300	0.988400	0.249700
C1301	C130	0.111200	0.951570	0.202320
H861	H86	0.122900	0.988500	0.191700
N221	N22	0.122380	0.902240	0.182820
C1311	C131	0.106610	0.852780	0.198820
H871	H87	0.115900	0.816800	0.186200
C1321	C132	0.077430	0.848920	0.232790
H881	H88	0.065500	0.811400	0.242300
N231	N23	0.736320	0.408240	0.858910
C1331	C133	0.719000	0.376810	0.829090
H891	H89	0.748300	0.355900	0.815200
C1341	C134	0.660870	0.372890	0.817240
H901	H90	0.650600	0.348600	0.796400
C1351	C135	0.617730	0.404880	0.836170
C1361	C136	0.635750	0.438380	0.866850
H911	H91	0.607700	0.460900	0.880800
C1371	C137	0.694640	0.438730	0.876950
H921	H92	0.706200	0.462100	0.898000
C1381	C138	0.555060	0.403870	0.824450
C1391	C139	0.531780	0.399220	0.788660
C1401	C140	0.565650	0.399310	0.752820
C1411	C141	0.583740	0.451990	0.736900
H931	H93	0.577300	0.488400	0.749700
C1421	C142	0.611200	0.451570	0.702320
H941	H94	0.622900	0.488500	0.691700
N241	N24	0.622380	0.402240	0.682820
C1431	C143	0.606610	0.352780	0.698820
H951	H95	0.615900	0.316800	0.686200
C1441	C144	0.577430	0.348920	0.732790
H961	H96	0.565500	0.311400	0.742300
N251	N25	0.341760	0.986320	0.608910
C1451	C145	0.373190	0.969000	0.579090
H971	H97	0.394100	0.998300	0.565200
C1461	C146	0.377110	0.910870	0.567240
H981	H98	0.401400	0.900600	0.546400
C1471	C147	0.345120	0.867730	0.586170
C1481	C148	0.311620	0.885750	0.616850
H991	H99	0.289100	0.857700	0.630800
C1491	C149	0.311270	0.944640	0.626950
H1001	H100	0.287900	0.956200	0.648000
C1501	C150	0.346130	0.805060	0.574450
C1511	C151	0.350780	0.781780	0.538660
C1521	C152	0.350690	0.815650	0.502820
C1531	C153	0.298010	0.833740	0.486900
H1011	H101	0.261600	0.827300	0.499700
C1541	C154	0.298430	0.861200	0.452320
H1021	H102	0.261500	0.872900	0.441700
N261	N26	0.347760	0.872380	0.432820
C1551	C155	0.397220	0.856610	0.448820
H1031	H103	0.433200	0.865900	0.436200
C1561	C156	0.401080	0.827430	0.482790
H1041	H104	0.438600	0.815500	0.492300
N271	N27	0.841760	0.486320	0.108910
C1571	C157	0.873190	0.469000	0.079090
H1051	H105	0.894100	0.498300	0.065200
C1581	C158	0.877110	0.410870	0.067240
H1061	H106	0.901400	0.400600	0.046400
C1591	C159	0.845120	0.367730	0.086170
C1601	C160	0.811620	0.385750	0.116850
H1071	H107	0.789100	0.357700	0.130800
C1611	C161	0.811270	0.444640	0.126950
H1081	H108	0.787900	0.456200	0.148000
C1621	C162	0.846130	0.305060	0.074450
C1631	C163	0.850780	0.281780	0.038660
C1641	C164	0.850690	0.315650	0.002820
C1651	C165	0.798010	0.333740	0.986900
H1091	H109	0.761600	0.327300	0.999700
C1661	C166	0.798430	0.361200	0.952320
H1101	H110	0.761500	0.372900	0.941700
N281	N28	0.847760	0.372380	0.932820
C1671	C167	0.897220	0.356610	0.948820
H1111	H111	0.933200	0.365900	0.936200
C1681	C168	0.901080	0.327430	0.982790
H1121	H112	0.938600	0.315500	0.992300
N291	N29	0.158240	0.013680	0.108910
C1691	C169	0.126810	0.031000	0.079090
H1131	H113	0.105900	0.001700	0.065200
C1701	C170	0.122890	0.089130	0.067240
H1141	H114	0.098600	0.099400	0.046400
C1711	C171	0.154880	0.132270	0.086170
C1721	C172	0.188380	0.114250	0.116850
H1151	H115	0.210900	0.142300	0.130800
C1731	C173	0.188730	0.055360	0.126950
H1161	H116	0.212100	0.043800	0.148000
C1741	C174	0.153870	0.194940	0.074450
C1751	C175	0.149220	0.218220	0.038660
C1761	C176	0.149310	0.184350	0.002820
C1771	C177	0.201990	0.166260	0.986900
H1171	H117	0.238400	0.172700	0.999700
C1781	C178	0.201570	0.138800	0.952320
H1181	H118	0.238500	0.127100	0.941700
N301	N30	0.152240	0.127620	0.932820
C1791	C179	0.102780	0.143390	0.948820
H1191	H119	0.066800	0.134100	0.936200
C1801	C180	0.098920	0.172570	0.982790
H1201	H120	0.061400	0.184500	0.992300
N311	N31	0.658240	0.513680	0.608910
C1811	C181	0.626810	0.531000	0.579090
H1211	H121	0.605900	0.501700	0.565200
C1821	C182	0.622890	0.589130	0.567240
H1221	H122	0.598600	0.599400	0.546400
C1831	C183	0.654880	0.632270	0.586170
C1841	C184	0.688380	0.614250	0.616850
H1231	H123	0.710900	0.642300	0.630800
C1851	C185	0.688730	0.555360	0.626950
H1241	H124	0.712100	0.543800	0.648000
C1861	C186	0.653870	0.694940	0.574450
C1871	C187	0.649220	0.718220	0.538660
C1881	C188	0.649310	0.684350	0.502820
C1891	C189	0.701990	0.666260	0.486900
H1251	H125	0.738400	0.672700	0.499700
C1901	C190	0.701570	0.638800	0.452320
H1261	H126	0.738500	0.627100	0.441700
N321	N32	0.652240	0.627620	0.432820
C1911	C191	0.602780	0.643390	0.448820
H1271	H127	0.566800	0.634100	0.436200
C1921	C192	0.598920	0.672570	0.482790
H1281	H128	0.561400	0.684500	0.492300
N331	N33	0.763680	0.908240	0.358910
C1931	C193	0.781000	0.876810	0.329090
H1291	H129	0.751700	0.855900	0.315200
C1941	C194	0.839130	0.872890	0.317240
H1301	H130	0.849400	0.848600	0.296400
C1951	C195	0.882270	0.904880	0.336170
C1961	C196	0.864250	0.938380	0.366850
H1311	H131	0.892300	0.960900	0.380800
C1971	C197	0.805360	0.938730	0.376950
H1321	H132	0.793800	0.962100	0.398000
C1981	C198	0.944940	0.903870	0.324450
C1991	C199	0.968220	0.899220	0.288660
C2001	C200	0.934350	0.899310	0.252820
C2011	C201	0.916260	0.951990	0.236900
H1331	H133	0.922700	0.988400	0.249700
C2021	C202	0.888800	0.951570	0.202320
H1341	H134	0.877100	0.988500	0.191700
N341	N34	0.877620	0.902240	0.182820
C2031	C203	0.893390	0.852780	0.198820
H1351	H135	0.884100	0.816800	0.186200
C2041	C204	0.922570	0.848920	0.232790
H1361	H136	0.934500	0.811400	0.242300
N351	N35	0.263680	0.408240	0.858910
C2051	C205	0.281000	0.376810	0.829090
H1371	H137	0.251700	0.355900	0.815200
C2061	C206	0.339130	0.372890	0.817240
H1381	H138	0.349400	0.348600	0.796400
C2071	C207	0.382270	0.404880	0.836170
C2081	C208	0.364250	0.438380	0.866850
H1391	H139	0.392300	0.460900	0.880800
C2091	C209	0.305360	0.438730	0.876950
H1401	H140	0.293800	0.462100	0.898000
C2101	C210	0.444940	0.403870	0.824450
C2111	C211	0.468220	0.399220	0.788660
C2121	C212	0.434350	0.399310	0.752820
C2131	C213	0.416260	0.451990	0.736900
H1411	H141	0.422700	0.488400	0.749700
C2141	C214	0.388800	0.451570	0.702320
H1421	H142	0.377100	0.488500	0.691700
N361	N36	0.377620	0.402240	0.682820
C2151	C215	0.393390	0.352780	0.698820
H1431	H143	0.384100	0.316800	0.686200
C2161	C216	0.422570	0.348920	0.732790
H1441	H144	0.434500	0.311400	0.742300
N371	N37	0.736320	0.091760	0.858910
C2171	C217	0.719000	0.123190	0.829090
H1451	H145	0.748300	0.144100	0.815200
C2181	C218	0.660870	0.127110	0.817240
H1461	H146	0.650600	0.151400	0.796400
C2191	C219	0.617730	0.095120	0.836170
C2201	C220	0.635750	0.061620	0.866850
H1471	H147	0.607700	0.039100	0.880800
C2211	C221	0.694640	0.061270	0.876950
H1481	H148	0.706200	0.037900	0.898000
C2221	C222	0.555060	0.096130	0.824450
C2231	C223	0.531780	0.100780	0.788660
C2241	C224	0.565650	0.100690	0.752820
C2251	C225	0.583740	0.048010	0.736900
H1491	H149	0.577300	0.011600	0.749700
C2261	C226	0.611200	0.048430	0.702320
H1501	H150	0.622900	0.011500	0.691700
N381	N38	0.622380	0.097760	0.682820
C2271	C227	0.606610	0.147220	0.698820
H1511	H151	0.615900	0.183200	0.686200
C2281	C228	0.577430	0.151080	0.732790
H1521	H152	0.565500	0.188600	0.742300
N391	N39	0.236320	0.591760	0.358910
C2291	C229	0.219000	0.623190	0.329090
H1531	H153	0.248300	0.644100	0.315200
C2301	C230	0.160870	0.627110	0.317240
H1541	H154	0.150600	0.651400	0.296400
C2311	C231	0.117730	0.595120	0.336170
C2321	C232	0.135750	0.561620	0.366850
H1551	H155	0.107700	0.539100	0.380800
C2331	C233	0.194640	0.561270	0.376950
H1561	H156	0.206200	0.537900	0.398000
C2341	C234	0.055060	0.596130	0.324450
C2351	C235	0.031780	0.600780	0.288660
C2361	C236	0.065650	0.600690	0.252820
C2371	C237	0.083740	0.548010	0.236900
H1571	H157	0.077300	0.511600	0.249700
C2381	C238	0.111200	0.548430	0.202320
H1581	H158	0.122900	0.511500	0.191700
N401	N40	0.122380	0.597760	0.182820
C2391	C239	0.106610	0.647220	0.198820
H1591	H159	0.115900	0.683200	0.186200
C2401	C240	0.077430	0.651080	0.232790
H1601	H160	0.065500	0.688600	0.242300
N411	N41	0.841760	0.013680	0.108910
C2411	C241	0.873190	0.031000	0.079090
H1611	H161	0.894100	0.001700	0.065200
C2421	C242	0.877110	0.089130	0.067240
H1621	H162	0.901400	0.099400	0.046400
C2431	C243	0.845120	0.132270	0.086170
C2441	C244	0.811620	0.114250	0.116850
H1631	H163	0.789100	0.142300	0.130800
C2451	C245	0.811270	0.055360	0.126950
H1641	H164	0.787900	0.043800	0.148000
C2461	C246	0.846130	0.194940	0.074450
C2471	C247	0.850780	0.218220	0.038660
C2481	C248	0.850690	0.184350	0.002820
C2491	C249	0.798010	0.166260	0.986900
H1651	H165	0.761600	0.172700	0.999700
C2501	C250	0.798430	0.138800	0.952320
H1661	H166	0.761500	0.127100	0.941700
N421	N42	0.847760	0.127620	0.932820
C2511	C251	0.897220	0.143390	0.948820
H1671	H167	0.933200	0.134100	0.936200
C2521	C252	0.901080	0.172570	0.982790
H1681	H168	0.938600	0.184500	0.992300
N431	N43	0.341760	0.513680	0.608910
C2531	C253	0.373190	0.531000	0.579090
H1691	H169	0.394100	0.501700	0.565200
C2541	C254	0.377110	0.589130	0.567240
H1701	H170	0.401400	0.599400	0.546400
C2551	C255	0.345120	0.632270	0.586170
C2561	C256	0.311620	0.614250	0.616850
H1711	H171	0.289100	0.642300	0.630800
C2571	C257	0.311270	0.555360	0.626950
H1721	H172	0.287900	0.543800	0.648000
C2581	C258	0.346130	0.694940	0.574450
C2591	C259	0.350780	0.718220	0.538660
C2601	C260	0.350690	0.684350	0.502820
C2611	C261	0.298010	0.666260	0.486900
H1731	H173	0.261600	0.672700	0.499700
C2621	C262	0.298430	0.638800	0.452320
H1741	H174	0.261500	0.627100	0.441700
N441	N44	0.347760	0.627620	0.432820
C2631	C263	0.397220	0.643390	0.448820
H1751	H175	0.433200	0.634100	0.436200
C2641	C264	0.401080	0.672570	0.482790
H1761	H176	0.438600	0.684500	0.492300
N451	N45	0.658240	0.986320	0.608910
C2651	C265	0.626810	0.969000	0.579090
H1771	H177	0.605900	0.998300	0.565200
C2661	C266	0.622890	0.910870	0.567240
H1781	H178	0.598600	0.900600	0.546400
C2671	C267	0.654880	0.867730	0.586170
C2681	C268	0.688380	0.885750	0.616850
H1791	H179	0.710900	0.857700	0.630800
C2691	C269	0.688730	0.944640	0.626950
H1801	H180	0.712100	0.956200	0.648000
C2701	C270	0.653870	0.805060	0.574450
C2711	C271	0.649220	0.781780	0.538660
C2721	C272	0.649310	0.815650	0.502820
C2731	C273	0.701990	0.833740	0.486900
H1811	H181	0.738400	0.827300	0.499700
C2741	C274	0.701570	0.861200	0.452320
H1821	H182	0.738500	0.872900	0.441700
N461	N46	0.652240	0.872380	0.432820
C2751	C275	0.602780	0.856610	0.448820
H1831	H183	0.566800	0.865900	0.436200
C2761	C276	0.598920	0.827430	0.482790
H1841	H184	0.561400	0.815500	0.492300
N471	N47	0.158240	0.486320	0.108910
C2771	C277	0.126810	0.469000	0.079090
H1851	H185	0.105900	0.498300	0.065200
C2781	C278	0.122890	0.410870	0.067240
H1861	H186	0.098600	0.400600	0.046400
C2791	C279	0.154880	0.367730	0.086170
C2801	C280	0.188380	0.385750	0.116850
H1871	H187	0.210900	0.357700	0.130800
C2811	C281	0.188730	0.444640	0.126950
H1881	H188	0.212100	0.456200	0.148000
C2821	C282	0.153870	0.305060	0.074450
C2831	C283	0.149220	0.281780	0.038660
C2841	C284	0.149310	0.315650	0.002820
C2851	C285	0.201990	0.333740	0.986900
H1891	H189	0.238400	0.327300	0.999700
C2861	C286	0.201570	0.361200	0.952320
H1901	H190	0.238500	0.372900	0.941700
N481	N48	0.152240	0.372380	0.932820
C2871	C287	0.102780	0.356610	0.948820
H1911	H191	0.066800	0.365900	0.936200
C2881	C288	0.098920	0.327430	0.982790
H1921	H192	0.061400	0.315500	0.992300
N491	N49	0.736320	0.908240	0.141090
C2891	C289	0.719000	0.876810	0.170910
H1931	H193	0.748300	0.855900	0.184800
C2901	C290	0.660870	0.872890	0.182760
H1941	H194	0.650600	0.848600	0.203600
C2911	C291	0.617730	0.904880	0.163830
C2921	C292	0.635750	0.938380	0.133150
H1951	H195	0.607700	0.960900	0.119200
C2931	C293	0.694640	0.938730	0.123050
H1961	H196	0.706200	0.962100	0.102000
C2941	C294	0.555060	0.903870	0.175550
C2951	C295	0.531780	0.899220	0.211340
C2961	C296	0.565650	0.899310	0.247180
C2971	C297	0.583740	0.951990	0.263100
H1971	H197	0.577300	0.988400	0.250300
C2981	C298	0.611200	0.951570	0.297680
H1981	H198	0.622900	0.988500	0.308300
N501	N50	0.622380	0.902240	0.317180
C2991	C299	0.606610	0.852780	0.301180
H1991	H199	0.615900	0.816800	0.313800
C3001	C300	0.577430	0.848920	0.267210
H2001	H200	0.565500	0.811400	0.257700
N511	N51	0.236320	0.408240	0.641090
C3011	C301	0.219000	0.376810	0.670910
H2011	H201	0.248300	0.355900	0.684800
C3021	C302	0.160870	0.372890	0.682760
H2021	H202	0.150600	0.348600	0.703600
C3031	C303	0.117730	0.404880	0.663830
C3041	C304	0.135750	0.438380	0.633150
H2031	H203	0.107700	0.460900	0.619200
C3051	C305	0.194640	0.438730	0.623050
H2041	H204	0.206200	0.462100	0.602000
C3061	C306	0.055060	0.403870	0.675550
C3071	C307	0.031780	0.399220	0.711340
C3081	C308	0.065650	0.399310	0.747180
C3091	C309	0.083740	0.451990	0.763100
H2051	H205	0.077300	0.488400	0.750300
C3101	C310	0.111200	0.451570	0.797680
H2061	H206	0.122900	0.488500	0.808300
N521	N52	0.122380	0.402240	0.817180
C3111	C311	0.106610	0.352780	0.801180
H2071	H207	0.115900	0.316800	0.813800
C3121	C312	0.077430	0.348920	0.767210
H2081	H208	0.065500	0.311400	0.757700
N531	N53	0.763680	0.091760	0.641090
C3131	C313	0.781000	0.123190	0.670910
H2091	H209	0.751700	0.144100	0.684800
C3141	C314	0.839130	0.127110	0.682760
H2101	H210	0.849400	0.151400	0.703600
C3151	C315	0.882270	0.095120	0.663830
C3161	C316	0.864250	0.061620	0.633150
H2111	H211	0.892300	0.039100	0.619200
C3171	C317	0.805360	0.061270	0.623050
H2121	H212	0.793800	0.037900	0.602000
C3181	C318	0.944940	0.096130	0.675550
C3191	C319	0.968220	0.100780	0.711340
C3201	C320	0.934350	0.100690	0.747180
C3211	C321	0.916260	0.048010	0.763100
H2131	H213	0.922700	0.011600	0.750300
C3221	C322	0.888800	0.048430	0.797680
H2141	H214	0.877100	0.011500	0.808300
N541	N54	0.877620	0.097760	0.817180
C3231	C323	0.893390	0.147220	0.801180
H2151	H215	0.884100	0.183200	0.813800
C3241	C324	0.922570	0.151080	0.767210
H2161	H216	0.934500	0.188600	0.757700
N551	N55	0.263680	0.591760	0.141090
C3251	C325	0.281000	0.623190	0.170910
H2171	H217	0.251700	0.644100	0.184800
C3261	C326	0.339130	0.627110	0.182760
H2181	H218	0.349400	0.651400	0.203600
C3271	C327	0.382270	0.595120	0.163830
C3281	C328	0.364250	0.561620	0.133150
H2191	H219	0.392300	0.539100	0.119200
C3291	C329	0.305360	0.561270	0.123050
H2201	H220	0.293800	0.537900	0.102000
C3301	C330	0.444940	0.596130	0.175550
C3311	C331	0.468220	0.600780	0.211340
C3321	C332	0.434350	0.600690	0.247180
C3331	C333	0.416260	0.548010	0.263100
H2211	H221	0.422700	0.511600	0.250300
C3341	C334	0.388800	0.548430	0.297680
H2221	H222	0.377100	0.511500	0.308300
N561	N56	0.377620	0.597760	0.317180
C3351	C335	0.393390	0.647220	0.301180
H2231	H223	0.384100	0.683200	0.313800
C3361	C336	0.422570	0.651080	0.267210
H2241	H224	0.434500	0.688600	0.257700
N571	N57	0.658240	0.013680	0.391090
C3371	C337	0.626810	0.031000	0.420910
H2251	H225	0.605900	0.001700	0.434800
C3381	C338	0.622890	0.089130	0.432760
H2261	H226	0.598600	0.099400	0.453600
C3391	C339	0.654880	0.132270	0.413830
C3401	C340	0.688380	0.114250	0.383150
H2271	H227	0.710900	0.142300	0.369200
C3411	C341	0.688730	0.055360	0.373050
H2281	H228	0.712100	0.043800	0.352000
C3421	C342	0.653870	0.194940	0.425550
C3431	C343	0.649220	0.218220	0.461340
C3441	C344	0.649310	0.184350	0.497180
C3451	C345	0.701990	0.166260	0.513100
H2291	H229	0.738400	0.172700	0.500300
C3461	C346	0.701570	0.138800	0.547680
H2301	H230	0.738500	0.127100	0.558300
N581	N58	0.652240	0.127620	0.567180
C3471	C347	0.602780	0.143390	0.551180
H2311	H231	0.566800	0.134100	0.563800
C3481	C348	0.598920	0.172570	0.517210
H2321	H232	0.561400	0.184500	0.507700
N591	N59	0.158240	0.513680	0.891090
C3491	C349	0.126810	0.531000	0.920910
H2331	H233	0.105900	0.501700	0.934800
C3501	C350	0.122890	0.589130	0.932760
H2341	H234	0.098600	0.599400	0.953600
C3511	C351	0.154880	0.632270	0.913830
C3521	C352	0.188380	0.614250	0.883150
H2351	H235	0.210900	0.642300	0.869200
C3531	C353	0.188730	0.555360	0.873050
H2361	H236	0.212100	0.543800	0.852000
C3541	C354	0.153870	0.694940	0.925550
C3551	C355	0.149220	0.718220	0.961340
C3561	C356	0.149310	0.684350	0.997180
C3571	C357	0.201990	0.666260	0.013100
H2371	H237	0.238400	0.672700	0.000300
C3581	C358	0.201570	0.638800	0.047680
H2381	H238	0.238500	0.627100	0.058300
N601	N60	0.152240	0.627620	0.067180
C3591	C359	0.102780	0.643390	0.051180
H2391	H239	0.066800	0.634100	0.063800
C3601	C360	0.098920	0.672570	0.017210
H2401	H240	0.061400	0.684500	0.007700
N611	N61	0.841760	0.986320	0.891090
C3611	C361	0.873190	0.969000	0.920910
H2411	H241	0.894100	0.998300	0.934800
C3621	C362	0.877110	0.910870	0.932760
H2421	H242	0.901400	0.900600	0.953600
C3631	C363	0.845120	0.867730	0.913830
C3641	C364	0.811620	0.885750	0.883150
H2431	H243	0.789100	0.857700	0.869200
C3651	C365	0.811270	0.944640	0.873050
H2441	H244	0.787900	0.956200	0.852000
C3661	C366	0.846130	0.805060	0.925550
C3671	C367	0.850780	0.781780	0.961340
C3681	C368	0.850690	0.815650	0.997180
C3691	C369	0.798010	0.833740	0.013100
H2451	H245	0.761600	0.827300	0.000300
C3701	C370	0.798430	0.861200	0.047680
H2461	H246	0.761500	0.872900	0.058300
N621	N62	0.847760	0.872380	0.067180
C3711	C371	0.897220	0.856610	0.051180
H2471	H247	0.933200	0.865900	0.063800
C3721	C372	0.901080	0.827430	0.017210
H2481	H248	0.938600	0.815500	0.007700
N631	N63	0.341760	0.486320	0.391090
C3731	C373	0.373190	0.469000	0.420910
H2491	H249	0.394100	0.498300	0.434800
C3741	C374	0.377110	0.410870	0.432760
H2501	H250	0.401400	0.400600	0.453600
C3751	C375	0.345120	0.367730	0.413830
C3761	C376	0.311620	0.385750	0.383150
H2511	H251	0.289100	0.357700	0.369200
C3771	C377	0.311270	0.444640	0.373050
H2521	H252	0.287900	0.456200	0.352000
C3781	C378	0.346130	0.305060	0.425550
C3791	C379	0.350780	0.281780	0.461340
C3801	C380	0.350690	0.315650	0.497180
C3811	C381	0.298010	0.333740	0.513100
H2531	H253	0.261600	0.327300	0.500300
C3821	C382	0.298430	0.361200	0.547680
H2541	H254	0.261500	0.372900	0.558300
N641	N64	0.347760	0.372380	0.567180
C3831	C383	0.397220	0.356610	0.551180
H2551	H255	0.433200	0.365900	0.563800
C3841	C384	0.401080	0.327430	0.517210
H2561	H256	0.438600	0.315500	0.507700
Ag11	Ag1	0.338570	0.088570	0.625000
Ag21	Ag2	0.838570	0.588570	0.125000
Ag31	Ag3	0.161430	0.911430	0.125000
Ag41	Ag4	0.661430	0.411430	0.625000
Ag51	Ag5	0.161430	0.088570	0.875000
Ag61	Ag6	0.661430	0.588570	0.375000
Ag71	Ag7	0.338570	0.911430	0.375000
Ag81	Ag8	0.838570	0.411430	0.875000
Ag91	Ag9	0.661430	0.911430	0.375000
Ag101	Ag10	0.161430	0.411430	0.875000
Ag111	Ag11	0.838570	0.088570	0.875000
Ag121	Ag12	0.338570	0.588570	0.375000
Ag131	Ag13	0.838570	0.911430	0.125000
Ag141	Ag14	0.338570	0.411430	0.625000
Ag151	Ag15	0.661430	0.088570	0.625000
Ag161	Ag16	0.161430	0.588570	0.125000
S11	S1	0.000000	0.092960	0.642170
S21	S2	0.500000	0.592960	0.142170
S31	S3	0.500000	0.907040	0.142170
S41	S4	0.000000	0.407040	0.642170
S51	S5	0.157040	0.750000	0.892170
S61	S6	0.342960	0.250000	0.392170
S71	S7	0.500000	0.092960	0.857830
S81	S8	0.000000	0.592960	0.357830
S91	S9	0.000000	0.907040	0.357830
S101	S10	0.500000	0.407040	0.857830
S111	S11	0.342960	0.750000	0.607830
S121	S12	0.157040	0.250000	0.107830
S131	S13	0.842960	0.250000	0.107830
S141	S14	0.657040	0.750000	0.607830
S151	S15	0.657040	0.250000	0.392170
S161	S16	0.842960	0.750000	0.892170
