data_AVOSIO_charged_PM
_symmetry_space_group_name_H-M	'P1'
_cell_length_a	13.746100
_cell_length_b	24.402000
_cell_length_c	24.402000
_cell_angle_alpha	120.000000
_cell_angle_beta	90.000000
_cell_angle_gamma	90.000000
_symmetry_Int_Tables_number 1

loop_
_symmetry_equiv_pos_as_xyz
'x,y,z'

loop_
_atom_site_label
_atom_site_type_symbol
_atom_site_fract_x
_atom_site_fract_y
_atom_site_fract_z
Ag11	Ag1	0.907790	0.094740	0.324850
Ag21	Ag2	0.753710	0.164540	0.820500
Ag31	Ag3	0.241120	0.230110	0.905260
Ag41	Ag4	0.087040	0.655960	0.835460
Ag51	Ag5	0.574460	0.675150	0.769890
Ag61	Ag6	0.420380	0.179500	0.344040
H11	H1	0.731300	0.905700	0.097700
H21	H2	0.729300	0.115900	0.150700
H31	H3	0.563400	0.025200	0.029500
H41	H4	0.590100	0.096100	0.081500
H51	H5	0.721500	0.150500	0.066000
H61	H6	0.736700	0.993600	0.854200
H71	H7	0.597700	0.941900	0.870400
H81	H8	0.568600	0.959500	0.940800
H91	H9	0.740400	0.885700	0.824300
H101	H10	0.762800	0.828700	0.978300
H111	H11	0.615000	0.878000	0.019000
H121	H12	0.571900	0.929300	0.003100
H131	H13	0.795800	0.900100	0.198700
H141	H14	0.911000	0.903200	0.190800
H151	H15	0.840200	0.886900	0.132600
H161	H16	0.762800	0.179300	0.256000
H171	H17	0.864000	0.174000	0.220100
H181	H18	0.848800	0.218700	0.351200
H191	H19	0.017800	0.160600	0.281300
H201	H20	0.010200	0.204800	0.358900
H211	H21	0.764400	0.247100	0.072300
H221	H22	0.876000	0.262300	0.066800
H231	H23	0.848700	0.208600	0.083500
H241	H24	0.780300	0.025700	0.794500
H251	H25	0.888500	0.013800	0.811300
H261	H26	0.880600	0.053500	0.731200
H271	H27	0.932200	0.152800	0.846500
H281	H28	0.951200	0.145500	0.776500
H291	H29	0.813700	0.806300	0.726400
H301	H30	0.926400	0.787500	0.715200
H311	H31	0.894600	0.857100	0.768700
H321	H32	0.830000	0.740700	0.945500
H331	H33	0.942100	0.763100	0.954100
H341	H34	0.977500	0.683300	0.957500
H351	H35	0.992800	0.611600	0.896800
H361	H36	0.910600	0.640000	0.838900
H371	H37	0.217700	0.165700	0.511500
H381	H38	0.215300	0.363600	0.528100
H391	H39	0.398800	0.352300	0.618700
H401	H40	0.359200	0.392200	0.587600
H411	H41	0.231300	0.466300	0.635200
H421	H42	0.254400	0.447700	0.814800
H431	H43	0.408900	0.344100	0.695300
H441	H44	0.393300	0.378200	0.770300
H451	H45	0.248800	0.351700	0.810800
H461	H46	0.224400	0.160500	0.618200
H471	H47	0.352800	0.192300	0.579200
H481	H48	0.396800	0.262300	0.615600
H491	H49	0.146000	0.362200	0.458400
H501	H50	0.037000	0.369300	0.484100
H511	H51	0.056700	0.338000	0.409800
H521	H52	0.051200	0.101500	0.440700
H531	H53	0.165400	0.099200	0.425400
H541	H54	0.107700	0.080700	0.316500
H551	H55	0.987500	0.010200	0.353300
H561	H56	0.002600	0.995600	0.280300
H571	H57	0.135100	0.501900	0.881200
H581	H58	0.105900	0.575200	0.919800
H591	H59	0.217900	0.555100	0.905100
H601	H60	0.089500	0.553800	0.661200
H611	H61	0.202900	0.567900	0.677500
H621	H62	0.168000	0.680800	0.737300
H631	H63	0.969700	0.654800	0.749000
H641	H64	0.016700	0.725400	0.774000
H651	H65	0.102400	0.114500	0.621900
H661	H66	0.055900	0.081900	0.658700
H671	H67	0.171500	0.083100	0.651500
H681	H68	0.088500	0.356000	0.871700
H691	H69	0.201900	0.347300	0.881800
H701	H70	0.121400	0.348300	0.974100
H711	H71	0.059100	0.231200	0.877200
H721	H72	0.054500	0.256100	0.953500
H731	H73	0.064630	0.192000	0.094300
H741	H74	0.062630	0.034800	0.884100
H751	H75	0.896730	0.004300	0.974800
H761	H76	0.923430	0.985400	0.903900
H771	H77	0.054830	0.915500	0.849500
H781	H78	0.070030	0.860600	0.006400
H791	H79	0.931030	0.928500	0.058100
H801	H80	0.901930	0.981300	0.040500
H811	H81	0.073730	0.938600	0.114300
H821	H82	0.096130	0.149600	0.171300
H831	H83	0.948330	0.141000	0.122000
H841	H84	0.905230	0.073800	0.070700
H851	H85	0.129130	0.298600	0.099900
H861	H86	0.244330	0.287600	0.096800
H871	H87	0.173530	0.245700	0.113100
H881	H88	0.096130	0.076700	0.820700
H891	H89	0.197330	0.046100	0.826000
H901	H90	0.182130	0.132500	0.781300
H911	H91	0.351130	0.120700	0.839400
H921	H92	0.343530	0.154100	0.795200
H931	H93	0.097730	0.825200	0.752900
H941	H94	0.209330	0.804500	0.737700
H951	H95	0.182030	0.874900	0.791400
H961	H96	0.113630	0.768800	0.974300
H971	H97	0.221830	0.797500	0.986200
H981	H98	0.213930	0.677700	0.946500
H991	H99	0.265530	0.693700	0.847200
H1001	H100	0.284530	0.631000	0.854500
H1011	H101	0.147030	0.920100	0.193700
H1021	H102	0.259730	0.927700	0.212500
H1031	H103	0.227930	0.911600	0.142900
H1041	H104	0.163330	0.204800	0.259300
H1051	H105	0.275430	0.191000	0.236900
H1061	H106	0.310830	0.274200	0.316700
H1071	H107	0.326130	0.285200	0.388400
H1081	H108	0.243930	0.198900	0.360000
H1091	H109	0.551030	0.345800	0.834300
H1101	H110	0.548630	0.164500	0.636400
H1111	H111	0.732130	0.266400	0.647700
H1121	H112	0.692530	0.195400	0.607800
H1131	H113	0.564630	0.168900	0.533700
H1141	H114	0.587730	0.367100	0.552300
H1151	H115	0.742230	0.351200	0.655900
H1161	H116	0.726630	0.392100	0.621800
H1171	H117	0.582130	0.459100	0.648300
H1181	H118	0.557730	0.457700	0.839500
H1191	H119	0.686130	0.386900	0.807700
H1201	H120	0.730130	0.353300	0.737700
H1211	H121	0.479330	0.096200	0.637800
H1221	H122	0.370330	0.114800	0.630700
H1231	H123	0.390030	0.071800	0.662000
H1241	H124	0.384530	0.339200	0.898500
H1251	H125	0.498730	0.326200	0.900800
H1261	H126	0.441030	0.235800	0.919300
H1271	H127	0.320830	0.343100	0.989800
H1281	H128	0.335930	0.284700	0.004400
H1291	H129	0.468430	0.379300	0.498100
H1301	H130	0.439230	0.344600	0.424800
H1311	H131	0.551230	0.350000	0.444900
H1321	H132	0.422830	0.107400	0.446200
H1331	H133	0.536230	0.109600	0.432100
H1341	H134	0.501330	0.056500	0.319200
H1351	H135	0.303030	0.094200	0.345200
H1361	H136	0.350030	0.048600	0.274600
H1371	H137	0.435730	0.507400	0.885500
H1381	H138	0.389230	0.576800	0.918100
H1391	H139	0.504830	0.568400	0.916900
H1401	H140	0.421830	0.515700	0.644000
H1411	H141	0.535230	0.534500	0.652700
H1421	H142	0.454730	0.625800	0.651700
H1431	H143	0.392430	0.646000	0.768800
H1441	H144	0.387830	0.697400	0.743900
H1451	H145	0.397970	0.902300	0.808000
H1461	H146	0.395970	0.849300	0.965200
H1471	H147	0.230070	0.970500	0.995700
H1481	H148	0.256770	0.918500	0.014600
H1491	H149	0.388170	0.934000	0.084500
H1501	H150	0.403370	0.145800	0.139400
H1511	H151	0.264370	0.129600	0.071500
H1521	H152	0.235270	0.059200	0.018700
H1531	H153	0.407070	0.175700	0.061400
H1541	H154	0.429470	0.021700	0.850400
H1551	H155	0.281670	0.981000	0.859000
H1561	H156	0.238570	0.996900	0.926200
H1571	H157	0.462470	0.801300	0.701400
H1581	H158	0.577670	0.809200	0.712400
H1591	H159	0.506870	0.867400	0.754300
H1601	H160	0.429470	0.744000	0.923300
H1611	H161	0.530670	0.779900	0.953900
H1621	H162	0.515470	0.648800	0.867500
H1631	H163	0.684470	0.718700	0.879300
H1641	H164	0.676870	0.641100	0.845900
H1651	H165	0.431070	0.927700	0.174800
H1661	H166	0.542670	0.933200	0.195500
H1671	H167	0.515370	0.916500	0.125100
H1681	H168	0.446970	0.205500	0.231200
H1691	H169	0.555170	0.188700	0.202500
H1701	H170	0.547270	0.268800	0.322300
H1711	H171	0.598870	0.153500	0.306300
H1721	H172	0.617870	0.223500	0.369000
H1731	H173	0.480370	0.273600	0.079900
H1741	H174	0.593070	0.284800	0.072300
H1751	H175	0.561270	0.231300	0.088400
H1761	H176	0.496670	0.054500	0.795200
H1771	H177	0.608770	0.045900	0.809000
H1781	H178	0.644170	0.042500	0.725800
H1791	H179	0.659470	0.103200	0.714800
H1801	H180	0.577270	0.161100	0.801100
H1811	H181	0.884370	0.488500	0.654200
H1821	H182	0.881970	0.471900	0.835500
H1831	H183	0.065470	0.381300	0.733600
H1841	H184	0.025870	0.412400	0.804600
H1851	H185	0.897970	0.364800	0.831100
H1861	H186	0.921070	0.185200	0.632900
H1871	H187	0.075570	0.304700	0.648800
H1881	H188	0.059970	0.229700	0.607900
H1891	H189	0.915470	0.189200	0.540900
H1901	H190	0.891070	0.381800	0.542300
H1911	H191	0.019470	0.420800	0.613100
H1921	H192	0.063470	0.384400	0.646700
H1931	H193	0.812670	0.541600	0.903800
H1941	H194	0.703670	0.515900	0.885200
H1951	H195	0.723370	0.590200	0.928200
H1961	H196	0.717870	0.559300	0.660800
H1971	H197	0.832070	0.574600	0.673800
H1981	H198	0.774370	0.683500	0.764200
H1991	H199	0.654170	0.646700	0.656900
H2001	H200	0.669270	0.719700	0.715300
H2011	H201	0.801770	0.118800	0.620700
H2021	H202	0.772570	0.080200	0.655400
H2031	H203	0.884570	0.094900	0.650000
H2041	H204	0.756170	0.338800	0.892600
H2051	H205	0.869570	0.322500	0.890400
H2061	H206	0.834670	0.262700	0.943500
H2071	H207	0.636370	0.251000	0.905800
H2081	H208	0.683370	0.226000	0.951400
H2091	H209	0.769070	0.378100	0.492600
H2101	H210	0.722570	0.341300	0.423200
H2111	H211	0.838170	0.348500	0.431600
H2121	H212	0.755170	0.128300	0.484300
H2131	H213	0.868570	0.118200	0.465500
H2141	H214	0.788070	0.025900	0.374200
H2151	H215	0.725770	0.122800	0.354000
H2161	H216	0.721170	0.046500	0.302600
C11	C1	0.681600	0.965500	0.070100
C21	C2	0.731800	0.948700	0.107700
C31	C3	0.782800	0.992400	0.159300
C41	C4	0.780200	0.056300	0.175300
C51	C5	0.729600	0.072600	0.139700
C61	C6	0.677300	0.030000	0.087400
C71	C7	0.618300	0.054600	0.050700
C81	C8	0.672300	0.062200	0.002400
C91	C9	0.723200	0.118400	0.022700
C101	C10	0.778400	0.127600	0.978000
C111	C11	0.779300	0.081200	0.914600
C121	C12	0.731600	0.026600	0.897000
C131	C13	0.675300	0.015900	0.938100
C141	C14	0.624100	0.954300	0.912800
C151	C15	0.691100	0.900400	0.907500
C161	C16	0.745200	0.873000	0.855200
C171	C17	0.812200	0.822800	0.846800
C181	C18	0.818400	0.806000	0.892400
C191	C19	0.758600	0.838900	0.945600
C201	C20	0.693000	0.885800	0.952900
C211	C21	0.632900	0.912600	0.010800
C221	C22	0.847300	0.911800	0.178700
C231	C23	0.830900	0.164300	0.250300
C241	C24	0.884800	0.193500	0.313400
C251	C25	0.980200	0.185500	0.318300
C261	C26	0.829500	0.228800	0.059100
C271	C27	0.843400	0.046200	0.813000
C281	C28	0.885600	0.076200	0.776000
C291	C29	0.926200	0.129100	0.801800
C301	C30	0.877000	0.812200	0.747100
C311	C31	0.891500	0.737200	0.922900
C321	C32	0.967300	0.653200	0.914100
C331	C33	0.924100	0.667100	0.882600
C341	C34	0.274800	0.255200	0.562000
C351	C35	0.214600	0.206800	0.516400
C361	C36	0.151100	0.217800	0.478800
C371	C37	0.150500	0.276400	0.483400
C381	C38	0.213600	0.323900	0.526400
C391	C39	0.272900	0.313900	0.565900
C401	C40	0.339300	0.369300	0.609700
C411	C41	0.291100	0.415200	0.671400
C421	C42	0.236000	0.462900	0.672300
C431	C43	0.185500	0.507500	0.728800
C441	C44	0.195700	0.503500	0.785400
C451	C45	0.250400	0.453300	0.779000
C461	C46	0.298200	0.412000	0.727100
C471	C47	0.359100	0.359900	0.729100
C481	C48	0.295200	0.305000	0.720500
C491	C49	0.243000	0.313000	0.771900
C501	C50	0.183000	0.266800	0.768800
C511	C51	0.176300	0.206700	0.711200
C521	C52	0.228200	0.199100	0.657300
C531	C53	0.285100	0.249600	0.662900
C541	C54	0.335500	0.237700	0.604000
C551	C55	0.081400	0.342600	0.449600
C561	C56	0.100200	0.109600	0.415900
C571	C57	0.078400	0.070300	0.345400
C581	C58	0.016700	0.020400	0.324300
C591	C59	0.151300	0.544300	0.888800
C601	C60	0.136800	0.576600	0.696000
C611	C61	0.115000	0.653500	0.731700
C621	C62	0.024200	0.680700	0.753800
C631	C63	0.111000	0.106700	0.657300
C641	C64	0.136600	0.327800	0.875200
C651	C65	0.109500	0.316300	0.931700
C661	C66	0.071000	0.263200	0.919800
C671	C67	0.014930	0.104600	0.034500
C681	C68	0.065130	0.159000	0.051300
C691	C69	0.116130	0.166900	0.007600
C701	C70	0.113530	0.119000	0.943700
C711	C71	0.062930	0.067100	0.927400
C721	C72	0.010630	0.057400	0.970000
C731	C73	0.951630	0.996100	0.945400
C741	C74	0.005630	0.940200	0.937800
C751	C75	0.056530	0.904300	0.881600
C761	C76	0.111730	0.850400	0.872400
C771	C77	0.112630	0.833400	0.918800
C781	C78	0.064930	0.870400	0.973400
C791	C79	0.008630	0.922200	0.984100
C801	C80	0.957430	0.958500	0.045700
C811	C81	0.024430	0.007100	0.099600
C821	C82	0.078530	0.982200	0.127000
C831	C83	0.145530	0.024000	0.177200
C841	C84	0.151730	0.086400	0.194000
C851	C85	0.091930	0.106700	0.161100
C861	C86	0.026330	0.067100	0.114200
C871	C87	0.966230	0.098200	0.087400
C881	C88	0.180630	0.266900	0.088200
C891	C89	0.164230	0.086000	0.835700
C901	C90	0.218130	0.119900	0.806500
C911	C91	0.313530	0.132800	0.814500
C921	C92	0.162830	0.830300	0.771200
C931	C93	0.176730	0.766800	0.953800
C941	C94	0.218930	0.699800	0.923800
C951	C95	0.259530	0.672700	0.870900
C961	C96	0.210330	0.934900	0.187800
C971	C97	0.224830	0.185700	0.262800
C981	C98	0.300630	0.260900	0.346800
C991	C99	0.257430	0.215500	0.332900
C1001	C100	0.608130	0.306800	0.744800
C1011	C101	0.547930	0.309600	0.793200
C1021	C102	0.484430	0.261000	0.782200
C1031	C103	0.483830	0.207000	0.723600
C1041	C104	0.546930	0.202500	0.676100
C1051	C105	0.606230	0.252000	0.686100
C1061	C106	0.672630	0.240400	0.630700
C1071	C107	0.624430	0.256200	0.584800
C1081	C108	0.569330	0.209400	0.537100
C1091	C109	0.518830	0.221300	0.492500
C1101	C110	0.529030	0.281900	0.496500
C1111	C111	0.583730	0.325700	0.546700
C1121	C112	0.631530	0.315100	0.588000
C1131	C113	0.692430	0.369200	0.640100
C1141	C114	0.628530	0.415500	0.695000
C1151	C115	0.576330	0.458900	0.687000
C1161	C116	0.516330	0.502000	0.733200
C1171	C117	0.509630	0.504500	0.793300
C1181	C118	0.561530	0.458200	0.800900
C1191	C119	0.618430	0.413300	0.750400
C1201	C120	0.668830	0.366300	0.762300
C1211	C121	0.414730	0.107000	0.657400
C1221	C122	0.433530	0.306300	0.890400
C1231	C123	0.411730	0.275100	0.929700
C1241	C124	0.350030	0.303900	0.979600
C1251	C125	0.484630	0.344500	0.455700
C1261	C126	0.470130	0.119400	0.423400
C1271	C127	0.448330	0.078200	0.346500
C1281	C128	0.357530	0.073100	0.319300
C1291	C129	0.444330	0.550600	0.893300
C1301	C130	0.469930	0.547400	0.672200
C1311	C131	0.442830	0.615400	0.683700
C1321	C132	0.404330	0.656600	0.736800
C1331	C133	0.348270	0.929900	0.895400
C1341	C134	0.398470	0.892300	0.841000
C1351	C135	0.449470	0.840700	0.833100
C1361	C136	0.446870	0.824700	0.881000
C1371	C137	0.396270	0.860300	0.932900
C1381	C138	0.343970	0.912600	0.942600
C1391	C139	0.284970	0.949300	0.003900
C1401	C140	0.338970	0.997600	0.059800
C1411	C141	0.389870	0.977300	0.095700
C1421	C142	0.445070	0.022000	0.149600
C1431	C143	0.445970	0.085400	0.166600
C1441	C144	0.398270	0.103000	0.129600
C1451	C145	0.341970	0.061900	0.077800
C1461	C146	0.290770	0.087200	0.041500
C1471	C147	0.357770	0.092500	0.992900
C1481	C148	0.411870	0.144800	0.017800
C1491	C149	0.478870	0.153200	0.976000
C1501	C150	0.485070	0.107600	0.913600
C1511	C151	0.425270	0.054400	0.893300
C1521	C152	0.359670	0.047100	0.932900
C1531	C153	0.299570	0.989200	0.901800
C1541	C154	0.513970	0.821300	0.733100
C1551	C155	0.497570	0.749700	0.914000
C1561	C156	0.551470	0.686600	0.880100
C1571	C157	0.646870	0.681700	0.867200
C1581	C158	0.496170	0.940900	0.169700
C1591	C159	0.510070	0.187000	0.233200
C1601	C160	0.552270	0.224000	0.300200
C1611	C161	0.592870	0.198200	0.327300
C1621	C162	0.543670	0.252900	0.065100
C1631	C163	0.558170	0.077100	0.814300
C1641	C164	0.633970	0.085900	0.739100
C1651	C165	0.590770	0.117400	0.784500
C1661	C166	0.941470	0.438000	0.693200
C1671	C167	0.881270	0.483600	0.690400
C1681	C168	0.817770	0.521200	0.739000
C1691	C169	0.817170	0.516600	0.793000
C1701	C170	0.880270	0.473600	0.797500
C1711	C171	0.939570	0.434100	0.748000
C1721	C172	0.005970	0.390300	0.759600
C1731	C173	0.957770	0.328600	0.743800
C1741	C174	0.902670	0.327700	0.790600
C1751	C175	0.852170	0.271200	0.778700
C1761	C176	0.862370	0.214600	0.718100
C1771	C177	0.917070	0.221000	0.674300
C1781	C178	0.964870	0.272900	0.684900
C1791	C179	0.025770	0.270900	0.630800
C1801	C180	0.961870	0.279500	0.584500
C1811	C181	0.909670	0.228100	0.541100
C1821	C182	0.849670	0.231200	0.498000
C1831	C183	0.842970	0.288800	0.495500
C1841	C184	0.894870	0.342700	0.541800
C1851	C185	0.951770	0.337100	0.586700
C1861	C186	0.002170	0.396000	0.633700
C1871	C187	0.748070	0.550400	0.893000
C1881	C188	0.766870	0.584100	0.693700
C1891	C189	0.745070	0.654600	0.724900
C1901	C190	0.683370	0.675700	0.696100
C1911	C191	0.817970	0.111200	0.655500
C1921	C192	0.803470	0.304000	0.880600
C1931	C193	0.781670	0.268300	0.921800
C1941	C194	0.690870	0.246200	0.926900
C1951	C195	0.777670	0.342700	0.449400
C1961	C196	0.803270	0.124800	0.452600
C1971	C197	0.776170	0.068300	0.384600
C1981	C198	0.737670	0.080200	0.343400
O11	O1	0.839600	0.979000	0.199300
O21	O2	0.835700	0.094600	0.228500
O31	O3	0.828500	0.183500	0.994400
O41	O4	0.830400	0.095600	0.876600
O51	O5	0.871200	0.790300	0.794000
O61	O6	0.878800	0.755500	0.877300
O71	O7	0.087600	0.284600	0.444400
O81	O8	0.096800	0.171400	0.430400
O91	O9	0.115500	0.163500	0.713100
O101	O10	0.135800	0.267900	0.820300
O111	O11	0.144500	0.545100	0.834300
O121	O12	0.130000	0.556900	0.735100
O131	O13	0.172930	0.220300	0.021000
O141	O14	0.169030	0.133900	0.905400
O151	O15	0.161830	0.810900	0.816500
O161	O16	0.163730	0.781000	0.904400
O171	O17	0.204530	0.003700	0.209700
O181	O18	0.212130	0.121800	0.244500
O191	O19	0.420930	0.159800	0.715400
O201	O20	0.430130	0.259000	0.828600
O211	O21	0.448830	0.549600	0.836500
O221	O22	0.469130	0.552400	0.732100
O231	O23	0.477830	0.289200	0.454900
O241	O24	0.463330	0.178200	0.443100
O251	O25	0.506270	0.800700	0.779700
O261	O26	0.502370	0.771500	0.866100
O271	O27	0.495170	0.005600	0.189100
O281	O28	0.497070	0.123400	0.219000
O291	O29	0.537870	0.206000	0.996300
O301	O30	0.545470	0.122700	0.878200
O311	O31	0.754270	0.555600	0.840200
O321	O32	0.763470	0.569600	0.741000
O331	O33	0.782170	0.286900	0.450400
O341	O34	0.802470	0.179700	0.447600
O351	O35	0.811170	0.165700	0.710800
O361	O36	0.796670	0.264900	0.821800
Sb11	Sb1	0.043500	0.744530	0.104770
F11	F1	0.103000	0.684200	0.045000
F21	F2	0.961000	0.734000	0.129000
F31	F3	0.019000	0.794400	0.075300
F41	F4	0.035000	0.818600	0.168600
F51	F5	0.168000	0.792000	0.097400
F61	F6	0.126000	0.723000	0.150600
Sb21	Sb2	0.376830	0.360240	0.255470
F71	F7	0.436330	0.360800	0.315800
F81	F8	0.294330	0.395000	0.266000
F91	F9	0.352330	0.280900	0.205600
F101	F10	0.368330	0.350000	0.181400
F111	F11	0.501330	0.305400	0.208000
F121	F12	0.459330	0.427600	0.277000
Sb31	Sb3	0.710170	0.895230	0.639760
F131	F13	0.769670	0.955000	0.639200
F141	F14	0.627670	0.871000	0.605000
F151	F15	0.685670	0.924700	0.719100
F161	F16	0.701670	0.831400	0.650000
F171	F17	0.834670	0.902600	0.694600
F181	F18	0.792670	0.849400	0.572400
