data_AVUCEA_clean_PM
_symmetry_space_group_name_H-M	'P1'
_cell_length_a	32.819500
_cell_length_b	32.819500
_cell_length_c	19.079300
_cell_angle_alpha	90.000000
_cell_angle_beta	90.000000
_cell_angle_gamma	120.000000
_symmetry_Int_Tables_number 1

loop_
_symmetry_equiv_pos_as_xyz
'x,y,z'

loop_
_atom_site_label
_atom_site_type_symbol
_atom_site_fract_x
_atom_site_fract_y
_atom_site_fract_z
Co11	Co1	0.518480	0.048720	0.192880
Co21	Co2	0.482620	0.021700	0.674250
O11	O1	0.519890	0.072420	0.093910
O21	O2	0.544100	0.147820	0.111300
O31	O3	0.511870	0.018090	0.847060
O41	O4	0.493250	0.056200	0.766600
O51	O5	0.592500	0.256510	0.916600
O61	O6	0.570500	0.230370	0.809100
O71	O7	0.582910	0.053660	0.198720
O81	O8	0.586500	0.027920	0.306290
O91	O9	0.794290	0.138760	0.102840
O101	O10	0.727300	0.120470	0.053090
C11	C1	0.532700	0.120750	0.995500
C21	C2	0.519660	0.083990	0.948600
C31	C3	0.520990	0.091900	0.876700
C41	C4	0.536660	0.137290	0.851900
C51	C5	0.551740	0.174950	0.898100
C61	C6	0.549000	0.166300	0.969700
C71	C7	0.532000	0.113140	0.073400
C81	C8	0.573200	0.224740	0.872700
C91	C9	0.507500	0.052070	0.825900
C101	C10	0.657290	0.077280	0.248100
C111	C11	0.679230	0.091100	0.182900
C121	C12	0.728100	0.113300	0.177700
C131	C13	0.755140	0.125960	0.238600
C141	C14	0.733500	0.114400	0.304100
C151	C15	0.684360	0.088200	0.307970
C161	C16	0.604250	0.050870	0.251660
C171	C17	0.751010	0.124880	0.107470
H11	H1	0.508900	0.051500	0.972000
H21	H2	0.538900	0.141800	0.809000
H31	H3	0.558000	0.191000	0.005000
H41	H4	0.660900	0.084700	0.142000
H51	H5	0.788300	0.142800	0.235000
H61	H6	0.669700	0.079800	0.353000
C181	C18	0.761620	0.132700	0.369800
O111	O11	0.742640	0.119650	0.428030
O121	O12	0.804360	0.165590	0.365520
Co31	Co3	0.185140	0.382050	0.526210
Co41	Co4	0.149290	0.355030	0.007580
O131	O13	0.186560	0.405750	0.427240
O141	O14	0.210770	0.481150	0.444630
O151	O15	0.178540	0.351420	0.180390
O161	O16	0.159920	0.389530	0.099930
O171	O17	0.259170	0.589840	0.249930
O181	O18	0.237170	0.563700	0.142430
O191	O19	0.249580	0.386990	0.532050
O201	O20	0.253170	0.361250	0.639620
O211	O21	0.460960	0.472090	0.436170
O221	O22	0.393970	0.453800	0.386420
C191	C19	0.199370	0.454080	0.328830
C201	C20	0.186330	0.417320	0.281930
C211	C21	0.187660	0.425230	0.210030
C221	C22	0.203330	0.470620	0.185230
C231	C23	0.218410	0.508280	0.231430
C241	C24	0.215670	0.499630	0.303030
C251	C25	0.198670	0.446470	0.406730
C261	C26	0.239870	0.558070	0.206030
C271	C27	0.174170	0.385400	0.159230
C281	C28	0.323960	0.410610	0.581430
C291	C29	0.345900	0.424430	0.516230
C301	C30	0.394770	0.446630	0.511030
C311	C31	0.421810	0.459290	0.571930
C321	C32	0.400170	0.447730	0.637430
C331	C33	0.351030	0.421530	0.641300
C341	C34	0.270920	0.384200	0.584990
C351	C35	0.417680	0.458210	0.440800
H71	H7	0.175570	0.384830	0.305330
H81	H8	0.205570	0.475130	0.142330
H91	H9	0.224670	0.524330	0.338330
H101	H10	0.327570	0.418030	0.475330
H111	H11	0.454970	0.476130	0.568330
H121	H12	0.336370	0.413130	0.686330
C361	C36	0.428290	0.466030	0.703130
O231	O23	0.409310	0.452980	0.761360
O241	O24	0.471030	0.498920	0.698850
Co51	Co5	0.851810	0.715390	0.859550
Co61	Co6	0.815950	0.688370	0.340920
O251	O25	0.853220	0.739090	0.760580
O261	O26	0.877430	0.814490	0.777970
O271	O27	0.845200	0.684760	0.513730
O281	O28	0.826580	0.722870	0.433270
O291	O29	0.925830	0.923180	0.583270
O301	O30	0.903830	0.897040	0.475770
O311	O31	0.916240	0.720330	0.865390
O321	O32	0.919830	0.694590	0.972960
O331	O33	0.127620	0.805430	0.769510
O341	O34	0.060630	0.787140	0.719760
C371	C37	0.866030	0.787420	0.662170
C381	C38	0.852990	0.750660	0.615270
C391	C39	0.854320	0.758570	0.543370
C401	C40	0.869990	0.803960	0.518570
C411	C41	0.885070	0.841620	0.564770
C421	C42	0.882330	0.832970	0.636370
C431	C43	0.865330	0.779810	0.740070
C441	C44	0.906530	0.891410	0.539370
C451	C45	0.840830	0.718740	0.492570
C461	C46	0.990620	0.743950	0.914770
C471	C47	0.012560	0.757770	0.849570
C481	C48	0.061430	0.779970	0.844370
C491	C49	0.088470	0.792630	0.905270
C501	C50	0.066830	0.781070	0.970770
C511	C51	0.017690	0.754870	0.974640
C521	C52	0.937580	0.717540	0.918330
C531	C53	0.084340	0.791550	0.774140
H131	H13	0.842230	0.718170	0.638670
H141	H14	0.872230	0.808470	0.475670
H151	H15	0.891330	0.857670	0.671670
H161	H16	0.994230	0.751370	0.808670
H171	H17	0.121630	0.809470	0.901670
H181	H18	0.003030	0.746470	0.019670
C541	C54	0.094950	0.799370	0.036470
O351	O35	0.075970	0.786320	0.094700
O361	O36	0.137690	0.832260	0.032190
Co71	Co7	0.951280	0.469760	0.192880
Co81	Co8	0.978300	0.460920	0.674250
O371	O37	0.927580	0.447470	0.093910
O381	O38	0.852180	0.396280	0.111300
O391	O39	0.981910	0.493780	0.847060
O401	O40	0.943800	0.437050	0.766600
O411	O41	0.743490	0.335990	0.916600
O421	O42	0.769630	0.340130	0.809100
O431	O43	0.946340	0.529250	0.198720
O441	O44	0.972080	0.558580	0.306290
O451	O45	0.861240	0.655530	0.102840
O461	O46	0.879530	0.606830	0.053090
C551	C55	0.879250	0.411950	0.995500
C561	C56	0.916010	0.435670	0.948600
C571	C57	0.908100	0.429090	0.876700
C581	C58	0.862710	0.399370	0.851900
C591	C59	0.825050	0.376790	0.898100
C601	C60	0.833700	0.382700	0.969700
C611	C61	0.886860	0.418860	0.073400
C621	C62	0.775260	0.348460	0.872700
C631	C63	0.947930	0.455430	0.825900
C641	C64	0.922720	0.580010	0.248100
C651	C65	0.908900	0.588130	0.182900
C661	C66	0.886700	0.614800	0.177700
C671	C67	0.874040	0.629180	0.238600
C681	C68	0.885600	0.619100	0.304100
C691	C69	0.911800	0.596160	0.307970
C701	C70	0.949130	0.553380	0.251660
C711	C71	0.875120	0.626130	0.107470
H191	H19	0.948500	0.457400	0.972000
H201	H20	0.858200	0.397100	0.809000
H211	H21	0.809000	0.367000	0.005000
H221	H22	0.915300	0.576200	0.142000
H231	H23	0.857200	0.645500	0.235000
H241	H24	0.920200	0.589900	0.353000
C721	C72	0.867300	0.628920	0.369800
O471	O47	0.880350	0.622990	0.428030
O481	O48	0.834410	0.638770	0.365520
Co91	Co9	0.617950	0.803090	0.526210
Co101	Co10	0.644970	0.794250	0.007580
O491	O49	0.594250	0.780800	0.427240
O501	O50	0.518850	0.729610	0.444630
O511	O51	0.648580	0.827110	0.180390
O521	O52	0.610470	0.770380	0.099930
O531	O53	0.410160	0.669320	0.249930
O541	O54	0.436300	0.673460	0.142430
O551	O55	0.613010	0.862580	0.532050
O561	O56	0.638750	0.891910	0.639620
O571	O57	0.527910	0.988860	0.436170
O581	O58	0.546200	0.940160	0.386420
C731	C73	0.545920	0.745280	0.328830
C741	C74	0.582680	0.769000	0.281930
C751	C75	0.574770	0.762420	0.210030
C761	C76	0.529380	0.732700	0.185230
C771	C77	0.491720	0.710120	0.231430
C781	C78	0.500370	0.716030	0.303030
C791	C79	0.553530	0.752190	0.406730
C801	C80	0.441930	0.681790	0.206030
C811	C81	0.614600	0.788760	0.159230
C821	C82	0.589390	0.913340	0.581430
C831	C83	0.575570	0.921460	0.516230
C841	C84	0.553370	0.948130	0.511030
C851	C85	0.540710	0.962510	0.571930
C861	C86	0.552270	0.952430	0.637430
C871	C87	0.578470	0.929490	0.641300
C881	C88	0.615800	0.886710	0.584990
C891	C89	0.541790	0.959460	0.440800
H251	H25	0.615170	0.790730	0.305330
H261	H26	0.524870	0.730430	0.142330
H271	H27	0.475670	0.700330	0.338330
H281	H28	0.581970	0.909530	0.475330
H291	H29	0.523870	0.978830	0.568330
H301	H30	0.586870	0.923230	0.686330
C901	C90	0.533970	0.962250	0.703130
O591	O59	0.547020	0.956320	0.761360
O601	O60	0.501080	0.972100	0.698850
Co111	Co11	0.284610	0.136420	0.859550
Co121	Co12	0.311630	0.127590	0.340920
O611	O61	0.260910	0.114140	0.760580
O621	O62	0.185510	0.062950	0.777970
O631	O63	0.315240	0.160450	0.513730
O641	O64	0.277130	0.103720	0.433270
O651	O65	0.076820	0.002660	0.583270
O661	O66	0.102960	0.006800	0.475770
O671	O67	0.279670	0.195920	0.865390
O681	O68	0.305410	0.225250	0.972960
O691	O69	0.194570	0.322200	0.769510
O701	O70	0.212860	0.273500	0.719760
C911	C91	0.212580	0.078620	0.662170
C921	C92	0.249340	0.102340	0.615270
C931	C93	0.241430	0.095760	0.543370
C941	C94	0.196040	0.066040	0.518570
C951	C95	0.158380	0.043460	0.564770
C961	C96	0.167030	0.049370	0.636370
C971	C97	0.220190	0.085530	0.740070
C981	C98	0.108590	0.015130	0.539370
C991	C99	0.281260	0.122100	0.492570
C1001	C100	0.256050	0.246680	0.914770
C1011	C101	0.242230	0.254800	0.849570
C1021	C102	0.220030	0.281470	0.844370
C1031	C103	0.207370	0.295850	0.905270
C1041	C104	0.218930	0.285770	0.970770
C1051	C105	0.245130	0.262830	0.974640
C1061	C106	0.282460	0.220050	0.918330
C1071	C107	0.208450	0.292800	0.774140
H311	H31	0.281830	0.124070	0.638670
H321	H32	0.191530	0.063770	0.475670
H331	H33	0.142330	0.033670	0.671670
H341	H34	0.248630	0.242870	0.808670
H351	H35	0.190530	0.312170	0.901670
H361	H36	0.253530	0.256570	0.019670
C1081	C108	0.200630	0.295590	0.036470
O711	O71	0.213680	0.289660	0.094700
O721	O72	0.167740	0.305440	0.032190
Co131	Co13	0.530240	0.481520	0.192880
Co141	Co14	0.539080	0.517380	0.674250
O731	O73	0.552530	0.480110	0.093910
O741	O74	0.603720	0.455900	0.111300
O751	O75	0.506220	0.488130	0.847060
O761	O76	0.562950	0.506750	0.766600
O771	O77	0.664010	0.407500	0.916600
O781	O78	0.659870	0.429500	0.809100
O791	O79	0.470750	0.417090	0.198720
O801	O80	0.441420	0.413500	0.306290
O811	O81	0.344470	0.205710	0.102840
O821	O82	0.393170	0.272700	0.053090
C1091	C109	0.588050	0.467300	0.995500
C1101	C110	0.564330	0.480340	0.948600
C1111	C111	0.570910	0.479010	0.876700
C1121	C112	0.600630	0.463340	0.851900
C1131	C113	0.623210	0.448260	0.898100
C1141	C114	0.617300	0.451000	0.969700
C1151	C115	0.581140	0.468000	0.073400
C1161	C116	0.651540	0.426800	0.872700
C1171	C117	0.544570	0.492500	0.825900
C1181	C118	0.419990	0.342710	0.248100
C1191	C119	0.411870	0.320770	0.182900
C1201	C120	0.385200	0.271900	0.177700
C1211	C121	0.370820	0.244860	0.238600
C1221	C122	0.380900	0.266500	0.304100
C1231	C123	0.403840	0.315640	0.307970
C1241	C124	0.446620	0.395750	0.251660
C1251	C125	0.373870	0.248990	0.107470
H371	H37	0.542600	0.491100	0.972000
H381	H38	0.602900	0.461100	0.809000
H391	H39	0.633000	0.442000	0.005000
H401	H40	0.423800	0.339100	0.142000
H411	H41	0.354500	0.211700	0.235000
H421	H42	0.410100	0.330300	0.353000
C1261	C126	0.371080	0.238380	0.369800
O831	O83	0.377010	0.257360	0.428030
O841	O84	0.361230	0.195640	0.365520
Co151	Co15	0.196910	0.814860	0.526210
Co161	Co16	0.205750	0.850710	0.007580
O851	O85	0.219200	0.813440	0.427240
O861	O86	0.270390	0.789230	0.444630
O871	O87	0.172890	0.821460	0.180390
O881	O88	0.229620	0.840080	0.099930
O891	O89	0.330680	0.740830	0.249930
O901	O90	0.326540	0.762830	0.142430
O911	O91	0.137420	0.750420	0.532050
O921	O92	0.108090	0.746830	0.639620
O931	O93	0.011140	0.539040	0.436170
O941	O94	0.059840	0.606030	0.386420
C1271	C127	0.254720	0.800630	0.328830
C1281	C128	0.231000	0.813670	0.281930
C1291	C129	0.237580	0.812340	0.210030
C1301	C130	0.267300	0.796670	0.185230
C1311	C131	0.289880	0.781590	0.231430
C1321	C132	0.283970	0.784330	0.303030
C1331	C133	0.247810	0.801330	0.406730
C1341	C134	0.318210	0.760130	0.206030
C1351	C135	0.211240	0.825830	0.159230
C1361	C136	0.086660	0.676040	0.581430
C1371	C137	0.078540	0.654100	0.516230
C1381	C138	0.051870	0.605230	0.511030
C1391	C139	0.037490	0.578190	0.571930
C1401	C140	0.047570	0.599830	0.637430
C1411	C141	0.070510	0.648970	0.641300
C1421	C142	0.113290	0.729080	0.584990
C1431	C143	0.040540	0.582320	0.440800
H431	H43	0.209270	0.824430	0.305330
H441	H44	0.269570	0.794430	0.142330
H451	H45	0.299670	0.775330	0.338330
H461	H46	0.090470	0.672430	0.475330
H471	H47	0.021170	0.545030	0.568330
H481	H48	0.076770	0.663630	0.686330
C1441	C144	0.037750	0.571710	0.703130
O951	O95	0.043680	0.590690	0.761360
O961	O96	0.027900	0.528970	0.698850
Co171	Co17	0.863580	0.148190	0.859550
Co181	Co18	0.872410	0.184050	0.340920
O971	O97	0.885860	0.146780	0.760580
O981	O98	0.937050	0.122570	0.777970
O991	O99	0.839550	0.154800	0.513730
O1001	O100	0.896280	0.173420	0.433270
O1011	O101	0.997340	0.074170	0.583270
O1021	O102	0.993200	0.096170	0.475770
O1031	O103	0.804080	0.083760	0.865390
O1041	O104	0.774750	0.080170	0.972960
O1051	O105	0.677800	0.872380	0.769510
O1061	O106	0.726500	0.939370	0.719760
C1451	C145	0.921380	0.133970	0.662170
C1461	C146	0.897660	0.147010	0.615270
C1471	C147	0.904240	0.145680	0.543370
C1481	C148	0.933960	0.130010	0.518570
C1491	C149	0.956540	0.114930	0.564770
C1501	C150	0.950630	0.117670	0.636370
C1511	C151	0.914470	0.134670	0.740070
C1521	C152	0.984870	0.093470	0.539370
C1531	C153	0.877900	0.159170	0.492570
C1541	C154	0.753320	0.009380	0.914770
C1551	C155	0.745200	0.987440	0.849570
C1561	C156	0.718530	0.938570	0.844370
C1571	C157	0.704150	0.911530	0.905270
C1581	C158	0.714230	0.933170	0.970770
C1591	C159	0.737170	0.982310	0.974640
C1601	C160	0.779950	0.062420	0.918330
C1611	C161	0.707200	0.915660	0.774140
H491	H49	0.875930	0.157770	0.638670
H501	H50	0.936230	0.127770	0.475670
H511	H51	0.966330	0.108670	0.671670
H521	H52	0.757130	0.005770	0.808670
H531	H53	0.687830	0.878370	0.901670
H541	H54	0.743430	0.996970	0.019670
C1621	C162	0.704410	0.905050	0.036470
O1071	O107	0.710340	0.924030	0.094700
O1081	O108	0.694560	0.862310	0.032190
Co191	Co19	0.481520	0.951280	0.807120
Co201	Co20	0.517380	0.978300	0.325750
O1091	O109	0.480110	0.927580	0.906090
O1101	O110	0.455900	0.852180	0.888700
O1111	O111	0.488130	0.981910	0.152940
O1121	O112	0.506750	0.943800	0.233400
O1131	O113	0.407500	0.743490	0.083400
O1141	O114	0.429500	0.769630	0.190900
O1151	O115	0.417090	0.946340	0.801280
O1161	O116	0.413500	0.972080	0.693710
O1171	O117	0.205710	0.861240	0.897160
O1181	O118	0.272700	0.879530	0.946910
C1631	C163	0.467300	0.879250	0.004500
C1641	C164	0.480340	0.916010	0.051400
C1651	C165	0.479010	0.908100	0.123300
C1661	C166	0.463340	0.862710	0.148100
C1671	C167	0.448260	0.825050	0.101900
C1681	C168	0.451000	0.833700	0.030300
C1691	C169	0.468000	0.886860	0.926600
C1701	C170	0.426800	0.775260	0.127300
C1711	C171	0.492500	0.947930	0.174100
C1721	C172	0.342710	0.922720	0.751900
C1731	C173	0.320770	0.908900	0.817100
C1741	C174	0.271900	0.886700	0.822300
C1751	C175	0.244860	0.874040	0.761400
C1761	C176	0.266500	0.885600	0.695900
C1771	C177	0.315640	0.911800	0.692030
C1781	C178	0.395750	0.949130	0.748340
C1791	C179	0.248990	0.875120	0.892530
H551	H55	0.491100	0.948500	0.028000
H561	H56	0.461100	0.858200	0.191000
H571	H57	0.442000	0.809000	0.995000
H581	H58	0.339100	0.915300	0.858000
H591	H59	0.211700	0.857200	0.765000
H601	H60	0.330300	0.920200	0.647000
C1801	C180	0.238380	0.867300	0.630200
O1191	O119	0.257360	0.880350	0.571970
O1201	O120	0.195640	0.834410	0.634480
Co211	Co21	0.148190	0.284610	0.140450
Co221	Co22	0.184050	0.311630	0.659080
O1211	O121	0.146780	0.260910	0.239420
O1221	O122	0.122570	0.185510	0.222030
O1231	O123	0.154800	0.315240	0.486270
O1241	O124	0.173420	0.277130	0.566730
O1251	O125	0.074170	0.076820	0.416730
O1261	O126	0.096170	0.102960	0.524230
O1271	O127	0.083760	0.279670	0.134610
O1281	O128	0.080170	0.305410	0.027040
O1291	O129	0.872380	0.194570	0.230490
O1301	O130	0.939370	0.212860	0.280240
C1811	C181	0.133970	0.212580	0.337830
C1821	C182	0.147010	0.249340	0.384730
C1831	C183	0.145680	0.241430	0.456630
C1841	C184	0.130010	0.196040	0.481430
C1851	C185	0.114930	0.158380	0.435230
C1861	C186	0.117670	0.167030	0.363630
C1871	C187	0.134670	0.220190	0.259930
C1881	C188	0.093470	0.108590	0.460630
C1891	C189	0.159170	0.281260	0.507430
C1901	C190	0.009380	0.256050	0.085230
C1911	C191	0.987440	0.242230	0.150430
C1921	C192	0.938570	0.220030	0.155630
C1931	C193	0.911530	0.207370	0.094730
C1941	C194	0.933170	0.218930	0.029230
C1951	C195	0.982310	0.245130	0.025360
C1961	C196	0.062420	0.282460	0.081670
C1971	C197	0.915660	0.208450	0.225860
H611	H61	0.157770	0.281830	0.361330
H621	H62	0.127770	0.191530	0.524330
H631	H63	0.108670	0.142330	0.328330
H641	H64	0.005770	0.248630	0.191330
H651	H65	0.878370	0.190530	0.098330
H661	H66	0.996970	0.253530	0.980330
C1981	C198	0.905050	0.200630	0.963530
O1311	O131	0.924030	0.213680	0.905300
O1321	O132	0.862310	0.167740	0.967810
Co231	Co23	0.814860	0.617950	0.473790
Co241	Co24	0.850710	0.644970	0.992420
O1331	O133	0.813440	0.594250	0.572760
O1341	O134	0.789230	0.518850	0.555370
O1351	O135	0.821460	0.648580	0.819610
O1361	O136	0.840080	0.610470	0.900070
O1371	O137	0.740830	0.410160	0.750070
O1381	O138	0.762830	0.436300	0.857570
O1391	O139	0.750420	0.613010	0.467950
O1401	O140	0.746830	0.638750	0.360380
O1411	O141	0.539040	0.527910	0.563830
O1421	O142	0.606030	0.546200	0.613580
C1991	C199	0.800630	0.545920	0.671170
C2001	C200	0.813670	0.582680	0.718070
C2011	C201	0.812340	0.574770	0.789970
C2021	C202	0.796670	0.529380	0.814770
C2031	C203	0.781590	0.491720	0.768570
C2041	C204	0.784330	0.500370	0.696970
C2051	C205	0.801330	0.553530	0.593270
C2061	C206	0.760130	0.441930	0.793970
C2071	C207	0.825830	0.614600	0.840770
C2081	C208	0.676040	0.589390	0.418570
C2091	C209	0.654100	0.575570	0.483770
C2101	C210	0.605230	0.553370	0.488970
C2111	C211	0.578190	0.540710	0.428070
C2121	C212	0.599830	0.552270	0.362570
C2131	C213	0.648970	0.578470	0.358700
C2141	C214	0.729080	0.615800	0.415010
C2151	C215	0.582320	0.541790	0.559200
H671	H67	0.824430	0.615170	0.694670
H681	H68	0.794430	0.524870	0.857670
H691	H69	0.775330	0.475670	0.661670
H701	H70	0.672430	0.581970	0.524670
H711	H71	0.545030	0.523870	0.431670
H721	H72	0.663630	0.586870	0.313670
C2161	C216	0.571710	0.533970	0.296870
O1431	O143	0.590690	0.547020	0.238640
O1441	O144	0.528970	0.501080	0.301150
Co251	Co25	0.048720	0.530240	0.807120
Co261	Co26	0.021700	0.539080	0.325750
O1451	O145	0.072420	0.552530	0.906090
O1461	O146	0.147820	0.603720	0.888700
O1471	O147	0.018090	0.506220	0.152940
O1481	O148	0.056200	0.562950	0.233400
O1491	O149	0.256510	0.664010	0.083400
O1501	O150	0.230370	0.659870	0.190900
O1511	O151	0.053660	0.470750	0.801280
O1521	O152	0.027920	0.441420	0.693710
O1531	O153	0.138760	0.344470	0.897160
O1541	O154	0.120470	0.393170	0.946910
C2171	C217	0.120750	0.588050	0.004500
C2181	C218	0.083990	0.564330	0.051400
C2191	C219	0.091900	0.570910	0.123300
C2201	C220	0.137290	0.600630	0.148100
C2211	C221	0.174950	0.623210	0.101900
C2221	C222	0.166300	0.617300	0.030300
C2231	C223	0.113140	0.581140	0.926600
C2241	C224	0.224740	0.651540	0.127300
C2251	C225	0.052070	0.544570	0.174100
C2261	C226	0.077280	0.419990	0.751900
C2271	C227	0.091100	0.411870	0.817100
C2281	C228	0.113300	0.385200	0.822300
C2291	C229	0.125960	0.370820	0.761400
C2301	C230	0.114400	0.380900	0.695900
C2311	C231	0.088200	0.403840	0.692030
C2321	C232	0.050870	0.446620	0.748340
C2331	C233	0.124880	0.373870	0.892530
H731	H73	0.051500	0.542600	0.028000
H741	H74	0.141800	0.602900	0.191000
H751	H75	0.191000	0.633000	0.995000
H761	H76	0.084700	0.423800	0.858000
H771	H77	0.142800	0.354500	0.765000
H781	H78	0.079800	0.410100	0.647000
C2341	C234	0.132700	0.371080	0.630200
O1551	O155	0.119650	0.377010	0.571970
O1561	O156	0.165590	0.361230	0.634480
Co271	Co27	0.715390	0.863580	0.140450
Co281	Co28	0.688370	0.872410	0.659080
O1571	O157	0.739090	0.885860	0.239420
O1581	O158	0.814490	0.937050	0.222030
O1591	O159	0.684760	0.839550	0.486270
O1601	O160	0.722870	0.896280	0.566730
O1611	O161	0.923180	0.997340	0.416730
O1621	O162	0.897040	0.993200	0.524230
O1631	O163	0.720330	0.804080	0.134610
O1641	O164	0.694590	0.774750	0.027040
O1651	O165	0.805430	0.677800	0.230490
O1661	O166	0.787140	0.726500	0.280240
C2351	C235	0.787420	0.921380	0.337830
C2361	C236	0.750660	0.897660	0.384730
C2371	C237	0.758570	0.904240	0.456630
C2381	C238	0.803960	0.933960	0.481430
C2391	C239	0.841620	0.956540	0.435230
C2401	C240	0.832970	0.950630	0.363630
C2411	C241	0.779810	0.914470	0.259930
C2421	C242	0.891410	0.984870	0.460630
C2431	C243	0.718740	0.877900	0.507430
C2441	C244	0.743950	0.753320	0.085230
C2451	C245	0.757770	0.745200	0.150430
C2461	C246	0.779970	0.718530	0.155630
C2471	C247	0.792630	0.704150	0.094730
C2481	C248	0.781070	0.714230	0.029230
C2491	C249	0.754870	0.737170	0.025360
C2501	C250	0.717540	0.779950	0.081670
C2511	C251	0.791550	0.707200	0.225860
H791	H79	0.718170	0.875930	0.361330
H801	H80	0.808470	0.936230	0.524330
H811	H81	0.857670	0.966330	0.328330
H821	H82	0.751370	0.757130	0.191330
H831	H83	0.809470	0.687830	0.098330
H841	H84	0.746470	0.743430	0.980330
C2521	C252	0.799370	0.704410	0.963530
O1671	O167	0.786320	0.710340	0.905300
O1681	O168	0.832260	0.694560	0.967810
Co291	Co29	0.382050	0.196910	0.473790
Co301	Co30	0.355030	0.205750	0.992420
O1691	O169	0.405750	0.219200	0.572760
O1701	O170	0.481150	0.270390	0.555370
O1711	O171	0.351420	0.172890	0.819610
O1721	O172	0.389530	0.229620	0.900070
O1731	O173	0.589840	0.330680	0.750070
O1741	O174	0.563700	0.326540	0.857570
O1751	O175	0.386990	0.137420	0.467950
O1761	O176	0.361250	0.108090	0.360380
O1771	O177	0.472090	0.011140	0.563830
O1781	O178	0.453800	0.059840	0.613580
C2531	C253	0.454080	0.254720	0.671170
C2541	C254	0.417320	0.231000	0.718070
C2551	C255	0.425230	0.237580	0.789970
C2561	C256	0.470620	0.267300	0.814770
C2571	C257	0.508280	0.289880	0.768570
C2581	C258	0.499630	0.283970	0.696970
C2591	C259	0.446470	0.247810	0.593270
C2601	C260	0.558070	0.318210	0.793970
C2611	C261	0.385400	0.211240	0.840770
C2621	C262	0.410610	0.086660	0.418570
C2631	C263	0.424430	0.078540	0.483770
C2641	C264	0.446630	0.051870	0.488970
C2651	C265	0.459290	0.037490	0.428070
C2661	C266	0.447730	0.047570	0.362570
C2671	C267	0.421530	0.070510	0.358700
C2681	C268	0.384200	0.113290	0.415010
C2691	C269	0.458210	0.040540	0.559200
H851	H85	0.384830	0.209270	0.694670
H861	H86	0.475130	0.269570	0.857670
H871	H87	0.524330	0.299670	0.661670
H881	H88	0.418030	0.090470	0.524670
H891	H89	0.476130	0.021170	0.431670
H901	H90	0.413130	0.076770	0.313670
C2701	C270	0.466030	0.037750	0.296870
O1791	O179	0.452980	0.043680	0.238640
O1801	O180	0.498920	0.027900	0.301150
Co311	Co31	0.469760	0.518480	0.807120
Co321	Co32	0.460920	0.482620	0.325750
O1811	O181	0.447470	0.519890	0.906090
O1821	O182	0.396280	0.544100	0.888700
O1831	O183	0.493780	0.511870	0.152940
O1841	O184	0.437050	0.493250	0.233400
O1851	O185	0.335990	0.592500	0.083400
O1861	O186	0.340130	0.570500	0.190900
O1871	O187	0.529250	0.582910	0.801280
O1881	O188	0.558580	0.586500	0.693710
O1891	O189	0.655530	0.794290	0.897160
O1901	O190	0.606830	0.727300	0.946910
C2711	C271	0.411950	0.532700	0.004500
C2721	C272	0.435670	0.519660	0.051400
C2731	C273	0.429090	0.520990	0.123300
C2741	C274	0.399370	0.536660	0.148100
C2751	C275	0.376790	0.551740	0.101900
C2761	C276	0.382700	0.549000	0.030300
C2771	C277	0.418860	0.532000	0.926600
C2781	C278	0.348460	0.573200	0.127300
C2791	C279	0.455430	0.507500	0.174100
C2801	C280	0.580010	0.657290	0.751900
C2811	C281	0.588130	0.679230	0.817100
C2821	C282	0.614800	0.728100	0.822300
C2831	C283	0.629180	0.755140	0.761400
C2841	C284	0.619100	0.733500	0.695900
C2851	C285	0.596160	0.684360	0.692030
C2861	C286	0.553380	0.604250	0.748340
C2871	C287	0.626130	0.751010	0.892530
H911	H91	0.457400	0.508900	0.028000
H921	H92	0.397100	0.538900	0.191000
H931	H93	0.367000	0.558000	0.995000
H941	H94	0.576200	0.660900	0.858000
H951	H95	0.645500	0.788300	0.765000
H961	H96	0.589900	0.669700	0.647000
C2881	C288	0.628920	0.761620	0.630200
O1911	O191	0.622990	0.742640	0.571970
O1921	O192	0.638770	0.804360	0.634480
Co331	Co33	0.136420	0.851810	0.140450
Co341	Co34	0.127590	0.815950	0.659080
O1931	O193	0.114140	0.853220	0.239420
O1941	O194	0.062950	0.877430	0.222030
O1951	O195	0.160450	0.845200	0.486270
O1961	O196	0.103720	0.826580	0.566730
O1971	O197	0.002660	0.925830	0.416730
O1981	O198	0.006800	0.903830	0.524230
O1991	O199	0.195920	0.916240	0.134610
O2001	O200	0.225250	0.919830	0.027040
O2011	O201	0.322200	0.127620	0.230490
O2021	O202	0.273500	0.060630	0.280240
C2891	C289	0.078620	0.866030	0.337830
C2901	C290	0.102340	0.852990	0.384730
C2911	C291	0.095760	0.854320	0.456630
C2921	C292	0.066040	0.869990	0.481430
C2931	C293	0.043460	0.885070	0.435230
C2941	C294	0.049370	0.882330	0.363630
C2951	C295	0.085530	0.865330	0.259930
C2961	C296	0.015130	0.906530	0.460630
C2971	C297	0.122100	0.840830	0.507430
C2981	C298	0.246680	0.990620	0.085230
C2991	C299	0.254800	0.012560	0.150430
C3001	C300	0.281470	0.061430	0.155630
C3011	C301	0.295850	0.088470	0.094730
C3021	C302	0.285770	0.066830	0.029230
C3031	C303	0.262830	0.017690	0.025360
C3041	C304	0.220050	0.937580	0.081670
C3051	C305	0.292800	0.084340	0.225860
H971	H97	0.124070	0.842230	0.361330
H981	H98	0.063770	0.872230	0.524330
H991	H99	0.033670	0.891330	0.328330
H1001	H100	0.242870	0.994230	0.191330
H1011	H101	0.312170	0.121630	0.098330
H1021	H102	0.256570	0.003030	0.980330
C3061	C306	0.295590	0.094950	0.963530
O2031	O203	0.289660	0.075970	0.905300
O2041	O204	0.305440	0.137690	0.967810
Co351	Co35	0.803090	0.185140	0.473790
Co361	Co36	0.794250	0.149290	0.992420
O2051	O205	0.780800	0.186560	0.572760
O2061	O206	0.729610	0.210770	0.555370
O2071	O207	0.827110	0.178540	0.819610
O2081	O208	0.770380	0.159920	0.900070
O2091	O209	0.669320	0.259170	0.750070
O2101	O210	0.673460	0.237170	0.857570
O2111	O211	0.862580	0.249580	0.467950
O2121	O212	0.891910	0.253170	0.360380
O2131	O213	0.988860	0.460960	0.563830
O2141	O214	0.940160	0.393970	0.613580
C3071	C307	0.745280	0.199370	0.671170
C3081	C308	0.769000	0.186330	0.718070
C3091	C309	0.762420	0.187660	0.789970
C3101	C310	0.732700	0.203330	0.814770
C3111	C311	0.710120	0.218410	0.768570
C3121	C312	0.716030	0.215670	0.696970
C3131	C313	0.752190	0.198670	0.593270
C3141	C314	0.681790	0.239870	0.793970
C3151	C315	0.788760	0.174170	0.840770
C3161	C316	0.913340	0.323960	0.418570
C3171	C317	0.921460	0.345900	0.483770
C3181	C318	0.948130	0.394770	0.488970
C3191	C319	0.962510	0.421810	0.428070
C3201	C320	0.952430	0.400170	0.362570
C3211	C321	0.929490	0.351030	0.358700
C3221	C322	0.886710	0.270920	0.415010
C3231	C323	0.959460	0.417680	0.559200
H1031	H103	0.790730	0.175570	0.694670
H1041	H104	0.730430	0.205570	0.857670
H1051	H105	0.700330	0.224670	0.661670
H1061	H106	0.909530	0.327570	0.524670
H1071	H107	0.978830	0.454970	0.431670
H1081	H108	0.923230	0.336370	0.313670
C3241	C324	0.962250	0.428290	0.296870
O2151	O215	0.956320	0.409310	0.238640
O2161	O216	0.972100	0.471030	0.301150
