data_AWAHAI_clean_PM
_symmetry_space_group_name_H-M	'P1'
_cell_length_a	22.864200
_cell_length_b	22.864200
_cell_length_c	22.864200
_cell_angle_alpha	109.471000
_cell_angle_beta	109.471000
_cell_angle_gamma	109.471000
_symmetry_Int_Tables_number 1

loop_
_symmetry_equiv_pos_as_xyz
'x,y,z'

loop_
_atom_site_label
_atom_site_type_symbol
_atom_site_fract_x
_atom_site_fract_y
_atom_site_fract_z
U11	U1	0.333370	0.915500	0.725610
U21	U2	0.189880	0.607750	0.274380
U31	U3	0.810120	0.084510	0.417880
U41	U4	0.666630	0.392240	0.582130
U51	U5	0.417870	0.810110	0.084500
U61	U6	0.582130	0.666630	0.392250
U71	U7	0.725610	0.333370	0.915490
U81	U8	0.274390	0.189890	0.607760
U91	U9	0.607760	0.274390	0.189890
U101	U10	0.915500	0.725620	0.333370
U111	U11	0.392240	0.582120	0.666630
U121	U12	0.084500	0.417870	0.810110
U131	U13	0.666630	0.084500	0.274390
U141	U14	0.810120	0.392250	0.725620
U151	U15	0.189880	0.915490	0.582120
U161	U16	0.333370	0.607760	0.417870
U171	U17	0.582130	0.189890	0.915500
U181	U18	0.417870	0.333370	0.607750
U191	U19	0.274390	0.666630	0.084510
U201	U20	0.725610	0.810110	0.392240
U211	U21	0.392240	0.725610	0.810110
U221	U22	0.084500	0.274380	0.666630
U231	U23	0.607760	0.417880	0.333370
U241	U24	0.915500	0.582130	0.189890
U251	U25	0.651090	0.131780	0.782870
U261	U26	0.348910	0.868220	0.217130
U271	U27	0.651090	0.868230	0.519310
U281	U28	0.348910	0.131770	0.480690
U291	U29	0.519310	0.651090	0.868220
U301	U30	0.480690	0.348910	0.131780
U311	U31	0.782860	0.651080	0.131770
U321	U32	0.217140	0.348920	0.868230
U331	U33	0.868220	0.217130	0.348910
U341	U34	0.131780	0.782870	0.651090
U351	U35	0.131780	0.480690	0.348920
U361	U36	0.868220	0.519310	0.651080
U371	U37	0.567060	0.930610	0.636450
U381	U38	0.294160	0.930610	0.363550
U391	U39	0.705840	0.069390	0.636450
U401	U40	0.432940	0.069390	0.363550
U411	U41	0.636450	0.705840	0.069390
U421	U42	0.363550	0.432940	0.069390
U431	U43	0.636450	0.567060	0.930610
U441	U44	0.363550	0.294160	0.930610
U451	U45	0.930610	0.363550	0.294160
U461	U46	0.930610	0.636450	0.567060
U471	U47	0.069390	0.363550	0.432940
U481	U48	0.069390	0.636450	0.705840
Mn11	Mn1	0.634240	0.000000	0.000000
Mn21	Mn2	0.000000	0.634240	0.000000
Mn31	Mn3	0.000000	0.000000	0.634240
Mn41	Mn4	0.365760	0.365760	0.365760
Mn51	Mn5	0.365760	0.000000	0.000000
Mn61	Mn6	0.000000	0.365760	0.000000
Mn71	Mn7	0.000000	0.000000	0.365760
Mn81	Mn8	0.634240	0.634240	0.634240
Mn91	Mn9	0.500000	0.000000	0.000000
Mn101	Mn10	0.000000	0.500000	0.000000
Mn111	Mn11	0.000000	0.000000	0.500000
Mn121	Mn12	0.500000	0.500000	0.500000
Mn131	Mn13	0.500000	0.141800	0.641800
Mn141	Mn14	0.500000	0.858200	0.358200
Mn151	Mn15	0.358200	0.500000	0.858200
Mn161	Mn16	0.641800	0.500000	0.141800
Mn171	Mn17	0.858200	0.358200	0.500000
Mn181	Mn18	0.141800	0.641800	0.500000
P11	P1	0.519120	0.008120	0.775720
P21	P2	0.232400	0.743400	0.224280
P31	P3	0.767600	0.991880	0.511000
P41	P4	0.480880	0.256600	0.489000
P51	P5	0.511000	0.767600	0.991880
P61	P6	0.489000	0.480880	0.256600
P71	P7	0.775720	0.519120	0.008120
P81	P8	0.224280	0.232400	0.743400
P91	P9	0.743400	0.224280	0.232400
P101	P10	0.008120	0.775720	0.519120
P111	P11	0.256600	0.489000	0.480880
P121	P12	0.991880	0.511000	0.767600
P131	P13	0.480880	0.991880	0.224280
P141	P14	0.767600	0.256600	0.775720
P151	P15	0.232400	0.008120	0.489000
P161	P16	0.519120	0.743400	0.511000
P171	P17	0.489000	0.232400	0.008120
P181	P18	0.511000	0.519120	0.743400
P191	P19	0.224280	0.480880	0.991880
P201	P20	0.775720	0.767600	0.256600
P211	P21	0.256600	0.775720	0.767600
P221	P22	0.991880	0.224280	0.480880
P231	P23	0.743400	0.511000	0.519120
P241	P24	0.008120	0.489000	0.232400
H11	H1	0.496800	0.897000	0.763200
H21	H2	0.571400	0.956700	0.831500
H31	H3	0.133800	0.733600	0.236800
H41	H4	0.125200	0.739900	0.168500
H51	H5	0.866200	0.103000	0.599800
H61	H6	0.874800	0.043300	0.614700
H71	H7	0.503200	0.266400	0.400200
H81	H8	0.428600	0.260100	0.385300
H91	H9	0.599800	0.866200	0.103000
H101	H10	0.614700	0.874800	0.043300
H111	H11	0.400200	0.503200	0.266400
H121	H12	0.385300	0.428600	0.260100
H131	H13	0.763200	0.496800	0.897000
H141	H14	0.831500	0.571400	0.956700
H151	H15	0.236800	0.133800	0.733600
H161	H16	0.168500	0.125200	0.739900
H171	H17	0.733600	0.236800	0.133800
H181	H18	0.739900	0.168500	0.125200
H191	H19	0.897000	0.763200	0.496800
H201	H20	0.956700	0.831500	0.571400
H211	H21	0.266400	0.400200	0.503200
H221	H22	0.260100	0.385300	0.428600
H231	H23	0.103000	0.599800	0.866200
H241	H24	0.043300	0.614700	0.874800
H251	H25	0.503200	0.103000	0.236800
H261	H26	0.428600	0.043300	0.168500
H271	H27	0.866200	0.266400	0.763200
H281	H28	0.874800	0.260100	0.831500
H291	H29	0.133800	0.897000	0.400200
H301	H30	0.125200	0.956700	0.385300
H311	H31	0.496800	0.733600	0.599800
H321	H32	0.571400	0.739900	0.614700
H331	H33	0.400200	0.133800	0.897000
H341	H34	0.385300	0.125200	0.956700
H351	H35	0.599800	0.496800	0.733600
H361	H36	0.614700	0.571400	0.739900
H371	H37	0.236800	0.503200	0.103000
H381	H38	0.168500	0.428600	0.043300
H391	H39	0.763200	0.866200	0.266400
H401	H40	0.831500	0.874800	0.260100
H411	H41	0.266400	0.763200	0.866200
H421	H42	0.260100	0.831500	0.874800
H431	H43	0.103000	0.236800	0.503200
H441	H44	0.043300	0.168500	0.428600
H451	H45	0.733600	0.599800	0.496800
H461	H46	0.739900	0.614700	0.571400
H471	H47	0.897000	0.400200	0.133800
H481	H48	0.956700	0.385300	0.125200
C11	C1	0.522000	0.944330	0.804690
C21	C2	0.487960	0.943370	0.851510
C31	C3	0.139640	0.717310	0.195310
C41	C4	0.091860	0.636450	0.148490
C51	C5	0.860360	0.055670	0.577670
C61	C6	0.908140	0.056630	0.544590
C71	C7	0.478000	0.282690	0.422330
C81	C8	0.512040	0.363550	0.455410
C91	C9	0.577670	0.860360	0.055670
C101	C10	0.544590	0.908140	0.056630
C111	C11	0.422330	0.478000	0.282690
C121	C12	0.455410	0.512040	0.363550
C131	C13	0.804690	0.522000	0.944330
C141	C14	0.851510	0.487960	0.943370
C151	C15	0.195310	0.139640	0.717310
C161	C16	0.148490	0.091860	0.636450
C171	C17	0.717310	0.195310	0.139640
C181	C18	0.636450	0.148490	0.091860
C191	C19	0.944330	0.804690	0.522000
C201	C20	0.943370	0.851510	0.487960
C211	C21	0.282690	0.422330	0.478000
C221	C22	0.363550	0.455410	0.512040
C231	C23	0.055670	0.577670	0.860360
C241	C24	0.056630	0.544590	0.908140
C251	C25	0.478000	0.055670	0.195310
C261	C26	0.512040	0.056630	0.148490
C271	C27	0.860360	0.282690	0.804690
C281	C28	0.908140	0.363550	0.851510
C291	C29	0.139640	0.944330	0.422330
C301	C30	0.091860	0.943370	0.455410
C311	C31	0.522000	0.717310	0.577670
C321	C32	0.487960	0.636450	0.544590
C331	C33	0.422330	0.139640	0.944330
C341	C34	0.455410	0.091860	0.943370
C351	C35	0.577670	0.522000	0.717310
C361	C36	0.544590	0.487960	0.636450
C371	C37	0.195310	0.478000	0.055670
C381	C38	0.148490	0.512040	0.056630
C391	C39	0.804690	0.860360	0.282690
C401	C40	0.851510	0.908140	0.363550
C411	C41	0.282690	0.804690	0.860360
C421	C42	0.363550	0.851510	0.908140
C431	C43	0.055670	0.195310	0.478000
C441	C44	0.056630	0.148490	0.512040
C451	C45	0.717310	0.577670	0.522000
C461	C46	0.636450	0.544590	0.487960
C471	C47	0.944330	0.422330	0.139640
C481	C48	0.943370	0.455410	0.091860
O11	O1	0.444310	0.995800	0.747050
O21	O2	0.545580	0.000430	0.721770
O31	O3	0.262970	0.838830	0.754520
O41	O4	0.422610	0.923680	0.824930
O51	O5	0.527300	0.964160	0.916180
O61	O6	0.248750	0.697260	0.252950
O71	O7	0.278660	0.823810	0.278230
O81	O8	0.084310	0.508450	0.245480
O91	O9	0.098750	0.597680	0.175070
O101	O10	0.047980	0.611120	0.083820
O111	O11	0.751250	0.004200	0.448510
O121	O12	0.721340	0.999570	0.545150
O131	O13	0.915690	0.161170	0.424140
O141	O14	0.901250	0.076320	0.498930
O151	O15	0.952020	0.035840	0.563140
O161	O16	0.555690	0.302740	0.551490
O171	O17	0.454420	0.176190	0.454850
O181	O18	0.737030	0.491550	0.575860
O191	O19	0.577390	0.402320	0.501070
O201	O20	0.472700	0.388880	0.436860
O211	O21	0.448510	0.751250	0.004200
O221	O22	0.545150	0.721340	0.999570
O231	O23	0.424140	0.915690	0.161170
O241	O24	0.498930	0.901250	0.076320
O251	O25	0.563140	0.952020	0.035840
O261	O26	0.551490	0.555690	0.302740
O271	O27	0.454850	0.454420	0.176190
O281	O28	0.575860	0.737030	0.491550
O291	O29	0.501070	0.577390	0.402320
O301	O30	0.436860	0.472700	0.388880
O311	O31	0.747050	0.444310	0.995800
O321	O32	0.721770	0.545580	0.000430
O331	O33	0.754520	0.262970	0.838830
O341	O34	0.824930	0.422610	0.923680
O351	O35	0.916180	0.527300	0.964160
O361	O36	0.252950	0.248750	0.697260
O371	O37	0.278230	0.278660	0.823810
O381	O38	0.245480	0.084310	0.508450
O391	O39	0.175070	0.098750	0.597680
O401	O40	0.083820	0.047980	0.611120
O411	O41	0.697260	0.252950	0.248750
O421	O42	0.823810	0.278230	0.278660
O431	O43	0.508450	0.245480	0.084310
O441	O44	0.597680	0.175070	0.098750
O451	O45	0.611120	0.083820	0.047980
O461	O46	0.995800	0.747050	0.444310
O471	O47	0.000430	0.721770	0.545580
O481	O48	0.838830	0.754520	0.262970
O491	O49	0.923680	0.824930	0.422610
O501	O50	0.964160	0.916180	0.527300
O511	O51	0.302740	0.551490	0.555690
O521	O52	0.176190	0.454850	0.454420
O531	O53	0.491550	0.575860	0.737030
O541	O54	0.402320	0.501070	0.577390
O551	O55	0.388880	0.436860	0.472700
O561	O56	0.004200	0.448510	0.751250
O571	O57	0.999570	0.545150	0.721340
O581	O58	0.161170	0.424140	0.915690
O591	O59	0.076320	0.498930	0.901250
O601	O60	0.035840	0.563140	0.952020
O611	O61	0.555690	0.004200	0.252950
O621	O62	0.454420	0.999570	0.278230
O631	O63	0.737030	0.161170	0.245480
O641	O64	0.577390	0.076320	0.175070
O651	O65	0.472700	0.035840	0.083820
O661	O66	0.751250	0.302740	0.747050
O671	O67	0.721340	0.176190	0.721770
O681	O68	0.915690	0.491550	0.754520
O691	O69	0.901250	0.402320	0.824930
O701	O70	0.952020	0.388880	0.916180
O711	O71	0.248750	0.995800	0.551490
O721	O72	0.278660	0.000430	0.454850
O731	O73	0.084310	0.838830	0.575860
O741	O74	0.098750	0.923680	0.501070
O751	O75	0.047980	0.964160	0.436860
O761	O76	0.444310	0.697260	0.448510
O771	O77	0.545580	0.823810	0.545150
O781	O78	0.262970	0.508450	0.424140
O791	O79	0.422610	0.597680	0.498930
O801	O80	0.527300	0.611120	0.563140
O811	O81	0.551490	0.248750	0.995800
O821	O82	0.454850	0.278660	0.000430
O831	O83	0.575860	0.084310	0.838830
O841	O84	0.501070	0.098750	0.923680
O851	O85	0.436860	0.047980	0.964160
O861	O86	0.448510	0.444310	0.697260
O871	O87	0.545150	0.545580	0.823810
O881	O88	0.424140	0.262970	0.508450
O891	O89	0.498930	0.422610	0.597680
O901	O90	0.563140	0.527300	0.611120
O911	O91	0.252950	0.555690	0.004200
O921	O92	0.278230	0.454420	0.999570
O931	O93	0.245480	0.737030	0.161170
O941	O94	0.175070	0.577390	0.076320
O951	O95	0.083820	0.472700	0.035840
O961	O96	0.747050	0.751250	0.302740
O971	O97	0.721770	0.721340	0.176190
O981	O98	0.754520	0.915690	0.491550
O991	O99	0.824930	0.901250	0.402320
O1001	O100	0.916180	0.952020	0.388880
O1011	O101	0.302740	0.747050	0.751250
O1021	O102	0.176190	0.721770	0.721340
O1031	O103	0.491550	0.754520	0.915690
O1041	O104	0.402320	0.824930	0.901250
O1051	O105	0.388880	0.916180	0.952020
O1061	O106	0.004200	0.252950	0.555690
O1071	O107	0.999570	0.278230	0.454420
O1081	O108	0.161170	0.245480	0.737030
O1091	O109	0.076320	0.175070	0.577390
O1101	O110	0.035840	0.083820	0.472700
O1111	O111	0.697260	0.448510	0.444310
O1121	O112	0.823810	0.545150	0.545580
O1131	O113	0.508450	0.424140	0.262970
O1141	O114	0.597680	0.498930	0.422610
O1151	O115	0.611120	0.563140	0.527300
O1161	O116	0.995800	0.551490	0.248750
O1171	O117	0.000430	0.454850	0.278660
O1181	O118	0.838830	0.575860	0.084310
O1191	O119	0.923680	0.501070	0.098750
O1201	O120	0.964160	0.436860	0.047980
O1211	O121	0.582040	0.136800	0.718840
O1221	O122	0.650320	0.048770	0.699090
O1231	O123	0.417960	0.863200	0.281160
O1241	O124	0.349680	0.951230	0.300910
O1251	O125	0.582040	0.863200	0.445240
O1261	O126	0.650320	0.951230	0.601550
O1271	O127	0.417960	0.136800	0.554760
O1281	O128	0.349680	0.048770	0.398450
O1291	O129	0.445240	0.582040	0.863200
O1301	O130	0.601550	0.650320	0.951230
O1311	O131	0.554760	0.417960	0.136800
O1321	O132	0.398450	0.349680	0.048770
O1331	O133	0.718840	0.582040	0.136800
O1341	O134	0.699090	0.650320	0.048770
O1351	O135	0.281160	0.417960	0.863200
O1361	O136	0.300910	0.349680	0.951230
O1371	O137	0.863200	0.281160	0.417960
O1381	O138	0.951230	0.300910	0.349680
O1391	O139	0.136800	0.718840	0.582040
O1401	O140	0.048770	0.699090	0.650320
O1411	O141	0.136800	0.554760	0.417960
O1421	O142	0.048770	0.398450	0.349680
O1431	O143	0.863200	0.445240	0.582040
O1441	O144	0.951230	0.601550	0.650320
O1451	O145	0.214600	0.867480	0.652880
O1461	O146	0.312100	0.953700	0.641600
O1471	O147	0.214600	0.561720	0.347120
O1481	O148	0.312100	0.670500	0.358400
O1491	O149	0.785400	0.132520	0.347120
O1501	O150	0.687900	0.046300	0.358400
O1511	O151	0.785400	0.438280	0.652880
O1521	O152	0.687900	0.329500	0.641600
O1531	O153	0.347120	0.785400	0.132520
O1541	O154	0.358400	0.687900	0.046300
O1551	O155	0.652880	0.785400	0.438280
O1561	O156	0.641600	0.687900	0.329500
O1571	O157	0.652880	0.214600	0.867480
O1581	O158	0.641600	0.312100	0.953700
O1591	O159	0.347120	0.214600	0.561720
O1601	O160	0.358400	0.312100	0.670500
O1611	O161	0.561720	0.347120	0.214600
O1621	O162	0.670500	0.358400	0.312100
O1631	O163	0.867480	0.652880	0.214600
O1641	O164	0.953700	0.641600	0.312100
O1651	O165	0.438280	0.652880	0.785400
O1661	O166	0.329500	0.641600	0.687900
O1671	O167	0.132520	0.347120	0.785400
O1681	O168	0.046300	0.358400	0.687900
