data_AWAJIT_clean_PM
_symmetry_space_group_name_H-M	'P1'
_cell_length_a	9.142200
_cell_length_b	25.938000
_cell_length_c	20.301000
_cell_angle_alpha	90.000000
_cell_angle_beta	101.890000
_cell_angle_gamma	90.000000
_symmetry_Int_Tables_number 1

loop_
_symmetry_equiv_pos_as_xyz
'x,y,z'

loop_
_atom_site_label
_atom_site_type_symbol
_atom_site_fract_x
_atom_site_fract_y
_atom_site_fract_z
Zn11	Zn1	0.271520	0.622150	0.514870
O11	O1	0.453900	0.662970	0.522070
O21	O2	0.606600	0.616200	0.473880
O31	O3	0.502300	0.282150	0.819300
O41	O4	0.167700	0.628610	0.420800
N11	N1	0.328600	0.172100	0.929950
O51	O5	0.486100	0.426540	0.674830
O61	O6	0.114900	0.545870	0.427510
N21	N2	0.328800	0.556630	0.566170
C11	C1	0.440300	0.247440	0.855590
C21	C2	0.408100	0.323920	0.788730
H11	H1	0.375900	0.344500	0.823100
H21	H2	0.320100	0.310500	0.758500
C31	C3	0.629300	0.749030	0.531000
H31	H3	0.548400	0.748200	0.552200
C41	C4	0.570200	0.657410	0.497440
C51	C5	0.027100	0.632630	0.284200
H41	H4	0.045300	0.663800	0.307200
C61	C6	0.318400	0.258090	0.883500
H51	H5	0.271600	0.290100	0.877700
C71	C7	0.449000	0.163180	0.902400
H61	H6	0.494700	0.131000	0.909000
C81	C8	0.116100	0.585700	0.394500
C91	C9	0.426100	0.467590	0.638980
C101	C10	0.665200	0.704650	0.498980
C111	C11	0.789100	0.705290	0.467800
C121	C12	0.055400	0.585780	0.319880
C131	C13	0.507100	0.199090	0.865300
H71	H7	0.589700	0.191300	0.847000
C141	C14	0.528200	0.501150	0.619200
H81	H8	0.630100	0.494200	0.630000
C151	C15	0.475800	0.544530	0.583500
H91	H9	0.544600	0.566800	0.570600
C161	C16	0.274700	0.478990	0.620600
H101	H10	0.203600	0.457200	0.632400
C171	C17	0.232300	0.523540	0.584300
H111	H11	0.130800	0.530900	0.571800
C181	C18	0.391700	0.390880	0.700680
H121	H12	0.333300	0.370400	0.664600
H131	H13	0.324100	0.409000	0.723800
C191	C19	0.268100	0.219880	0.920300
H141	H14	0.187200	0.227400	0.940000
C201	C20	0.027700	0.538840	0.285000
N31	N3	0.839100	0.662900	0.437900
H151	H15	0.770700	0.639400	0.430300
H161	H16	0.859900	0.672200	0.400000
N41	N4	0.052800	0.490400	0.308700
H171	H17	0.129600	0.490300	0.341600
H181	H18	0.976100	0.479300	0.323100
Zn21	Zn2	0.771520	0.122150	0.514870
O71	O7	0.953900	0.162970	0.522070
O81	O8	0.106600	0.116200	0.473880
O91	O9	0.002300	0.782150	0.819300
O101	O10	0.667700	0.128610	0.420800
N51	N5	0.828600	0.672100	0.929950
O111	O11	0.986100	0.926540	0.674830
O121	O12	0.614900	0.045870	0.427510
N61	N6	0.828800	0.056630	0.566170
C211	C21	0.940300	0.747440	0.855590
C221	C22	0.908100	0.823920	0.788730
H191	H19	0.875900	0.844500	0.823100
H201	H20	0.820100	0.810500	0.758500
C231	C23	0.129300	0.249030	0.531000
H211	H21	0.048400	0.248200	0.552200
C241	C24	0.070200	0.157410	0.497440
C251	C25	0.527100	0.132630	0.284200
H221	H22	0.545300	0.163800	0.307200
C261	C26	0.818400	0.758090	0.883500
H231	H23	0.771600	0.790100	0.877700
C271	C27	0.949000	0.663180	0.902400
H241	H24	0.994700	0.631000	0.909000
C281	C28	0.616100	0.085700	0.394500
C291	C29	0.926100	0.967590	0.638980
C301	C30	0.165200	0.204650	0.498980
C311	C31	0.289100	0.205290	0.467800
C321	C32	0.555400	0.085780	0.319880
C331	C33	0.007100	0.699090	0.865300
H251	H25	0.089700	0.691300	0.847000
C341	C34	0.028200	0.001150	0.619200
H261	H26	0.130100	0.994200	0.630000
C351	C35	0.975800	0.044530	0.583500
H271	H27	0.044600	0.066800	0.570600
C361	C36	0.774700	0.978990	0.620600
H281	H28	0.703600	0.957200	0.632400
C371	C37	0.732300	0.023540	0.584300
H291	H29	0.630800	0.030900	0.571800
C381	C38	0.891700	0.890880	0.700680
H301	H30	0.833300	0.870400	0.664600
H311	H31	0.824100	0.909000	0.723800
C391	C39	0.768100	0.719880	0.920300
H321	H32	0.687200	0.727400	0.940000
C401	C40	0.527700	0.038840	0.285000
N71	N7	0.339100	0.162900	0.437900
H331	H33	0.270700	0.139400	0.430300
H341	H34	0.359900	0.172200	0.400000
N81	N8	0.552800	0.990400	0.308700
H351	H35	0.629600	0.990300	0.341600
H361	H36	0.476100	0.979300	0.323100
Zn31	Zn3	0.728480	0.622150	0.985130
O131	O13	0.546100	0.662970	0.977930
O141	O14	0.393400	0.616200	0.026120
O151	O15	0.497700	0.282150	0.680700
O161	O16	0.832300	0.628610	0.079200
N91	N9	0.671400	0.172100	0.570050
O171	O17	0.513900	0.426540	0.825170
O181	O18	0.885100	0.545870	0.072490
N101	N10	0.671200	0.556630	0.933830
C411	C41	0.559700	0.247440	0.644410
C421	C42	0.591900	0.323920	0.711270
H371	H37	0.624100	0.344500	0.676900
H381	H38	0.679900	0.310500	0.741500
C431	C43	0.370700	0.749030	0.969000
H391	H39	0.451600	0.748200	0.947800
C441	C44	0.429800	0.657410	0.002560
C451	C45	0.972900	0.632630	0.215800
H401	H40	0.954700	0.663800	0.192800
C461	C46	0.681600	0.258090	0.616500
H411	H41	0.728400	0.290100	0.622300
C471	C47	0.551000	0.163180	0.597600
H421	H42	0.505300	0.131000	0.591000
C481	C48	0.883900	0.585700	0.105500
C491	C49	0.573900	0.467590	0.861020
C501	C50	0.334800	0.704650	0.001020
C511	C51	0.210900	0.705290	0.032200
C521	C52	0.944600	0.585780	0.180120
C531	C53	0.492900	0.199090	0.634700
H431	H43	0.410300	0.191300	0.653000
C541	C54	0.471800	0.501150	0.880800
H441	H44	0.369900	0.494200	0.870000
C551	C55	0.524200	0.544530	0.916500
H451	H45	0.455400	0.566800	0.929400
C561	C56	0.725300	0.478990	0.879400
H461	H46	0.796400	0.457200	0.867600
C571	C57	0.767700	0.523540	0.915700
H471	H47	0.869200	0.530900	0.928200
C581	C58	0.608300	0.390880	0.799320
H481	H48	0.666700	0.370400	0.835400
H491	H49	0.675900	0.409000	0.776200
C591	C59	0.731900	0.219880	0.579700
H501	H50	0.812800	0.227400	0.560000
C601	C60	0.972300	0.538840	0.215000
N111	N11	0.160900	0.662900	0.062100
H511	H51	0.229300	0.639400	0.069700
H521	H52	0.140100	0.672200	0.100000
N121	N12	0.947200	0.490400	0.191300
H531	H53	0.870400	0.490300	0.158400
H541	H54	0.023900	0.479300	0.176900
Zn41	Zn4	0.228480	0.122150	0.985130
O191	O19	0.046100	0.162970	0.977930
O201	O20	0.893400	0.116200	0.026120
O211	O21	0.997700	0.782150	0.680700
O221	O22	0.332300	0.128610	0.079200
N131	N13	0.171400	0.672100	0.570050
O231	O23	0.013900	0.926540	0.825170
O241	O24	0.385100	0.045870	0.072490
N141	N14	0.171200	0.056630	0.933830
C611	C61	0.059700	0.747440	0.644410
C621	C62	0.091900	0.823920	0.711270
H551	H55	0.124100	0.844500	0.676900
H561	H56	0.179900	0.810500	0.741500
C631	C63	0.870700	0.249030	0.969000
H571	H57	0.951600	0.248200	0.947800
C641	C64	0.929800	0.157410	0.002560
C651	C65	0.472900	0.132630	0.215800
H581	H58	0.454700	0.163800	0.192800
C661	C66	0.181600	0.758090	0.616500
H591	H59	0.228400	0.790100	0.622300
C671	C67	0.051000	0.663180	0.597600
H601	H60	0.005300	0.631000	0.591000
C681	C68	0.383900	0.085700	0.105500
C691	C69	0.073900	0.967590	0.861020
C701	C70	0.834800	0.204650	0.001020
C711	C71	0.710900	0.205290	0.032200
C721	C72	0.444600	0.085780	0.180120
C731	C73	0.992900	0.699090	0.634700
H611	H61	0.910300	0.691300	0.653000
C741	C74	0.971800	0.001150	0.880800
H621	H62	0.869900	0.994200	0.870000
C751	C75	0.024200	0.044530	0.916500
H631	H63	0.955400	0.066800	0.929400
C761	C76	0.225300	0.978990	0.879400
H641	H64	0.296400	0.957200	0.867600
C771	C77	0.267700	0.023540	0.915700
H651	H65	0.369200	0.030900	0.928200
C781	C78	0.108300	0.890880	0.799320
H661	H66	0.166700	0.870400	0.835400
H671	H67	0.175900	0.909000	0.776200
C791	C79	0.231900	0.719880	0.579700
H681	H68	0.312800	0.727400	0.560000
C801	C80	0.472300	0.038840	0.215000
N151	N15	0.660900	0.162900	0.062100
H691	H69	0.729300	0.139400	0.069700
H701	H70	0.640100	0.172200	0.100000
N161	N16	0.447200	0.990400	0.191300
H711	H71	0.370400	0.990300	0.158400
H721	H72	0.523900	0.979300	0.176900
Zn51	Zn5	0.728480	0.377850	0.485130
O251	O25	0.546100	0.337030	0.477930
O261	O26	0.393400	0.383800	0.526120
O271	O27	0.497700	0.717850	0.180700
O281	O28	0.832300	0.371390	0.579200
N171	N17	0.671400	0.827900	0.070050
O291	O29	0.513900	0.573460	0.325170
O301	O30	0.885100	0.454130	0.572490
N181	N18	0.671200	0.443370	0.433830
C811	C81	0.559700	0.752560	0.144410
C821	C82	0.591900	0.676080	0.211270
H731	H73	0.624100	0.655500	0.176900
H741	H74	0.679900	0.689500	0.241500
C831	C83	0.370700	0.250970	0.469000
H751	H75	0.451600	0.251800	0.447800
C841	C84	0.429800	0.342590	0.502560
C851	C85	0.972900	0.367370	0.715800
H761	H76	0.954700	0.336200	0.692800
C861	C86	0.681600	0.741910	0.116500
H771	H77	0.728400	0.709900	0.122300
C871	C87	0.551000	0.836820	0.097600
H781	H78	0.505300	0.869000	0.091000
C881	C88	0.883900	0.414300	0.605500
C891	C89	0.573900	0.532410	0.361020
C901	C90	0.334800	0.295350	0.501020
C911	C91	0.210900	0.294710	0.532200
C921	C92	0.944600	0.414220	0.680120
C931	C93	0.492900	0.800910	0.134700
H791	H79	0.410300	0.808700	0.153000
C941	C94	0.471800	0.498850	0.380800
H801	H80	0.369900	0.505800	0.370000
C951	C95	0.524200	0.455470	0.416500
H811	H81	0.455400	0.433200	0.429400
C961	C96	0.725300	0.521010	0.379400
H821	H82	0.796400	0.542800	0.367600
C971	C97	0.767700	0.476460	0.415700
H831	H83	0.869200	0.469100	0.428200
C981	C98	0.608300	0.609120	0.299320
H841	H84	0.666700	0.629600	0.335400
H851	H85	0.675900	0.591000	0.276200
C991	C99	0.731900	0.780120	0.079700
H861	H86	0.812800	0.772600	0.060000
C1001	C100	0.972300	0.461160	0.715000
N191	N19	0.160900	0.337100	0.562100
H871	H87	0.229300	0.360600	0.569700
H881	H88	0.140100	0.327800	0.600000
N201	N20	0.947200	0.509600	0.691300
H891	H89	0.870400	0.509700	0.658400
H901	H90	0.023900	0.520700	0.676900
Zn61	Zn6	0.228480	0.877850	0.485130
O311	O31	0.046100	0.837030	0.477930
O321	O32	0.893400	0.883800	0.526120
O331	O33	0.997700	0.217850	0.180700
O341	O34	0.332300	0.871390	0.579200
N211	N21	0.171400	0.327900	0.070050
O351	O35	0.013900	0.073460	0.325170
O361	O36	0.385100	0.954130	0.572490
N221	N22	0.171200	0.943370	0.433830
C1011	C101	0.059700	0.252560	0.144410
C1021	C102	0.091900	0.176080	0.211270
H911	H91	0.124100	0.155500	0.176900
H921	H92	0.179900	0.189500	0.241500
C1031	C103	0.870700	0.750970	0.469000
H931	H93	0.951600	0.751800	0.447800
C1041	C104	0.929800	0.842590	0.502560
C1051	C105	0.472900	0.867370	0.715800
H941	H94	0.454700	0.836200	0.692800
C1061	C106	0.181600	0.241910	0.116500
H951	H95	0.228400	0.209900	0.122300
C1071	C107	0.051000	0.336820	0.097600
H961	H96	0.005300	0.369000	0.091000
C1081	C108	0.383900	0.914300	0.605500
C1091	C109	0.073900	0.032410	0.361020
C1101	C110	0.834800	0.795350	0.501020
C1111	C111	0.710900	0.794710	0.532200
C1121	C112	0.444600	0.914220	0.680120
C1131	C113	0.992900	0.300910	0.134700
H971	H97	0.910300	0.308700	0.153000
C1141	C114	0.971800	0.998850	0.380800
H981	H98	0.869900	0.005800	0.370000
C1151	C115	0.024200	0.955470	0.416500
H991	H99	0.955400	0.933200	0.429400
C1161	C116	0.225300	0.021010	0.379400
H1001	H100	0.296400	0.042800	0.367600
C1171	C117	0.267700	0.976460	0.415700
H1011	H101	0.369200	0.969100	0.428200
C1181	C118	0.108300	0.109120	0.299320
H1021	H102	0.166700	0.129600	0.335400
H1031	H103	0.175900	0.091000	0.276200
C1191	C119	0.231900	0.280120	0.079700
H1041	H104	0.312800	0.272600	0.060000
C1201	C120	0.472300	0.961160	0.715000
N231	N23	0.660900	0.837100	0.562100
H1051	H105	0.729300	0.860600	0.569700
H1061	H106	0.640100	0.827800	0.600000
N241	N24	0.447200	0.009600	0.691300
H1071	H107	0.370400	0.009700	0.658400
H1081	H108	0.523900	0.020700	0.676900
Zn71	Zn7	0.271520	0.377850	0.014870
O371	O37	0.453900	0.337030	0.022070
O381	O38	0.606600	0.383800	0.973880
O391	O39	0.502300	0.717850	0.319300
O401	O40	0.167700	0.371390	0.920800
N251	N25	0.328600	0.827900	0.429950
O411	O41	0.486100	0.573460	0.174830
O421	O42	0.114900	0.454130	0.927510
N261	N26	0.328800	0.443370	0.066170
C1211	C121	0.440300	0.752560	0.355590
C1221	C122	0.408100	0.676080	0.288730
H1091	H109	0.375900	0.655500	0.323100
H1101	H110	0.320100	0.689500	0.258500
C1231	C123	0.629300	0.250970	0.031000
H1111	H111	0.548400	0.251800	0.052200
C1241	C124	0.570200	0.342590	0.997440
C1251	C125	0.027100	0.367370	0.784200
H1121	H112	0.045300	0.336200	0.807200
C1261	C126	0.318400	0.741910	0.383500
H1131	H113	0.271600	0.709900	0.377700
C1271	C127	0.449000	0.836820	0.402400
H1141	H114	0.494700	0.869000	0.409000
C1281	C128	0.116100	0.414300	0.894500
C1291	C129	0.426100	0.532410	0.138980
C1301	C130	0.665200	0.295350	0.998980
C1311	C131	0.789100	0.294710	0.967800
C1321	C132	0.055400	0.414220	0.819880
C1331	C133	0.507100	0.800910	0.365300
H1151	H115	0.589700	0.808700	0.347000
C1341	C134	0.528200	0.498850	0.119200
H1161	H116	0.630100	0.505800	0.130000
C1351	C135	0.475800	0.455470	0.083500
H1171	H117	0.544600	0.433200	0.070600
C1361	C136	0.274700	0.521010	0.120600
H1181	H118	0.203600	0.542800	0.132400
C1371	C137	0.232300	0.476460	0.084300
H1191	H119	0.130800	0.469100	0.071800
C1381	C138	0.391700	0.609120	0.200680
H1201	H120	0.333300	0.629600	0.164600
H1211	H121	0.324100	0.591000	0.223800
C1391	C139	0.268100	0.780120	0.420300
H1221	H122	0.187200	0.772600	0.440000
C1401	C140	0.027700	0.461160	0.785000
N271	N27	0.839100	0.337100	0.937900
H1231	H123	0.770700	0.360600	0.930300
H1241	H124	0.859900	0.327800	0.900000
N281	N28	0.052800	0.509600	0.808700
H1251	H125	0.129600	0.509700	0.841600
H1261	H126	0.976100	0.520700	0.823100
Zn81	Zn8	0.771520	0.877850	0.014870
O431	O43	0.953900	0.837030	0.022070
O441	O44	0.106600	0.883800	0.973880
O451	O45	0.002300	0.217850	0.319300
O461	O46	0.667700	0.871390	0.920800
N291	N29	0.828600	0.327900	0.429950
O471	O47	0.986100	0.073460	0.174830
O481	O48	0.614900	0.954130	0.927510
N301	N30	0.828800	0.943370	0.066170
C1411	C141	0.940300	0.252560	0.355590
C1421	C142	0.908100	0.176080	0.288730
H1271	H127	0.875900	0.155500	0.323100
H1281	H128	0.820100	0.189500	0.258500
C1431	C143	0.129300	0.750970	0.031000
H1291	H129	0.048400	0.751800	0.052200
C1441	C144	0.070200	0.842590	0.997440
C1451	C145	0.527100	0.867370	0.784200
H1301	H130	0.545300	0.836200	0.807200
C1461	C146	0.818400	0.241910	0.383500
H1311	H131	0.771600	0.209900	0.377700
C1471	C147	0.949000	0.336820	0.402400
H1321	H132	0.994700	0.369000	0.409000
C1481	C148	0.616100	0.914300	0.894500
C1491	C149	0.926100	0.032410	0.138980
C1501	C150	0.165200	0.795350	0.998980
C1511	C151	0.289100	0.794710	0.967800
C1521	C152	0.555400	0.914220	0.819880
C1531	C153	0.007100	0.300910	0.365300
H1331	H133	0.089700	0.308700	0.347000
C1541	C154	0.028200	0.998850	0.119200
H1341	H134	0.130100	0.005800	0.130000
C1551	C155	0.975800	0.955470	0.083500
H1351	H135	0.044600	0.933200	0.070600
C1561	C156	0.774700	0.021010	0.120600
H1361	H136	0.703600	0.042800	0.132400
C1571	C157	0.732300	0.976460	0.084300
H1371	H137	0.630800	0.969100	0.071800
C1581	C158	0.891700	0.109120	0.200680
H1381	H138	0.833300	0.129600	0.164600
H1391	H139	0.824100	0.091000	0.223800
C1591	C159	0.768100	0.280120	0.420300
H1401	H140	0.687200	0.272600	0.440000
C1601	C160	0.527700	0.961160	0.785000
N311	N31	0.339100	0.837100	0.937900
H1411	H141	0.270700	0.860600	0.930300
H1421	H142	0.359900	0.827800	0.900000
N321	N32	0.552800	0.009600	0.808700
H1431	H143	0.629600	0.009700	0.841600
H1441	H144	0.476100	0.020700	0.823100
C1611	C161	0.500000	0.356500	0.750000
C1621	C162	0.000000	0.856500	0.750000
C1631	C163	0.500000	0.643500	0.250000
C1641	C164	0.000000	0.143500	0.250000
