data_AWASEY_clean_PM
_symmetry_space_group_name_H-M	'P1'
_cell_length_a	30.332000
_cell_length_b	46.354000
_cell_length_c	18.130000
_cell_angle_alpha	90.000000
_cell_angle_beta	116.729000
_cell_angle_gamma	90.000000
_symmetry_Int_Tables_number 1

loop_
_symmetry_equiv_pos_as_xyz
'x,y,z'

loop_
_atom_site_label
_atom_site_type_symbol
_atom_site_fract_x
_atom_site_fract_y
_atom_site_fract_z
Pr11	Pr1	0.927530	0.827880	0.767020
Cu11	Cu1	0.693950	0.849070	0.086900
Cu21	Cu2	0.766400	0.819570	0.088800
Cu31	Cu3	0.745060	0.813310	0.209200
Cu41	Cu4	0.682920	0.793280	0.069100
Cu51	Cu5	0.144900	0.971920	0.805200
I11	I1	0.219090	0.047970	0.777700
I21	I2	0.675730	0.826390	0.943190
I31	I3	0.771410	0.767050	0.148050
I41	I4	0.787410	0.863230	0.189950
I51	I5	0.650530	0.819310	0.169050
O11	O1	0.909500	0.846300	0.885400
O21	O2	0.861300	0.813300	0.807400
O31	O3	0.988500	0.805300	0.900400
O41	O4	0.009100	0.802800	0.798300
O51	O5	0.848500	0.822800	0.635800
O61	O6	0.914300	0.811500	0.623800
O71	O7	0.994000	0.865300	0.847600
O81	O8	0.978300	0.860400	0.715700
N11	N1	0.809000	0.820700	0.030600
C11	C1	0.844100	0.842000	0.045300
H11	H1	0.852900	0.854700	0.090800
C21	C2	0.866300	0.844800	0.993200
H21	H2	0.890300	0.859400	0.003200
C31	C3	0.853400	0.826200	0.926500
C41	C4	0.818200	0.804800	0.911900
H31	H3	0.809400	0.792100	0.866300
C51	C5	0.796000	0.802100	0.963900
H41	H4	0.772000	0.787500	0.953900
C61	C6	0.874900	0.828700	0.866100
N21	N2	0.133200	0.738300	0.013300
C71	C7	0.101900	0.748700	0.044600
H51	H5	0.106000	0.742400	0.097100
C81	C8	0.064800	0.768200	0.999000
H61	H6	0.043500	0.775200	0.020400
C91	C9	0.058900	0.777400	0.922100
C101	C10	0.090200	0.767100	0.890800
H71	H7	0.086100	0.773300	0.838300
C111	C11	0.127300	0.747500	0.936400
H81	H8	0.148600	0.740500	0.915000
C121	C12	0.015300	0.797800	0.868000
N31	N3	0.780000	0.809100	0.331000
C131	C13	0.759600	0.819400	0.380900
H91	H9	0.725900	0.825100	0.356900
C141	C14	0.788400	0.821300	0.465800
H101	H10	0.774400	0.828400	0.499900
C151	C15	0.837700	0.813000	0.500900
C161	C16	0.858100	0.802700	0.451100
H111	H11	0.891800	0.797000	0.475100
C171	C17	0.829300	0.800700	0.366100
H121	H12	0.843200	0.793700	0.332100
C181	C18	0.867600	0.816200	0.589900
N41	N4	0.108100	0.936400	0.812000
C191	C19	0.095400	0.932300	0.876000
H131	H13	0.109800	0.944000	0.924000
C201	C20	0.061700	0.910900	0.869800
H141	H14	0.053100	0.908100	0.913500
C211	C21	0.040700	0.893700	0.799600
C221	C22	0.053400	0.897900	0.735600
H151	H15	0.039000	0.886100	0.687600
C231	C23	0.087100	0.919200	0.741800
H161	H16	0.095700	0.922100	0.698000
C241	C24	0.000400	0.871400	0.788000
N51	N5	0.658100	0.886100	0.063600
C251	C25	0.664700	0.903100	0.130900
H171	H17	0.689700	0.898400	0.184400
C261	C26	0.634600	0.927000	0.119900
H181	H18	0.639100	0.938600	0.166000
C271	C27	0.598000	0.933800	0.042000
C281	C28	0.591400	0.916800	0.974300
H191	H19	0.566300	0.921500	0.920800
C291	C29	0.621400	0.892900	0.985300
H201	H20	0.616900	0.881300	0.939300
O91	O9	0.538700	0.967900	0.953000
O101	O10	0.564800	0.969500	0.096000
C301	C30	0.566300	0.957700	0.030000
Pr21	Pr2	0.427530	0.327880	0.767020
Cu61	Cu6	0.193950	0.349070	0.086900
Cu71	Cu7	0.266400	0.319570	0.088800
Cu81	Cu8	0.245060	0.313310	0.209200
Cu91	Cu9	0.182920	0.293280	0.069100
Cu101	Cu10	0.644900	0.471920	0.805200
I61	I6	0.719090	0.547970	0.777700
I71	I7	0.175730	0.326390	0.943190
I81	I8	0.271410	0.267050	0.148050
I91	I9	0.287410	0.363230	0.189950
I101	I10	0.150530	0.319310	0.169050
O111	O11	0.409500	0.346300	0.885400
O121	O12	0.361300	0.313300	0.807400
O131	O13	0.488500	0.305300	0.900400
O141	O14	0.509100	0.302800	0.798300
O151	O15	0.348500	0.322800	0.635800
O161	O16	0.414300	0.311500	0.623800
O171	O17	0.494000	0.365300	0.847600
O181	O18	0.478300	0.360400	0.715700
N61	N6	0.309000	0.320700	0.030600
C311	C31	0.344100	0.342000	0.045300
H211	H21	0.352900	0.354700	0.090800
C321	C32	0.366300	0.344800	0.993200
H221	H22	0.390300	0.359400	0.003200
C331	C33	0.353400	0.326200	0.926500
C341	C34	0.318200	0.304800	0.911900
H231	H23	0.309400	0.292100	0.866300
C351	C35	0.296000	0.302100	0.963900
H241	H24	0.272000	0.287500	0.953900
C361	C36	0.374900	0.328700	0.866100
N71	N7	0.633200	0.238300	0.013300
C371	C37	0.601900	0.248700	0.044600
H251	H25	0.606000	0.242400	0.097100
C381	C38	0.564800	0.268200	0.999000
H261	H26	0.543500	0.275200	0.020400
C391	C39	0.558900	0.277400	0.922100
C401	C40	0.590200	0.267100	0.890800
H271	H27	0.586100	0.273300	0.838300
C411	C41	0.627300	0.247500	0.936400
H281	H28	0.648600	0.240500	0.915000
C421	C42	0.515300	0.297800	0.868000
N81	N8	0.280000	0.309100	0.331000
C431	C43	0.259600	0.319400	0.380900
H291	H29	0.225900	0.325100	0.356900
C441	C44	0.288400	0.321300	0.465800
H301	H30	0.274400	0.328400	0.499900
C451	C45	0.337700	0.313000	0.500900
C461	C46	0.358100	0.302700	0.451100
H311	H31	0.391800	0.297000	0.475100
C471	C47	0.329300	0.300700	0.366100
H321	H32	0.343200	0.293700	0.332100
C481	C48	0.367600	0.316200	0.589900
N91	N9	0.608100	0.436400	0.812000
C491	C49	0.595400	0.432300	0.876000
H331	H33	0.609800	0.444000	0.924000
C501	C50	0.561700	0.410900	0.869800
H341	H34	0.553100	0.408100	0.913500
C511	C51	0.540700	0.393700	0.799600
C521	C52	0.553400	0.397900	0.735600
H351	H35	0.539000	0.386100	0.687600
C531	C53	0.587100	0.419200	0.741800
H361	H36	0.595700	0.422100	0.698000
C541	C54	0.500400	0.371400	0.788000
N101	N10	0.158100	0.386100	0.063600
C551	C55	0.164700	0.403100	0.130900
H371	H37	0.189700	0.398400	0.184400
C561	C56	0.134600	0.427000	0.119900
H381	H38	0.139100	0.438600	0.166000
C571	C57	0.098000	0.433800	0.042000
C581	C58	0.091400	0.416800	0.974300
H391	H39	0.066300	0.421500	0.920800
C591	C59	0.121400	0.392900	0.985300
H401	H40	0.116900	0.381300	0.939300
O191	O19	0.038700	0.467900	0.953000
O201	O20	0.064800	0.469500	0.096000
C601	C60	0.066300	0.457700	0.030000
Pr31	Pr3	0.072470	0.827880	0.232980
Cu111	Cu11	0.306050	0.849070	0.913100
Cu121	Cu12	0.233600	0.819570	0.911200
Cu131	Cu13	0.254940	0.813310	0.790800
Cu141	Cu14	0.317080	0.793280	0.930900
Cu151	Cu15	0.855100	0.971920	0.194800
I111	I11	0.780910	0.047970	0.222300
I121	I12	0.324270	0.826390	0.056810
I131	I13	0.228590	0.767050	0.851950
I141	I14	0.212590	0.863230	0.810050
I151	I15	0.349470	0.819310	0.830950
O211	O21	0.090500	0.846300	0.114600
O221	O22	0.138700	0.813300	0.192600
O231	O23	0.011500	0.805300	0.099600
O241	O24	0.990900	0.802800	0.201700
O251	O25	0.151500	0.822800	0.364200
O261	O26	0.085700	0.811500	0.376200
O271	O27	0.006000	0.865300	0.152400
O281	O28	0.021700	0.860400	0.284300
N111	N11	0.191000	0.820700	0.969400
C611	C61	0.155900	0.842000	0.954700
H411	H41	0.147100	0.854700	0.909200
C621	C62	0.133700	0.844800	0.006800
H421	H42	0.109700	0.859400	0.996800
C631	C63	0.146600	0.826200	0.073500
C641	C64	0.181800	0.804800	0.088100
H431	H43	0.190600	0.792100	0.133700
C651	C65	0.204000	0.802100	0.036100
H441	H44	0.228000	0.787500	0.046100
C661	C66	0.125100	0.828700	0.133900
N121	N12	0.866800	0.738300	0.986700
C671	C67	0.898100	0.748700	0.955400
H451	H45	0.894000	0.742400	0.902900
C681	C68	0.935200	0.768200	0.001000
H461	H46	0.956500	0.775200	0.979600
C691	C69	0.941100	0.777400	0.077900
C701	C70	0.909800	0.767100	0.109200
H471	H47	0.913900	0.773300	0.161700
C711	C71	0.872700	0.747500	0.063600
H481	H48	0.851400	0.740500	0.085000
C721	C72	0.984700	0.797800	0.132000
N131	N13	0.220000	0.809100	0.669000
C731	C73	0.240400	0.819400	0.619100
H491	H49	0.274100	0.825100	0.643100
C741	C74	0.211600	0.821300	0.534200
H501	H50	0.225600	0.828400	0.500100
C751	C75	0.162300	0.813000	0.499100
C761	C76	0.141900	0.802700	0.548900
H511	H51	0.108200	0.797000	0.524900
C771	C77	0.170700	0.800700	0.633900
H521	H52	0.156800	0.793700	0.667900
C781	C78	0.132400	0.816200	0.410100
N141	N14	0.891900	0.936400	0.188000
C791	C79	0.904600	0.932300	0.124000
H531	H53	0.890200	0.944000	0.076000
C801	C80	0.938300	0.910900	0.130200
H541	H54	0.946900	0.908100	0.086500
C811	C81	0.959300	0.893700	0.200400
C821	C82	0.946600	0.897900	0.264400
H551	H55	0.961000	0.886100	0.312400
C831	C83	0.912900	0.919200	0.258200
H561	H56	0.904300	0.922100	0.302000
C841	C84	0.999600	0.871400	0.212000
N151	N15	0.341900	0.886100	0.936400
C851	C85	0.335300	0.903100	0.869100
H571	H57	0.310300	0.898400	0.815600
C861	C86	0.365400	0.927000	0.880100
H581	H58	0.360900	0.938600	0.834000
C871	C87	0.402000	0.933800	0.958000
C881	C88	0.408600	0.916800	0.025700
H591	H59	0.433700	0.921500	0.079200
C891	C89	0.378600	0.892900	0.014700
H601	H60	0.383100	0.881300	0.060700
O291	O29	0.461300	0.967900	0.047000
O301	O30	0.435200	0.969500	0.904000
C901	C90	0.433700	0.957700	0.970000
Pr41	Pr4	0.572470	0.327880	0.232980
Cu161	Cu16	0.806050	0.349070	0.913100
Cu171	Cu17	0.733600	0.319570	0.911200
Cu181	Cu18	0.754940	0.313310	0.790800
Cu191	Cu19	0.817080	0.293280	0.930900
Cu201	Cu20	0.355100	0.471920	0.194800
I161	I16	0.280910	0.547970	0.222300
I171	I17	0.824270	0.326390	0.056810
I181	I18	0.728590	0.267050	0.851950
I191	I19	0.712590	0.363230	0.810050
I201	I20	0.849470	0.319310	0.830950
O311	O31	0.590500	0.346300	0.114600
O321	O32	0.638700	0.313300	0.192600
O331	O33	0.511500	0.305300	0.099600
O341	O34	0.490900	0.302800	0.201700
O351	O35	0.651500	0.322800	0.364200
O361	O36	0.585700	0.311500	0.376200
O371	O37	0.506000	0.365300	0.152400
O381	O38	0.521700	0.360400	0.284300
N161	N16	0.691000	0.320700	0.969400
C911	C91	0.655900	0.342000	0.954700
H611	H61	0.647100	0.354700	0.909200
C921	C92	0.633700	0.344800	0.006800
H621	H62	0.609700	0.359400	0.996800
C931	C93	0.646600	0.326200	0.073500
C941	C94	0.681800	0.304800	0.088100
H631	H63	0.690600	0.292100	0.133700
C951	C95	0.704000	0.302100	0.036100
H641	H64	0.728000	0.287500	0.046100
C961	C96	0.625100	0.328700	0.133900
N171	N17	0.366800	0.238300	0.986700
C971	C97	0.398100	0.248700	0.955400
H651	H65	0.394000	0.242400	0.902900
C981	C98	0.435200	0.268200	0.001000
H661	H66	0.456500	0.275200	0.979600
C991	C99	0.441100	0.277400	0.077900
C1001	C100	0.409800	0.267100	0.109200
H671	H67	0.413900	0.273300	0.161700
C1011	C101	0.372700	0.247500	0.063600
H681	H68	0.351400	0.240500	0.085000
C1021	C102	0.484700	0.297800	0.132000
N181	N18	0.720000	0.309100	0.669000
C1031	C103	0.740400	0.319400	0.619100
H691	H69	0.774100	0.325100	0.643100
C1041	C104	0.711600	0.321300	0.534200
H701	H70	0.725600	0.328400	0.500100
C1051	C105	0.662300	0.313000	0.499100
C1061	C106	0.641900	0.302700	0.548900
H711	H71	0.608200	0.297000	0.524900
C1071	C107	0.670700	0.300700	0.633900
H721	H72	0.656800	0.293700	0.667900
C1081	C108	0.632400	0.316200	0.410100
N191	N19	0.391900	0.436400	0.188000
C1091	C109	0.404600	0.432300	0.124000
H731	H73	0.390200	0.444000	0.076000
C1101	C110	0.438300	0.410900	0.130200
H741	H74	0.446900	0.408100	0.086500
C1111	C111	0.459300	0.393700	0.200400
C1121	C112	0.446600	0.397900	0.264400
H751	H75	0.461000	0.386100	0.312400
C1131	C113	0.412900	0.419200	0.258200
H761	H76	0.404300	0.422100	0.302000
C1141	C114	0.499600	0.371400	0.212000
N201	N20	0.841900	0.386100	0.936400
C1151	C115	0.835300	0.403100	0.869100
H771	H77	0.810300	0.398400	0.815600
C1161	C116	0.865400	0.427000	0.880100
H781	H78	0.860900	0.438600	0.834000
C1171	C117	0.902000	0.433800	0.958000
C1181	C118	0.908600	0.416800	0.025700
H791	H79	0.933700	0.421500	0.079200
C1191	C119	0.878600	0.392900	0.014700
H801	H80	0.883100	0.381300	0.060700
O391	O39	0.961300	0.467900	0.047000
O401	O40	0.935200	0.469500	0.904000
C1201	C120	0.933700	0.457700	0.970000
Pr51	Pr5	0.072470	0.172120	0.232980
Cu211	Cu21	0.306050	0.150930	0.913100
Cu221	Cu22	0.233600	0.180430	0.911200
Cu231	Cu23	0.254940	0.186690	0.790800
Cu241	Cu24	0.317080	0.206720	0.930900
Cu251	Cu25	0.855100	0.028080	0.194800
I211	I21	0.780910	0.952030	0.222300
I221	I22	0.324270	0.173610	0.056810
I231	I23	0.228590	0.232950	0.851950
I241	I24	0.212590	0.136770	0.810050
I251	I25	0.349470	0.180690	0.830950
O411	O41	0.090500	0.153700	0.114600
O421	O42	0.138700	0.186700	0.192600
O431	O43	0.011500	0.194700	0.099600
O441	O44	0.990900	0.197200	0.201700
O451	O45	0.151500	0.177200	0.364200
O461	O46	0.085700	0.188500	0.376200
O471	O47	0.006000	0.134700	0.152400
O481	O48	0.021700	0.139600	0.284300
N211	N21	0.191000	0.179300	0.969400
C1211	C121	0.155900	0.158000	0.954700
H811	H81	0.147100	0.145300	0.909200
C1221	C122	0.133700	0.155200	0.006800
H821	H82	0.109700	0.140600	0.996800
C1231	C123	0.146600	0.173800	0.073500
C1241	C124	0.181800	0.195200	0.088100
H831	H83	0.190600	0.207900	0.133700
C1251	C125	0.204000	0.197900	0.036100
H841	H84	0.228000	0.212500	0.046100
C1261	C126	0.125100	0.171300	0.133900
N221	N22	0.866800	0.261700	0.986700
C1271	C127	0.898100	0.251300	0.955400
H851	H85	0.894000	0.257600	0.902900
C1281	C128	0.935200	0.231800	0.001000
H861	H86	0.956500	0.224800	0.979600
C1291	C129	0.941100	0.222600	0.077900
C1301	C130	0.909800	0.232900	0.109200
H871	H87	0.913900	0.226700	0.161700
C1311	C131	0.872700	0.252500	0.063600
H881	H88	0.851400	0.259500	0.085000
C1321	C132	0.984700	0.202200	0.132000
N231	N23	0.220000	0.190900	0.669000
C1331	C133	0.240400	0.180600	0.619100
H891	H89	0.274100	0.174900	0.643100
C1341	C134	0.211600	0.178700	0.534200
H901	H90	0.225600	0.171600	0.500100
C1351	C135	0.162300	0.187000	0.499100
C1361	C136	0.141900	0.197300	0.548900
H911	H91	0.108200	0.203000	0.524900
C1371	C137	0.170700	0.199300	0.633900
H921	H92	0.156800	0.206300	0.667900
C1381	C138	0.132400	0.183800	0.410100
N241	N24	0.891900	0.063600	0.188000
C1391	C139	0.904600	0.067700	0.124000
H931	H93	0.890200	0.056000	0.076000
C1401	C140	0.938300	0.089100	0.130200
H941	H94	0.946900	0.091900	0.086500
C1411	C141	0.959300	0.106300	0.200400
C1421	C142	0.946600	0.102100	0.264400
H951	H95	0.961000	0.113900	0.312400
C1431	C143	0.912900	0.080800	0.258200
H961	H96	0.904300	0.077900	0.302000
C1441	C144	0.999600	0.128600	0.212000
N251	N25	0.341900	0.113900	0.936400
C1451	C145	0.335300	0.096900	0.869100
H971	H97	0.310300	0.101600	0.815600
C1461	C146	0.365400	0.073000	0.880100
H981	H98	0.360900	0.061400	0.834000
C1471	C147	0.402000	0.066200	0.958000
C1481	C148	0.408600	0.083200	0.025700
H991	H99	0.433700	0.078500	0.079200
C1491	C149	0.378600	0.107100	0.014700
H1001	H100	0.383100	0.118700	0.060700
O491	O49	0.461300	0.032100	0.047000
O501	O50	0.435200	0.030500	0.904000
C1501	C150	0.433700	0.042300	0.970000
Pr61	Pr6	0.572470	0.672120	0.232980
Cu261	Cu26	0.806050	0.650930	0.913100
Cu271	Cu27	0.733600	0.680430	0.911200
Cu281	Cu28	0.754940	0.686690	0.790800
Cu291	Cu29	0.817080	0.706720	0.930900
Cu301	Cu30	0.355100	0.528080	0.194800
I261	I26	0.280910	0.452030	0.222300
I271	I27	0.824270	0.673610	0.056810
I281	I28	0.728590	0.732950	0.851950
I291	I29	0.712590	0.636770	0.810050
I301	I30	0.849470	0.680690	0.830950
O511	O51	0.590500	0.653700	0.114600
O521	O52	0.638700	0.686700	0.192600
O531	O53	0.511500	0.694700	0.099600
O541	O54	0.490900	0.697200	0.201700
O551	O55	0.651500	0.677200	0.364200
O561	O56	0.585700	0.688500	0.376200
O571	O57	0.506000	0.634700	0.152400
O581	O58	0.521700	0.639600	0.284300
N261	N26	0.691000	0.679300	0.969400
C1511	C151	0.655900	0.658000	0.954700
H1011	H101	0.647100	0.645300	0.909200
C1521	C152	0.633700	0.655200	0.006800
H1021	H102	0.609700	0.640600	0.996800
C1531	C153	0.646600	0.673800	0.073500
C1541	C154	0.681800	0.695200	0.088100
H1031	H103	0.690600	0.707900	0.133700
C1551	C155	0.704000	0.697900	0.036100
H1041	H104	0.728000	0.712500	0.046100
C1561	C156	0.625100	0.671300	0.133900
N271	N27	0.366800	0.761700	0.986700
C1571	C157	0.398100	0.751300	0.955400
H1051	H105	0.394000	0.757600	0.902900
C1581	C158	0.435200	0.731800	0.001000
H1061	H106	0.456500	0.724800	0.979600
C1591	C159	0.441100	0.722600	0.077900
C1601	C160	0.409800	0.732900	0.109200
H1071	H107	0.413900	0.726700	0.161700
C1611	C161	0.372700	0.752500	0.063600
H1081	H108	0.351400	0.759500	0.085000
C1621	C162	0.484700	0.702200	0.132000
N281	N28	0.720000	0.690900	0.669000
C1631	C163	0.740400	0.680600	0.619100
H1091	H109	0.774100	0.674900	0.643100
C1641	C164	0.711600	0.678700	0.534200
H1101	H110	0.725600	0.671600	0.500100
C1651	C165	0.662300	0.687000	0.499100
C1661	C166	0.641900	0.697300	0.548900
H1111	H111	0.608200	0.703000	0.524900
C1671	C167	0.670700	0.699300	0.633900
H1121	H112	0.656800	0.706300	0.667900
C1681	C168	0.632400	0.683800	0.410100
N291	N29	0.391900	0.563600	0.188000
C1691	C169	0.404600	0.567700	0.124000
H1131	H113	0.390200	0.556000	0.076000
C1701	C170	0.438300	0.589100	0.130200
H1141	H114	0.446900	0.591900	0.086500
C1711	C171	0.459300	0.606300	0.200400
C1721	C172	0.446600	0.602100	0.264400
H1151	H115	0.461000	0.613900	0.312400
C1731	C173	0.412900	0.580800	0.258200
H1161	H116	0.404300	0.577900	0.302000
C1741	C174	0.499600	0.628600	0.212000
N301	N30	0.841900	0.613900	0.936400
C1751	C175	0.835300	0.596900	0.869100
H1171	H117	0.810300	0.601600	0.815600
C1761	C176	0.865400	0.573000	0.880100
H1181	H118	0.860900	0.561400	0.834000
C1771	C177	0.902000	0.566200	0.958000
C1781	C178	0.908600	0.583200	0.025700
H1191	H119	0.933700	0.578500	0.079200
C1791	C179	0.878600	0.607100	0.014700
H1201	H120	0.883100	0.618700	0.060700
O591	O59	0.961300	0.532100	0.047000
O601	O60	0.935200	0.530500	0.904000
C1801	C180	0.933700	0.542300	0.970000
Pr71	Pr7	0.927530	0.172120	0.767020
Cu311	Cu31	0.693950	0.150930	0.086900
Cu321	Cu32	0.766400	0.180430	0.088800
Cu331	Cu33	0.745060	0.186690	0.209200
Cu341	Cu34	0.682920	0.206720	0.069100
Cu351	Cu35	0.144900	0.028080	0.805200
I311	I31	0.219090	0.952030	0.777700
I321	I32	0.675730	0.173610	0.943190
I331	I33	0.771410	0.232950	0.148050
I341	I34	0.787410	0.136770	0.189950
I351	I35	0.650530	0.180690	0.169050
O611	O61	0.909500	0.153700	0.885400
O621	O62	0.861300	0.186700	0.807400
O631	O63	0.988500	0.194700	0.900400
O641	O64	0.009100	0.197200	0.798300
O651	O65	0.848500	0.177200	0.635800
O661	O66	0.914300	0.188500	0.623800
O671	O67	0.994000	0.134700	0.847600
O681	O68	0.978300	0.139600	0.715700
N311	N31	0.809000	0.179300	0.030600
C1811	C181	0.844100	0.158000	0.045300
H1211	H121	0.852900	0.145300	0.090800
C1821	C182	0.866300	0.155200	0.993200
H1221	H122	0.890300	0.140600	0.003200
C1831	C183	0.853400	0.173800	0.926500
C1841	C184	0.818200	0.195200	0.911900
H1231	H123	0.809400	0.207900	0.866300
C1851	C185	0.796000	0.197900	0.963900
H1241	H124	0.772000	0.212500	0.953900
C1861	C186	0.874900	0.171300	0.866100
N321	N32	0.133200	0.261700	0.013300
C1871	C187	0.101900	0.251300	0.044600
H1251	H125	0.106000	0.257600	0.097100
C1881	C188	0.064800	0.231800	0.999000
H1261	H126	0.043500	0.224800	0.020400
C1891	C189	0.058900	0.222600	0.922100
C1901	C190	0.090200	0.232900	0.890800
H1271	H127	0.086100	0.226700	0.838300
C1911	C191	0.127300	0.252500	0.936400
H1281	H128	0.148600	0.259500	0.915000
C1921	C192	0.015300	0.202200	0.868000
N331	N33	0.780000	0.190900	0.331000
C1931	C193	0.759600	0.180600	0.380900
H1291	H129	0.725900	0.174900	0.356900
C1941	C194	0.788400	0.178700	0.465800
H1301	H130	0.774400	0.171600	0.499900
C1951	C195	0.837700	0.187000	0.500900
C1961	C196	0.858100	0.197300	0.451100
H1311	H131	0.891800	0.203000	0.475100
C1971	C197	0.829300	0.199300	0.366100
H1321	H132	0.843200	0.206300	0.332100
C1981	C198	0.867600	0.183800	0.589900
N341	N34	0.108100	0.063600	0.812000
C1991	C199	0.095400	0.067700	0.876000
H1331	H133	0.109800	0.056000	0.924000
C2001	C200	0.061700	0.089100	0.869800
H1341	H134	0.053100	0.091900	0.913500
C2011	C201	0.040700	0.106300	0.799600
C2021	C202	0.053400	0.102100	0.735600
H1351	H135	0.039000	0.113900	0.687600
C2031	C203	0.087100	0.080800	0.741800
H1361	H136	0.095700	0.077900	0.698000
C2041	C204	0.000400	0.128600	0.788000
N351	N35	0.658100	0.113900	0.063600
C2051	C205	0.664700	0.096900	0.130900
H1371	H137	0.689700	0.101600	0.184400
C2061	C206	0.634600	0.073000	0.119900
H1381	H138	0.639100	0.061400	0.166000
C2071	C207	0.598000	0.066200	0.042000
C2081	C208	0.591400	0.083200	0.974300
H1391	H139	0.566300	0.078500	0.920800
C2091	C209	0.621400	0.107100	0.985300
H1401	H140	0.616900	0.118700	0.939300
O691	O69	0.538700	0.032100	0.953000
O701	O70	0.564800	0.030500	0.096000
C2101	C210	0.566300	0.042300	0.030000
Pr81	Pr8	0.427530	0.672120	0.767020
Cu361	Cu36	0.193950	0.650930	0.086900
Cu371	Cu37	0.266400	0.680430	0.088800
Cu381	Cu38	0.245060	0.686690	0.209200
Cu391	Cu39	0.182920	0.706720	0.069100
Cu401	Cu40	0.644900	0.528080	0.805200
I361	I36	0.719090	0.452030	0.777700
I371	I37	0.175730	0.673610	0.943190
I381	I38	0.271410	0.732950	0.148050
I391	I39	0.287410	0.636770	0.189950
I401	I40	0.150530	0.680690	0.169050
O711	O71	0.409500	0.653700	0.885400
O721	O72	0.361300	0.686700	0.807400
O731	O73	0.488500	0.694700	0.900400
O741	O74	0.509100	0.697200	0.798300
O751	O75	0.348500	0.677200	0.635800
O761	O76	0.414300	0.688500	0.623800
O771	O77	0.494000	0.634700	0.847600
O781	O78	0.478300	0.639600	0.715700
N361	N36	0.309000	0.679300	0.030600
C2111	C211	0.344100	0.658000	0.045300
H1411	H141	0.352900	0.645300	0.090800
C2121	C212	0.366300	0.655200	0.993200
H1421	H142	0.390300	0.640600	0.003200
C2131	C213	0.353400	0.673800	0.926500
C2141	C214	0.318200	0.695200	0.911900
H1431	H143	0.309400	0.707900	0.866300
C2151	C215	0.296000	0.697900	0.963900
H1441	H144	0.272000	0.712500	0.953900
C2161	C216	0.374900	0.671300	0.866100
N371	N37	0.633200	0.761700	0.013300
C2171	C217	0.601900	0.751300	0.044600
H1451	H145	0.606000	0.757600	0.097100
C2181	C218	0.564800	0.731800	0.999000
H1461	H146	0.543500	0.724800	0.020400
C2191	C219	0.558900	0.722600	0.922100
C2201	C220	0.590200	0.732900	0.890800
H1471	H147	0.586100	0.726700	0.838300
C2211	C221	0.627300	0.752500	0.936400
H1481	H148	0.648600	0.759500	0.915000
C2221	C222	0.515300	0.702200	0.868000
N381	N38	0.280000	0.690900	0.331000
C2231	C223	0.259600	0.680600	0.380900
H1491	H149	0.225900	0.674900	0.356900
C2241	C224	0.288400	0.678700	0.465800
H1501	H150	0.274400	0.671600	0.499900
C2251	C225	0.337700	0.687000	0.500900
C2261	C226	0.358100	0.697300	0.451100
H1511	H151	0.391800	0.703000	0.475100
C2271	C227	0.329300	0.699300	0.366100
H1521	H152	0.343200	0.706300	0.332100
C2281	C228	0.367600	0.683800	0.589900
N391	N39	0.608100	0.563600	0.812000
C2291	C229	0.595400	0.567700	0.876000
H1531	H153	0.609800	0.556000	0.924000
C2301	C230	0.561700	0.589100	0.869800
H1541	H154	0.553100	0.591900	0.913500
C2311	C231	0.540700	0.606300	0.799600
C2321	C232	0.553400	0.602100	0.735600
H1551	H155	0.539000	0.613900	0.687600
C2331	C233	0.587100	0.580800	0.741800
H1561	H156	0.595700	0.577900	0.698000
C2341	C234	0.500400	0.628600	0.788000
N401	N40	0.158100	0.613900	0.063600
C2351	C235	0.164700	0.596900	0.130900
H1571	H157	0.189700	0.601600	0.184400
C2361	C236	0.134600	0.573000	0.119900
H1581	H158	0.139100	0.561400	0.166000
C2371	C237	0.098000	0.566200	0.042000
C2381	C238	0.091400	0.583200	0.974300
H1591	H159	0.066300	0.578500	0.920800
C2391	C239	0.121400	0.607100	0.985300
H1601	H160	0.116900	0.618700	0.939300
O791	O79	0.038700	0.532100	0.953000
O801	O80	0.064800	0.530500	0.096000
C2401	C240	0.066300	0.542300	0.030000
Cu411	Cu41	0.226700	0.000000	0.858700
Cu421	Cu42	0.173000	0.000000	0.702200
I411	I41	0.168220	0.000000	0.942700
I421	I42	0.079000	0.000000	0.668900
Pr91	Pr9	0.480130	0.000000	0.861500
Cu431	Cu43	0.726700	0.500000	0.858700
Cu441	Cu44	0.673000	0.500000	0.702200
I431	I43	0.668220	0.500000	0.942700
I441	I44	0.579000	0.500000	0.668900
Pr101	Pr10	0.980130	0.500000	0.861500
Cu451	Cu45	0.773300	0.000000	0.141300
Cu461	Cu46	0.827000	0.000000	0.297800
I451	I45	0.831780	0.000000	0.057300
I461	I46	0.921000	0.000000	0.331100
Pr111	Pr11	0.519870	0.000000	0.138500
Cu471	Cu47	0.273300	0.500000	0.141300
Cu481	Cu48	0.327000	0.500000	0.297800
I471	I47	0.331780	0.500000	0.057300
I481	I48	0.421000	0.500000	0.331100
Pr121	Pr12	0.019870	0.500000	0.138500
K11	K1	0.000000	0.856100	0.000000
K21	K2	0.500000	0.356100	0.000000
K31	K3	0.000000	0.143900	0.000000
K41	K4	0.500000	0.643900	0.000000
