data_AWASOI_clean_PM
_symmetry_space_group_name_H-M	'P1'
_cell_length_a	15.095000
_cell_length_b	25.053200
_cell_length_c	29.758800
_cell_angle_alpha	90.000000
_cell_angle_beta	107.936000
_cell_angle_gamma	90.000000
_symmetry_Int_Tables_number 1

loop_
_symmetry_equiv_pos_as_xyz
'x,y,z'

loop_
_atom_site_label
_atom_site_type_symbol
_atom_site_fract_x
_atom_site_fract_y
_atom_site_fract_z
Pr11	Pr1	0.041510	0.599970	0.464730
Pr21	Pr2	0.956730	0.759100	0.503880
Pr31	Pr3	0.033580	0.923620	0.485090
I11	I1	0.327730	0.567180	0.816140
I21	I2	0.522210	0.644820	0.739360
I31	I3	0.487610	0.711800	0.873060
I41	I4	0.259370	0.718860	0.730340
I51	I5	0.497780	0.811610	0.759890
I61	I6	0.684200	0.749070	0.672050
I71	I7	0.742180	0.603360	0.264970
I81	I8	0.503520	0.891910	0.627950
I91	I9	0.487190	0.978900	0.749460
I101	I10	0.304040	0.911350	0.835790
I111	I11	0.471350	0.445140	0.380980
I121	I12	0.226550	0.055470	0.746780
Cu11	Cu1	0.348930	0.622820	0.742300
Cu21	Cu2	0.482800	0.623180	0.819730
Cu31	Cu3	0.322870	0.670560	0.814340
Cu41	Cu4	0.436040	0.718750	0.779160
Cu51	Cu5	0.531220	0.795790	0.676440
Cu61	Cu6	0.669250	0.701770	0.252790
Cu71	Cu7	0.676490	0.853540	0.678350
Cu81	Cu8	0.563900	0.894280	0.720180
Cu91	Cu9	0.318340	0.961060	0.757180
Cu101	Cu10	0.459860	0.539510	0.334060
Cu111	Cu11	0.702550	0.516290	0.665760
Cu121	Cu12	0.592860	0.556440	0.711730
O11	O1	0.123000	0.529790	0.517060
O21	O2	0.064600	0.471660	0.557180
O31	O3	0.179300	0.644840	0.519680
O41	O4	0.102200	0.716640	0.530800
O51	O5	0.988100	0.608020	0.535020
O61	O6	0.926700	0.685370	0.549000
O71	O7	0.898700	0.653000	0.442640
O81	O8	0.810600	0.717160	0.455590
O91	O9	0.075600	0.681050	0.429420
O101	O10	0.014300	0.760390	0.436290
O111	O11	0.024100	0.796340	0.585200
O121	O12	0.080600	0.844370	0.538170
O131	O13	0.907300	0.844790	0.455800
O141	O14	0.955300	0.889240	0.403570
O151	O15	0.195200	0.954300	0.529250
O161	O16	0.097300	0.014000	0.540190
O171	O17	0.035000	0.071140	0.451980
O181	O18	0.079100	0.989820	0.436610
N11	N1	0.283300	0.579020	0.685330
N21	N2	0.421700	0.754090	0.636310
N31	N3	0.783500	0.553420	0.631250
N41	N4	0.572800	0.583520	0.368670
N51	N5	0.232500	0.798100	0.344100
N61	N6	0.249000	0.913900	0.702240
N71	N7	0.737300	0.754900	0.302410
N81	N8	0.411400	0.078250	0.640670
N91	N9	0.241300	0.112800	0.355400
C11	C1	0.299900	0.589500	0.644500
H11	H1	0.349400	0.613100	0.644900
C21	C2	0.248500	0.567500	0.601840
H21	H2	0.263300	0.575400	0.573800
C31	C3	0.175100	0.533900	0.600700
C41	C4	0.159600	0.521200	0.642900
H31	H3	0.111800	0.496700	0.643500
C51	C5	0.214000	0.544400	0.684000
H41	H4	0.202300	0.535700	0.712800
C61	C6	0.115900	0.510200	0.554480
C71	C7	0.427100	0.714200	0.606900
H51	H5	0.486900	0.701200	0.608100
C81	C8	0.349600	0.691600	0.575000
H61	H6	0.356200	0.663900	0.554400
C91	C9	0.261900	0.709900	0.573490
C101	C10	0.256100	0.749000	0.605200
H71	H7	0.197100	0.761500	0.606000
C111	C11	0.336900	0.769700	0.635800
H81	H8	0.332000	0.796400	0.657600
C121	C12	0.174500	0.688300	0.538460
C131	C13	0.840200	0.527000	0.612200
H91	H9	0.846000	0.489500	0.616500
C141	C14	0.891000	0.551800	0.586500
H101	H10	0.929700	0.531500	0.573100
C151	C15	0.884400	0.606700	0.580660
C161	C16	0.828100	0.634500	0.601700
H111	H11	0.823600	0.672200	0.599300
C171	C17	0.778700	0.606500	0.626100
H121	H12	0.739500	0.625900	0.639800
C181	C18	0.938000	0.635400	0.552470
C191	C19	0.657600	0.566900	0.368800
H131	H13	0.661900	0.534700	0.352700
C201	C20	0.739000	0.594000	0.391100
H141	H14	0.797500	0.580400	0.390700
C211	C21	0.734000	0.641300	0.414000
C221	C22	0.646900	0.659600	0.413400
H151	H15	0.640800	0.692100	0.428700
C231	C23	0.569100	0.630000	0.390300
H161	H16	0.509800	0.643200	0.389800
C241	C24	0.821300	0.672800	0.439200
C251	C25	0.233700	0.745300	0.352300
H171	H17	0.274300	0.723300	0.341600
C261	C26	0.178100	0.722000	0.375700
H181	H18	0.180800	0.684600	0.381300
C271	C27	0.118400	0.753600	0.391000
C281	C28	0.110900	0.806500	0.378750
H191	H19	0.066000	0.828600	0.386000
C291	C29	0.169500	0.827100	0.355700
H201	H20	0.164600	0.863900	0.347800
C301	C30	0.064400	0.729400	0.421190
C311	C31	0.176200	0.883500	0.703300
H211	H21	0.163200	0.880300	0.732400
C321	C32	0.119700	0.856700	0.664900
H221	H22	0.069100	0.835800	0.667600
C331	C33	0.137700	0.860900	0.622000
C341	C34	0.214300	0.889900	0.620500
H231	H23	0.230500	0.891900	0.592200
C351	C35	0.267600	0.916200	0.660900
H241	H24	0.319500	0.936700	0.659200
C361	C36	0.076300	0.832200	0.578900
C371	C37	0.716700	0.761800	0.342300
H251	H25	0.664200	0.743500	0.346000
C381	C38	0.767500	0.794200	0.378890
H261	H26	0.750100	0.798100	0.406800
C391	C39	0.844000	0.820900	0.373930
C401	C40	0.862700	0.816700	0.331500
H271	H27	0.911700	0.836800	0.326000
C411	C41	0.809500	0.783100	0.297400
H281	H28	0.824400	0.779600	0.268700
C421	C42	0.906400	0.854100	0.413340
C431	C43	0.420300	0.047600	0.605300
H291	H29	0.479900	0.044600	0.601000
C441	C44	0.346900	0.020200	0.574900
H301	H30	0.355900	0.998400	0.550500
C451	C45	0.259500	0.025300	0.580800
C461	C46	0.250400	0.054800	0.617600
H311	H31	0.191700	0.057700	0.623100
C471	C47	0.327800	0.080600	0.647060
H321	H32	0.321100	0.100800	0.672800
C481	C48	0.178500	0.995900	0.547520
C491	C49	0.179900	0.139900	0.369000
H331	H33	0.172500	0.176800	0.361400
C501	C50	0.125700	0.117700	0.393700
H341	H34	0.083800	0.139500	0.403700
C511	C51	0.131800	0.064600	0.403900
C521	C52	0.195800	0.035500	0.389600
H351	H35	0.202100	0.998200	0.395600
C531	C53	0.250500	0.060600	0.366700
H361	H36	0.296500	0.040400	0.358400
C541	C54	0.077000	0.039200	0.432700
Pr41	Pr4	0.958490	0.099970	0.035270
Pr51	Pr5	0.043270	0.259100	0.996120
Pr61	Pr6	0.966420	0.423620	0.014910
I131	I13	0.672270	0.067180	0.683860
I141	I14	0.477790	0.144820	0.760640
I151	I15	0.512390	0.211800	0.626940
I161	I16	0.740630	0.218860	0.769660
I171	I17	0.502220	0.311610	0.740110
I181	I18	0.315800	0.249070	0.827950
I191	I19	0.257820	0.103360	0.235030
I201	I20	0.496480	0.391910	0.872040
I211	I21	0.512810	0.478900	0.750540
I221	I22	0.695960	0.411350	0.664210
I231	I23	0.528650	0.945140	0.119020
I241	I24	0.773450	0.555470	0.753220
Cu131	Cu13	0.651070	0.122820	0.757700
Cu141	Cu14	0.517200	0.123180	0.680270
Cu151	Cu15	0.677130	0.170560	0.685660
Cu161	Cu16	0.563960	0.218750	0.720840
Cu171	Cu17	0.468780	0.295790	0.823560
Cu181	Cu18	0.330750	0.201770	0.247210
Cu191	Cu19	0.323510	0.353540	0.821650
Cu201	Cu20	0.436100	0.394280	0.779820
Cu211	Cu21	0.681660	0.461060	0.742820
Cu221	Cu22	0.540140	0.039510	0.165940
Cu231	Cu23	0.297450	0.016290	0.834240
Cu241	Cu24	0.407140	0.056440	0.788270
O191	O19	0.877000	0.029790	0.982940
O201	O20	0.935400	0.971660	0.942820
O211	O21	0.820700	0.144840	0.980320
O221	O22	0.897800	0.216640	0.969200
O231	O23	0.011900	0.108020	0.964980
O241	O24	0.073300	0.185370	0.951000
O251	O25	0.101300	0.153000	0.057360
O261	O26	0.189400	0.217160	0.044410
O271	O27	0.924400	0.181050	0.070580
O281	O28	0.985700	0.260390	0.063710
O291	O29	0.975900	0.296340	0.914800
O301	O30	0.919400	0.344370	0.961830
O311	O31	0.092700	0.344790	0.044200
O321	O32	0.044700	0.389240	0.096430
O331	O33	0.804800	0.454300	0.970750
O341	O34	0.902700	0.514000	0.959810
O351	O35	0.965000	0.571140	0.048020
O361	O36	0.920900	0.489820	0.063390
N101	N10	0.716700	0.079020	0.814670
N111	N11	0.578300	0.254090	0.863690
N121	N12	0.216500	0.053420	0.868750
N131	N13	0.427200	0.083520	0.131330
N141	N14	0.767500	0.298100	0.155900
N151	N15	0.751000	0.413900	0.797760
N161	N16	0.262700	0.254900	0.197590
N171	N17	0.588600	0.578250	0.859330
N181	N18	0.758700	0.612800	0.144600
C551	C55	0.700100	0.089500	0.855500
H371	H37	0.650600	0.113100	0.855100
C561	C56	0.751500	0.067500	0.898160
H381	H38	0.736700	0.075400	0.926200
C571	C57	0.824900	0.033900	0.899300
C581	C58	0.840400	0.021200	0.857100
H391	H39	0.888200	0.996700	0.856500
C591	C59	0.786000	0.044400	0.816000
H401	H40	0.797700	0.035700	0.787200
C601	C60	0.884100	0.010200	0.945520
C611	C61	0.572900	0.214200	0.893100
H411	H41	0.513100	0.201200	0.891900
C621	C62	0.650400	0.191600	0.925000
H421	H42	0.643800	0.163900	0.945600
C631	C63	0.738100	0.209900	0.926510
C641	C64	0.743900	0.249000	0.894800
H431	H43	0.802900	0.261500	0.894000
C651	C65	0.663100	0.269700	0.864200
H441	H44	0.668000	0.296400	0.842400
C661	C66	0.825500	0.188300	0.961540
C671	C67	0.159800	0.027000	0.887800
H451	H45	0.154000	0.989500	0.883500
C681	C68	0.109000	0.051800	0.913500
H461	H46	0.070300	0.031500	0.926900
C691	C69	0.115600	0.106700	0.919340
C701	C70	0.171900	0.134500	0.898300
H471	H47	0.176400	0.172200	0.900700
C711	C71	0.221300	0.106500	0.873900
H481	H48	0.260500	0.125900	0.860200
C721	C72	0.062000	0.135400	0.947530
C731	C73	0.342400	0.066900	0.131200
H491	H49	0.338100	0.034700	0.147300
C741	C74	0.261000	0.094000	0.108900
H501	H50	0.202500	0.080400	0.109300
C751	C75	0.266000	0.141300	0.086000
C761	C76	0.353100	0.159600	0.086600
H511	H51	0.359200	0.192100	0.071300
C771	C77	0.430900	0.130000	0.109700
H521	H52	0.490200	0.143200	0.110200
C781	C78	0.178700	0.172800	0.060800
C791	C79	0.766300	0.245300	0.147700
H531	H53	0.725700	0.223300	0.158400
C801	C80	0.821900	0.222000	0.124300
H541	H54	0.819200	0.184600	0.118700
C811	C81	0.881600	0.253600	0.109000
C821	C82	0.889100	0.306500	0.121250
H551	H55	0.934000	0.328600	0.114000
C831	C83	0.830500	0.327100	0.144300
H561	H56	0.835400	0.363900	0.152200
C841	C84	0.935600	0.229400	0.078810
C851	C85	0.823800	0.383500	0.796700
H571	H57	0.836800	0.380300	0.767600
C861	C86	0.880300	0.356700	0.835100
H581	H58	0.930900	0.335800	0.832400
C871	C87	0.862300	0.360900	0.878000
C881	C88	0.785700	0.389900	0.879500
H591	H59	0.769500	0.391900	0.907800
C891	C89	0.732400	0.416200	0.839100
H601	H60	0.680500	0.436700	0.840800
C901	C90	0.923700	0.332200	0.921100
C911	C91	0.283300	0.261800	0.157700
H611	H61	0.335800	0.243500	0.154000
C921	C92	0.232500	0.294200	0.121110
H621	H62	0.249900	0.298100	0.093200
C931	C93	0.156000	0.320900	0.126070
C941	C94	0.137300	0.316700	0.168500
H631	H63	0.088300	0.336800	0.174000
C951	C95	0.190500	0.283100	0.202600
H641	H64	0.175600	0.279600	0.231300
C961	C96	0.093600	0.354100	0.086660
C971	C97	0.579700	0.547600	0.894700
H651	H65	0.520100	0.544600	0.899000
C981	C98	0.653100	0.520200	0.925100
H661	H66	0.644100	0.498400	0.949500
C991	C99	0.740500	0.525300	0.919200
C1001	C100	0.749600	0.554800	0.882400
H671	H67	0.808300	0.557700	0.876900
C1011	C101	0.672200	0.580600	0.852940
H681	H68	0.678900	0.600800	0.827200
C1021	C102	0.821500	0.495900	0.952480
C1031	C103	0.820100	0.639900	0.131000
H691	H69	0.827500	0.676800	0.138600
C1041	C104	0.874300	0.617700	0.106300
H701	H70	0.916200	0.639500	0.096300
C1051	C105	0.868200	0.564600	0.096100
C1061	C106	0.804200	0.535500	0.110400
H711	H71	0.797900	0.498200	0.104400
C1071	C107	0.749500	0.560600	0.133300
H721	H72	0.703500	0.540400	0.141600
C1081	C108	0.923000	0.539200	0.067300
Pr71	Pr7	0.958490	0.400030	0.535270
Pr81	Pr8	0.043270	0.240900	0.496120
Pr91	Pr9	0.966420	0.076380	0.514910
I251	I25	0.672270	0.432820	0.183860
I261	I26	0.477790	0.355180	0.260640
I271	I27	0.512390	0.288200	0.126940
I281	I28	0.740630	0.281140	0.269660
I291	I29	0.502220	0.188390	0.240110
I301	I30	0.315800	0.250930	0.327950
I311	I31	0.257820	0.396640	0.735030
I321	I32	0.496480	0.108090	0.372040
I331	I33	0.512810	0.021100	0.250540
I341	I34	0.695960	0.088650	0.164210
I351	I35	0.528650	0.554860	0.619020
I361	I36	0.773450	0.944520	0.253220
Cu251	Cu25	0.651070	0.377180	0.257700
Cu261	Cu26	0.517200	0.376820	0.180270
Cu271	Cu27	0.677130	0.329440	0.185660
Cu281	Cu28	0.563960	0.281250	0.220840
Cu291	Cu29	0.468780	0.204210	0.323560
Cu301	Cu30	0.330750	0.298230	0.747210
Cu311	Cu31	0.323510	0.146460	0.321650
Cu321	Cu32	0.436100	0.105720	0.279820
Cu331	Cu33	0.681660	0.038940	0.242820
Cu341	Cu34	0.540140	0.460490	0.665940
Cu351	Cu35	0.297450	0.483710	0.334240
Cu361	Cu36	0.407140	0.443560	0.288270
O371	O37	0.877000	0.470210	0.482940
O381	O38	0.935400	0.528340	0.442820
O391	O39	0.820700	0.355160	0.480320
O401	O40	0.897800	0.283360	0.469200
O411	O41	0.011900	0.391980	0.464980
O421	O42	0.073300	0.314630	0.451000
O431	O43	0.101300	0.347000	0.557360
O441	O44	0.189400	0.282840	0.544410
O451	O45	0.924400	0.318950	0.570580
O461	O46	0.985700	0.239610	0.563710
O471	O47	0.975900	0.203660	0.414800
O481	O48	0.919400	0.155630	0.461830
O491	O49	0.092700	0.155210	0.544200
O501	O50	0.044700	0.110760	0.596430
O511	O51	0.804800	0.045700	0.470750
O521	O52	0.902700	0.986000	0.459810
O531	O53	0.965000	0.928860	0.548020
O541	O54	0.920900	0.010180	0.563390
N191	N19	0.716700	0.420980	0.314670
N201	N20	0.578300	0.245910	0.363690
N211	N21	0.216500	0.446580	0.368750
N221	N22	0.427200	0.416480	0.631330
N231	N23	0.767500	0.201900	0.655900
N241	N24	0.751000	0.086100	0.297760
N251	N25	0.262700	0.245100	0.697590
N261	N26	0.588600	0.921750	0.359330
N271	N27	0.758700	0.887200	0.644600
C1091	C109	0.700100	0.410500	0.355500
H731	H73	0.650600	0.386900	0.355100
C1101	C110	0.751500	0.432500	0.398160
H741	H74	0.736700	0.424600	0.426200
C1111	C111	0.824900	0.466100	0.399300
C1121	C112	0.840400	0.478800	0.357100
H751	H75	0.888200	0.503300	0.356500
C1131	C113	0.786000	0.455600	0.316000
H761	H76	0.797700	0.464300	0.287200
C1141	C114	0.884100	0.489800	0.445520
C1151	C115	0.572900	0.285800	0.393100
H771	H77	0.513100	0.298800	0.391900
C1161	C116	0.650400	0.308400	0.425000
H781	H78	0.643800	0.336100	0.445600
C1171	C117	0.738100	0.290100	0.426510
C1181	C118	0.743900	0.251000	0.394800
H791	H79	0.802900	0.238500	0.394000
C1191	C119	0.663100	0.230300	0.364200
H801	H80	0.668000	0.203600	0.342400
C1201	C120	0.825500	0.311700	0.461540
C1211	C121	0.159800	0.473000	0.387800
H811	H81	0.154000	0.510500	0.383500
C1221	C122	0.109000	0.448200	0.413500
H821	H82	0.070300	0.468500	0.426900
C1231	C123	0.115600	0.393300	0.419340
C1241	C124	0.171900	0.365500	0.398300
H831	H83	0.176400	0.327800	0.400700
C1251	C125	0.221300	0.393500	0.373900
H841	H84	0.260500	0.374100	0.360200
C1261	C126	0.062000	0.364600	0.447530
C1271	C127	0.342400	0.433100	0.631200
H851	H85	0.338100	0.465300	0.647300
C1281	C128	0.261000	0.406000	0.608900
H861	H86	0.202500	0.419600	0.609300
C1291	C129	0.266000	0.358700	0.586000
C1301	C130	0.353100	0.340400	0.586600
H871	H87	0.359200	0.307900	0.571300
C1311	C131	0.430900	0.370000	0.609700
H881	H88	0.490200	0.356800	0.610200
C1321	C132	0.178700	0.327200	0.560800
C1331	C133	0.766300	0.254700	0.647700
H891	H89	0.725700	0.276700	0.658400
C1341	C134	0.821900	0.278000	0.624300
H901	H90	0.819200	0.315400	0.618700
C1351	C135	0.881600	0.246400	0.609000
C1361	C136	0.889100	0.193500	0.621250
H911	H91	0.934000	0.171400	0.614000
C1371	C137	0.830500	0.172900	0.644300
H921	H92	0.835400	0.136100	0.652200
C1381	C138	0.935600	0.270600	0.578810
C1391	C139	0.823800	0.116500	0.296700
H931	H93	0.836800	0.119700	0.267600
C1401	C140	0.880300	0.143300	0.335100
H941	H94	0.930900	0.164200	0.332400
C1411	C141	0.862300	0.139100	0.378000
C1421	C142	0.785700	0.110100	0.379500
H951	H95	0.769500	0.108100	0.407800
C1431	C143	0.732400	0.083800	0.339100
H961	H96	0.680500	0.063300	0.340800
C1441	C144	0.923700	0.167800	0.421100
C1451	C145	0.283300	0.238200	0.657700
H971	H97	0.335800	0.256500	0.654000
C1461	C146	0.232500	0.205800	0.621110
H981	H98	0.249900	0.201900	0.593200
C1471	C147	0.156000	0.179100	0.626070
C1481	C148	0.137300	0.183300	0.668500
H991	H99	0.088300	0.163200	0.674000
C1491	C149	0.190500	0.216900	0.702600
H1001	H100	0.175600	0.220400	0.731300
C1501	C150	0.093600	0.145900	0.586660
C1511	C151	0.579700	0.952400	0.394700
H1011	H101	0.520100	0.955400	0.399000
C1521	C152	0.653100	0.979800	0.425100
H1021	H102	0.644100	0.001600	0.449500
C1531	C153	0.740500	0.974700	0.419200
C1541	C154	0.749600	0.945200	0.382400
H1031	H103	0.808300	0.942300	0.376900
C1551	C155	0.672200	0.919400	0.352940
H1041	H104	0.678900	0.899200	0.327200
C1561	C156	0.821500	0.004100	0.452480
C1571	C157	0.820100	0.860100	0.631000
H1051	H105	0.827500	0.823200	0.638600
C1581	C158	0.874300	0.882300	0.606300
H1061	H106	0.916200	0.860500	0.596300
C1591	C159	0.868200	0.935400	0.596100
C1601	C160	0.804200	0.964500	0.610400
H1071	H107	0.797900	0.001800	0.604400
C1611	C161	0.749500	0.939400	0.633300
H1081	H108	0.703500	0.959600	0.641600
C1621	C162	0.923000	0.960800	0.567300
Pr101	Pr10	0.041510	0.900030	0.964730
Pr111	Pr11	0.956730	0.740900	0.003880
Pr121	Pr12	0.033580	0.576380	0.985090
I371	I37	0.327730	0.932820	0.316140
I381	I38	0.522210	0.855180	0.239360
I391	I39	0.487610	0.788200	0.373060
I401	I40	0.259370	0.781140	0.230340
I411	I41	0.497780	0.688390	0.259890
I421	I42	0.684200	0.750930	0.172050
I431	I43	0.742180	0.896640	0.764970
I441	I44	0.503520	0.608090	0.127950
I451	I45	0.487190	0.521100	0.249460
I461	I46	0.304040	0.588650	0.335790
I471	I47	0.471350	0.054860	0.880980
I481	I48	0.226550	0.444520	0.246780
Cu371	Cu37	0.348930	0.877180	0.242300
Cu381	Cu38	0.482800	0.876820	0.319730
Cu391	Cu39	0.322870	0.829440	0.314340
Cu401	Cu40	0.436040	0.781250	0.279160
Cu411	Cu41	0.531220	0.704210	0.176440
Cu421	Cu42	0.669250	0.798230	0.752790
Cu431	Cu43	0.676490	0.646460	0.178350
Cu441	Cu44	0.563900	0.605720	0.220180
Cu451	Cu45	0.318340	0.538940	0.257180
Cu461	Cu46	0.459860	0.960490	0.834060
Cu471	Cu47	0.702550	0.983710	0.165760
Cu481	Cu48	0.592860	0.943560	0.211730
O551	O55	0.123000	0.970210	0.017060
O561	O56	0.064600	0.028340	0.057180
O571	O57	0.179300	0.855160	0.019680
O581	O58	0.102200	0.783360	0.030800
O591	O59	0.988100	0.891980	0.035020
O601	O60	0.926700	0.814630	0.049000
O611	O61	0.898700	0.847000	0.942640
O621	O62	0.810600	0.782840	0.955590
O631	O63	0.075600	0.818950	0.929420
O641	O64	0.014300	0.739610	0.936290
O651	O65	0.024100	0.703660	0.085200
O661	O66	0.080600	0.655630	0.038170
O671	O67	0.907300	0.655210	0.955800
O681	O68	0.955300	0.610760	0.903570
O691	O69	0.195200	0.545700	0.029250
O701	O70	0.097300	0.486000	0.040190
O711	O71	0.035000	0.428860	0.951980
O721	O72	0.079100	0.510180	0.936610
N281	N28	0.283300	0.920980	0.185330
N291	N29	0.421700	0.745910	0.136310
N301	N30	0.783500	0.946580	0.131250
N311	N31	0.572800	0.916480	0.868670
N321	N32	0.232500	0.701900	0.844100
N331	N33	0.249000	0.586100	0.202240
N341	N34	0.737300	0.745100	0.802410
N351	N35	0.411400	0.421750	0.140670
N361	N36	0.241300	0.387200	0.855400
C1631	C163	0.299900	0.910500	0.144500
H1091	H109	0.349400	0.886900	0.144900
C1641	C164	0.248500	0.932500	0.101840
H1101	H110	0.263300	0.924600	0.073800
C1651	C165	0.175100	0.966100	0.100700
C1661	C166	0.159600	0.978800	0.142900
H1111	H111	0.111800	0.003300	0.143500
C1671	C167	0.214000	0.955600	0.184000
H1121	H112	0.202300	0.964300	0.212800
C1681	C168	0.115900	0.989800	0.054480
C1691	C169	0.427100	0.785800	0.106900
H1131	H113	0.486900	0.798800	0.108100
C1701	C170	0.349600	0.808400	0.075000
H1141	H114	0.356200	0.836100	0.054400
C1711	C171	0.261900	0.790100	0.073490
C1721	C172	0.256100	0.751000	0.105200
H1151	H115	0.197100	0.738500	0.106000
C1731	C173	0.336900	0.730300	0.135800
H1161	H116	0.332000	0.703600	0.157600
C1741	C174	0.174500	0.811700	0.038460
C1751	C175	0.840200	0.973000	0.112200
H1171	H117	0.846000	0.010500	0.116500
C1761	C176	0.891000	0.948200	0.086500
H1181	H118	0.929700	0.968500	0.073100
C1771	C177	0.884400	0.893300	0.080660
C1781	C178	0.828100	0.865500	0.101700
H1191	H119	0.823600	0.827800	0.099300
C1791	C179	0.778700	0.893500	0.126100
H1201	H120	0.739500	0.874100	0.139800
C1801	C180	0.938000	0.864600	0.052470
C1811	C181	0.657600	0.933100	0.868800
H1211	H121	0.661900	0.965300	0.852700
C1821	C182	0.739000	0.906000	0.891100
H1221	H122	0.797500	0.919600	0.890700
C1831	C183	0.734000	0.858700	0.914000
C1841	C184	0.646900	0.840400	0.913400
H1231	H123	0.640800	0.807900	0.928700
C1851	C185	0.569100	0.870000	0.890300
H1241	H124	0.509800	0.856800	0.889800
C1861	C186	0.821300	0.827200	0.939200
C1871	C187	0.233700	0.754700	0.852300
H1251	H125	0.274300	0.776700	0.841600
C1881	C188	0.178100	0.778000	0.875700
H1261	H126	0.180800	0.815400	0.881300
C1891	C189	0.118400	0.746400	0.891000
C1901	C190	0.110900	0.693500	0.878750
H1271	H127	0.066000	0.671400	0.886000
C1911	C191	0.169500	0.672900	0.855700
H1281	H128	0.164600	0.636100	0.847800
C1921	C192	0.064400	0.770600	0.921190
C1931	C193	0.176200	0.616500	0.203300
H1291	H129	0.163200	0.619700	0.232400
C1941	C194	0.119700	0.643300	0.164900
H1301	H130	0.069100	0.664200	0.167600
C1951	C195	0.137700	0.639100	0.122000
C1961	C196	0.214300	0.610100	0.120500
H1311	H131	0.230500	0.608100	0.092200
C1971	C197	0.267600	0.583800	0.160900
H1321	H132	0.319500	0.563300	0.159200
C1981	C198	0.076300	0.667800	0.078900
C1991	C199	0.716700	0.738200	0.842300
H1331	H133	0.664200	0.756500	0.846000
C2001	C200	0.767500	0.705800	0.878890
H1341	H134	0.750100	0.701900	0.906800
C2011	C201	0.844000	0.679100	0.873930
C2021	C202	0.862700	0.683300	0.831500
H1351	H135	0.911700	0.663200	0.826000
C2031	C203	0.809500	0.716900	0.797400
H1361	H136	0.824400	0.720400	0.768700
C2041	C204	0.906400	0.645900	0.913340
C2051	C205	0.420300	0.452400	0.105300
H1371	H137	0.479900	0.455400	0.101000
C2061	C206	0.346900	0.479800	0.074900
H1381	H138	0.355900	0.501600	0.050500
C2071	C207	0.259500	0.474700	0.080800
C2081	C208	0.250400	0.445200	0.117600
H1391	H139	0.191700	0.442300	0.123100
C2091	C209	0.327800	0.419400	0.147060
H1401	H140	0.321100	0.399200	0.172800
C2101	C210	0.178500	0.504100	0.047520
C2111	C211	0.179900	0.360100	0.869000
H1411	H141	0.172500	0.323200	0.861400
C2121	C212	0.125700	0.382300	0.893700
H1421	H142	0.083800	0.360500	0.903700
C2131	C213	0.131800	0.435400	0.903900
C2141	C214	0.195800	0.464500	0.889600
H1431	H143	0.202100	0.501800	0.895600
C2151	C215	0.250500	0.439400	0.866700
H1441	H144	0.296500	0.459600	0.858400
C2161	C216	0.077000	0.460800	0.932700
