data_AWEBIO_charged_PM
_symmetry_space_group_name_H-M	'P1'
_cell_length_a	10.834600
_cell_length_b	13.842700
_cell_length_c	27.988200
_cell_angle_alpha	97.554000
_cell_angle_beta	90.000000
_cell_angle_gamma	90.000000
_symmetry_Int_Tables_number 1

loop_
_symmetry_equiv_pos_as_xyz
'x,y,z'

loop_
_atom_site_label
_atom_site_type_symbol
_atom_site_fract_x
_atom_site_fract_y
_atom_site_fract_z
U11	U1	0.879170	0.590610	0.524050
U21	U2	0.886710	0.553290	0.388710
U31	U3	0.379170	0.909390	0.975950
U41	U4	0.386710	0.946710	0.111290
U51	U5	0.120830	0.409390	0.475950
U61	U6	0.113290	0.446710	0.611290
U71	U7	0.620830	0.090610	0.024050
U81	U8	0.613290	0.053290	0.888710
H11	H1	0.714800	0.605900	0.452500
H21	H2	0.858700	0.228500	0.787700
H31	H3	0.807100	0.148900	0.747400
H41	H4	0.650100	0.298800	0.792500
H51	H5	0.620100	0.229600	0.745000
H61	H6	0.798900	0.380100	0.751600
H71	H7	0.773800	0.309300	0.704200
H81	H8	0.593500	0.440600	0.747600
H91	H9	0.576300	0.374300	0.698300
H101	H10	0.617100	0.529200	0.681700
H111	H11	0.730300	0.464000	0.664000
H121	H12	0.730000	0.590700	0.751600
H131	H13	0.844300	0.529300	0.730900
H141	H14	0.862600	0.692400	0.715000
H151	H15	0.738400	0.682100	0.685900
H161	H16	0.631000	0.821300	0.684400
H171	H17	0.482400	0.710300	0.658000
H181	H18	0.548200	0.594900	0.539900
H191	H19	0.439400	0.591400	0.576700
H201	H20	0.252800	0.717900	0.627900
H211	H21	0.201500	0.824600	0.634800
H221	H22	0.226300	0.632800	0.542300
H231	H23	0.155600	0.673700	0.471100
H241	H24	0.247000	0.674600	0.391800
H251	H25	0.390500	0.681200	0.386900
H261	H26	0.032100	0.900700	0.487400
H271	H27	0.033700	0.802700	0.452400
H281	H28	0.126900	0.814700	0.368400
H291	H29	0.165300	0.949200	0.330100
H301	H30	0.631400	0.997600	0.711900
H311	H31	0.512000	0.054000	0.700600
H321	H32	0.837400	0.869900	0.647900
H331	H33	0.856000	0.834500	0.592900
H341	H34	0.214800	0.894100	0.047500
H351	H35	0.358700	0.271500	0.712300
H361	H36	0.307100	0.351100	0.752600
H371	H37	0.150100	0.201200	0.707500
H381	H38	0.120100	0.270400	0.755000
H391	H39	0.298900	0.119900	0.748400
H401	H40	0.273800	0.190700	0.795800
H411	H41	0.093500	0.059400	0.752400
H421	H42	0.076300	0.125700	0.801700
H431	H43	0.117100	0.970800	0.818300
H441	H44	0.230300	0.036000	0.836000
H451	H45	0.230000	0.909300	0.748400
H461	H46	0.344300	0.970700	0.769100
H471	H47	0.362600	0.807600	0.785000
H481	H48	0.238400	0.817900	0.814100
H491	H49	0.131000	0.678700	0.815600
H501	H50	0.982400	0.789700	0.842000
H511	H51	0.048200	0.905100	0.960100
H521	H52	0.939400	0.908600	0.923300
H531	H53	0.752800	0.782100	0.872100
H541	H54	0.701500	0.675400	0.865200
H551	H55	0.726300	0.867200	0.957700
H561	H56	0.655600	0.826300	0.028900
H571	H57	0.747000	0.825400	0.108200
H581	H58	0.890500	0.818800	0.113100
H591	H59	0.532100	0.599300	0.012600
H601	H60	0.533700	0.697300	0.047600
H611	H61	0.626900	0.685300	0.131600
H621	H62	0.665300	0.550800	0.169900
H631	H63	0.131400	0.502400	0.788100
H641	H64	0.012000	0.446000	0.799400
H651	H65	0.337400	0.630100	0.852100
H661	H66	0.356000	0.665500	0.907100
H671	H67	0.285200	0.394100	0.547500
H681	H68	0.141300	0.771500	0.212300
H691	H69	0.192900	0.851100	0.252600
H701	H70	0.349900	0.701200	0.207500
H711	H71	0.379900	0.770400	0.255000
H721	H72	0.201100	0.619900	0.248400
H731	H73	0.226200	0.690700	0.295800
H741	H74	0.406500	0.559400	0.252400
H751	H75	0.423700	0.625700	0.301700
H761	H76	0.382900	0.470800	0.318300
H771	H77	0.269700	0.536000	0.336000
H781	H78	0.270000	0.409300	0.248400
H791	H79	0.155700	0.470700	0.269100
H801	H80	0.137400	0.307600	0.285000
H811	H81	0.261600	0.317900	0.314100
H821	H82	0.369000	0.178700	0.315600
H831	H83	0.517600	0.289700	0.342000
H841	H84	0.451800	0.405100	0.460100
H851	H85	0.560600	0.408600	0.423300
H861	H86	0.747200	0.282100	0.372100
H871	H87	0.798500	0.175400	0.365200
H881	H88	0.773700	0.367200	0.457700
H891	H89	0.844400	0.326300	0.528900
H901	H90	0.753000	0.325400	0.608200
H911	H91	0.609500	0.318800	0.613100
H921	H92	0.967900	0.099300	0.512600
H931	H93	0.966300	0.197300	0.547600
H941	H94	0.873100	0.185300	0.631600
H951	H95	0.834700	0.050800	0.669900
H961	H96	0.368600	0.002400	0.288100
H971	H97	0.488000	0.946000	0.299400
H981	H98	0.162600	0.130100	0.352100
H991	H99	0.144000	0.165500	0.407100
H1001	H100	0.785200	0.105900	0.952500
H1011	H101	0.641300	0.728500	0.287700
H1021	H102	0.692900	0.648900	0.247400
H1031	H103	0.849900	0.798800	0.292500
H1041	H104	0.879900	0.729600	0.245000
H1051	H105	0.701100	0.880100	0.251600
H1061	H106	0.726200	0.809300	0.204200
H1071	H107	0.906500	0.940600	0.247600
H1081	H108	0.923700	0.874300	0.198300
H1091	H109	0.882900	0.029200	0.181700
H1101	H110	0.769700	0.964000	0.164000
H1111	H111	0.770000	0.090700	0.251600
H1121	H112	0.655700	0.029300	0.230900
H1131	H113	0.637400	0.192400	0.215000
H1141	H114	0.761600	0.182100	0.185900
H1151	H115	0.869000	0.321300	0.184400
H1161	H116	0.017600	0.210300	0.158000
H1171	H117	0.951800	0.094900	0.039900
H1181	H118	0.060600	0.091400	0.076700
H1191	H119	0.247200	0.217900	0.127900
H1201	H120	0.298500	0.324600	0.134800
H1211	H121	0.273700	0.132800	0.042300
H1221	H122	0.344400	0.173700	0.971100
H1231	H123	0.253000	0.174600	0.891800
H1241	H124	0.109500	0.181200	0.886900
H1251	H125	0.467900	0.400700	0.987400
H1261	H126	0.466300	0.302700	0.952400
H1271	H127	0.373100	0.314700	0.868400
H1281	H128	0.334700	0.449200	0.830100
H1291	H129	0.868600	0.497600	0.211900
H1301	H130	0.988000	0.554000	0.200600
H1311	H131	0.662600	0.369900	0.147900
H1321	H132	0.644000	0.334500	0.092900
C11	C1	0.735300	0.137800	0.813500
C21	C2	0.785100	0.193300	0.775900
C31	C3	0.685600	0.265800	0.763000
C41	C4	0.735600	0.342300	0.733200
C51	C5	0.636200	0.411700	0.718800
C61	C6	0.686200	0.493100	0.692400
C71	C7	0.771600	0.563800	0.722100
C81	C8	0.811100	0.647100	0.694400
C91	C9	0.878500	0.611600	0.650900
C101	C10	0.650300	0.751800	0.578700
C111	C11	0.595100	0.834500	0.653800
C121	C12	0.493400	0.758700	0.635800
C131	C13	0.407900	0.915700	0.649800
C141	C14	0.483900	0.633300	0.557500
C151	C15	0.263900	0.782300	0.618400
C161	C16	0.429900	0.675200	0.476200
C171	C17	0.269100	0.690000	0.533200
C181	C18	0.220600	0.718200	0.484900
C191	C19	0.177000	0.843800	0.546600
C201	C20	0.319000	0.712700	0.403000
C211	C21	0.085100	0.855400	0.467500
C221	C22	0.396200	0.847500	0.362500
C231	C23	0.188100	0.858300	0.385700
C241	C24	0.220600	0.945500	0.357500
C251	C25	0.162300	0.003900	0.436500
C261	C26	0.580100	0.015400	0.686100
C271	C27	0.801100	0.870100	0.616300
C281	C28	0.235300	0.362200	0.686500
C291	C29	0.285100	0.306700	0.724100
C301	C30	0.185600	0.234200	0.737000
C311	C31	0.235600	0.157700	0.766800
C321	C32	0.136200	0.088300	0.781200
C331	C33	0.186200	0.006900	0.807600
C341	C34	0.271600	0.936200	0.777900
C351	C35	0.311100	0.852900	0.805600
C361	C36	0.378500	0.888400	0.849100
C371	C37	0.150300	0.748200	0.921300
C381	C38	0.095100	0.665500	0.846200
C391	C39	0.993400	0.741300	0.864200
C401	C40	0.907900	0.584300	0.850200
C411	C41	0.983900	0.866700	0.942500
C421	C42	0.763900	0.717700	0.881600
C431	C43	0.929900	0.824800	0.023800
C441	C44	0.769100	0.810000	0.966800
C451	C45	0.720600	0.781800	0.015100
C461	C46	0.677000	0.656200	0.953400
C471	C47	0.819000	0.787300	0.097000
C481	C48	0.585100	0.644600	0.032500
C491	C49	0.896200	0.652500	0.137500
C501	C50	0.688100	0.641700	0.114300
C511	C51	0.720600	0.554500	0.142500
C521	C52	0.662300	0.496100	0.063500
C531	C53	0.080100	0.484600	0.813900
C541	C54	0.301100	0.629900	0.883700
C551	C55	0.264700	0.862200	0.186500
C561	C56	0.214900	0.806700	0.224100
C571	C57	0.314400	0.734200	0.237000
C581	C58	0.264400	0.657700	0.266800
C591	C59	0.363800	0.588300	0.281200
C601	C60	0.313800	0.506900	0.307600
C611	C61	0.228400	0.436200	0.277900
C621	C62	0.188900	0.352900	0.305600
C631	C63	0.121500	0.388400	0.349100
C641	C64	0.349700	0.248200	0.421300
C651	C65	0.404900	0.165500	0.346200
C661	C66	0.506600	0.241300	0.364200
C671	C67	0.592100	0.084300	0.350200
C681	C68	0.516100	0.366700	0.442500
C691	C69	0.736100	0.217700	0.381600
C701	C70	0.570100	0.324800	0.523800
C711	C71	0.730900	0.310000	0.466800
C721	C72	0.779400	0.281800	0.515100
C731	C73	0.823000	0.156200	0.453400
C741	C74	0.681000	0.287300	0.597000
C751	C75	0.914900	0.144600	0.532500
C761	C76	0.603800	0.152500	0.637500
C771	C77	0.811900	0.141700	0.614300
C781	C78	0.779400	0.054500	0.642500
C791	C79	0.837700	0.996100	0.563500
C801	C80	0.419900	0.984600	0.313900
C811	C81	0.198900	0.129900	0.383700
C821	C82	0.764700	0.637800	0.313500
C831	C83	0.714900	0.693300	0.275900
C841	C84	0.814400	0.765800	0.263000
C851	C85	0.764400	0.842300	0.233200
C861	C86	0.863800	0.911700	0.218800
C871	C87	0.813800	0.993100	0.192400
C881	C88	0.728400	0.063800	0.222100
C891	C89	0.688900	0.147100	0.194400
C901	C90	0.621500	0.111600	0.150900
C911	C91	0.849700	0.251800	0.078700
C921	C92	0.904900	0.334500	0.153800
C931	C93	0.006600	0.258700	0.135800
C941	C94	0.092100	0.415700	0.149800
C951	C95	0.016100	0.133300	0.057500
C961	C96	0.236100	0.282300	0.118400
C971	C97	0.070100	0.175200	0.976200
C981	C98	0.230900	0.190000	0.033200
C991	C99	0.279400	0.218200	0.984900
C1001	C100	0.323000	0.343800	0.046600
C1011	C101	0.181000	0.212700	0.903000
C1021	C102	0.414900	0.355400	0.967500
C1031	C103	0.103800	0.347500	0.862500
C1041	C104	0.311900	0.358300	0.885700
C1051	C105	0.279400	0.445500	0.857500
C1061	C106	0.337700	0.503900	0.936500
C1071	C107	0.919900	0.515400	0.186100
C1081	C108	0.698900	0.370100	0.116300
N11	N1	0.685100	0.821100	0.614900
N21	N2	0.540200	0.714700	0.589400
N31	N3	0.385300	0.818700	0.634000
N41	N4	0.530700	0.926500	0.658900
N51	N5	0.398700	0.670800	0.523300
N61	N6	0.332000	0.711100	0.454500
N71	N7	0.174300	0.816300	0.497900
N81	N8	0.245500	0.776800	0.567200
N91	N9	0.306500	0.810700	0.388300
N101	N10	0.347300	0.924700	0.342500
N111	N11	0.208300	0.028400	0.394000
N121	N12	0.140900	0.905600	0.429900
N131	N13	0.185100	0.678900	0.885100
N141	N14	0.040200	0.785300	0.910600
N151	N15	0.885300	0.681300	0.866000
N161	N16	0.030700	0.573500	0.841100
N171	N17	0.898700	0.829200	0.976700
N181	N18	0.832000	0.788900	0.045500
N191	N19	0.674300	0.683700	0.002100
N201	N20	0.745500	0.723200	0.932800
N211	N21	0.806500	0.689300	0.111700
N221	N22	0.847300	0.575300	0.157500
N231	N23	0.708300	0.471600	0.106000
N241	N24	0.640900	0.594400	0.070100
N251	N25	0.314900	0.178900	0.385100
N261	N26	0.459800	0.285300	0.410600
N271	N27	0.614700	0.181300	0.366000
N281	N28	0.469300	0.073500	0.341100
N291	N29	0.601300	0.329200	0.476700
N301	N30	0.668000	0.288900	0.545500
N311	N31	0.825700	0.183700	0.502100
N321	N32	0.754500	0.223200	0.432800
N331	N33	0.693500	0.189300	0.611700
N341	N34	0.652700	0.075300	0.657500
N351	N35	0.791700	0.971600	0.606000
N361	N36	0.859100	0.094400	0.570100
N371	N37	0.814900	0.321100	0.114900
N381	N38	0.959800	0.214700	0.089400
N391	N39	0.114700	0.318700	0.134000
N401	N40	0.969300	0.426500	0.158900
N411	N41	0.101300	0.170800	0.023300
N421	N42	0.168000	0.211100	0.954500
N431	N43	0.325700	0.316300	0.997900
N441	N44	0.254500	0.276800	0.067200
N451	N45	0.193500	0.310700	0.888300
N461	N46	0.152700	0.424700	0.842500
N471	N47	0.291700	0.528400	0.894000
N481	N48	0.359100	0.405600	0.929900
O11	O1	0.762600	0.500500	0.525600
O21	O2	0.985500	0.689000	0.526100
O31	O3	0.769600	0.460400	0.385300
O41	O4	0.997500	0.648000	0.388000
O51	O5	0.971300	0.507400	0.453600
O61	O6	0.784500	0.637500	0.454100
O71	O7	0.766100	0.158700	0.856400
O81	O8	0.660000	0.066300	0.801600
O91	O9	0.847900	0.626100	0.610100
O101	O10	0.980900	0.563100	0.655900
O111	O11	0.715600	0.722700	0.543200
O121	O12	0.329300	0.979700	0.656400
O131	O13	0.527900	0.651700	0.456300
O141	O14	0.129200	0.916300	0.567600
O151	O15	0.502800	0.816500	0.356700
O161	O16	0.143800	0.059400	0.473100
O171	O17	0.262600	0.999500	0.974400
O181	O18	0.485500	0.811000	0.973900
O191	O19	0.269600	0.039600	0.114700
O201	O20	0.497500	0.852000	0.112000
O211	O21	0.471300	0.992600	0.046400
O221	O22	0.284500	0.862500	0.045900
O231	O23	0.266100	0.341300	0.643600
O241	O24	0.160000	0.433700	0.698400
O251	O25	0.347900	0.873900	0.889900
O261	O26	0.480900	0.936900	0.844100
O271	O27	0.215600	0.777300	0.956800
O281	O28	0.829300	0.520300	0.843600
O291	O29	0.027900	0.848300	0.043700
O301	O30	0.629200	0.583700	0.932400
O311	O31	0.002800	0.683500	0.143300
O321	O32	0.643800	0.440600	0.026900
O331	O33	0.237400	0.499500	0.474400
O341	O34	0.014500	0.311000	0.473900
O351	O35	0.230400	0.539600	0.614700
O361	O36	0.002500	0.352000	0.612000
O371	O37	0.028700	0.492600	0.546400
O381	O38	0.215500	0.362500	0.545900
O391	O39	0.233900	0.841300	0.143600
O401	O40	0.340000	0.933700	0.198400
O411	O41	0.152100	0.373900	0.389900
O421	O42	0.019100	0.436900	0.344100
O431	O43	0.284400	0.277300	0.456800
O441	O44	0.670700	0.020300	0.343600
O451	O45	0.472100	0.348300	0.543700
O461	O46	0.870800	0.083700	0.432400
O471	O47	0.497200	0.183500	0.643300
O481	O48	0.856200	0.940600	0.526900
O491	O49	0.737400	0.000500	0.025600
O501	O50	0.514500	0.189000	0.026100
O511	O51	0.730400	0.960400	0.885300
O521	O52	0.502500	0.148000	0.888000
O531	O53	0.528700	0.007400	0.953600
O541	O54	0.715500	0.137500	0.954100
O551	O55	0.733900	0.658700	0.356400
O561	O56	0.840000	0.566300	0.301600
O571	O57	0.652100	0.126100	0.110100
O581	O58	0.519100	0.063100	0.155900
O591	O59	0.784400	0.222700	0.043200
O601	O60	0.170700	0.479700	0.156400
O611	O61	0.972100	0.151700	0.956300
O621	O62	0.370800	0.416300	0.067600
O631	O63	0.997200	0.316500	0.856700
O641	O64	0.356200	0.559400	0.973100
H1331	H133	0.713900	0.776300	0.453300
H1341	H134	0.638800	0.784200	0.411000
H1351	H135	0.646600	0.921200	0.490300
H1361	H136	0.533600	0.853000	0.475500
H1371	H137	0.570100	0.934300	0.444100
H1381	H138	0.753200	0.912200	0.394000
H1391	H139	0.831100	0.816500	0.392700
H1401	H140	0.837400	0.896300	0.437800
C1091	C109	0.601300	0.887800	0.463600
C1101	C110	0.784800	0.864700	0.412900
N491	N49	0.683400	0.818500	0.434500
H1411	H141	0.213900	0.723700	0.046700
H1421	H142	0.138800	0.715800	0.089000
H1431	H143	0.146600	0.578800	0.009700
H1441	H144	0.033600	0.647000	0.024500
H1451	H145	0.070100	0.565700	0.055900
H1461	H146	0.253200	0.587800	0.106000
H1471	H147	0.331100	0.683500	0.107300
H1481	H148	0.337400	0.603700	0.062200
C1111	C111	0.101300	0.612200	0.036400
C1121	C112	0.284800	0.635300	0.087100
N501	N50	0.183400	0.681500	0.065500
H1491	H149	0.286100	0.223700	0.546700
H1501	H150	0.361200	0.215800	0.589000
H1511	H151	0.353400	0.078800	0.509700
H1521	H152	0.466400	0.147000	0.524500
H1531	H153	0.429900	0.065700	0.555900
H1541	H154	0.246800	0.087800	0.606000
H1551	H155	0.168900	0.183500	0.607300
H1561	H156	0.162600	0.103700	0.562200
C1131	C113	0.398700	0.112200	0.536400
C1141	C114	0.215200	0.135300	0.587100
N511	N51	0.316600	0.181500	0.565500
H1571	H157	0.786100	0.276300	0.953300
H1581	H158	0.861200	0.284200	0.911000
H1591	H159	0.853400	0.421200	0.990300
H1601	H160	0.966400	0.353000	0.975500
H1611	H161	0.929900	0.434300	0.944100
H1621	H162	0.746800	0.412200	0.894000
H1631	H163	0.668900	0.316500	0.892700
H1641	H164	0.662600	0.396300	0.937800
C1151	C115	0.898700	0.387800	0.963600
C1161	C116	0.715200	0.364700	0.912900
N521	N52	0.816600	0.318500	0.934500
