data_AWEVIJ_clean_PM
_symmetry_space_group_name_H-M	'P1'
_cell_length_a	38.531000
_cell_length_b	20.840000
_cell_length_c	38.688000
_cell_angle_alpha	90.000000
_cell_angle_beta	91.600000
_cell_angle_gamma	90.000000
_symmetry_Int_Tables_number 1

loop_
_symmetry_equiv_pos_as_xyz
'x,y,z'

loop_
_atom_site_label
_atom_site_type_symbol
_atom_site_fract_x
_atom_site_fract_y
_atom_site_fract_z
C11	C1	0.308700	0.470500	0.022200
H11	H1	0.309900	0.429300	0.011800
C21	C2	0.338700	0.506600	0.027300
H21	H2	0.360400	0.490000	0.020500
C31	C3	0.336900	0.566900	0.042500
C41	C4	0.305100	0.591100	0.052500
C51	C5	0.275100	0.555000	0.047300
C61	C6	0.276900	0.494700	0.032200
H31	H3	0.256300	0.470000	0.028600
O11	O1	0.302400	0.655800	0.058500
C71	C7	0.291800	0.692400	0.029500
H41	H4	0.266200	0.691000	0.026300
H51	H5	0.302300	0.675100	0.008300
C81	C8	0.304400	0.763900	0.036100
C91	C9	0.282000	0.814000	0.044000
H61	H6	0.257800	0.806400	0.045500
C101	C10	0.295000	0.873200	0.049500
H71	H7	0.280400	0.907500	0.056200
C111	C11	0.330500	0.883100	0.045200
H81	H8	0.339800	0.924100	0.051000
N11	N1	0.352700	0.837900	0.033400
C121	C12	0.338600	0.775900	0.029100
H91	H9	0.352800	0.742000	0.021400
C131	C13	0.240100	0.576000	0.059300
H101	H10	0.222300	0.568200	0.040800
H111	H11	0.240500	0.622500	0.064500
C141	C14	0.204600	0.445600	0.116900
H121	H12	0.191000	0.407800	0.114500
C151	C15	0.211100	0.483200	0.088100
H131	H13	0.202000	0.471000	0.066000
C161	C16	0.231000	0.538500	0.091700
C171	C17	0.244400	0.556400	0.124000
C181	C18	0.237800	0.518800	0.152800
C191	C19	0.217900	0.463400	0.149200
H141	H14	0.213400	0.437800	0.168900
O21	O2	0.262900	0.610300	0.128000
C201	C20	0.309600	0.788900	0.129600
H151	H15	0.333800	0.792300	0.126000
C211	C21	0.294300	0.730100	0.130600
H161	H16	0.307700	0.692000	0.128900
C221	C22	0.260300	0.727500	0.134000
C231	C23	0.240900	0.781200	0.140000
H171	H17	0.216900	0.776800	0.144500
N21	N2	0.255600	0.841900	0.139500
C241	C24	0.289800	0.844100	0.133900
H181	H18	0.300900	0.884700	0.132800
C251	C25	0.237800	0.662500	0.134900
H191	H19	0.227400	0.656700	0.157800
H201	H20	0.219000	0.663400	0.116900
C261	C26	0.253600	0.535600	0.188500
H211	H21	0.239000	0.516200	0.206500
H221	H22	0.252800	0.582700	0.191600
C271	C27	0.328500	0.421000	0.205000
H231	H23	0.331100	0.376500	0.209700
C281	C28	0.295400	0.447400	0.201400
H241	H24	0.275500	0.420900	0.203600
C291	C29	0.291500	0.512500	0.194500
C301	C30	0.320600	0.551200	0.191300
C311	C31	0.353600	0.524900	0.195000
C321	C32	0.357500	0.459800	0.201800
H251	H25	0.380100	0.441800	0.204400
O31	O3	0.315100	0.616200	0.185500
C331	C33	0.323200	0.654400	0.216400
H261	H26	0.343600	0.636000	0.229000
H271	H27	0.328900	0.699000	0.209700
C341	C34	0.292000	0.654500	0.239800
C351	C35	0.261200	0.679900	0.231000
H281	H28	0.259900	0.706400	0.211000
C361	C36	0.230600	0.670800	0.248900
H291	H29	0.208400	0.684700	0.240600
C371	C37	0.236500	0.636700	0.282600
H301	H30	0.217800	0.632500	0.297800
N31	N3	0.268600	0.611200	0.292300
C381	C38	0.296100	0.617900	0.272100
H311	H31	0.317800	0.599300	0.278500
C391	C39	0.385300	0.561500	0.185400
H321	H32	0.404600	0.551100	0.201800
H331	H33	0.380600	0.608100	0.187000
C401	C40	0.419400	0.470600	0.106700
H341	H34	0.432000	0.432600	0.101900
C411	C41	0.414500	0.489100	0.140700
H351	H35	0.423700	0.463700	0.159200
C421	C42	0.396000	0.544700	0.147800
C431	C43	0.382500	0.581800	0.120700
C441	C44	0.387400	0.563400	0.086700
C451	C45	0.405800	0.507800	0.079700
H361	H36	0.409200	0.495200	0.056400
O41	O4	0.369300	0.642300	0.126000
C461	C46	0.396100	0.691800	0.135400
H371	H37	0.384700	0.731000	0.144000
H381	H38	0.412000	0.675200	0.153800
C471	C47	0.414800	0.706300	0.105800
C481	C48	0.443600	0.672200	0.095700
H391	H39	0.453300	0.639500	0.110100
C491	C49	0.458700	0.687300	0.062400
H401	H40	0.476600	0.661600	0.053200
C501	C50	0.446000	0.739900	0.045000
H411	H41	0.456800	0.750900	0.024100
N41	N4	0.419600	0.777400	0.054600
C511	C51	0.406500	0.760700	0.084900
H421	H42	0.389500	0.788800	0.093700
C521	C52	0.369300	0.598400	0.053900
H431	H43	0.364400	0.643600	0.059900
H441	H44	0.385600	0.598500	0.034600
C531	C53	0.370200	0.342600	0.047600
H451	H45	0.369500	0.381200	0.060700
C541	C54	0.401600	0.320100	0.035700
H461	H46	0.422400	0.343300	0.040700
C551	C55	0.402700	0.263700	0.016700
C561	C56	0.372300	0.229700	0.009500
C571	C57	0.340800	0.252200	0.021400
C581	C58	0.339800	0.308600	0.040500
H471	H47	0.318300	0.324000	0.048600
O51	O5	0.373800	0.174100	0.989000
C591	C59	0.379200	0.117600	0.012400
H481	H48	0.401200	0.122600	0.026000
H491	H49	0.360000	0.114700	0.028800
C601	C60	0.380500	0.061600	0.992400
C611	C61	0.376700	0.055700	0.957900
H501	H50	0.372600	0.093700	0.944900
C621	C62	0.378400	0.999100	0.940300
H511	H51	0.376000	0.996800	0.915800
C631	C63	0.384200	0.943600	0.961500
H521	H52	0.385100	0.902700	0.950700
N51	N5	0.388400	0.946700	0.995700
C641	C64	0.386000	0.004200	0.010000
H531	H53	0.388300	0.006500	0.034500
C651	C65	0.306400	0.215800	0.010100
H541	H54	0.310800	0.169200	0.008500
H551	H55	0.288400	0.222800	0.027500
C661	C66	0.269400	0.327100	0.938600
H561	H56	0.259600	0.368800	0.936500
C671	C67	0.279200	0.303400	0.971000
H571	H57	0.276100	0.328900	0.991000
C681	C68	0.293500	0.242400	0.974100
C691	C69	0.298100	0.205100	0.944800
C701	C70	0.288300	0.228800	0.912400
C711	C71	0.274000	0.289800	0.909300
H581	H58	0.267300	0.306100	0.887100
O61	O6	0.306200	0.137300	0.945200
C721	C72	0.275300	0.100700	0.954500
H591	H59	0.271900	0.102400	0.979700
H601	H60	0.254300	0.118200	0.942500
C731	C73	0.281600	0.035000	0.943400
C741	C74	0.293000	0.984100	0.966900
H611	H61	0.297300	0.994000	0.990600
C751	C75	0.297500	0.922400	0.955700
H621	H62	0.304800	0.890400	0.971800
C761	C76	0.291600	0.905900	0.921800
H631	H63	0.294400	0.862700	0.914600
N61	N6	0.281500	0.952400	0.898000
C771	C77	0.276800	0.017600	0.907800
H641	H64	0.270500	0.049100	0.891000
C781	C78	0.299000	0.193300	0.877500
H651	H65	0.306700	0.149000	0.882700
H661	H66	0.278800	0.191200	0.861200
C791	C79	0.353200	0.326600	0.833600
H671	H67	0.349800	0.366100	0.821700
C801	C80	0.324700	0.290600	0.843400
H681	H68	0.301900	0.305500	0.838300
C811	C81	0.329700	0.232700	0.860700
C821	C82	0.363200	0.210900	0.868200
C831	C83	0.391700	0.246900	0.858400
C841	C84	0.386600	0.304700	0.841000
H691	H69	0.406100	0.329300	0.834300
O71	O7	0.370900	0.151700	0.883100
C851	C85	0.380000	0.101000	0.857500
H701	H70	0.398500	0.117400	0.842600
H711	H71	0.389200	0.063000	0.870100
C861	C86	0.352200	0.083000	0.837300
C871	C87	0.337100	0.117700	0.804800
H721	H72	0.348200	0.154200	0.795400
C881	C88	0.306700	0.093000	0.790200
H731	H73	0.297100	0.114900	0.770600
C891	C89	0.290300	0.043300	0.800600
H741	H74	0.268900	0.032000	0.789400
N71	N7	0.303400	0.004200	0.828600
C901	C90	0.331700	0.023800	0.844100
H751	H75	0.340500	0.997100	0.862200
C911	C91	0.430300	0.230700	0.869000
H761	H76	0.432900	0.183600	0.870900
H771	H77	0.445600	0.245600	0.850500
C921	C92	0.456000	0.362400	0.931700
H781	H78	0.461900	0.406500	0.930300
C931	C93	0.450600	0.326800	0.901600
H791	H79	0.452900	0.346600	0.879700
C941	C94	0.441900	0.262200	0.903700
C951	C95	0.438600	0.233200	0.935800
C961	C96	0.444000	0.268800	0.965800
C971	C97	0.452700	0.333400	0.963800
H801	H80	0.456400	0.357700	0.984300
O81	O8	0.431600	0.168200	0.939600
C981	C98	0.457600	0.126400	0.928600
C991	C99	0.496900	0.075900	0.016300
C1001	C100	0.473600	0.083400	0.988800
H811	H81	0.450200	0.070400	0.991300
C1011	C101	0.483400	0.109600	0.957400
C1021	C102	0.517800	0.122700	0.956200
H821	H82	0.525000	0.140200	0.934900
N81	N8	0.544500	0.114800	0.981200
C1031	C103	0.531600	0.091500	0.013200
H831	H83	0.547000	0.086800	0.032600
C1041	C104	0.436900	0.240300	0.001800
H841	H84	0.436400	0.192900	0.000000
H851	H85	0.456300	0.252000	0.018000
Zn11	Zn1	0.273510	0.925240	0.844350
Zn21	Zn2	0.405010	0.861330	0.025880
N91	N9	0.323600	0.873100	0.851200
C1051	C105	0.348300	0.852000	0.854500
C1061	C106	0.383700	0.822500	0.862400
H861	H86	0.401900	0.851600	0.854700
H871	H87	0.385600	0.781400	0.850200
H881	H88	0.386600	0.815200	0.887300
C1071	C107	0.808700	0.970500	0.522200
H891	H89	0.809900	0.929300	0.511800
C1081	C108	0.838700	0.006600	0.527300
H901	H90	0.860400	0.990000	0.520500
C1091	C109	0.836900	0.066900	0.542500
C1101	C110	0.805100	0.091100	0.552500
C1111	C111	0.775100	0.055000	0.547300
C1121	C112	0.776900	0.994700	0.532200
H911	H91	0.756300	0.970000	0.528600
O91	O9	0.802400	0.155800	0.558500
C1131	C113	0.791800	0.192400	0.529500
H921	H92	0.766200	0.191000	0.526300
H931	H93	0.802300	0.175100	0.508300
C1141	C114	0.804400	0.263900	0.536100
C1151	C115	0.782000	0.314000	0.544000
H941	H94	0.757800	0.306400	0.545500
C1161	C116	0.795000	0.373200	0.549500
H951	H95	0.780400	0.407500	0.556200
C1171	C117	0.830500	0.383100	0.545200
H961	H96	0.839800	0.424100	0.551000
N101	N10	0.852700	0.337900	0.533400
C1181	C118	0.838600	0.275900	0.529100
H971	H97	0.852800	0.242000	0.521400
C1191	C119	0.740100	0.076000	0.559300
H981	H98	0.722300	0.068200	0.540800
H991	H99	0.740500	0.122500	0.564500
C1201	C120	0.704600	0.945600	0.616900
H1001	H100	0.691000	0.907800	0.614500
C1211	C121	0.711100	0.983200	0.588100
H1011	H101	0.702000	0.971000	0.566000
C1221	C122	0.731000	0.038500	0.591700
C1231	C123	0.744400	0.056400	0.624000
C1241	C124	0.737800	0.018800	0.652800
C1251	C125	0.717900	0.963400	0.649200
H1021	H102	0.713400	0.937800	0.668900
O101	O10	0.762900	0.110300	0.628000
C1261	C126	0.809600	0.288900	0.629600
H1031	H103	0.833800	0.292300	0.626000
C1271	C127	0.794300	0.230100	0.630600
H1041	H104	0.807700	0.192000	0.628900
C1281	C128	0.760300	0.227500	0.634000
C1291	C129	0.740900	0.281200	0.640000
H1051	H105	0.716900	0.276800	0.644500
N111	N11	0.755600	0.341900	0.639500
C1301	C130	0.789800	0.344100	0.633900
H1061	H106	0.800900	0.384700	0.632800
C1311	C131	0.737800	0.162500	0.634900
H1071	H107	0.727400	0.156700	0.657800
H1081	H108	0.719000	0.163400	0.616900
C1321	C132	0.753600	0.035600	0.688500
H1091	H109	0.739000	0.016200	0.706500
H1101	H110	0.752800	0.082700	0.691600
C1331	C133	0.828500	0.921000	0.705000
H1111	H111	0.831100	0.876500	0.709700
C1341	C134	0.795400	0.947400	0.701400
H1121	H112	0.775500	0.920900	0.703600
C1351	C135	0.791500	0.012500	0.694500
C1361	C136	0.820600	0.051200	0.691300
C1371	C137	0.853600	0.024900	0.695000
C1381	C138	0.857500	0.959800	0.701800
H1131	H113	0.880100	0.941800	0.704400
O111	O11	0.815100	0.116200	0.685500
C1391	C139	0.823200	0.154400	0.716400
H1141	H114	0.843600	0.136000	0.729000
H1151	H115	0.828900	0.199000	0.709700
C1401	C140	0.792000	0.154500	0.739800
C1411	C141	0.761200	0.179900	0.731000
H1161	H116	0.759900	0.206400	0.711000
C1421	C142	0.730600	0.170800	0.748900
H1171	H117	0.708400	0.184700	0.740600
C1431	C143	0.736500	0.136700	0.782600
H1181	H118	0.717800	0.132500	0.797800
N121	N12	0.768600	0.111200	0.792300
C1441	C144	0.796100	0.117900	0.772100
H1191	H119	0.817800	0.099300	0.778500
C1451	C145	0.885300	0.061500	0.685400
H1201	H120	0.904600	0.051100	0.701800
H1211	H121	0.880600	0.108100	0.687000
C1461	C146	0.919400	0.970600	0.606700
H1221	H122	0.932000	0.932600	0.601900
C1471	C147	0.914500	0.989100	0.640700
H1231	H123	0.923700	0.963700	0.659200
C1481	C148	0.896000	0.044700	0.647800
C1491	C149	0.882500	0.081800	0.620700
C1501	C150	0.887400	0.063400	0.586700
C1511	C151	0.905800	0.007800	0.579700
H1241	H124	0.909200	0.995200	0.556400
O121	O12	0.869300	0.142300	0.626000
C1521	C152	0.896100	0.191800	0.635400
H1251	H125	0.884700	0.231000	0.644000
H1261	H126	0.912000	0.175200	0.653800
C1531	C153	0.914800	0.206300	0.605800
C1541	C154	0.943600	0.172200	0.595700
H1271	H127	0.953300	0.139500	0.610100
C1551	C155	0.958700	0.187300	0.562400
H1281	H128	0.976600	0.161600	0.553200
C1561	C156	0.946000	0.239900	0.545000
H1291	H129	0.956800	0.250900	0.524100
N131	N13	0.919600	0.277400	0.554600
C1571	C157	0.906500	0.260700	0.584900
H1301	H130	0.889500	0.288800	0.593700
C1581	C158	0.869300	0.098400	0.553900
H1311	H131	0.864400	0.143600	0.559900
H1321	H132	0.885600	0.098500	0.534600
C1591	C159	0.870200	0.842600	0.547600
H1331	H133	0.869500	0.881200	0.560700
C1601	C160	0.901600	0.820100	0.535700
H1341	H134	0.922400	0.843300	0.540700
C1611	C161	0.902700	0.763700	0.516700
C1621	C162	0.872300	0.729700	0.509500
C1631	C163	0.840800	0.752200	0.521400
C1641	C164	0.839800	0.808600	0.540500
H1351	H135	0.818300	0.824000	0.548600
O131	O13	0.873800	0.674100	0.489000
C1651	C165	0.879200	0.617600	0.512400
H1361	H136	0.901200	0.622600	0.526000
H1371	H137	0.860000	0.614700	0.528800
C1661	C166	0.880500	0.561600	0.492400
C1671	C167	0.876700	0.555700	0.457900
H1381	H138	0.872600	0.593700	0.444900
C1681	C168	0.878400	0.499100	0.440300
H1391	H139	0.876000	0.496800	0.415800
C1691	C169	0.884200	0.443600	0.461500
H1401	H140	0.885100	0.402700	0.450700
N141	N14	0.888400	0.446700	0.495700
C1701	C170	0.886000	0.504200	0.510000
H1411	H141	0.888300	0.506500	0.534500
C1711	C171	0.806400	0.715800	0.510100
H1421	H142	0.810800	0.669200	0.508500
H1431	H143	0.788400	0.722800	0.527500
C1721	C172	0.769400	0.827100	0.438600
H1441	H144	0.759600	0.868800	0.436500
C1731	C173	0.779200	0.803400	0.471000
H1451	H145	0.776100	0.828900	0.491000
C1741	C174	0.793500	0.742400	0.474100
C1751	C175	0.798100	0.705100	0.444800
C1761	C176	0.788300	0.728800	0.412400
C1771	C177	0.774000	0.789800	0.409300
H1461	H146	0.767300	0.806100	0.387100
O141	O14	0.806200	0.637300	0.445200
C1781	C178	0.775300	0.600700	0.454500
H1471	H147	0.771900	0.602400	0.479700
H1481	H148	0.754300	0.618200	0.442500
C1791	C179	0.781600	0.535000	0.443400
C1801	C180	0.793000	0.484100	0.466900
H1491	H149	0.797300	0.494000	0.490600
C1811	C181	0.797500	0.422400	0.455700
H1501	H150	0.804800	0.390400	0.471800
C1821	C182	0.791600	0.405900	0.421800
H1511	H151	0.794400	0.362700	0.414600
N151	N15	0.781500	0.452400	0.398000
C1831	C183	0.776800	0.517600	0.407800
H1521	H152	0.770500	0.549100	0.391000
C1841	C184	0.799000	0.693300	0.377500
H1531	H153	0.806700	0.649000	0.382700
H1541	H154	0.778800	0.691200	0.361200
C1851	C185	0.853200	0.826600	0.333600
H1551	H155	0.849800	0.866100	0.321700
C1861	C186	0.824700	0.790600	0.343400
H1561	H156	0.801900	0.805500	0.338300
C1871	C187	0.829700	0.732700	0.360700
C1881	C188	0.863200	0.710900	0.368200
C1891	C189	0.891700	0.746900	0.358400
C1901	C190	0.886600	0.804700	0.341000
H1571	H157	0.906100	0.829300	0.334300
O151	O15	0.870900	0.651700	0.383100
C1911	C191	0.880000	0.601000	0.357500
H1581	H158	0.898500	0.617400	0.342600
H1591	H159	0.889200	0.563000	0.370100
C1921	C192	0.852200	0.583000	0.337300
C1931	C193	0.837100	0.617700	0.304800
H1601	H160	0.848200	0.654200	0.295400
C1941	C194	0.806700	0.593000	0.290200
H1611	H161	0.797100	0.614900	0.270600
C1951	C195	0.790300	0.543300	0.300600
H1621	H162	0.768900	0.532000	0.289400
N161	N16	0.803400	0.504200	0.328600
C1961	C196	0.831700	0.523800	0.344100
H1631	H163	0.840500	0.497100	0.362200
C1971	C197	0.930300	0.730700	0.369000
H1641	H164	0.932900	0.683600	0.370900
H1651	H165	0.945600	0.745600	0.350500
C1981	C198	0.956000	0.862400	0.431700
H1661	H166	0.961900	0.906500	0.430300
C1991	C199	0.950600	0.826800	0.401600
H1671	H167	0.952900	0.846600	0.379700
C2001	C200	0.941900	0.762200	0.403700
C2011	C201	0.938600	0.733200	0.435800
C2021	C202	0.944000	0.768800	0.465800
C2031	C203	0.952700	0.833400	0.463800
H1681	H168	0.956400	0.857700	0.484300
O161	O16	0.931600	0.668200	0.439600
C2041	C204	0.957600	0.626400	0.428600
C2051	C205	0.996900	0.575900	0.516300
C2061	C206	0.973600	0.583400	0.488800
H1691	H169	0.950200	0.570400	0.491300
C2071	C207	0.983400	0.609600	0.457400
C2081	C208	0.017800	0.622700	0.456200
H1701	H170	0.025000	0.640200	0.434900
N171	N17	0.044500	0.614800	0.481200
C2091	C209	0.031600	0.591500	0.513200
H1711	H171	0.047000	0.586800	0.532600
C2101	C210	0.936900	0.740300	0.501800
H1721	H172	0.936400	0.692900	0.500000
H1731	H173	0.956300	0.752000	0.518000
Zn31	Zn3	0.773510	0.425240	0.344350
Zn41	Zn4	0.905010	0.361330	0.525880
N181	N18	0.823600	0.373100	0.351200
C2111	C211	0.848300	0.352000	0.354500
C2121	C212	0.883700	0.322500	0.362400
H1741	H174	0.901900	0.351600	0.354700
H1751	H175	0.885600	0.281400	0.350200
H1761	H176	0.886600	0.315200	0.387300
C2131	C213	0.191300	0.470500	0.977800
H1771	H177	0.190100	0.429300	0.988200
C2141	C214	0.161300	0.506600	0.972700
H1781	H178	0.139600	0.490000	0.979500
C2151	C215	0.163100	0.566900	0.957500
C2161	C216	0.194900	0.591100	0.947500
C2171	C217	0.224900	0.555000	0.952700
C2181	C218	0.223100	0.494700	0.967800
H1791	H179	0.243700	0.470000	0.971400
O171	O17	0.197600	0.655800	0.941500
C2191	C219	0.208200	0.692400	0.970500
H1801	H180	0.233800	0.691000	0.973700
H1811	H181	0.197700	0.675100	0.991700
C2201	C220	0.195600	0.763900	0.963900
C2211	C221	0.218000	0.814000	0.956000
H1821	H182	0.242200	0.806400	0.954500
C2221	C222	0.205000	0.873200	0.950500
H1831	H183	0.219600	0.907500	0.943800
C2231	C223	0.169500	0.883100	0.954800
H1841	H184	0.160200	0.924100	0.949000
N191	N19	0.147300	0.837900	0.966600
C2241	C224	0.161400	0.775900	0.970900
H1851	H185	0.147200	0.742000	0.978600
C2251	C225	0.259900	0.576000	0.940700
H1861	H186	0.277700	0.568200	0.959200
H1871	H187	0.259500	0.622500	0.935500
C2261	C226	0.295400	0.445600	0.883100
H1881	H188	0.309000	0.407800	0.885500
C2271	C227	0.288900	0.483200	0.911900
H1891	H189	0.298000	0.471000	0.934000
C2281	C228	0.269000	0.538500	0.908300
C2291	C229	0.255600	0.556400	0.876000
C2301	C230	0.262200	0.518800	0.847200
C2311	C231	0.282100	0.463400	0.850800
H1901	H190	0.286600	0.437800	0.831100
O181	O18	0.237100	0.610300	0.872000
C2321	C232	0.190400	0.788900	0.870400
H1911	H191	0.166200	0.792300	0.874000
C2331	C233	0.205700	0.730100	0.869400
H1921	H192	0.192300	0.692000	0.871100
C2341	C234	0.239700	0.727500	0.866000
C2351	C235	0.259100	0.781200	0.860000
H1931	H193	0.283100	0.776800	0.855500
N201	N20	0.244400	0.841900	0.860500
C2361	C236	0.210200	0.844100	0.866100
H1941	H194	0.199100	0.884700	0.867200
C2371	C237	0.262200	0.662500	0.865100
H1951	H195	0.272600	0.656700	0.842200
H1961	H196	0.281000	0.663400	0.883100
C2381	C238	0.246400	0.535600	0.811500
H1971	H197	0.261000	0.516200	0.793500
H1981	H198	0.247200	0.582700	0.808400
C2391	C239	0.171500	0.421000	0.795000
H1991	H199	0.168900	0.376500	0.790300
C2401	C240	0.204600	0.447400	0.798600
H2001	H200	0.224500	0.420900	0.796400
C2411	C241	0.208500	0.512500	0.805500
C2421	C242	0.179400	0.551200	0.808700
C2431	C243	0.146400	0.524900	0.805000
C2441	C244	0.142500	0.459800	0.798200
H2011	H201	0.119900	0.441800	0.795600
O191	O19	0.184900	0.616200	0.814500
C2451	C245	0.176800	0.654400	0.783600
H2021	H202	0.156400	0.636000	0.771000
H2031	H203	0.171100	0.699000	0.790300
C2461	C246	0.208000	0.654500	0.760200
C2471	C247	0.238800	0.679900	0.769000
H2041	H204	0.240100	0.706400	0.789000
C2481	C248	0.269400	0.670800	0.751100
H2051	H205	0.291600	0.684700	0.759400
C2491	C249	0.263500	0.636700	0.717400
H2061	H206	0.282200	0.632500	0.702200
N211	N21	0.231400	0.611200	0.707700
C2501	C250	0.203900	0.617900	0.727900
H2071	H207	0.182200	0.599300	0.721500
C2511	C251	0.114700	0.561500	0.814600
H2081	H208	0.095400	0.551100	0.798200
H2091	H209	0.119400	0.608100	0.813000
C2521	C252	0.080600	0.470600	0.893300
H2101	H210	0.068000	0.432600	0.898100
C2531	C253	0.085500	0.489100	0.859300
H2111	H211	0.076300	0.463700	0.840800
C2541	C254	0.104000	0.544700	0.852200
C2551	C255	0.117500	0.581800	0.879300
C2561	C256	0.112600	0.563400	0.913300
C2571	C257	0.094200	0.507800	0.920300
H2121	H212	0.090800	0.495200	0.943600
O201	O20	0.130700	0.642300	0.874000
C2581	C258	0.103900	0.691800	0.864600
H2131	H213	0.115300	0.731000	0.856000
H2141	H214	0.088000	0.675200	0.846200
C2591	C259	0.085200	0.706300	0.894200
C2601	C260	0.056400	0.672200	0.904300
H2151	H215	0.046700	0.639500	0.889900
C2611	C261	0.041300	0.687300	0.937600
H2161	H216	0.023400	0.661600	0.946800
C2621	C262	0.054000	0.739900	0.955000
H2171	H217	0.043200	0.750900	0.975900
N221	N22	0.080400	0.777400	0.945400
C2631	C263	0.093500	0.760700	0.915100
H2181	H218	0.110500	0.788800	0.906300
C2641	C264	0.130700	0.598400	0.946100
H2191	H219	0.135600	0.643600	0.940100
H2201	H220	0.114400	0.598500	0.965400
C2651	C265	0.129800	0.342600	0.952400
H2211	H221	0.130500	0.381200	0.939300
C2661	C266	0.098400	0.320100	0.964300
H2221	H222	0.077600	0.343300	0.959300
C2671	C267	0.097300	0.263700	0.983300
C2681	C268	0.127700	0.229700	0.990500
C2691	C269	0.159200	0.252200	0.978600
C2701	C270	0.160200	0.308600	0.959500
H2231	H223	0.181700	0.324000	0.951400
O211	O21	0.126200	0.174100	0.011000
C2711	C271	0.120800	0.117600	0.987600
H2241	H224	0.098800	0.122600	0.974000
H2251	H225	0.140000	0.114700	0.971200
C2721	C272	0.119500	0.061600	0.007600
C2731	C273	0.123300	0.055700	0.042100
H2261	H226	0.127400	0.093700	0.055100
C2741	C274	0.121600	0.999100	0.059700
H2271	H227	0.124000	0.996800	0.084200
C2751	C275	0.115800	0.943600	0.038500
H2281	H228	0.114900	0.902700	0.049300
N231	N23	0.111600	0.946700	0.004300
C2761	C276	0.114000	0.004200	0.990000
H2291	H229	0.111700	0.006500	0.965500
C2771	C277	0.193600	0.215800	0.989900
H2301	H230	0.189200	0.169200	0.991500
H2311	H231	0.211600	0.222800	0.972500
C2781	C278	0.230600	0.327100	0.061400
H2321	H232	0.240400	0.368800	0.063500
C2791	C279	0.220800	0.303400	0.029000
H2331	H233	0.223900	0.328900	0.009000
C2801	C280	0.206500	0.242400	0.025900
C2811	C281	0.201900	0.205100	0.055200
C2821	C282	0.211700	0.228800	0.087600
C2831	C283	0.226000	0.289800	0.090700
H2341	H234	0.232700	0.306100	0.112900
O221	O22	0.193800	0.137300	0.054800
C2841	C284	0.224700	0.100700	0.045500
H2351	H235	0.228100	0.102400	0.020300
H2361	H236	0.245700	0.118200	0.057500
C2851	C285	0.218400	0.035000	0.056600
C2861	C286	0.207000	0.984100	0.033100
H2371	H237	0.202700	0.994000	0.009400
C2871	C287	0.202500	0.922400	0.044300
H2381	H238	0.195200	0.890400	0.028200
C2881	C288	0.208400	0.905900	0.078200
H2391	H239	0.205600	0.862700	0.085400
N241	N24	0.218500	0.952400	0.102000
C2891	C289	0.223200	0.017600	0.092200
H2401	H240	0.229500	0.049100	0.109000
C2901	C290	0.201000	0.193300	0.122500
H2411	H241	0.193300	0.149000	0.117300
H2421	H242	0.221200	0.191200	0.138800
C2911	C291	0.146800	0.326600	0.166400
H2431	H243	0.150200	0.366100	0.178300
C2921	C292	0.175300	0.290600	0.156600
H2441	H244	0.198100	0.305500	0.161700
C2931	C293	0.170300	0.232700	0.139300
C2941	C294	0.136800	0.210900	0.131800
C2951	C295	0.108300	0.246900	0.141600
C2961	C296	0.113400	0.304700	0.159000
H2451	H245	0.093900	0.329300	0.165700
O231	O23	0.129100	0.151700	0.116900
C2971	C297	0.120000	0.101000	0.142500
H2461	H246	0.101500	0.117400	0.157400
H2471	H247	0.110800	0.063000	0.129900
C2981	C298	0.147800	0.083000	0.162700
C2991	C299	0.162900	0.117700	0.195200
H2481	H248	0.151800	0.154200	0.204600
C3001	C300	0.193300	0.093000	0.209800
H2491	H249	0.202900	0.114900	0.229400
C3011	C301	0.209700	0.043300	0.199400
H2501	H250	0.231100	0.032000	0.210600
N251	N25	0.196600	0.004200	0.171400
C3021	C302	0.168300	0.023800	0.155900
H2511	H251	0.159500	0.997100	0.137800
C3031	C303	0.069700	0.230700	0.131000
H2521	H252	0.067100	0.183600	0.129100
H2531	H253	0.054400	0.245600	0.149500
C3041	C304	0.044000	0.362400	0.068300
H2541	H254	0.038100	0.406500	0.069700
C3051	C305	0.049400	0.326800	0.098400
H2551	H255	0.047100	0.346600	0.120300
C3061	C306	0.058100	0.262200	0.096300
C3071	C307	0.061400	0.233200	0.064200
C3081	C308	0.056000	0.268800	0.034200
C3091	C309	0.047300	0.333400	0.036200
H2561	H256	0.043600	0.357700	0.015700
O241	O24	0.068400	0.168200	0.060400
C3101	C310	0.042400	0.126400	0.071400
C3111	C311	0.003100	0.075900	0.983700
C3121	C312	0.026400	0.083400	0.011200
H2571	H257	0.049800	0.070400	0.008700
C3131	C313	0.016600	0.109600	0.042600
C3141	C314	0.982200	0.122700	0.043800
H2581	H258	0.975000	0.140200	0.065100
N261	N26	0.955500	0.114800	0.018800
C3151	C315	0.968400	0.091500	0.986800
H2591	H259	0.953000	0.086800	0.967400
C3161	C316	0.063100	0.240300	0.998200
H2601	H260	0.063600	0.192900	0.000000
H2611	H261	0.043700	0.252000	0.982000
Zn51	Zn5	0.226490	0.925240	0.155650
Zn61	Zn6	0.094990	0.861330	0.974120
N271	N27	0.176400	0.873100	0.148800
C3171	C317	0.151700	0.852000	0.145500
C3181	C318	0.116300	0.822500	0.137600
H2621	H262	0.098100	0.851600	0.145300
H2631	H263	0.114400	0.781400	0.149800
H2641	H264	0.113400	0.815200	0.112700
C3191	C319	0.691300	0.970500	0.477800
H2651	H265	0.690100	0.929300	0.488200
C3201	C320	0.661300	0.006600	0.472700
H2661	H266	0.639600	0.990000	0.479500
C3211	C321	0.663100	0.066900	0.457500
C3221	C322	0.694900	0.091100	0.447500
C3231	C323	0.724900	0.055000	0.452700
C3241	C324	0.723100	0.994700	0.467800
H2671	H267	0.743700	0.970000	0.471400
O251	O25	0.697600	0.155800	0.441500
C3251	C325	0.708200	0.192400	0.470500
H2681	H268	0.733800	0.191000	0.473700
H2691	H269	0.697700	0.175100	0.491700
C3261	C326	0.695600	0.263900	0.463900
C3271	C327	0.718000	0.314000	0.456000
H2701	H270	0.742200	0.306400	0.454500
C3281	C328	0.705000	0.373200	0.450500
H2711	H271	0.719600	0.407500	0.443800
C3291	C329	0.669500	0.383100	0.454800
H2721	H272	0.660200	0.424100	0.449000
N281	N28	0.647300	0.337900	0.466600
C3301	C330	0.661400	0.275900	0.470900
H2731	H273	0.647200	0.242000	0.478600
C3311	C331	0.759900	0.076000	0.440700
H2741	H274	0.777700	0.068200	0.459200
H2751	H275	0.759500	0.122500	0.435500
C3321	C332	0.795400	0.945600	0.383100
H2761	H276	0.809000	0.907800	0.385500
C3331	C333	0.788900	0.983200	0.411900
H2771	H277	0.798000	0.971000	0.434000
C3341	C334	0.769000	0.038500	0.408300
C3351	C335	0.755600	0.056400	0.376000
C3361	C336	0.762200	0.018800	0.347200
C3371	C337	0.782100	0.963400	0.350800
H2781	H278	0.786600	0.937800	0.331100
O261	O26	0.737100	0.110300	0.372000
C3381	C338	0.690400	0.288900	0.370400
H2791	H279	0.666200	0.292300	0.374000
C3391	C339	0.705700	0.230100	0.369400
H2801	H280	0.692300	0.192000	0.371100
C3401	C340	0.739700	0.227500	0.366000
C3411	C341	0.759100	0.281200	0.360000
H2811	H281	0.783100	0.276800	0.355500
N291	N29	0.744400	0.341900	0.360500
C3421	C342	0.710200	0.344100	0.366100
H2821	H282	0.699100	0.384700	0.367200
C3431	C343	0.762200	0.162500	0.365100
H2831	H283	0.772600	0.156700	0.342200
H2841	H284	0.781000	0.163400	0.383100
C3441	C344	0.746400	0.035600	0.311500
H2851	H285	0.761000	0.016200	0.293500
H2861	H286	0.747200	0.082700	0.308400
C3451	C345	0.671500	0.921000	0.295000
H2871	H287	0.668900	0.876500	0.290300
C3461	C346	0.704600	0.947400	0.298600
H2881	H288	0.724500	0.920900	0.296400
C3471	C347	0.708500	0.012500	0.305500
C3481	C348	0.679400	0.051200	0.308700
C3491	C349	0.646400	0.024900	0.305000
C3501	C350	0.642500	0.959800	0.298200
H2891	H289	0.619900	0.941800	0.295600
O271	O27	0.684900	0.116200	0.314500
C3511	C351	0.676800	0.154400	0.283600
H2901	H290	0.656400	0.136000	0.271000
H2911	H291	0.671100	0.199000	0.290300
C3521	C352	0.708000	0.154500	0.260200
C3531	C353	0.738800	0.179900	0.269000
H2921	H292	0.740100	0.206400	0.289000
C3541	C354	0.769400	0.170800	0.251100
H2931	H293	0.791600	0.184700	0.259400
C3551	C355	0.763500	0.136700	0.217400
H2941	H294	0.782200	0.132500	0.202200
N301	N30	0.731400	0.111200	0.207700
C3561	C356	0.703900	0.117900	0.227900
H2951	H295	0.682200	0.099300	0.221500
C3571	C357	0.614700	0.061500	0.314600
H2961	H296	0.595400	0.051100	0.298200
H2971	H297	0.619400	0.108100	0.313000
C3581	C358	0.580600	0.970600	0.393300
H2981	H298	0.568000	0.932600	0.398100
C3591	C359	0.585500	0.989100	0.359300
H2991	H299	0.576300	0.963700	0.340800
C3601	C360	0.604000	0.044700	0.352200
C3611	C361	0.617500	0.081800	0.379300
C3621	C362	0.612600	0.063400	0.413300
C3631	C363	0.594200	0.007800	0.420300
H3001	H300	0.590800	0.995200	0.443600
O281	O28	0.630700	0.142300	0.374000
C3641	C364	0.603900	0.191800	0.364600
H3011	H301	0.615300	0.231000	0.356000
H3021	H302	0.588000	0.175200	0.346200
C3651	C365	0.585200	0.206300	0.394200
C3661	C366	0.556400	0.172200	0.404300
H3031	H303	0.546700	0.139500	0.389900
C3671	C367	0.541300	0.187300	0.437600
H3041	H304	0.523400	0.161600	0.446800
C3681	C368	0.554000	0.239900	0.455000
H3051	H305	0.543200	0.250900	0.475900
N311	N31	0.580400	0.277400	0.445400
C3691	C369	0.593500	0.260700	0.415100
H3061	H306	0.610500	0.288800	0.406300
C3701	C370	0.630700	0.098400	0.446100
H3071	H307	0.635600	0.143600	0.440100
H3081	H308	0.614400	0.098500	0.465400
C3711	C371	0.629800	0.842600	0.452400
H3091	H309	0.630500	0.881200	0.439300
C3721	C372	0.598400	0.820100	0.464300
H3101	H310	0.577600	0.843300	0.459300
C3731	C373	0.597300	0.763700	0.483300
C3741	C374	0.627700	0.729700	0.490500
C3751	C375	0.659200	0.752200	0.478600
C3761	C376	0.660200	0.808600	0.459500
H3111	H311	0.681700	0.824000	0.451400
O291	O29	0.626200	0.674100	0.511000
C3771	C377	0.620800	0.617600	0.487600
H3121	H312	0.598800	0.622600	0.474000
H3131	H313	0.640000	0.614700	0.471200
C3781	C378	0.619500	0.561600	0.507600
C3791	C379	0.623300	0.555700	0.542100
H3141	H314	0.627400	0.593700	0.555100
C3801	C380	0.621600	0.499100	0.559700
H3151	H315	0.624000	0.496800	0.584200
C3811	C381	0.615800	0.443600	0.538500
H3161	H316	0.614900	0.402700	0.549300
N321	N32	0.611600	0.446700	0.504300
C3821	C382	0.614000	0.504200	0.490000
H3171	H317	0.611700	0.506500	0.465500
C3831	C383	0.693600	0.715800	0.489900
H3181	H318	0.689200	0.669200	0.491500
H3191	H319	0.711600	0.722800	0.472500
C3841	C384	0.730600	0.827100	0.561400
H3201	H320	0.740400	0.868800	0.563500
C3851	C385	0.720800	0.803400	0.529000
H3211	H321	0.723900	0.828900	0.509000
C3861	C386	0.706500	0.742400	0.525900
C3871	C387	0.701900	0.705100	0.555200
C3881	C388	0.711700	0.728800	0.587600
C3891	C389	0.726000	0.789800	0.590700
H3221	H322	0.732700	0.806100	0.612900
O301	O30	0.693800	0.637300	0.554800
C3901	C390	0.724700	0.600700	0.545500
H3231	H323	0.728100	0.602400	0.520300
H3241	H324	0.745700	0.618200	0.557500
C3911	C391	0.718400	0.535000	0.556600
C3921	C392	0.707000	0.484100	0.533100
H3251	H325	0.702700	0.494000	0.509400
C3931	C393	0.702500	0.422400	0.544300
H3261	H326	0.695200	0.390400	0.528200
C3941	C394	0.708400	0.405900	0.578200
H3271	H327	0.705600	0.362700	0.585400
N331	N33	0.718500	0.452400	0.602000
C3951	C395	0.723200	0.517600	0.592200
H3281	H328	0.729500	0.549100	0.609000
C3961	C396	0.701000	0.693300	0.622500
H3291	H329	0.693300	0.649000	0.617300
H3301	H330	0.721200	0.691200	0.638800
C3971	C397	0.646800	0.826600	0.666400
H3311	H331	0.650200	0.866100	0.678300
C3981	C398	0.675300	0.790600	0.656600
H3321	H332	0.698100	0.805500	0.661700
C3991	C399	0.670300	0.732700	0.639300
C4001	C400	0.636800	0.710900	0.631800
C4011	C401	0.608300	0.746900	0.641600
C4021	C402	0.613400	0.804700	0.659000
H3331	H333	0.593900	0.829300	0.665700
O311	O31	0.629100	0.651700	0.616900
C4031	C403	0.620000	0.601000	0.642500
H3341	H334	0.601500	0.617400	0.657400
H3351	H335	0.610800	0.563000	0.629900
C4041	C404	0.647800	0.583000	0.662700
C4051	C405	0.662900	0.617700	0.695200
H3361	H336	0.651800	0.654200	0.704600
C4061	C406	0.693300	0.593000	0.709800
H3371	H337	0.702900	0.614900	0.729400
C4071	C407	0.709700	0.543300	0.699400
H3381	H338	0.731100	0.532000	0.710600
N341	N34	0.696600	0.504200	0.671400
C4081	C408	0.668300	0.523800	0.655900
H3391	H339	0.659500	0.497100	0.637800
C4091	C409	0.569700	0.730700	0.631000
H3401	H340	0.567100	0.683600	0.629100
H3411	H341	0.554400	0.745600	0.649500
C4101	C410	0.544000	0.862400	0.568300
H3421	H342	0.538100	0.906500	0.569700
C4111	C411	0.549400	0.826800	0.598400
H3431	H343	0.547100	0.846600	0.620300
C4121	C412	0.558100	0.762200	0.596300
C4131	C413	0.561400	0.733200	0.564200
C4141	C414	0.556000	0.768800	0.534200
C4151	C415	0.547300	0.833400	0.536200
H3441	H344	0.543600	0.857700	0.515700
O321	O32	0.568400	0.668200	0.560400
C4161	C416	0.542400	0.626400	0.571400
C4171	C417	0.503100	0.575900	0.483700
C4181	C418	0.526400	0.583400	0.511200
H3451	H345	0.549800	0.570400	0.508700
C4191	C419	0.516600	0.609600	0.542600
C4201	C420	0.482200	0.622700	0.543800
H3461	H346	0.475000	0.640200	0.565100
N351	N35	0.455500	0.614800	0.518800
C4211	C421	0.468400	0.591500	0.486800
H3471	H347	0.453000	0.586800	0.467400
C4221	C422	0.563100	0.740300	0.498200
H3481	H348	0.563600	0.692900	0.500000
H3491	H349	0.543700	0.752000	0.482000
Zn71	Zn7	0.726490	0.425240	0.655650
Zn81	Zn8	0.594990	0.361330	0.474120
N361	N36	0.676400	0.373100	0.648800
C4231	C423	0.651700	0.352000	0.645500
C4241	C424	0.616300	0.322500	0.637600
H3501	H350	0.598100	0.351600	0.645300
H3511	H351	0.614400	0.281400	0.649800
H3521	H352	0.613400	0.315200	0.612700
C4251	C425	0.691300	0.529500	0.977800
H3531	H353	0.690100	0.570700	0.988200
C4261	C426	0.661300	0.493400	0.972700
H3541	H354	0.639600	0.510000	0.979500
C4271	C427	0.663100	0.433100	0.957500
C4281	C428	0.694900	0.408900	0.947500
C4291	C429	0.724900	0.445000	0.952700
C4301	C430	0.723100	0.505300	0.967800
H3551	H355	0.743700	0.530000	0.971400
O331	O33	0.697600	0.344200	0.941500
C4311	C431	0.708200	0.307600	0.970500
H3561	H356	0.733800	0.309000	0.973700
H3571	H357	0.697700	0.324900	0.991700
C4321	C432	0.695600	0.236100	0.963900
C4331	C433	0.718000	0.186000	0.956000
H3581	H358	0.742200	0.193600	0.954500
C4341	C434	0.705000	0.126800	0.950500
H3591	H359	0.719600	0.092500	0.943800
C4351	C435	0.669500	0.116900	0.954800
H3601	H360	0.660200	0.075900	0.949000
N371	N37	0.647300	0.162100	0.966600
C4361	C436	0.661400	0.224100	0.970900
H3611	H361	0.647200	0.258000	0.978600
C4371	C437	0.759900	0.424000	0.940700
H3621	H362	0.777700	0.431800	0.959200
H3631	H363	0.759500	0.377500	0.935500
C4381	C438	0.795400	0.554400	0.883100
H3641	H364	0.809000	0.592200	0.885500
C4391	C439	0.788900	0.516800	0.911900
H3651	H365	0.798000	0.529000	0.934000
C4401	C440	0.769000	0.461500	0.908300
C4411	C441	0.755600	0.443600	0.876000
C4421	C442	0.762200	0.481200	0.847200
C4431	C443	0.782100	0.536600	0.850800
H3661	H366	0.786600	0.562200	0.831100
O341	O34	0.737100	0.389700	0.872000
C4441	C444	0.690400	0.211100	0.870400
H3671	H367	0.666200	0.207700	0.874000
C4451	C445	0.705700	0.269900	0.869400
H3681	H368	0.692300	0.308000	0.871100
C4461	C446	0.739700	0.272500	0.866000
C4471	C447	0.759100	0.218800	0.860000
H3691	H369	0.783100	0.223200	0.855500
N381	N38	0.744400	0.158100	0.860500
C4481	C448	0.710200	0.155900	0.866100
H3701	H370	0.699100	0.115300	0.867200
C4491	C449	0.762200	0.337500	0.865100
H3711	H371	0.772600	0.343300	0.842200
H3721	H372	0.781000	0.336600	0.883100
C4501	C450	0.746400	0.464400	0.811500
H3731	H373	0.761000	0.483800	0.793500
H3741	H374	0.747200	0.417300	0.808400
C4511	C451	0.671500	0.579000	0.795000
H3751	H375	0.668900	0.623500	0.790300
C4521	C452	0.704600	0.552600	0.798600
H3761	H376	0.724500	0.579100	0.796400
C4531	C453	0.708500	0.487500	0.805500
C4541	C454	0.679400	0.448800	0.808700
C4551	C455	0.646400	0.475100	0.805000
C4561	C456	0.642500	0.540200	0.798200
H3771	H377	0.619900	0.558200	0.795600
O351	O35	0.684900	0.383800	0.814500
C4571	C457	0.676800	0.345600	0.783600
H3781	H378	0.656400	0.364000	0.771000
H3791	H379	0.671100	0.301000	0.790300
C4581	C458	0.708000	0.345500	0.760200
C4591	C459	0.738800	0.320100	0.769000
H3801	H380	0.740100	0.293600	0.789000
C4601	C460	0.769400	0.329200	0.751100
H3811	H381	0.791600	0.315300	0.759400
C4611	C461	0.763500	0.363300	0.717400
H3821	H382	0.782200	0.367500	0.702200
N391	N39	0.731400	0.388800	0.707700
C4621	C462	0.703900	0.382100	0.727900
H3831	H383	0.682200	0.400700	0.721500
C4631	C463	0.614700	0.438500	0.814600
H3841	H384	0.595400	0.448900	0.798200
H3851	H385	0.619400	0.391900	0.813000
C4641	C464	0.580600	0.529400	0.893300
H3861	H386	0.568000	0.567400	0.898100
C4651	C465	0.585500	0.510900	0.859300
H3871	H387	0.576300	0.536300	0.840800
C4661	C466	0.604000	0.455300	0.852200
C4671	C467	0.617500	0.418200	0.879300
C4681	C468	0.612600	0.436600	0.913300
C4691	C469	0.594200	0.492200	0.920300
H3881	H388	0.590800	0.504800	0.943600
O361	O36	0.630700	0.357700	0.874000
C4701	C470	0.603900	0.308200	0.864600
H3891	H389	0.615300	0.269000	0.856000
H3901	H390	0.588000	0.324800	0.846200
C4711	C471	0.585200	0.293700	0.894200
C4721	C472	0.556400	0.327800	0.904300
H3911	H391	0.546700	0.360500	0.889900
C4731	C473	0.541300	0.312700	0.937600
H3921	H392	0.523400	0.338400	0.946800
C4741	C474	0.554000	0.260100	0.955000
H3931	H393	0.543200	0.249100	0.975900
N401	N40	0.580400	0.222600	0.945400
C4751	C475	0.593500	0.239300	0.915100
H3941	H394	0.610500	0.211200	0.906300
C4761	C476	0.630700	0.401600	0.946100
H3951	H395	0.635600	0.356400	0.940100
H3961	H396	0.614400	0.401500	0.965400
C4771	C477	0.629800	0.657400	0.952400
H3971	H397	0.630500	0.618800	0.939300
C4781	C478	0.598400	0.679900	0.964300
H3981	H398	0.577600	0.656700	0.959300
C4791	C479	0.597300	0.736300	0.983300
C4801	C480	0.627700	0.770300	0.990500
C4811	C481	0.659200	0.747800	0.978600
C4821	C482	0.660200	0.691400	0.959500
H3991	H399	0.681700	0.676000	0.951400
O371	O37	0.626200	0.825900	0.011000
C4831	C483	0.620800	0.882400	0.987600
H4001	H400	0.598800	0.877400	0.974000
H4011	H401	0.640000	0.885300	0.971200
C4841	C484	0.619500	0.938400	0.007600
C4851	C485	0.623300	0.944300	0.042100
H4021	H402	0.627400	0.906300	0.055100
C4861	C486	0.621600	0.000900	0.059700
H4031	H403	0.624000	0.003200	0.084200
C4871	C487	0.615800	0.056400	0.038500
H4041	H404	0.614900	0.097300	0.049300
N411	N41	0.611600	0.053300	0.004300
C4881	C488	0.614000	0.995800	0.990000
H4051	H405	0.611700	0.993500	0.965500
C4891	C489	0.693600	0.784200	0.989900
H4061	H406	0.689200	0.830800	0.991500
H4071	H407	0.711600	0.777200	0.972500
C4901	C490	0.730600	0.672900	0.061400
H4081	H408	0.740400	0.631200	0.063500
C4911	C491	0.720800	0.696600	0.029000
H4091	H409	0.723900	0.671100	0.009000
C4921	C492	0.706500	0.757600	0.025900
C4931	C493	0.701900	0.794900	0.055200
C4941	C494	0.711700	0.771200	0.087600
C4951	C495	0.726000	0.710200	0.090700
H4101	H410	0.732700	0.693900	0.112900
O381	O38	0.693800	0.862700	0.054800
C4961	C496	0.724700	0.899300	0.045500
H4111	H411	0.728100	0.897600	0.020300
H4121	H412	0.745700	0.881800	0.057500
C4971	C497	0.718400	0.965000	0.056600
C4981	C498	0.707000	0.015900	0.033100
H4131	H413	0.702700	0.006000	0.009400
C4991	C499	0.702500	0.077600	0.044300
H4141	H414	0.695200	0.109600	0.028200
C5001	C500	0.708400	0.094100	0.078200
H4151	H415	0.705600	0.137300	0.085400
N421	N42	0.718500	0.047600	0.102000
C5011	C501	0.723200	0.982400	0.092200
H4161	H416	0.729500	0.950900	0.109000
C5021	C502	0.701000	0.806700	0.122500
H4171	H417	0.693300	0.851000	0.117300
H4181	H418	0.721200	0.808800	0.138800
C5031	C503	0.646800	0.673400	0.166400
H4191	H419	0.650200	0.633900	0.178300
C5041	C504	0.675300	0.709400	0.156600
H4201	H420	0.698100	0.694500	0.161700
C5051	C505	0.670300	0.767300	0.139300
C5061	C506	0.636800	0.789100	0.131800
C5071	C507	0.608300	0.753100	0.141600
C5081	C508	0.613400	0.695300	0.159000
H4211	H421	0.593900	0.670700	0.165700
O391	O39	0.629100	0.848300	0.116900
C5091	C509	0.620000	0.899000	0.142500
H4221	H422	0.601500	0.882600	0.157400
H4231	H423	0.610800	0.937000	0.129900
C5101	C510	0.647800	0.917000	0.162700
C5111	C511	0.662900	0.882300	0.195200
H4241	H424	0.651800	0.845800	0.204600
C5121	C512	0.693300	0.907000	0.209800
H4251	H425	0.702900	0.885100	0.229400
C5131	C513	0.709700	0.956700	0.199400
H4261	H426	0.731100	0.968000	0.210600
N431	N43	0.696600	0.995800	0.171400
C5141	C514	0.668300	0.976200	0.155900
H4271	H427	0.659500	0.002900	0.137800
C5151	C515	0.569700	0.769300	0.131000
H4281	H428	0.567100	0.816400	0.129100
H4291	H429	0.554400	0.754400	0.149500
C5161	C516	0.544000	0.637600	0.068300
H4301	H430	0.538100	0.593500	0.069700
C5171	C517	0.549400	0.673200	0.098400
H4311	H431	0.547100	0.653400	0.120300
C5181	C518	0.558100	0.737800	0.096300
C5191	C519	0.561400	0.766800	0.064200
C5201	C520	0.556000	0.731200	0.034200
C5211	C521	0.547300	0.666600	0.036200
H4321	H432	0.543600	0.642300	0.015700
O401	O40	0.568400	0.831800	0.060400
C5221	C522	0.542400	0.873600	0.071400
C5231	C523	0.503100	0.924100	0.983700
C5241	C524	0.526400	0.916600	0.011200
H4331	H433	0.549800	0.929600	0.008700
C5251	C525	0.516600	0.890400	0.042600
C5261	C526	0.482200	0.877300	0.043800
H4341	H434	0.475000	0.859800	0.065100
N441	N44	0.455500	0.885200	0.018800
C5271	C527	0.468400	0.908500	0.986800
H4351	H435	0.453000	0.913200	0.967400
C5281	C528	0.563100	0.759700	0.998200
H4361	H436	0.563600	0.807100	0.000000
H4371	H437	0.543700	0.748000	0.982000
Zn91	Zn9	0.726490	0.074760	0.155650
Zn101	Zn10	0.594990	0.138670	0.974120
N451	N45	0.676400	0.126900	0.148800
C5291	C529	0.651700	0.148000	0.145500
C5301	C530	0.616300	0.177500	0.137600
H4381	H438	0.598100	0.148400	0.145300
H4391	H439	0.614400	0.218600	0.149800
H4401	H440	0.613400	0.184800	0.112700
C5311	C531	0.191300	0.029500	0.477800
H4411	H441	0.190100	0.070700	0.488200
C5321	C532	0.161300	0.993400	0.472700
H4421	H442	0.139600	0.010000	0.479500
C5331	C533	0.163100	0.933100	0.457500
C5341	C534	0.194900	0.908900	0.447500
C5351	C535	0.224900	0.945000	0.452700
C5361	C536	0.223100	0.005300	0.467800
H4431	H443	0.243700	0.030000	0.471400
O411	O41	0.197600	0.844200	0.441500
C5371	C537	0.208200	0.807600	0.470500
H4441	H444	0.233800	0.809000	0.473700
H4451	H445	0.197700	0.824900	0.491700
C5381	C538	0.195600	0.736100	0.463900
C5391	C539	0.218000	0.686000	0.456000
H4461	H446	0.242200	0.693600	0.454500
C5401	C540	0.205000	0.626800	0.450500
H4471	H447	0.219600	0.592500	0.443800
C5411	C541	0.169500	0.616900	0.454800
H4481	H448	0.160200	0.575900	0.449000
N461	N46	0.147300	0.662100	0.466600
C5421	C542	0.161400	0.724100	0.470900
H4491	H449	0.147200	0.758000	0.478600
C5431	C543	0.259900	0.924000	0.440700
H4501	H450	0.277700	0.931800	0.459200
H4511	H451	0.259500	0.877500	0.435500
C5441	C544	0.295400	0.054400	0.383100
H4521	H452	0.309000	0.092200	0.385500
C5451	C545	0.288900	0.016800	0.411900
H4531	H453	0.298000	0.029000	0.434000
C5461	C546	0.269000	0.961500	0.408300
C5471	C547	0.255600	0.943600	0.376000
C5481	C548	0.262200	0.981200	0.347200
C5491	C549	0.282100	0.036600	0.350800
H4541	H454	0.286600	0.062200	0.331100
O421	O42	0.237100	0.889700	0.372000
C5501	C550	0.190400	0.711100	0.370400
H4551	H455	0.166200	0.707700	0.374000
C5511	C551	0.205700	0.769900	0.369400
H4561	H456	0.192300	0.808000	0.371100
C5521	C552	0.239700	0.772500	0.366000
C5531	C553	0.259100	0.718800	0.360000
H4571	H457	0.283100	0.723200	0.355500
N471	N47	0.244400	0.658100	0.360500
C5541	C554	0.210200	0.655900	0.366100
H4581	H458	0.199100	0.615300	0.367200
C5551	C555	0.262200	0.837500	0.365100
H4591	H459	0.272600	0.843300	0.342200
H4601	H460	0.281000	0.836600	0.383100
C5561	C556	0.246400	0.964400	0.311500
H4611	H461	0.261000	0.983800	0.293500
H4621	H462	0.247200	0.917300	0.308400
C5571	C557	0.171500	0.079000	0.295000
H4631	H463	0.168900	0.123500	0.290300
C5581	C558	0.204600	0.052600	0.298600
H4641	H464	0.224500	0.079100	0.296400
C5591	C559	0.208500	0.987500	0.305500
C5601	C560	0.179400	0.948800	0.308700
C5611	C561	0.146400	0.975100	0.305000
C5621	C562	0.142500	0.040200	0.298200
H4651	H465	0.119900	0.058200	0.295600
O431	O43	0.184900	0.883800	0.314500
C5631	C563	0.176800	0.845600	0.283600
H4661	H466	0.156400	0.864000	0.271000
H4671	H467	0.171100	0.801000	0.290300
C5641	C564	0.208000	0.845500	0.260200
C5651	C565	0.238800	0.820100	0.269000
H4681	H468	0.240100	0.793600	0.289000
C5661	C566	0.269400	0.829200	0.251100
H4691	H469	0.291600	0.815300	0.259400
C5671	C567	0.263500	0.863300	0.217400
H4701	H470	0.282200	0.867500	0.202200
N481	N48	0.231400	0.888800	0.207700
C5681	C568	0.203900	0.882100	0.227900
H4711	H471	0.182200	0.900700	0.221500
C5691	C569	0.114700	0.938500	0.314600
H4721	H472	0.095400	0.948900	0.298200
H4731	H473	0.119400	0.891900	0.313000
C5701	C570	0.080600	0.029400	0.393300
H4741	H474	0.068000	0.067400	0.398100
C5711	C571	0.085500	0.010900	0.359300
H4751	H475	0.076300	0.036300	0.340800
C5721	C572	0.104000	0.955300	0.352200
C5731	C573	0.117500	0.918200	0.379300
C5741	C574	0.112600	0.936600	0.413300
C5751	C575	0.094200	0.992200	0.420300
H4761	H476	0.090800	0.004800	0.443600
O441	O44	0.130700	0.857700	0.374000
C5761	C576	0.103900	0.808200	0.364600
H4771	H477	0.115300	0.769000	0.356000
H4781	H478	0.088000	0.824800	0.346200
C5771	C577	0.085200	0.793700	0.394200
C5781	C578	0.056400	0.827800	0.404300
H4791	H479	0.046700	0.860500	0.389900
C5791	C579	0.041300	0.812700	0.437600
H4801	H480	0.023400	0.838400	0.446800
C5801	C580	0.054000	0.760100	0.455000
H4811	H481	0.043200	0.749100	0.475900
N491	N49	0.080400	0.722600	0.445400
C5811	C581	0.093500	0.739300	0.415100
H4821	H482	0.110500	0.711200	0.406300
C5821	C582	0.130700	0.901600	0.446100
H4831	H483	0.135600	0.856400	0.440100
H4841	H484	0.114400	0.901500	0.465400
C5831	C583	0.129800	0.157400	0.452400
H4851	H485	0.130500	0.118800	0.439300
C5841	C584	0.098400	0.179900	0.464300
H4861	H486	0.077600	0.156700	0.459300
C5851	C585	0.097300	0.236300	0.483300
C5861	C586	0.127700	0.270300	0.490500
C5871	C587	0.159200	0.247800	0.478600
C5881	C588	0.160200	0.191400	0.459500
H4871	H487	0.181700	0.176000	0.451400
O451	O45	0.126200	0.325900	0.511000
C5891	C589	0.120800	0.382400	0.487600
H4881	H488	0.098800	0.377400	0.474000
H4891	H489	0.140000	0.385300	0.471200
C5901	C590	0.119500	0.438400	0.507600
C5911	C591	0.123300	0.444300	0.542100
H4901	H490	0.127400	0.406300	0.555100
C5921	C592	0.121600	0.500900	0.559700
H4911	H491	0.124000	0.503200	0.584200
C5931	C593	0.115800	0.556400	0.538500
H4921	H492	0.114900	0.597300	0.549300
N501	N50	0.111600	0.553300	0.504300
C5941	C594	0.114000	0.495800	0.490000
H4931	H493	0.111700	0.493500	0.465500
C5951	C595	0.193600	0.284200	0.489900
H4941	H494	0.189200	0.330800	0.491500
H4951	H495	0.211600	0.277200	0.472500
C5961	C596	0.230600	0.172900	0.561400
H4961	H496	0.240400	0.131200	0.563500
C5971	C597	0.220800	0.196600	0.529000
H4971	H497	0.223900	0.171100	0.509000
C5981	C598	0.206500	0.257600	0.525900
C5991	C599	0.201900	0.294900	0.555200
C6001	C600	0.211700	0.271200	0.587600
C6011	C601	0.226000	0.210200	0.590700
H4981	H498	0.232700	0.193900	0.612900
O461	O46	0.193800	0.362700	0.554800
C6021	C602	0.224700	0.399300	0.545500
H4991	H499	0.228100	0.397600	0.520300
H5001	H500	0.245700	0.381800	0.557500
C6031	C603	0.218400	0.465000	0.556600
C6041	C604	0.207000	0.515900	0.533100
H5011	H501	0.202700	0.506000	0.509400
C6051	C605	0.202500	0.577600	0.544300
H5021	H502	0.195200	0.609600	0.528200
C6061	C606	0.208400	0.594100	0.578200
H5031	H503	0.205600	0.637300	0.585400
N511	N51	0.218500	0.547600	0.602000
C6071	C607	0.223200	0.482400	0.592200
H5041	H504	0.229500	0.450900	0.609000
C6081	C608	0.201000	0.306700	0.622500
H5051	H505	0.193300	0.351000	0.617300
H5061	H506	0.221200	0.308800	0.638800
C6091	C609	0.146800	0.173400	0.666400
H5071	H507	0.150200	0.133900	0.678300
C6101	C610	0.175300	0.209400	0.656600
H5081	H508	0.198100	0.194500	0.661700
C6111	C611	0.170300	0.267300	0.639300
C6121	C612	0.136800	0.289100	0.631800
C6131	C613	0.108300	0.253100	0.641600
C6141	C614	0.113400	0.195300	0.659000
H5091	H509	0.093900	0.170700	0.665700
O471	O47	0.129100	0.348300	0.616900
C6151	C615	0.120000	0.399000	0.642500
H5101	H510	0.101500	0.382600	0.657400
H5111	H511	0.110800	0.437000	0.629900
C6161	C616	0.147800	0.417000	0.662700
C6171	C617	0.162900	0.382300	0.695200
H5121	H512	0.151800	0.345800	0.704600
C6181	C618	0.193300	0.407000	0.709800
H5131	H513	0.202900	0.385100	0.729400
C6191	C619	0.209700	0.456700	0.699400
H5141	H514	0.231100	0.468000	0.710600
N521	N52	0.196600	0.495800	0.671400
C6201	C620	0.168300	0.476200	0.655900
H5151	H515	0.159500	0.502900	0.637800
C6211	C621	0.069700	0.269300	0.631000
H5161	H516	0.067100	0.316400	0.629100
H5171	H517	0.054400	0.254400	0.649500
C6221	C622	0.044000	0.137600	0.568300
H5181	H518	0.038100	0.093500	0.569700
C6231	C623	0.049400	0.173200	0.598400
H5191	H519	0.047100	0.153400	0.620300
C6241	C624	0.058100	0.237800	0.596300
C6251	C625	0.061400	0.266800	0.564200
C6261	C626	0.056000	0.231200	0.534200
C6271	C627	0.047300	0.166600	0.536200
H5201	H520	0.043600	0.142300	0.515700
O481	O48	0.068400	0.331800	0.560400
C6281	C628	0.042400	0.373600	0.571400
C6291	C629	0.003100	0.424100	0.483700
C6301	C630	0.026400	0.416600	0.511200
H5211	H521	0.049800	0.429600	0.508700
C6311	C631	0.016600	0.390400	0.542600
C6321	C632	0.982200	0.377300	0.543800
H5221	H522	0.975000	0.359800	0.565100
N531	N53	0.955500	0.385200	0.518800
C6331	C633	0.968400	0.408500	0.486800
H5231	H523	0.953000	0.413200	0.467400
C6341	C634	0.063100	0.259700	0.498200
H5241	H524	0.063600	0.307100	0.500000
H5251	H525	0.043700	0.248000	0.482000
Zn111	Zn11	0.226490	0.574760	0.655650
Zn121	Zn12	0.094990	0.638670	0.474120
N541	N54	0.176400	0.626900	0.648800
C6351	C635	0.151700	0.648000	0.645500
C6361	C636	0.116300	0.677500	0.637600
H5261	H526	0.098100	0.648400	0.645300
H5271	H527	0.114400	0.718600	0.649800
H5281	H528	0.113400	0.684800	0.612700
C6371	C637	0.808700	0.529500	0.022200
H5291	H529	0.809900	0.570700	0.011800
C6381	C638	0.838700	0.493400	0.027300
H5301	H530	0.860400	0.510000	0.020500
C6391	C639	0.836900	0.433100	0.042500
C6401	C640	0.805100	0.408900	0.052500
C6411	C641	0.775100	0.445000	0.047300
C6421	C642	0.776900	0.505300	0.032200
H5311	H531	0.756300	0.530000	0.028600
O491	O49	0.802400	0.344200	0.058500
C6431	C643	0.791800	0.307600	0.029500
H5321	H532	0.766200	0.309000	0.026300
H5331	H533	0.802300	0.324900	0.008300
C6441	C644	0.804400	0.236100	0.036100
C6451	C645	0.782000	0.186000	0.044000
H5341	H534	0.757800	0.193600	0.045500
C6461	C646	0.795000	0.126800	0.049500
H5351	H535	0.780400	0.092500	0.056200
C6471	C647	0.830500	0.116900	0.045200
H5361	H536	0.839800	0.075900	0.051000
N551	N55	0.852700	0.162100	0.033400
C6481	C648	0.838600	0.224100	0.029100
H5371	H537	0.852800	0.258000	0.021400
C6491	C649	0.740100	0.424000	0.059300
H5381	H538	0.722300	0.431800	0.040800
H5391	H539	0.740500	0.377500	0.064500
C6501	C650	0.704600	0.554400	0.116900
H5401	H540	0.691000	0.592200	0.114500
C6511	C651	0.711100	0.516800	0.088100
H5411	H541	0.702000	0.529000	0.066000
C6521	C652	0.731000	0.461500	0.091700
C6531	C653	0.744400	0.443600	0.124000
C6541	C654	0.737800	0.481200	0.152800
C6551	C655	0.717900	0.536600	0.149200
H5421	H542	0.713400	0.562200	0.168900
O501	O50	0.762900	0.389700	0.128000
C6561	C656	0.809600	0.211100	0.129600
H5431	H543	0.833800	0.207700	0.126000
C6571	C657	0.794300	0.269900	0.130600
H5441	H544	0.807700	0.308000	0.128900
C6581	C658	0.760300	0.272500	0.134000
C6591	C659	0.740900	0.218800	0.140000
H5451	H545	0.716900	0.223200	0.144500
N561	N56	0.755600	0.158100	0.139500
C6601	C660	0.789800	0.155900	0.133900
H5461	H546	0.800900	0.115300	0.132800
C6611	C661	0.737800	0.337500	0.134900
H5471	H547	0.727400	0.343300	0.157800
H5481	H548	0.719000	0.336600	0.116900
C6621	C662	0.753600	0.464400	0.188500
H5491	H549	0.739000	0.483800	0.206500
H5501	H550	0.752800	0.417300	0.191600
C6631	C663	0.828500	0.579000	0.205000
H5511	H551	0.831100	0.623500	0.209700
C6641	C664	0.795400	0.552600	0.201400
H5521	H552	0.775500	0.579100	0.203600
C6651	C665	0.791500	0.487500	0.194500
C6661	C666	0.820600	0.448800	0.191300
C6671	C667	0.853600	0.475100	0.195000
C6681	C668	0.857500	0.540200	0.201800
H5531	H553	0.880100	0.558200	0.204400
O511	O51	0.815100	0.383800	0.185500
C6691	C669	0.823200	0.345600	0.216400
H5541	H554	0.843600	0.364000	0.229000
H5551	H555	0.828900	0.301000	0.209700
C6701	C670	0.792000	0.345500	0.239800
C6711	C671	0.761200	0.320100	0.231000
H5561	H556	0.759900	0.293600	0.211000
C6721	C672	0.730600	0.329200	0.248900
H5571	H557	0.708400	0.315300	0.240600
C6731	C673	0.736500	0.363300	0.282600
H5581	H558	0.717800	0.367500	0.297800
N571	N57	0.768600	0.388800	0.292300
C6741	C674	0.796100	0.382100	0.272100
H5591	H559	0.817800	0.400700	0.278500
C6751	C675	0.885300	0.438500	0.185400
H5601	H560	0.904600	0.448900	0.201800
H5611	H561	0.880600	0.391900	0.187000
C6761	C676	0.919400	0.529400	0.106700
H5621	H562	0.932000	0.567400	0.101900
C6771	C677	0.914500	0.510900	0.140700
H5631	H563	0.923700	0.536300	0.159200
C6781	C678	0.896000	0.455300	0.147800
C6791	C679	0.882500	0.418200	0.120700
C6801	C680	0.887400	0.436600	0.086700
C6811	C681	0.905800	0.492200	0.079700
H5641	H564	0.909200	0.504800	0.056400
O521	O52	0.869300	0.357700	0.126000
C6821	C682	0.896100	0.308200	0.135400
H5651	H565	0.884700	0.269000	0.144000
H5661	H566	0.912000	0.324800	0.153800
C6831	C683	0.914800	0.293700	0.105800
C6841	C684	0.943600	0.327800	0.095700
H5671	H567	0.953300	0.360500	0.110100
C6851	C685	0.958700	0.312700	0.062400
H5681	H568	0.976600	0.338400	0.053200
C6861	C686	0.946000	0.260100	0.045000
H5691	H569	0.956800	0.249100	0.024100
N581	N58	0.919600	0.222600	0.054600
C6871	C687	0.906500	0.239300	0.084900
H5701	H570	0.889500	0.211200	0.093700
C6881	C688	0.869300	0.401600	0.053900
H5711	H571	0.864400	0.356400	0.059900
H5721	H572	0.885600	0.401500	0.034600
C6891	C689	0.870200	0.657400	0.047600
H5731	H573	0.869500	0.618800	0.060700
C6901	C690	0.901600	0.679900	0.035700
H5741	H574	0.922400	0.656700	0.040700
C6911	C691	0.902700	0.736300	0.016700
C6921	C692	0.872300	0.770300	0.009500
C6931	C693	0.840800	0.747800	0.021400
C6941	C694	0.839800	0.691400	0.040500
H5751	H575	0.818300	0.676000	0.048600
O531	O53	0.873800	0.825900	0.989000
C6951	C695	0.879200	0.882400	0.012400
H5761	H576	0.901200	0.877400	0.026000
H5771	H577	0.860000	0.885300	0.028800
C6961	C696	0.880500	0.938400	0.992400
C6971	C697	0.876700	0.944300	0.957900
H5781	H578	0.872600	0.906300	0.944900
C6981	C698	0.878400	0.000900	0.940300
H5791	H579	0.876000	0.003200	0.915800
C6991	C699	0.884200	0.056400	0.961500
H5801	H580	0.885100	0.097300	0.950700
N591	N59	0.888400	0.053300	0.995700
C7001	C700	0.886000	0.995800	0.010000
H5811	H581	0.888300	0.993500	0.034500
C7011	C701	0.806400	0.784200	0.010100
H5821	H582	0.810800	0.830800	0.008500
H5831	H583	0.788400	0.777200	0.027500
C7021	C702	0.769400	0.672900	0.938600
H5841	H584	0.759600	0.631200	0.936500
C7031	C703	0.779200	0.696600	0.971000
H5851	H585	0.776100	0.671100	0.991000
C7041	C704	0.793500	0.757600	0.974100
C7051	C705	0.798100	0.794900	0.944800
C7061	C706	0.788300	0.771200	0.912400
C7071	C707	0.774000	0.710200	0.909300
H5861	H586	0.767300	0.693900	0.887100
O541	O54	0.806200	0.862700	0.945200
C7081	C708	0.775300	0.899300	0.954500
H5871	H587	0.771900	0.897600	0.979700
H5881	H588	0.754300	0.881800	0.942500
C7091	C709	0.781600	0.965000	0.943400
C7101	C710	0.793000	0.015900	0.966900
H5891	H589	0.797300	0.006000	0.990600
C7111	C711	0.797500	0.077600	0.955700
H5901	H590	0.804800	0.109600	0.971800
C7121	C712	0.791600	0.094100	0.921800
H5911	H591	0.794400	0.137300	0.914600
N601	N60	0.781500	0.047600	0.898000
C7131	C713	0.776800	0.982400	0.907800
H5921	H592	0.770500	0.950900	0.891000
C7141	C714	0.799000	0.806700	0.877500
H5931	H593	0.806700	0.851000	0.882700
H5941	H594	0.778800	0.808800	0.861200
C7151	C715	0.853200	0.673400	0.833600
H5951	H595	0.849800	0.633900	0.821700
C7161	C716	0.824700	0.709400	0.843400
H5961	H596	0.801900	0.694500	0.838300
C7171	C717	0.829700	0.767300	0.860700
C7181	C718	0.863200	0.789100	0.868200
C7191	C719	0.891700	0.753100	0.858400
C7201	C720	0.886600	0.695300	0.841000
H5971	H597	0.906100	0.670700	0.834300
O551	O55	0.870900	0.848300	0.883100
C7211	C721	0.880000	0.899000	0.857500
H5981	H598	0.898500	0.882600	0.842600
H5991	H599	0.889200	0.937000	0.870100
C7221	C722	0.852200	0.917000	0.837300
C7231	C723	0.837100	0.882300	0.804800
H6001	H600	0.848200	0.845800	0.795400
C7241	C724	0.806700	0.907000	0.790200
H6011	H601	0.797100	0.885100	0.770600
C7251	C725	0.790300	0.956700	0.800600
H6021	H602	0.768900	0.968000	0.789400
N611	N61	0.803400	0.995800	0.828600
C7261	C726	0.831700	0.976200	0.844100
H6031	H603	0.840500	0.002900	0.862200
C7271	C727	0.930300	0.769300	0.869000
H6041	H604	0.932900	0.816400	0.870900
H6051	H605	0.945600	0.754400	0.850500
C7281	C728	0.956000	0.637600	0.931700
H6061	H606	0.961900	0.593500	0.930300
C7291	C729	0.950600	0.673200	0.901600
H6071	H607	0.952900	0.653400	0.879700
C7301	C730	0.941900	0.737800	0.903700
C7311	C731	0.938600	0.766800	0.935800
C7321	C732	0.944000	0.731200	0.965800
C7331	C733	0.952700	0.666600	0.963800
H6081	H608	0.956400	0.642300	0.984300
O561	O56	0.931600	0.831800	0.939600
C7341	C734	0.957600	0.873600	0.928600
C7351	C735	0.996900	0.924100	0.016300
C7361	C736	0.973600	0.916600	0.988800
H6091	H609	0.950200	0.929600	0.991300
C7371	C737	0.983400	0.890400	0.957400
C7381	C738	0.017800	0.877300	0.956200
H6101	H610	0.025000	0.859800	0.934900
N621	N62	0.044500	0.885200	0.981200
C7391	C739	0.031600	0.908500	0.013200
H6111	H611	0.047000	0.913200	0.032600
C7401	C740	0.936900	0.759700	0.001800
H6121	H612	0.936400	0.807100	0.000000
H6131	H613	0.956300	0.748000	0.018000
Zn131	Zn13	0.773510	0.074760	0.844350
Zn141	Zn14	0.905010	0.138670	0.025880
N631	N63	0.823600	0.126900	0.851200
C7411	C741	0.848300	0.148000	0.854500
C7421	C742	0.883700	0.177500	0.862400
H6141	H614	0.901900	0.148400	0.854700
H6151	H615	0.885600	0.218600	0.850200
H6161	H616	0.886600	0.184800	0.887300
C7431	C743	0.308700	0.029500	0.522200
H6171	H617	0.309900	0.070700	0.511800
C7441	C744	0.338700	0.993400	0.527300
H6181	H618	0.360400	0.010000	0.520500
C7451	C745	0.336900	0.933100	0.542500
C7461	C746	0.305100	0.908900	0.552500
C7471	C747	0.275100	0.945000	0.547300
C7481	C748	0.276900	0.005300	0.532200
H6191	H619	0.256300	0.030000	0.528600
O571	O57	0.302400	0.844200	0.558500
C7491	C749	0.291800	0.807600	0.529500
H6201	H620	0.266200	0.809000	0.526300
H6211	H621	0.302300	0.824900	0.508300
C7501	C750	0.304400	0.736100	0.536100
C7511	C751	0.282000	0.686000	0.544000
H6221	H622	0.257800	0.693600	0.545500
C7521	C752	0.295000	0.626800	0.549500
H6231	H623	0.280400	0.592500	0.556200
C7531	C753	0.330500	0.616900	0.545200
H6241	H624	0.339800	0.575900	0.551000
N641	N64	0.352700	0.662100	0.533400
C7541	C754	0.338600	0.724100	0.529100
H6251	H625	0.352800	0.758000	0.521400
C7551	C755	0.240100	0.924000	0.559300
H6261	H626	0.222300	0.931800	0.540800
H6271	H627	0.240500	0.877500	0.564500
C7561	C756	0.204600	0.054400	0.616900
H6281	H628	0.191000	0.092200	0.614500
C7571	C757	0.211100	0.016800	0.588100
H6291	H629	0.202000	0.029000	0.566000
C7581	C758	0.231000	0.961500	0.591700
C7591	C759	0.244400	0.943600	0.624000
C7601	C760	0.237800	0.981200	0.652800
C7611	C761	0.217900	0.036600	0.649200
H6301	H630	0.213400	0.062200	0.668900
O581	O58	0.262900	0.889700	0.628000
C7621	C762	0.309600	0.711100	0.629600
H6311	H631	0.333800	0.707700	0.626000
C7631	C763	0.294300	0.769900	0.630600
H6321	H632	0.307700	0.808000	0.628900
C7641	C764	0.260300	0.772500	0.634000
C7651	C765	0.240900	0.718800	0.640000
H6331	H633	0.216900	0.723200	0.644500
N651	N65	0.255600	0.658100	0.639500
C7661	C766	0.289800	0.655900	0.633900
H6341	H634	0.300900	0.615300	0.632800
C7671	C767	0.237800	0.837500	0.634900
H6351	H635	0.227400	0.843300	0.657800
H6361	H636	0.219000	0.836600	0.616900
C7681	C768	0.253600	0.964400	0.688500
H6371	H637	0.239000	0.983800	0.706500
H6381	H638	0.252800	0.917300	0.691600
C7691	C769	0.328500	0.079000	0.705000
H6391	H639	0.331100	0.123500	0.709700
C7701	C770	0.295400	0.052600	0.701400
H6401	H640	0.275500	0.079100	0.703600
C7711	C771	0.291500	0.987500	0.694500
C7721	C772	0.320600	0.948800	0.691300
C7731	C773	0.353600	0.975100	0.695000
C7741	C774	0.357500	0.040200	0.701800
H6411	H641	0.380100	0.058200	0.704400
O591	O59	0.315100	0.883800	0.685500
C7751	C775	0.323200	0.845600	0.716400
H6421	H642	0.343600	0.864000	0.729000
H6431	H643	0.328900	0.801000	0.709700
C7761	C776	0.292000	0.845500	0.739800
C7771	C777	0.261200	0.820100	0.731000
H6441	H644	0.259900	0.793600	0.711000
C7781	C778	0.230600	0.829200	0.748900
H6451	H645	0.208400	0.815300	0.740600
C7791	C779	0.236500	0.863300	0.782600
H6461	H646	0.217800	0.867500	0.797800
N661	N66	0.268600	0.888800	0.792300
C7801	C780	0.296100	0.882100	0.772100
H6471	H647	0.317800	0.900700	0.778500
C7811	C781	0.385300	0.938500	0.685400
H6481	H648	0.404600	0.948900	0.701800
H6491	H649	0.380600	0.891900	0.687000
C7821	C782	0.419400	0.029400	0.606700
H6501	H650	0.432000	0.067400	0.601900
C7831	C783	0.414500	0.010900	0.640700
H6511	H651	0.423700	0.036300	0.659200
C7841	C784	0.396000	0.955300	0.647800
C7851	C785	0.382500	0.918200	0.620700
C7861	C786	0.387400	0.936600	0.586700
C7871	C787	0.405800	0.992200	0.579700
H6521	H652	0.409200	0.004800	0.556400
O601	O60	0.369300	0.857700	0.626000
C7881	C788	0.396100	0.808200	0.635400
H6531	H653	0.384700	0.769000	0.644000
H6541	H654	0.412000	0.824800	0.653800
C7891	C789	0.414800	0.793700	0.605800
C7901	C790	0.443600	0.827800	0.595700
H6551	H655	0.453300	0.860500	0.610100
C7911	C791	0.458700	0.812700	0.562400
H6561	H656	0.476600	0.838400	0.553200
C7921	C792	0.446000	0.760100	0.545000
H6571	H657	0.456800	0.749100	0.524100
N671	N67	0.419600	0.722600	0.554600
C7931	C793	0.406500	0.739300	0.584900
H6581	H658	0.389500	0.711200	0.593700
C7941	C794	0.369300	0.901600	0.553900
H6591	H659	0.364400	0.856400	0.559900
H6601	H660	0.385600	0.901500	0.534600
C7951	C795	0.370200	0.157400	0.547600
H6611	H661	0.369500	0.118800	0.560700
C7961	C796	0.401600	0.179900	0.535700
H6621	H662	0.422400	0.156700	0.540700
C7971	C797	0.402700	0.236300	0.516700
C7981	C798	0.372300	0.270300	0.509500
C7991	C799	0.340800	0.247800	0.521400
C8001	C800	0.339800	0.191400	0.540500
H6631	H663	0.318300	0.176000	0.548600
O611	O61	0.373800	0.325900	0.489000
C8011	C801	0.379200	0.382400	0.512400
H6641	H664	0.401200	0.377400	0.526000
H6651	H665	0.360000	0.385300	0.528800
C8021	C802	0.380500	0.438400	0.492400
C8031	C803	0.376700	0.444300	0.457900
H6661	H666	0.372600	0.406300	0.444900
C8041	C804	0.378400	0.500900	0.440300
H6671	H667	0.376000	0.503200	0.415800
C8051	C805	0.384200	0.556400	0.461500
H6681	H668	0.385100	0.597300	0.450700
N681	N68	0.388400	0.553300	0.495700
C8061	C806	0.386000	0.495800	0.510000
H6691	H669	0.388300	0.493500	0.534500
C8071	C807	0.306400	0.284200	0.510100
H6701	H670	0.310800	0.330800	0.508500
H6711	H671	0.288400	0.277200	0.527500
C8081	C808	0.269400	0.172900	0.438600
H6721	H672	0.259600	0.131200	0.436500
C8091	C809	0.279200	0.196600	0.471000
H6731	H673	0.276100	0.171100	0.491000
C8101	C810	0.293500	0.257600	0.474100
C8111	C811	0.298100	0.294900	0.444800
C8121	C812	0.288300	0.271200	0.412400
C8131	C813	0.274000	0.210200	0.409300
H6741	H674	0.267300	0.193900	0.387100
O621	O62	0.306200	0.362700	0.445200
C8141	C814	0.275300	0.399300	0.454500
H6751	H675	0.271900	0.397600	0.479700
H6761	H676	0.254300	0.381800	0.442500
C8151	C815	0.281600	0.465000	0.443400
C8161	C816	0.293000	0.515900	0.466900
H6771	H677	0.297300	0.506000	0.490600
C8171	C817	0.297500	0.577600	0.455700
H6781	H678	0.304800	0.609600	0.471800
C8181	C818	0.291600	0.594100	0.421800
H6791	H679	0.294400	0.637300	0.414600
N691	N69	0.281500	0.547600	0.398000
C8191	C819	0.276800	0.482400	0.407800
H6801	H680	0.270500	0.450900	0.391000
C8201	C820	0.299000	0.306700	0.377500
H6811	H681	0.306700	0.351000	0.382700
H6821	H682	0.278800	0.308800	0.361200
C8211	C821	0.353200	0.173400	0.333600
H6831	H683	0.349800	0.133900	0.321700
C8221	C822	0.324700	0.209400	0.343400
H6841	H684	0.301900	0.194500	0.338300
C8231	C823	0.329700	0.267300	0.360700
C8241	C824	0.363200	0.289100	0.368200
C8251	C825	0.391700	0.253100	0.358400
C8261	C826	0.386600	0.195300	0.341000
H6851	H685	0.406100	0.170700	0.334300
O631	O63	0.370900	0.348300	0.383100
C8271	C827	0.380000	0.399000	0.357500
H6861	H686	0.398500	0.382600	0.342600
H6871	H687	0.389200	0.437000	0.370100
C8281	C828	0.352200	0.417000	0.337300
C8291	C829	0.337100	0.382300	0.304800
H6881	H688	0.348200	0.345800	0.295400
C8301	C830	0.306700	0.407000	0.290200
H6891	H689	0.297100	0.385100	0.270600
C8311	C831	0.290300	0.456700	0.300600
H6901	H690	0.268900	0.468000	0.289400
N701	N70	0.303400	0.495800	0.328600
C8321	C832	0.331700	0.476200	0.344100
H6911	H691	0.340500	0.502900	0.362200
C8331	C833	0.430300	0.269300	0.369000
H6921	H692	0.432900	0.316400	0.370900
H6931	H693	0.445600	0.254400	0.350500
C8341	C834	0.456000	0.137600	0.431700
H6941	H694	0.461900	0.093500	0.430300
C8351	C835	0.450600	0.173200	0.401600
H6951	H695	0.452900	0.153400	0.379700
C8361	C836	0.441900	0.237800	0.403700
C8371	C837	0.438600	0.266800	0.435800
C8381	C838	0.444000	0.231200	0.465800
C8391	C839	0.452700	0.166600	0.463800
H6961	H696	0.456400	0.142300	0.484300
O641	O64	0.431600	0.331800	0.439600
C8401	C840	0.457600	0.373600	0.428600
C8411	C841	0.496900	0.424100	0.516300
C8421	C842	0.473600	0.416600	0.488800
H6971	H697	0.450200	0.429600	0.491300
C8431	C843	0.483400	0.390400	0.457400
C8441	C844	0.517800	0.377300	0.456200
H6981	H698	0.525000	0.359800	0.434900
N711	N71	0.544500	0.385200	0.481200
C8451	C845	0.531600	0.408500	0.513200
H6991	H699	0.547000	0.413200	0.532600
C8461	C846	0.436900	0.259700	0.501800
H7001	H700	0.436400	0.307100	0.500000
H7011	H701	0.456300	0.248000	0.518000
Zn151	Zn15	0.273510	0.574760	0.344350
Zn161	Zn16	0.405010	0.638670	0.525880
N721	N72	0.323600	0.626900	0.351200
C8471	C847	0.348300	0.648000	0.354500
C8481	C848	0.383700	0.677500	0.362400
H7021	H702	0.401900	0.648400	0.354700
H7031	H703	0.385600	0.718600	0.350200
H7041	H704	0.386600	0.684800	0.387300
