data_AWEZOS01_clean_PM
_symmetry_space_group_name_H-M	'P1'
_cell_length_a	20.014000
_cell_length_b	37.956000
_cell_length_c	25.085000
_cell_angle_alpha	90.000000
_cell_angle_beta	109.384000
_cell_angle_gamma	90.000000
_symmetry_Int_Tables_number 1

loop_
_symmetry_equiv_pos_as_xyz
'x,y,z'

loop_
_atom_site_label
_atom_site_type_symbol
_atom_site_fract_x
_atom_site_fract_y
_atom_site_fract_z
Cu11	Cu1	0.538620	0.128260	0.331940
Cu21	Cu2	0.553070	0.974570	0.367710
Cu31	Cu3	0.092990	0.254920	0.496680
Cu41	Cu4	0.795010	0.218250	0.381150
Cu51	Cu5	0.006320	0.328930	0.432300
Cu61	Cu6	0.316890	0.206060	0.387720
Cu71	Cu7	0.152400	0.331110	0.412890
Cu81	Cu8	0.608940	0.094610	0.246410
Cl11	Cl1	0.125110	0.318780	0.508010
N11	N1	0.550010	0.077610	0.327690
N21	N2	0.553450	0.019540	0.338070
N31	N3	0.591680	0.064010	0.298420
N41	N4	0.278920	0.204390	0.583830
N51	N5	0.223800	0.254300	0.588840
N61	N6	0.182480	0.235860	0.541700
N71	N7	0.994760	0.254700	0.452300
N81	N8	0.959160	0.285230	0.427990
N91	N9	0.881390	0.241660	0.410970
N101	N10	0.533350	0.873660	0.411330
N111	N11	0.594980	0.872300	0.397660
N121	N12	0.560590	0.927900	0.393290
N131	N13	0.385710	0.130650	0.302410
N141	N14	0.447390	0.148200	0.330950
N151	N15	0.358830	0.174580	0.349340
N161	N16	0.706050	0.197590	0.350920
N171	N17	0.614070	0.161870	0.335710
N181	N18	0.593280	0.190560	0.299960
N191	N19	0.675800	0.375940	0.305100
H11	H1	0.682100	0.392400	0.283800
H21	H2	0.637100	0.375000	0.312800
N201	N20	0.631500	0.332960	0.176700
H31	H3	0.596200	0.347100	0.170900
H41	H4	0.662700	0.336800	0.160600
N211	N21	0.324900	0.085090	0.453600
H51	H5	0.333300	0.102100	0.477500
H61	H6	0.285600	0.073700	0.445100
N221	N22	0.741300	0.948380	0.192100
H71	H7	0.724000	0.928800	0.176300
H81	H8	0.780700	0.956000	0.189900
N231	N23	0.645600	0.272460	0.461800
H91	H9	0.684600	0.265500	0.486400
H101	H10	0.640700	0.294100	0.451200
N241	N24	0.076300	0.093730	0.398500
H111	H11	0.082500	0.072500	0.411400
H121	H12	0.046500	0.097900	0.365500
N251	N25	0.009100	0.087170	0.509600
H131	H13	0.041200	0.082500	0.541300
H141	H14	0.987200	0.070300	0.487800
N261	N26	0.478100	0.273960	0.825690
H151	H15	0.483300	0.295700	0.836000
H161	H16	0.502800	0.257900	0.847700
N271	N27	0.852100	0.077040	0.538600
H171	H17	0.872500	0.085300	0.572000
H181	H18	0.857000	0.055200	0.531700
N281	N28	0.866500	0.942820	0.355500
H191	H19	0.883800	0.929800	0.335300
H201	H20	0.889500	0.961000	0.372500
N291	N29	0.295300	0.964800	0.477200
H211	H21	0.297200	0.986700	0.486500
H221	H22	0.260000	0.952100	0.477700
N301	N30	0.068000	0.081300	0.217700
H231	H23	0.054100	0.075500	0.182500
H241	H24	0.042100	0.076400	0.238100
C11	C1	0.216610	0.206000	0.540460
C21	C2	0.142500	0.183500	0.445410
H251	H25	0.136400	0.206400	0.431300
C31	C3	0.114600	0.121490	0.431500
C41	C4	0.162800	0.115040	0.484900
H261	H26	0.172000	0.092000	0.497800
C51	C5	0.186820	0.177390	0.500430
C61	C6	0.197100	0.142640	0.519010
H271	H27	0.227800	0.137900	0.555200
C71	C7	0.107200	0.155940	0.411240
H281	H28	0.078200	0.160500	0.374400
C81	C8	0.280930	0.234660	0.613140
C91	C9	0.335120	0.244950	0.666430
C101	C10	0.375300	0.219820	0.704020
H291	H29	0.370700	0.196200	0.693800
C111	C11	0.422300	0.229640	0.756500
H301	H30	0.449100	0.212500	0.780800
C121	C12	0.342900	0.280050	0.683920
H311	H31	0.316500	0.297300	0.659700
C131	C13	0.429700	0.264770	0.773100
C141	C14	0.389300	0.289880	0.736800
H321	H32	0.393100	0.313400	0.747600
C151	C15	0.610140	0.905000	0.387660
C161	C16	0.674200	0.915450	0.375840
C171	C17	0.701500	0.895990	0.341500
H331	H33	0.677300	0.876100	0.323300
C181	C18	0.764200	0.905550	0.333700
H341	H34	0.781500	0.892300	0.310000
C191	C19	0.711500	0.945170	0.402100
H351	H35	0.693800	0.958900	0.425100
C201	C20	0.801200	0.934510	0.360700
C211	C21	0.773900	0.954560	0.394800
H361	H36	0.798100	0.974500	0.412700
C221	C22	0.514850	0.907420	0.409340
C231	C23	0.457400	0.956740	0.442600
H371	H37	0.494400	0.971300	0.441700
C241	C24	0.405200	0.970240	0.460300
H381	H38	0.407900	0.993600	0.471900
C251	C25	0.456700	0.921460	0.426000
C261	C26	0.402300	0.900780	0.430500
H391	H39	0.401800	0.876900	0.422200
C271	C27	0.348800	0.914470	0.446800
H401	H40	0.312000	0.900000	0.448400
C281	C28	0.349100	0.950090	0.461200
C291	C29	0.725050	0.143080	0.410610
C301	C30	0.761100	0.155670	0.463960
H411	H41	0.757100	0.179300	0.472000
C311	C31	0.731400	0.107810	0.400800
H421	H42	0.706300	0.098400	0.365500
C321	C32	0.681590	0.166850	0.365680
C331	C33	0.803200	0.133730	0.506000
H431	H43	0.826300	0.142800	0.541800
C341	C34	0.774700	0.085880	0.442500
H441	H44	0.779100	0.062200	0.434700
C351	C35	0.811100	0.099150	0.495400
C361	C36	0.648460	0.244090	0.278790
C371	C37	0.699400	0.251120	0.254080
H451	H45	0.737200	0.235700	0.259500
C381	C38	0.694500	0.280830	0.221600
H461	H46	0.729600	0.285400	0.205800
C391	C39	0.593340	0.268180	0.270720
H471	H47	0.559200	0.264200	0.287800
C401	C40	0.649420	0.211310	0.309860
C411	C41	0.638200	0.304100	0.211920
C421	C42	0.588700	0.297560	0.238080
H481	H48	0.551700	0.313400	0.233500
C431	C43	0.593050	0.029260	0.305470
C441	C44	0.633700	0.006650	0.280270
C451	C45	0.607100	0.974620	0.254410
H491	H49	0.564700	0.965900	0.256900
C461	C46	0.705400	0.967750	0.221500
C471	C47	0.697900	0.018060	0.277300
H501	H50	0.717100	0.039100	0.294800
C481	C48	0.642600	0.955720	0.225300
H511	H51	0.623700	0.934600	0.208000
C491	C49	0.733800	0.999000	0.249000
H521	H52	0.777300	0.007000	0.248200
C501	C50	0.414300	0.038030	0.367910
H531	H53	0.406000	0.019100	0.343100
C511	C51	0.438200	0.093860	0.441960
H541	H54	0.446800	0.112800	0.466800
C521	C52	0.477800	0.056160	0.381260
C531	C53	0.527300	0.050540	0.350520
C541	C54	0.488600	0.084300	0.419320
H551	H55	0.531000	0.096700	0.429300
C551	C55	0.374600	0.075980	0.428900
C561	C56	0.363300	0.047630	0.390700
H561	H56	0.320800	0.035300	0.380800
C571	C57	0.961860	0.192430	0.459440
C581	C58	0.012600	0.183780	0.511220
H571	H57	0.037100	0.201700	0.534900
C591	C59	0.926600	0.164770	0.425300
H581	H58	0.892200	0.169600	0.390700
C601	C60	0.942000	0.130040	0.442200
H591	H59	0.918100	0.111900	0.418500
C611	C61	0.946860	0.229170	0.441760
C621	C62	0.027000	0.149280	0.528090
H601	H60	0.060400	0.144300	0.563100
C631	C63	0.992400	0.121930	0.493600
C641	C64	0.891870	0.276510	0.403880
C651	C65	0.770600	0.300160	0.385460
H611	H61	0.763000	0.282600	0.408600
C661	C66	0.718200	0.324460	0.362000
H621	H62	0.675800	0.323200	0.369500
C671	C67	0.728000	0.350880	0.327100
C681	C68	0.790700	0.351700	0.315500
H631	H63	0.797500	0.368900	0.291300
C691	C69	0.843700	0.327310	0.339160
H641	H64	0.885500	0.328300	0.330800
C701	C70	0.834800	0.301390	0.375350
C711	C71	0.333790	0.147090	0.313650
C721	C72	0.260790	0.134090	0.289460
C731	C73	0.236700	0.124340	0.233600
H651	H65	0.263700	0.129800	0.210800
C741	C74	0.219600	0.127340	0.322500
H661	H66	0.234500	0.134200	0.360300
C751	C75	0.173400	0.106580	0.210500
H671	H67	0.158700	0.099900	0.172700
C761	C76	0.133100	0.098800	0.241800
C771	C77	0.155100	0.110100	0.298700
H681	H68	0.126300	0.106000	0.320500
C781	C78	0.482310	0.200080	0.390660
C791	C79	0.474100	0.235330	0.375350
H691	H69	0.431900	0.242900	0.348900
C801	C80	0.527400	0.259250	0.398700
H701	H70	0.521400	0.282700	0.387500
C811	C81	0.597700	0.213740	0.455600
H711	H71	0.639200	0.206400	0.483200
C821	C82	0.590100	0.248420	0.438900
C831	C83	0.429490	0.174190	0.358340
C841	C84	0.544100	0.189440	0.431480
H721	H72	0.550000	0.166000	0.442900
Cu91	Cu9	0.038620	0.628260	0.331940
Cu101	Cu10	0.053070	0.474570	0.367710
Cu111	Cu11	0.592990	0.754920	0.496680
Cu121	Cu12	0.295010	0.718250	0.381150
Cu131	Cu13	0.506320	0.828930	0.432300
Cu141	Cu14	0.816890	0.706060	0.387720
Cu151	Cu15	0.652400	0.831110	0.412890
Cu161	Cu16	0.108940	0.594610	0.246410
Cl21	Cl2	0.625110	0.818780	0.508010
N311	N31	0.050010	0.577610	0.327690
N321	N32	0.053450	0.519540	0.338070
N331	N33	0.091680	0.564010	0.298420
N341	N34	0.778920	0.704390	0.583830
N351	N35	0.723800	0.754300	0.588840
N361	N36	0.682480	0.735860	0.541700
N371	N37	0.494760	0.754700	0.452300
N381	N38	0.459160	0.785230	0.427990
N391	N39	0.381390	0.741660	0.410970
N401	N40	0.033350	0.373660	0.411330
N411	N41	0.094980	0.372300	0.397660
N421	N42	0.060590	0.427900	0.393290
N431	N43	0.885710	0.630650	0.302410
N441	N44	0.947390	0.648200	0.330950
N451	N45	0.858830	0.674580	0.349340
N461	N46	0.206050	0.697590	0.350920
N471	N47	0.114070	0.661870	0.335710
N481	N48	0.093280	0.690560	0.299960
N491	N49	0.175800	0.875940	0.305100
H731	H73	0.182100	0.892400	0.283800
H741	H74	0.137100	0.875000	0.312800
N501	N50	0.131500	0.832960	0.176700
H751	H75	0.096200	0.847100	0.170900
H761	H76	0.162700	0.836800	0.160600
N511	N51	0.824900	0.585090	0.453600
H771	H77	0.833300	0.602100	0.477500
H781	H78	0.785600	0.573700	0.445100
N521	N52	0.241300	0.448380	0.192100
H791	H79	0.224000	0.428800	0.176300
H801	H80	0.280700	0.456000	0.189900
N531	N53	0.145600	0.772460	0.461800
H811	H81	0.184600	0.765500	0.486400
H821	H82	0.140700	0.794100	0.451200
N541	N54	0.576300	0.593730	0.398500
H831	H83	0.582500	0.572500	0.411400
H841	H84	0.546500	0.597900	0.365500
N551	N55	0.509100	0.587170	0.509600
H851	H85	0.541200	0.582500	0.541300
H861	H86	0.487200	0.570300	0.487800
N561	N56	0.978100	0.773960	0.825690
H871	H87	0.983300	0.795700	0.836000
H881	H88	0.002800	0.757900	0.847700
N571	N57	0.352100	0.577040	0.538600
H891	H89	0.372500	0.585300	0.572000
H901	H90	0.357000	0.555200	0.531700
N581	N58	0.366500	0.442820	0.355500
H911	H91	0.383800	0.429800	0.335300
H921	H92	0.389500	0.461000	0.372500
N591	N59	0.795300	0.464800	0.477200
H931	H93	0.797200	0.486700	0.486500
H941	H94	0.760000	0.452100	0.477700
N601	N60	0.568000	0.581300	0.217700
H951	H95	0.554100	0.575500	0.182500
H961	H96	0.542100	0.576400	0.238100
C851	C85	0.716610	0.706000	0.540460
C861	C86	0.642500	0.683500	0.445410
H971	H97	0.636400	0.706400	0.431300
C871	C87	0.614600	0.621490	0.431500
C881	C88	0.662800	0.615040	0.484900
H981	H98	0.672000	0.592000	0.497800
C891	C89	0.686820	0.677390	0.500430
C901	C90	0.697100	0.642640	0.519010
H991	H99	0.727800	0.637900	0.555200
C911	C91	0.607200	0.655940	0.411240
H1001	H100	0.578200	0.660500	0.374400
C921	C92	0.780930	0.734660	0.613140
C931	C93	0.835120	0.744950	0.666430
C941	C94	0.875300	0.719820	0.704020
H1011	H101	0.870700	0.696200	0.693800
C951	C95	0.922300	0.729640	0.756500
H1021	H102	0.949100	0.712500	0.780800
C961	C96	0.842900	0.780050	0.683920
H1031	H103	0.816500	0.797300	0.659700
C971	C97	0.929700	0.764770	0.773100
C981	C98	0.889300	0.789880	0.736800
H1041	H104	0.893100	0.813400	0.747600
C991	C99	0.110140	0.405000	0.387660
C1001	C100	0.174200	0.415450	0.375840
C1011	C101	0.201500	0.395990	0.341500
H1051	H105	0.177300	0.376100	0.323300
C1021	C102	0.264200	0.405550	0.333700
H1061	H106	0.281500	0.392300	0.310000
C1031	C103	0.211500	0.445170	0.402100
H1071	H107	0.193800	0.458900	0.425100
C1041	C104	0.301200	0.434510	0.360700
C1051	C105	0.273900	0.454560	0.394800
H1081	H108	0.298100	0.474500	0.412700
C1061	C106	0.014850	0.407420	0.409340
C1071	C107	0.957400	0.456740	0.442600
H1091	H109	0.994400	0.471300	0.441700
C1081	C108	0.905200	0.470240	0.460300
H1101	H110	0.907900	0.493600	0.471900
C1091	C109	0.956700	0.421460	0.426000
C1101	C110	0.902300	0.400780	0.430500
H1111	H111	0.901800	0.376900	0.422200
C1111	C111	0.848800	0.414470	0.446800
H1121	H112	0.812000	0.400000	0.448400
C1121	C112	0.849100	0.450090	0.461200
C1131	C113	0.225050	0.643080	0.410610
C1141	C114	0.261100	0.655670	0.463960
H1131	H113	0.257100	0.679300	0.472000
C1151	C115	0.231400	0.607810	0.400800
H1141	H114	0.206300	0.598400	0.365500
C1161	C116	0.181590	0.666850	0.365680
C1171	C117	0.303200	0.633730	0.506000
H1151	H115	0.326300	0.642800	0.541800
C1181	C118	0.274700	0.585880	0.442500
H1161	H116	0.279100	0.562200	0.434700
C1191	C119	0.311100	0.599150	0.495400
C1201	C120	0.148460	0.744090	0.278790
C1211	C121	0.199400	0.751120	0.254080
H1171	H117	0.237200	0.735700	0.259500
C1221	C122	0.194500	0.780830	0.221600
H1181	H118	0.229600	0.785400	0.205800
C1231	C123	0.093340	0.768180	0.270720
H1191	H119	0.059200	0.764200	0.287800
C1241	C124	0.149420	0.711310	0.309860
C1251	C125	0.138200	0.804100	0.211920
C1261	C126	0.088700	0.797560	0.238080
H1201	H120	0.051700	0.813400	0.233500
C1271	C127	0.093050	0.529260	0.305470
C1281	C128	0.133700	0.506650	0.280270
C1291	C129	0.107100	0.474620	0.254410
H1211	H121	0.064700	0.465900	0.256900
C1301	C130	0.205400	0.467750	0.221500
C1311	C131	0.197900	0.518060	0.277300
H1221	H122	0.217100	0.539100	0.294800
C1321	C132	0.142600	0.455720	0.225300
H1231	H123	0.123700	0.434600	0.208000
C1331	C133	0.233800	0.499000	0.249000
H1241	H124	0.277300	0.507000	0.248200
C1341	C134	0.914300	0.538030	0.367910
H1251	H125	0.906000	0.519100	0.343100
C1351	C135	0.938200	0.593860	0.441960
H1261	H126	0.946800	0.612800	0.466800
C1361	C136	0.977800	0.556160	0.381260
C1371	C137	0.027300	0.550540	0.350520
C1381	C138	0.988600	0.584300	0.419320
H1271	H127	0.031000	0.596700	0.429300
C1391	C139	0.874600	0.575980	0.428900
C1401	C140	0.863300	0.547630	0.390700
H1281	H128	0.820800	0.535300	0.380800
C1411	C141	0.461860	0.692430	0.459440
C1421	C142	0.512600	0.683780	0.511220
H1291	H129	0.537100	0.701700	0.534900
C1431	C143	0.426600	0.664770	0.425300
H1301	H130	0.392200	0.669600	0.390700
C1441	C144	0.442000	0.630040	0.442200
H1311	H131	0.418100	0.611900	0.418500
C1451	C145	0.446860	0.729170	0.441760
C1461	C146	0.527000	0.649280	0.528090
H1321	H132	0.560400	0.644300	0.563100
C1471	C147	0.492400	0.621930	0.493600
C1481	C148	0.391870	0.776510	0.403880
C1491	C149	0.270600	0.800160	0.385460
H1331	H133	0.263000	0.782600	0.408600
C1501	C150	0.218200	0.824460	0.362000
H1341	H134	0.175800	0.823200	0.369500
C1511	C151	0.228000	0.850880	0.327100
C1521	C152	0.290700	0.851700	0.315500
H1351	H135	0.297500	0.868900	0.291300
C1531	C153	0.343700	0.827310	0.339160
H1361	H136	0.385500	0.828300	0.330800
C1541	C154	0.334800	0.801390	0.375350
C1551	C155	0.833790	0.647090	0.313650
C1561	C156	0.760790	0.634090	0.289460
C1571	C157	0.736700	0.624340	0.233600
H1371	H137	0.763700	0.629800	0.210800
C1581	C158	0.719600	0.627340	0.322500
H1381	H138	0.734500	0.634200	0.360300
C1591	C159	0.673400	0.606580	0.210500
H1391	H139	0.658700	0.599900	0.172700
C1601	C160	0.633100	0.598800	0.241800
C1611	C161	0.655100	0.610100	0.298700
H1401	H140	0.626300	0.606000	0.320500
C1621	C162	0.982310	0.700080	0.390660
C1631	C163	0.974100	0.735330	0.375350
H1411	H141	0.931900	0.742900	0.348900
C1641	C164	0.027400	0.759250	0.398700
H1421	H142	0.021400	0.782700	0.387500
C1651	C165	0.097700	0.713740	0.455600
H1431	H143	0.139200	0.706400	0.483200
C1661	C166	0.090100	0.748420	0.438900
C1671	C167	0.929490	0.674190	0.358340
C1681	C168	0.044100	0.689440	0.431480
H1441	H144	0.050000	0.666000	0.442900
Cu171	Cu17	0.461380	0.128260	0.168060
Cu181	Cu18	0.446930	0.974570	0.132290
Cu191	Cu19	0.907010	0.254920	0.003320
Cu201	Cu20	0.204990	0.218250	0.118850
Cu211	Cu21	0.993680	0.328930	0.067700
Cu221	Cu22	0.683110	0.206060	0.112280
Cu231	Cu23	0.847600	0.331110	0.087110
Cu241	Cu24	0.391060	0.094610	0.253590
Cl31	Cl3	0.874890	0.318780	0.991990
N611	N61	0.449990	0.077610	0.172310
N621	N62	0.446550	0.019540	0.161930
N631	N63	0.408320	0.064010	0.201580
N641	N64	0.721080	0.204390	0.916170
N651	N65	0.776200	0.254300	0.911160
N661	N66	0.817520	0.235860	0.958300
N671	N67	0.005240	0.254700	0.047700
N681	N68	0.040840	0.285230	0.072010
N691	N69	0.118610	0.241660	0.089030
N701	N70	0.466650	0.873660	0.088670
N711	N71	0.405020	0.872300	0.102340
N721	N72	0.439410	0.927900	0.106710
N731	N73	0.614290	0.130650	0.197590
N741	N74	0.552610	0.148200	0.169050
N751	N75	0.641170	0.174580	0.150660
N761	N76	0.293950	0.197590	0.149080
N771	N77	0.385930	0.161870	0.164290
N781	N78	0.406720	0.190560	0.200040
N791	N79	0.324200	0.375940	0.194900
H1451	H145	0.317900	0.392400	0.216200
H1461	H146	0.362900	0.375000	0.187200
N801	N80	0.368500	0.332960	0.323300
H1471	H147	0.403800	0.347100	0.329100
H1481	H148	0.337300	0.336800	0.339400
N811	N81	0.675100	0.085090	0.046400
H1491	H149	0.666700	0.102100	0.022500
H1501	H150	0.714400	0.073700	0.054900
N821	N82	0.258700	0.948380	0.307900
H1511	H151	0.276000	0.928800	0.323700
H1521	H152	0.219300	0.956000	0.310100
N831	N83	0.354400	0.272460	0.038200
H1531	H153	0.315400	0.265500	0.013600
H1541	H154	0.359300	0.294100	0.048800
N841	N84	0.923700	0.093730	0.101500
H1551	H155	0.917500	0.072500	0.088600
H1561	H156	0.953500	0.097900	0.134500
N851	N85	0.990900	0.087170	0.990400
H1571	H157	0.958800	0.082500	0.958700
H1581	H158	0.012800	0.070300	0.012200
N861	N86	0.521900	0.273960	0.674310
H1591	H159	0.516700	0.295700	0.664000
H1601	H160	0.497200	0.257900	0.652300
N871	N87	0.147900	0.077040	0.961400
H1611	H161	0.127500	0.085300	0.928000
H1621	H162	0.143000	0.055200	0.968300
N881	N88	0.133500	0.942820	0.144500
H1631	H163	0.116200	0.929800	0.164700
H1641	H164	0.110500	0.961000	0.127500
N891	N89	0.704700	0.964800	0.022800
H1651	H165	0.702800	0.986700	0.013500
H1661	H166	0.740000	0.952100	0.022300
N901	N90	0.932000	0.081300	0.282300
H1671	H167	0.945900	0.075500	0.317500
H1681	H168	0.957900	0.076400	0.261900
C1691	C169	0.783390	0.206000	0.959540
C1701	C170	0.857500	0.183500	0.054590
H1691	H169	0.863600	0.206400	0.068700
C1711	C171	0.885400	0.121490	0.068500
C1721	C172	0.837200	0.115040	0.015100
H1701	H170	0.828000	0.092000	0.002200
C1731	C173	0.813180	0.177390	0.999570
C1741	C174	0.802900	0.142640	0.980990
H1711	H171	0.772200	0.137900	0.944800
C1751	C175	0.892800	0.155940	0.088760
H1721	H172	0.921800	0.160500	0.125600
C1761	C176	0.719070	0.234660	0.886860
C1771	C177	0.664880	0.244950	0.833570
C1781	C178	0.624700	0.219820	0.795980
H1731	H173	0.629300	0.196200	0.806200
C1791	C179	0.577700	0.229640	0.743500
H1741	H174	0.550900	0.212500	0.719200
C1801	C180	0.657100	0.280050	0.816080
H1751	H175	0.683500	0.297300	0.840300
C1811	C181	0.570300	0.264770	0.726900
C1821	C182	0.610700	0.289880	0.763200
H1761	H176	0.606900	0.313400	0.752400
C1831	C183	0.389860	0.905000	0.112340
C1841	C184	0.325800	0.915450	0.124160
C1851	C185	0.298500	0.895990	0.158500
H1771	H177	0.322700	0.876100	0.176700
C1861	C186	0.235800	0.905550	0.166300
H1781	H178	0.218500	0.892300	0.190000
C1871	C187	0.288500	0.945170	0.097900
H1791	H179	0.306200	0.958900	0.074900
C1881	C188	0.198800	0.934510	0.139300
C1891	C189	0.226100	0.954560	0.105200
H1801	H180	0.201900	0.974500	0.087300
C1901	C190	0.485150	0.907420	0.090660
C1911	C191	0.542600	0.956740	0.057400
H1811	H181	0.505600	0.971300	0.058300
C1921	C192	0.594800	0.970240	0.039700
H1821	H182	0.592100	0.993600	0.028100
C1931	C193	0.543300	0.921460	0.074000
C1941	C194	0.597700	0.900780	0.069500
H1831	H183	0.598200	0.876900	0.077800
C1951	C195	0.651200	0.914470	0.053200
H1841	H184	0.688000	0.900000	0.051600
C1961	C196	0.650900	0.950090	0.038800
C1971	C197	0.274950	0.143080	0.089390
C1981	C198	0.238900	0.155670	0.036040
H1851	H185	0.242900	0.179300	0.028000
C1991	C199	0.268600	0.107810	0.099200
H1861	H186	0.293700	0.098400	0.134500
C2001	C200	0.318410	0.166850	0.134320
C2011	C201	0.196800	0.133730	0.994000
H1871	H187	0.173700	0.142800	0.958200
C2021	C202	0.225300	0.085880	0.057500
H1881	H188	0.220900	0.062200	0.065300
C2031	C203	0.188900	0.099150	0.004600
C2041	C204	0.351540	0.244090	0.221210
C2051	C205	0.300600	0.251120	0.245920
H1891	H189	0.262800	0.235700	0.240500
C2061	C206	0.305500	0.280830	0.278400
H1901	H190	0.270400	0.285400	0.294200
C2071	C207	0.406660	0.268180	0.229280
H1911	H191	0.440800	0.264200	0.212200
C2081	C208	0.350580	0.211310	0.190140
C2091	C209	0.361800	0.304100	0.288080
C2101	C210	0.411300	0.297560	0.261920
H1921	H192	0.448300	0.313400	0.266500
C2111	C211	0.406950	0.029260	0.194530
C2121	C212	0.366300	0.006650	0.219730
C2131	C213	0.392900	0.974620	0.245590
H1931	H193	0.435300	0.965900	0.243100
C2141	C214	0.294600	0.967750	0.278500
C2151	C215	0.302100	0.018060	0.222700
H1941	H194	0.282900	0.039100	0.205200
C2161	C216	0.357400	0.955720	0.274700
H1951	H195	0.376300	0.934600	0.292000
C2171	C217	0.266200	0.999000	0.251000
H1961	H196	0.222700	0.007000	0.251800
C2181	C218	0.585700	0.038030	0.132090
H1971	H197	0.594000	0.019100	0.156900
C2191	C219	0.561800	0.093860	0.058040
H1981	H198	0.553200	0.112800	0.033200
C2201	C220	0.522200	0.056160	0.118740
C2211	C221	0.472700	0.050540	0.149480
C2221	C222	0.511400	0.084300	0.080680
H1991	H199	0.469000	0.096700	0.070700
C2231	C223	0.625400	0.075980	0.071100
C2241	C224	0.636700	0.047630	0.109300
H2001	H200	0.679200	0.035300	0.119200
C2251	C225	0.038140	0.192430	0.040560
C2261	C226	0.987400	0.183780	0.988780
H2011	H201	0.962900	0.201700	0.965100
C2271	C227	0.073400	0.164770	0.074700
H2021	H202	0.107800	0.169600	0.109300
C2281	C228	0.058000	0.130040	0.057800
H2031	H203	0.081900	0.111900	0.081500
C2291	C229	0.053140	0.229170	0.058240
C2301	C230	0.973000	0.149280	0.971910
H2041	H204	0.939600	0.144300	0.936900
C2311	C231	0.007600	0.121930	0.006400
C2321	C232	0.108130	0.276510	0.096120
C2331	C233	0.229400	0.300160	0.114540
H2051	H205	0.237000	0.282600	0.091400
C2341	C234	0.281800	0.324460	0.138000
H2061	H206	0.324200	0.323200	0.130500
C2351	C235	0.272000	0.350880	0.172900
C2361	C236	0.209300	0.351700	0.184500
H2071	H207	0.202500	0.368900	0.208700
C2371	C237	0.156300	0.327310	0.160840
H2081	H208	0.114500	0.328300	0.169200
C2381	C238	0.165200	0.301390	0.124650
C2391	C239	0.666210	0.147090	0.186350
C2401	C240	0.739210	0.134090	0.210540
C2411	C241	0.763300	0.124340	0.266400
H2091	H209	0.736300	0.129800	0.289200
C2421	C242	0.780400	0.127340	0.177500
H2101	H210	0.765500	0.134200	0.139700
C2431	C243	0.826600	0.106580	0.289500
H2111	H211	0.841300	0.099900	0.327300
C2441	C244	0.866900	0.098800	0.258200
C2451	C245	0.844900	0.110100	0.201300
H2121	H212	0.873700	0.106000	0.179500
C2461	C246	0.517690	0.200080	0.109340
C2471	C247	0.525900	0.235330	0.124650
H2131	H213	0.568100	0.242900	0.151100
C2481	C248	0.472600	0.259250	0.101300
H2141	H214	0.478600	0.282700	0.112500
C2491	C249	0.402300	0.213740	0.044400
H2151	H215	0.360800	0.206400	0.016800
C2501	C250	0.409900	0.248420	0.061100
C2511	C251	0.570510	0.174190	0.141660
C2521	C252	0.455900	0.189440	0.068520
H2161	H216	0.450000	0.166000	0.057100
Cu251	Cu25	0.961380	0.628260	0.168060
Cu261	Cu26	0.946930	0.474570	0.132290
Cu271	Cu27	0.407010	0.754920	0.003320
Cu281	Cu28	0.704990	0.718250	0.118850
Cu291	Cu29	0.493680	0.828930	0.067700
Cu301	Cu30	0.183110	0.706060	0.112280
Cu311	Cu31	0.347600	0.831110	0.087110
Cu321	Cu32	0.891060	0.594610	0.253590
Cl41	Cl4	0.374890	0.818780	0.991990
N911	N91	0.949990	0.577610	0.172310
N921	N92	0.946550	0.519540	0.161930
N931	N93	0.908320	0.564010	0.201580
N941	N94	0.221080	0.704390	0.916170
N951	N95	0.276200	0.754300	0.911160
N961	N96	0.317520	0.735860	0.958300
N971	N97	0.505240	0.754700	0.047700
N981	N98	0.540840	0.785230	0.072010
N991	N99	0.618610	0.741660	0.089030
N1001	N100	0.966650	0.373660	0.088670
N1011	N101	0.905020	0.372300	0.102340
N1021	N102	0.939410	0.427900	0.106710
N1031	N103	0.114290	0.630650	0.197590
N1041	N104	0.052610	0.648200	0.169050
N1051	N105	0.141170	0.674580	0.150660
N1061	N106	0.793950	0.697590	0.149080
N1071	N107	0.885930	0.661870	0.164290
N1081	N108	0.906720	0.690560	0.200040
N1091	N109	0.824200	0.875940	0.194900
H2171	H217	0.817900	0.892400	0.216200
H2181	H218	0.862900	0.875000	0.187200
N1101	N110	0.868500	0.832960	0.323300
H2191	H219	0.903800	0.847100	0.329100
H2201	H220	0.837300	0.836800	0.339400
N1111	N111	0.175100	0.585090	0.046400
H2211	H221	0.166700	0.602100	0.022500
H2221	H222	0.214400	0.573700	0.054900
N1121	N112	0.758700	0.448380	0.307900
H2231	H223	0.776000	0.428800	0.323700
H2241	H224	0.719300	0.456000	0.310100
N1131	N113	0.854400	0.772460	0.038200
H2251	H225	0.815400	0.765500	0.013600
H2261	H226	0.859300	0.794100	0.048800
N1141	N114	0.423700	0.593730	0.101500
H2271	H227	0.417500	0.572500	0.088600
H2281	H228	0.453500	0.597900	0.134500
N1151	N115	0.490900	0.587170	0.990400
H2291	H229	0.458800	0.582500	0.958700
H2301	H230	0.512800	0.570300	0.012200
N1161	N116	0.021900	0.773960	0.674310
H2311	H231	0.016700	0.795700	0.664000
H2321	H232	0.997200	0.757900	0.652300
N1171	N117	0.647900	0.577040	0.961400
H2331	H233	0.627500	0.585300	0.928000
H2341	H234	0.643000	0.555200	0.968300
N1181	N118	0.633500	0.442820	0.144500
H2351	H235	0.616200	0.429800	0.164700
H2361	H236	0.610500	0.461000	0.127500
N1191	N119	0.204700	0.464800	0.022800
H2371	H237	0.202800	0.486700	0.013500
H2381	H238	0.240000	0.452100	0.022300
N1201	N120	0.432000	0.581300	0.282300
H2391	H239	0.445900	0.575500	0.317500
H2401	H240	0.457900	0.576400	0.261900
C2531	C253	0.283390	0.706000	0.959540
C2541	C254	0.357500	0.683500	0.054590
H2411	H241	0.363600	0.706400	0.068700
C2551	C255	0.385400	0.621490	0.068500
C2561	C256	0.337200	0.615040	0.015100
H2421	H242	0.328000	0.592000	0.002200
C2571	C257	0.313180	0.677390	0.999570
C2581	C258	0.302900	0.642640	0.980990
H2431	H243	0.272200	0.637900	0.944800
C2591	C259	0.392800	0.655940	0.088760
H2441	H244	0.421800	0.660500	0.125600
C2601	C260	0.219070	0.734660	0.886860
C2611	C261	0.164880	0.744950	0.833570
C2621	C262	0.124700	0.719820	0.795980
H2451	H245	0.129300	0.696200	0.806200
C2631	C263	0.077700	0.729640	0.743500
H2461	H246	0.050900	0.712500	0.719200
C2641	C264	0.157100	0.780050	0.816080
H2471	H247	0.183500	0.797300	0.840300
C2651	C265	0.070300	0.764770	0.726900
C2661	C266	0.110700	0.789880	0.763200
H2481	H248	0.106900	0.813400	0.752400
C2671	C267	0.889860	0.405000	0.112340
C2681	C268	0.825800	0.415450	0.124160
C2691	C269	0.798500	0.395990	0.158500
H2491	H249	0.822700	0.376100	0.176700
C2701	C270	0.735800	0.405550	0.166300
H2501	H250	0.718500	0.392300	0.190000
C2711	C271	0.788500	0.445170	0.097900
H2511	H251	0.806200	0.458900	0.074900
C2721	C272	0.698800	0.434510	0.139300
C2731	C273	0.726100	0.454560	0.105200
H2521	H252	0.701900	0.474500	0.087300
C2741	C274	0.985150	0.407420	0.090660
C2751	C275	0.042600	0.456740	0.057400
H2531	H253	0.005600	0.471300	0.058300
C2761	C276	0.094800	0.470240	0.039700
H2541	H254	0.092100	0.493600	0.028100
C2771	C277	0.043300	0.421460	0.074000
C2781	C278	0.097700	0.400780	0.069500
H2551	H255	0.098200	0.376900	0.077800
C2791	C279	0.151200	0.414470	0.053200
H2561	H256	0.188000	0.400000	0.051600
C2801	C280	0.150900	0.450090	0.038800
C2811	C281	0.774950	0.643080	0.089390
C2821	C282	0.738900	0.655670	0.036040
H2571	H257	0.742900	0.679300	0.028000
C2831	C283	0.768600	0.607810	0.099200
H2581	H258	0.793700	0.598400	0.134500
C2841	C284	0.818410	0.666850	0.134320
C2851	C285	0.696800	0.633730	0.994000
H2591	H259	0.673700	0.642800	0.958200
C2861	C286	0.725300	0.585880	0.057500
H2601	H260	0.720900	0.562200	0.065300
C2871	C287	0.688900	0.599150	0.004600
C2881	C288	0.851540	0.744090	0.221210
C2891	C289	0.800600	0.751120	0.245920
H2611	H261	0.762800	0.735700	0.240500
C2901	C290	0.805500	0.780830	0.278400
H2621	H262	0.770400	0.785400	0.294200
C2911	C291	0.906660	0.768180	0.229280
H2631	H263	0.940800	0.764200	0.212200
C2921	C292	0.850580	0.711310	0.190140
C2931	C293	0.861800	0.804100	0.288080
C2941	C294	0.911300	0.797560	0.261920
H2641	H264	0.948300	0.813400	0.266500
C2951	C295	0.906950	0.529260	0.194530
C2961	C296	0.866300	0.506650	0.219730
C2971	C297	0.892900	0.474620	0.245590
H2651	H265	0.935300	0.465900	0.243100
C2981	C298	0.794600	0.467750	0.278500
C2991	C299	0.802100	0.518060	0.222700
H2661	H266	0.782900	0.539100	0.205200
C3001	C300	0.857400	0.455720	0.274700
H2671	H267	0.876300	0.434600	0.292000
C3011	C301	0.766200	0.499000	0.251000
H2681	H268	0.722700	0.507000	0.251800
C3021	C302	0.085700	0.538030	0.132090
H2691	H269	0.094000	0.519100	0.156900
C3031	C303	0.061800	0.593860	0.058040
H2701	H270	0.053200	0.612800	0.033200
C3041	C304	0.022200	0.556160	0.118740
C3051	C305	0.972700	0.550540	0.149480
C3061	C306	0.011400	0.584300	0.080680
H2711	H271	0.969000	0.596700	0.070700
C3071	C307	0.125400	0.575980	0.071100
C3081	C308	0.136700	0.547630	0.109300
H2721	H272	0.179200	0.535300	0.119200
C3091	C309	0.538140	0.692430	0.040560
C3101	C310	0.487400	0.683780	0.988780
H2731	H273	0.462900	0.701700	0.965100
C3111	C311	0.573400	0.664770	0.074700
H2741	H274	0.607800	0.669600	0.109300
C3121	C312	0.558000	0.630040	0.057800
H2751	H275	0.581900	0.611900	0.081500
C3131	C313	0.553140	0.729170	0.058240
C3141	C314	0.473000	0.649280	0.971910
H2761	H276	0.439600	0.644300	0.936900
C3151	C315	0.507600	0.621930	0.006400
C3161	C316	0.608130	0.776510	0.096120
C3171	C317	0.729400	0.800160	0.114540
H2771	H277	0.737000	0.782600	0.091400
C3181	C318	0.781800	0.824460	0.138000
H2781	H278	0.824200	0.823200	0.130500
C3191	C319	0.772000	0.850880	0.172900
C3201	C320	0.709300	0.851700	0.184500
H2791	H279	0.702500	0.868900	0.208700
C3211	C321	0.656300	0.827310	0.160840
H2801	H280	0.614500	0.828300	0.169200
C3221	C322	0.665200	0.801390	0.124650
C3231	C323	0.166210	0.647090	0.186350
C3241	C324	0.239210	0.634090	0.210540
C3251	C325	0.263300	0.624340	0.266400
H2811	H281	0.236300	0.629800	0.289200
C3261	C326	0.280400	0.627340	0.177500
H2821	H282	0.265500	0.634200	0.139700
C3271	C327	0.326600	0.606580	0.289500
H2831	H283	0.341300	0.599900	0.327300
C3281	C328	0.366900	0.598800	0.258200
C3291	C329	0.344900	0.610100	0.201300
H2841	H284	0.373700	0.606000	0.179500
C3301	C330	0.017690	0.700080	0.109340
C3311	C331	0.025900	0.735330	0.124650
H2851	H285	0.068100	0.742900	0.151100
C3321	C332	0.972600	0.759250	0.101300
H2861	H286	0.978600	0.782700	0.112500
C3331	C333	0.902300	0.713740	0.044400
H2871	H287	0.860800	0.706400	0.016800
C3341	C334	0.909900	0.748420	0.061100
C3351	C335	0.070510	0.674190	0.141660
C3361	C336	0.955900	0.689440	0.068520
H2881	H288	0.950000	0.666000	0.057100
Cu331	Cu33	0.461380	0.871740	0.668060
Cu341	Cu34	0.446930	0.025430	0.632290
Cu351	Cu35	0.907010	0.745080	0.503320
Cu361	Cu36	0.204990	0.781750	0.618850
Cu371	Cu37	0.993680	0.671070	0.567700
Cu381	Cu38	0.683110	0.793940	0.612280
Cu391	Cu39	0.847600	0.668890	0.587110
Cu401	Cu40	0.391060	0.905390	0.753590
Cl51	Cl5	0.874890	0.681220	0.491990
N1211	N121	0.449990	0.922390	0.672310
N1221	N122	0.446550	0.980460	0.661930
N1231	N123	0.408320	0.935990	0.701580
N1241	N124	0.721080	0.795610	0.416170
N1251	N125	0.776200	0.745700	0.411160
N1261	N126	0.817520	0.764140	0.458300
N1271	N127	0.005240	0.745300	0.547700
N1281	N128	0.040840	0.714770	0.572010
N1291	N129	0.118610	0.758340	0.589030
N1301	N130	0.466650	0.126340	0.588670
N1311	N131	0.405020	0.127700	0.602340
N1321	N132	0.439410	0.072100	0.606710
N1331	N133	0.614290	0.869350	0.697590
N1341	N134	0.552610	0.851800	0.669050
N1351	N135	0.641170	0.825420	0.650660
N1361	N136	0.293950	0.802410	0.649080
N1371	N137	0.385930	0.838130	0.664290
N1381	N138	0.406720	0.809440	0.700040
N1391	N139	0.324200	0.624060	0.694900
H2891	H289	0.317900	0.607600	0.716200
H2901	H290	0.362900	0.625000	0.687200
N1401	N140	0.368500	0.667040	0.823300
H2911	H291	0.403800	0.652900	0.829100
H2921	H292	0.337300	0.663200	0.839400
N1411	N141	0.675100	0.914910	0.546400
H2931	H293	0.666700	0.897900	0.522500
H2941	H294	0.714400	0.926300	0.554900
N1421	N142	0.258700	0.051620	0.807900
H2951	H295	0.276000	0.071200	0.823700
H2961	H296	0.219300	0.044000	0.810100
N1431	N143	0.354400	0.727540	0.538200
H2971	H297	0.315400	0.734500	0.513600
H2981	H298	0.359300	0.705900	0.548800
N1441	N144	0.923700	0.906270	0.601500
H2991	H299	0.917500	0.927500	0.588600
H3001	H300	0.953500	0.902100	0.634500
N1451	N145	0.990900	0.912830	0.490400
H3011	H301	0.958800	0.917500	0.458700
H3021	H302	0.012800	0.929700	0.512200
N1461	N146	0.521900	0.726040	0.174310
H3031	H303	0.516700	0.704300	0.164000
H3041	H304	0.497200	0.742100	0.152300
N1471	N147	0.147900	0.922960	0.461400
H3051	H305	0.127500	0.914700	0.428000
H3061	H306	0.143000	0.944800	0.468300
N1481	N148	0.133500	0.057180	0.644500
H3071	H307	0.116200	0.070200	0.664700
H3081	H308	0.110500	0.039000	0.627500
N1491	N149	0.704700	0.035200	0.522800
H3091	H309	0.702800	0.013300	0.513500
H3101	H310	0.740000	0.047900	0.522300
N1501	N150	0.932000	0.918700	0.782300
H3111	H311	0.945900	0.924500	0.817500
H3121	H312	0.957900	0.923600	0.761900
C3371	C337	0.783390	0.794000	0.459540
C3381	C338	0.857500	0.816500	0.554590
H3131	H313	0.863600	0.793600	0.568700
C3391	C339	0.885400	0.878510	0.568500
C3401	C340	0.837200	0.884960	0.515100
H3141	H314	0.828000	0.908000	0.502200
C3411	C341	0.813180	0.822610	0.499570
C3421	C342	0.802900	0.857360	0.480990
H3151	H315	0.772200	0.862100	0.444800
C3431	C343	0.892800	0.844060	0.588760
H3161	H316	0.921800	0.839500	0.625600
C3441	C344	0.719070	0.765340	0.386860
C3451	C345	0.664880	0.755050	0.333570
C3461	C346	0.624700	0.780180	0.295980
H3171	H317	0.629300	0.803800	0.306200
C3471	C347	0.577700	0.770360	0.243500
H3181	H318	0.550900	0.787500	0.219200
C3481	C348	0.657100	0.719950	0.316080
H3191	H319	0.683500	0.702700	0.340300
C3491	C349	0.570300	0.735230	0.226900
C3501	C350	0.610700	0.710120	0.263200
H3201	H320	0.606900	0.686600	0.252400
C3511	C351	0.389860	0.095000	0.612340
C3521	C352	0.325800	0.084550	0.624160
C3531	C353	0.298500	0.104010	0.658500
H3211	H321	0.322700	0.123900	0.676700
C3541	C354	0.235800	0.094450	0.666300
H3221	H322	0.218500	0.107700	0.690000
C3551	C355	0.288500	0.054830	0.597900
H3231	H323	0.306200	0.041100	0.574900
C3561	C356	0.198800	0.065490	0.639300
C3571	C357	0.226100	0.045440	0.605200
H3241	H324	0.201900	0.025500	0.587300
C3581	C358	0.485150	0.092580	0.590660
C3591	C359	0.542600	0.043260	0.557400
H3251	H325	0.505600	0.028700	0.558300
C3601	C360	0.594800	0.029760	0.539700
H3261	H326	0.592100	0.006400	0.528100
C3611	C361	0.543300	0.078540	0.574000
C3621	C362	0.597700	0.099220	0.569500
H3271	H327	0.598200	0.123100	0.577800
C3631	C363	0.651200	0.085530	0.553200
H3281	H328	0.688000	0.100000	0.551600
C3641	C364	0.650900	0.049910	0.538800
C3651	C365	0.274950	0.856920	0.589390
C3661	C366	0.238900	0.844330	0.536040
H3291	H329	0.242900	0.820700	0.528000
C3671	C367	0.268600	0.892190	0.599200
H3301	H330	0.293700	0.901600	0.634500
C3681	C368	0.318410	0.833150	0.634320
C3691	C369	0.196800	0.866270	0.494000
H3311	H331	0.173700	0.857200	0.458200
C3701	C370	0.225300	0.914120	0.557500
H3321	H332	0.220900	0.937800	0.565300
C3711	C371	0.188900	0.900850	0.504600
C3721	C372	0.351540	0.755910	0.721210
C3731	C373	0.300600	0.748880	0.745920
H3331	H333	0.262800	0.764300	0.740500
C3741	C374	0.305500	0.719170	0.778400
H3341	H334	0.270400	0.714600	0.794200
C3751	C375	0.406660	0.731820	0.729280
H3351	H335	0.440800	0.735800	0.712200
C3761	C376	0.350580	0.788690	0.690140
C3771	C377	0.361800	0.695900	0.788080
C3781	C378	0.411300	0.702440	0.761920
H3361	H336	0.448300	0.686600	0.766500
C3791	C379	0.406950	0.970740	0.694530
C3801	C380	0.366300	0.993350	0.719730
C3811	C381	0.392900	0.025380	0.745590
H3371	H337	0.435300	0.034100	0.743100
C3821	C382	0.294600	0.032250	0.778500
C3831	C383	0.302100	0.981940	0.722700
H3381	H338	0.282900	0.960900	0.705200
C3841	C384	0.357400	0.044280	0.774700
H3391	H339	0.376300	0.065400	0.792000
C3851	C385	0.266200	0.001000	0.751000
H3401	H340	0.222700	0.993000	0.751800
C3861	C386	0.585700	0.961970	0.632090
H3411	H341	0.594000	0.980900	0.656900
C3871	C387	0.561800	0.906140	0.558040
H3421	H342	0.553200	0.887200	0.533200
C3881	C388	0.522200	0.943840	0.618740
C3891	C389	0.472700	0.949460	0.649480
C3901	C390	0.511400	0.915700	0.580680
H3431	H343	0.469000	0.903300	0.570700
C3911	C391	0.625400	0.924020	0.571100
C3921	C392	0.636700	0.952370	0.609300
H3441	H344	0.679200	0.964700	0.619200
C3931	C393	0.038140	0.807570	0.540560
C3941	C394	0.987400	0.816220	0.488780
H3451	H345	0.962900	0.798300	0.465100
C3951	C395	0.073400	0.835230	0.574700
H3461	H346	0.107800	0.830400	0.609300
C3961	C396	0.058000	0.869960	0.557800
H3471	H347	0.081900	0.888100	0.581500
C3971	C397	0.053140	0.770830	0.558240
C3981	C398	0.973000	0.850720	0.471910
H3481	H348	0.939600	0.855700	0.436900
C3991	C399	0.007600	0.878070	0.506400
C4001	C400	0.108130	0.723490	0.596120
C4011	C401	0.229400	0.699840	0.614540
H3491	H349	0.237000	0.717400	0.591400
C4021	C402	0.281800	0.675540	0.638000
H3501	H350	0.324200	0.676800	0.630500
C4031	C403	0.272000	0.649120	0.672900
C4041	C404	0.209300	0.648300	0.684500
H3511	H351	0.202500	0.631100	0.708700
C4051	C405	0.156300	0.672690	0.660840
H3521	H352	0.114500	0.671700	0.669200
C4061	C406	0.165200	0.698610	0.624650
C4071	C407	0.666210	0.852910	0.686350
C4081	C408	0.739210	0.865910	0.710540
C4091	C409	0.763300	0.875660	0.766400
H3531	H353	0.736300	0.870200	0.789200
C4101	C410	0.780400	0.872660	0.677500
H3541	H354	0.765500	0.865800	0.639700
C4111	C411	0.826600	0.893420	0.789500
H3551	H355	0.841300	0.900100	0.827300
C4121	C412	0.866900	0.901200	0.758200
C4131	C413	0.844900	0.889900	0.701300
H3561	H356	0.873700	0.894000	0.679500
C4141	C414	0.517690	0.799920	0.609340
C4151	C415	0.525900	0.764670	0.624650
H3571	H357	0.568100	0.757100	0.651100
C4161	C416	0.472600	0.740750	0.601300
H3581	H358	0.478600	0.717300	0.612500
C4171	C417	0.402300	0.786260	0.544400
H3591	H359	0.360800	0.793600	0.516800
C4181	C418	0.409900	0.751580	0.561100
C4191	C419	0.570510	0.825810	0.641660
C4201	C420	0.455900	0.810560	0.568520
H3601	H360	0.450000	0.834000	0.557100
Cu411	Cu41	0.961380	0.371740	0.668060
Cu421	Cu42	0.946930	0.525430	0.632290
Cu431	Cu43	0.407010	0.245080	0.503320
Cu441	Cu44	0.704990	0.281750	0.618850
Cu451	Cu45	0.493680	0.171070	0.567700
Cu461	Cu46	0.183110	0.293940	0.612280
Cu471	Cu47	0.347600	0.168890	0.587110
Cu481	Cu48	0.891060	0.405390	0.753590
Cl61	Cl6	0.374890	0.181220	0.491990
N1511	N151	0.949990	0.422390	0.672310
N1521	N152	0.946550	0.480460	0.661930
N1531	N153	0.908320	0.435990	0.701580
N1541	N154	0.221080	0.295610	0.416170
N1551	N155	0.276200	0.245700	0.411160
N1561	N156	0.317520	0.264140	0.458300
N1571	N157	0.505240	0.245300	0.547700
N1581	N158	0.540840	0.214770	0.572010
N1591	N159	0.618610	0.258340	0.589030
N1601	N160	0.966650	0.626340	0.588670
N1611	N161	0.905020	0.627700	0.602340
N1621	N162	0.939410	0.572100	0.606710
N1631	N163	0.114290	0.369350	0.697590
N1641	N164	0.052610	0.351800	0.669050
N1651	N165	0.141170	0.325420	0.650660
N1661	N166	0.793950	0.302410	0.649080
N1671	N167	0.885930	0.338130	0.664290
N1681	N168	0.906720	0.309440	0.700040
N1691	N169	0.824200	0.124060	0.694900
H3611	H361	0.817900	0.107600	0.716200
H3621	H362	0.862900	0.125000	0.687200
N1701	N170	0.868500	0.167040	0.823300
H3631	H363	0.903800	0.152900	0.829100
H3641	H364	0.837300	0.163200	0.839400
N1711	N171	0.175100	0.414910	0.546400
H3651	H365	0.166700	0.397900	0.522500
H3661	H366	0.214400	0.426300	0.554900
N1721	N172	0.758700	0.551620	0.807900
H3671	H367	0.776000	0.571200	0.823700
H3681	H368	0.719300	0.544000	0.810100
N1731	N173	0.854400	0.227540	0.538200
H3691	H369	0.815400	0.234500	0.513600
H3701	H370	0.859300	0.205900	0.548800
N1741	N174	0.423700	0.406270	0.601500
H3711	H371	0.417500	0.427500	0.588600
H3721	H372	0.453500	0.402100	0.634500
N1751	N175	0.490900	0.412830	0.490400
H3731	H373	0.458800	0.417500	0.458700
H3741	H374	0.512800	0.429700	0.512200
N1761	N176	0.021900	0.226040	0.174310
H3751	H375	0.016700	0.204300	0.164000
H3761	H376	0.997200	0.242100	0.152300
N1771	N177	0.647900	0.422960	0.461400
H3771	H377	0.627500	0.414700	0.428000
H3781	H378	0.643000	0.444800	0.468300
N1781	N178	0.633500	0.557180	0.644500
H3791	H379	0.616200	0.570200	0.664700
H3801	H380	0.610500	0.539000	0.627500
N1791	N179	0.204700	0.535200	0.522800
H3811	H381	0.202800	0.513300	0.513500
H3821	H382	0.240000	0.547900	0.522300
N1801	N180	0.432000	0.418700	0.782300
H3831	H383	0.445900	0.424500	0.817500
H3841	H384	0.457900	0.423600	0.761900
C4211	C421	0.283390	0.294000	0.459540
C4221	C422	0.357500	0.316500	0.554590
H3851	H385	0.363600	0.293600	0.568700
C4231	C423	0.385400	0.378510	0.568500
C4241	C424	0.337200	0.384960	0.515100
H3861	H386	0.328000	0.408000	0.502200
C4251	C425	0.313180	0.322610	0.499570
C4261	C426	0.302900	0.357360	0.480990
H3871	H387	0.272200	0.362100	0.444800
C4271	C427	0.392800	0.344060	0.588760
H3881	H388	0.421800	0.339500	0.625600
C4281	C428	0.219070	0.265340	0.386860
C4291	C429	0.164880	0.255050	0.333570
C4301	C430	0.124700	0.280180	0.295980
H3891	H389	0.129300	0.303800	0.306200
C4311	C431	0.077700	0.270360	0.243500
H3901	H390	0.050900	0.287500	0.219200
C4321	C432	0.157100	0.219950	0.316080
H3911	H391	0.183500	0.202700	0.340300
C4331	C433	0.070300	0.235230	0.226900
C4341	C434	0.110700	0.210120	0.263200
H3921	H392	0.106900	0.186600	0.252400
C4351	C435	0.889860	0.595000	0.612340
C4361	C436	0.825800	0.584550	0.624160
C4371	C437	0.798500	0.604010	0.658500
H3931	H393	0.822700	0.623900	0.676700
C4381	C438	0.735800	0.594450	0.666300
H3941	H394	0.718500	0.607700	0.690000
C4391	C439	0.788500	0.554830	0.597900
H3951	H395	0.806200	0.541100	0.574900
C4401	C440	0.698800	0.565490	0.639300
C4411	C441	0.726100	0.545440	0.605200
H3961	H396	0.701900	0.525500	0.587300
C4421	C442	0.985150	0.592580	0.590660
C4431	C443	0.042600	0.543260	0.557400
H3971	H397	0.005600	0.528700	0.558300
C4441	C444	0.094800	0.529760	0.539700
H3981	H398	0.092100	0.506400	0.528100
C4451	C445	0.043300	0.578540	0.574000
C4461	C446	0.097700	0.599220	0.569500
H3991	H399	0.098200	0.623100	0.577800
C4471	C447	0.151200	0.585530	0.553200
H4001	H400	0.188000	0.600000	0.551600
C4481	C448	0.150900	0.549910	0.538800
C4491	C449	0.774950	0.356920	0.589390
C4501	C450	0.738900	0.344330	0.536040
H4011	H401	0.742900	0.320700	0.528000
C4511	C451	0.768600	0.392190	0.599200
H4021	H402	0.793700	0.401600	0.634500
C4521	C452	0.818410	0.333150	0.634320
C4531	C453	0.696800	0.366270	0.494000
H4031	H403	0.673700	0.357200	0.458200
C4541	C454	0.725300	0.414120	0.557500
H4041	H404	0.720900	0.437800	0.565300
C4551	C455	0.688900	0.400850	0.504600
C4561	C456	0.851540	0.255910	0.721210
C4571	C457	0.800600	0.248880	0.745920
H4051	H405	0.762800	0.264300	0.740500
C4581	C458	0.805500	0.219170	0.778400
H4061	H406	0.770400	0.214600	0.794200
C4591	C459	0.906660	0.231820	0.729280
H4071	H407	0.940800	0.235800	0.712200
C4601	C460	0.850580	0.288690	0.690140
C4611	C461	0.861800	0.195900	0.788080
C4621	C462	0.911300	0.202440	0.761920
H4081	H408	0.948300	0.186600	0.766500
C4631	C463	0.906950	0.470740	0.694530
C4641	C464	0.866300	0.493350	0.719730
C4651	C465	0.892900	0.525380	0.745590
H4091	H409	0.935300	0.534100	0.743100
C4661	C466	0.794600	0.532250	0.778500
C4671	C467	0.802100	0.481940	0.722700
H4101	H410	0.782900	0.460900	0.705200
C4681	C468	0.857400	0.544280	0.774700
H4111	H411	0.876300	0.565400	0.792000
C4691	C469	0.766200	0.501000	0.751000
H4121	H412	0.722700	0.493000	0.751800
C4701	C470	0.085700	0.461970	0.632090
H4131	H413	0.094000	0.480900	0.656900
C4711	C471	0.061800	0.406140	0.558040
H4141	H414	0.053200	0.387200	0.533200
C4721	C472	0.022200	0.443840	0.618740
C4731	C473	0.972700	0.449460	0.649480
C4741	C474	0.011400	0.415700	0.580680
H4151	H415	0.969000	0.403300	0.570700
C4751	C475	0.125400	0.424020	0.571100
C4761	C476	0.136700	0.452370	0.609300
H4161	H416	0.179200	0.464700	0.619200
C4771	C477	0.538140	0.307570	0.540560
C4781	C478	0.487400	0.316220	0.488780
H4171	H417	0.462900	0.298300	0.465100
C4791	C479	0.573400	0.335230	0.574700
H4181	H418	0.607800	0.330400	0.609300
C4801	C480	0.558000	0.369960	0.557800
H4191	H419	0.581900	0.388100	0.581500
C4811	C481	0.553140	0.270830	0.558240
C4821	C482	0.473000	0.350720	0.471910
H4201	H420	0.439600	0.355700	0.436900
C4831	C483	0.507600	0.378070	0.506400
C4841	C484	0.608130	0.223490	0.596120
C4851	C485	0.729400	0.199840	0.614540
H4211	H421	0.737000	0.217400	0.591400
C4861	C486	0.781800	0.175540	0.638000
H4221	H422	0.824200	0.176800	0.630500
C4871	C487	0.772000	0.149120	0.672900
C4881	C488	0.709300	0.148300	0.684500
H4231	H423	0.702500	0.131100	0.708700
C4891	C489	0.656300	0.172690	0.660840
H4241	H424	0.614500	0.171700	0.669200
C4901	C490	0.665200	0.198610	0.624650
C4911	C491	0.166210	0.352910	0.686350
C4921	C492	0.239210	0.365910	0.710540
C4931	C493	0.263300	0.375660	0.766400
H4251	H425	0.236300	0.370200	0.789200
C4941	C494	0.280400	0.372660	0.677500
H4261	H426	0.265500	0.365800	0.639700
C4951	C495	0.326600	0.393420	0.789500
H4271	H427	0.341300	0.400100	0.827300
C4961	C496	0.366900	0.401200	0.758200
C4971	C497	0.344900	0.389900	0.701300
H4281	H428	0.373700	0.394000	0.679500
C4981	C498	0.017690	0.299920	0.609340
C4991	C499	0.025900	0.264670	0.624650
H4291	H429	0.068100	0.257100	0.651100
C5001	C500	0.972600	0.240750	0.601300
H4301	H430	0.978600	0.217300	0.612500
C5011	C501	0.902300	0.286260	0.544400
H4311	H431	0.860800	0.293600	0.516800
C5021	C502	0.909900	0.251580	0.561100
C5031	C503	0.070510	0.325810	0.641660
C5041	C504	0.955900	0.310560	0.568520
H4321	H432	0.950000	0.334000	0.557100
Cu491	Cu49	0.538620	0.871740	0.831940
Cu501	Cu50	0.553070	0.025430	0.867710
Cu511	Cu51	0.092990	0.745080	0.996680
Cu521	Cu52	0.795010	0.781750	0.881150
Cu531	Cu53	0.006320	0.671070	0.932300
Cu541	Cu54	0.316890	0.793940	0.887720
Cu551	Cu55	0.152400	0.668890	0.912890
Cu561	Cu56	0.608940	0.905390	0.746410
Cl71	Cl7	0.125110	0.681220	0.008010
N1811	N181	0.550010	0.922390	0.827690
N1821	N182	0.553450	0.980460	0.838070
N1831	N183	0.591680	0.935990	0.798420
N1841	N184	0.278920	0.795610	0.083830
N1851	N185	0.223800	0.745700	0.088840
N1861	N186	0.182480	0.764140	0.041700
N1871	N187	0.994760	0.745300	0.952300
N1881	N188	0.959160	0.714770	0.927990
N1891	N189	0.881390	0.758340	0.910970
N1901	N190	0.533350	0.126340	0.911330
N1911	N191	0.594980	0.127700	0.897660
N1921	N192	0.560590	0.072100	0.893290
N1931	N193	0.385710	0.869350	0.802410
N1941	N194	0.447390	0.851800	0.830950
N1951	N195	0.358830	0.825420	0.849340
N1961	N196	0.706050	0.802410	0.850920
N1971	N197	0.614070	0.838130	0.835710
N1981	N198	0.593280	0.809440	0.799960
N1991	N199	0.675800	0.624060	0.805100
H4331	H433	0.682100	0.607600	0.783800
H4341	H434	0.637100	0.625000	0.812800
N2001	N200	0.631500	0.667040	0.676700
H4351	H435	0.596200	0.652900	0.670900
H4361	H436	0.662700	0.663200	0.660600
N2011	N201	0.324900	0.914910	0.953600
H4371	H437	0.333300	0.897900	0.977500
H4381	H438	0.285600	0.926300	0.945100
N2021	N202	0.741300	0.051620	0.692100
H4391	H439	0.724000	0.071200	0.676300
H4401	H440	0.780700	0.044000	0.689900
N2031	N203	0.645600	0.727540	0.961800
H4411	H441	0.684600	0.734500	0.986400
H4421	H442	0.640700	0.705900	0.951200
N2041	N204	0.076300	0.906270	0.898500
H4431	H443	0.082500	0.927500	0.911400
H4441	H444	0.046500	0.902100	0.865500
N2051	N205	0.009100	0.912830	0.009600
H4451	H445	0.041200	0.917500	0.041300
H4461	H446	0.987200	0.929700	0.987800
N2061	N206	0.478100	0.726040	0.325690
H4471	H447	0.483300	0.704300	0.336000
H4481	H448	0.502800	0.742100	0.347700
N2071	N207	0.852100	0.922960	0.038600
H4491	H449	0.872500	0.914700	0.072000
H4501	H450	0.857000	0.944800	0.031700
N2081	N208	0.866500	0.057180	0.855500
H4511	H451	0.883800	0.070200	0.835300
H4521	H452	0.889500	0.039000	0.872500
N2091	N209	0.295300	0.035200	0.977200
H4531	H453	0.297200	0.013300	0.986500
H4541	H454	0.260000	0.047900	0.977700
N2101	N210	0.068000	0.918700	0.717700
H4551	H455	0.054100	0.924500	0.682500
H4561	H456	0.042100	0.923600	0.738100
C5051	C505	0.216610	0.794000	0.040460
C5061	C506	0.142500	0.816500	0.945410
H4571	H457	0.136400	0.793600	0.931300
C5071	C507	0.114600	0.878510	0.931500
C5081	C508	0.162800	0.884960	0.984900
H4581	H458	0.172000	0.908000	0.997800
C5091	C509	0.186820	0.822610	0.000430
C5101	C510	0.197100	0.857360	0.019010
H4591	H459	0.227800	0.862100	0.055200
C5111	C511	0.107200	0.844060	0.911240
H4601	H460	0.078200	0.839500	0.874400
C5121	C512	0.280930	0.765340	0.113140
C5131	C513	0.335120	0.755050	0.166430
C5141	C514	0.375300	0.780180	0.204020
H4611	H461	0.370700	0.803800	0.193800
C5151	C515	0.422300	0.770360	0.256500
H4621	H462	0.449100	0.787500	0.280800
C5161	C516	0.342900	0.719950	0.183920
H4631	H463	0.316500	0.702700	0.159700
C5171	C517	0.429700	0.735230	0.273100
C5181	C518	0.389300	0.710120	0.236800
H4641	H464	0.393100	0.686600	0.247600
C5191	C519	0.610140	0.095000	0.887660
C5201	C520	0.674200	0.084550	0.875840
C5211	C521	0.701500	0.104010	0.841500
H4651	H465	0.677300	0.123900	0.823300
C5221	C522	0.764200	0.094450	0.833700
H4661	H466	0.781500	0.107700	0.810000
C5231	C523	0.711500	0.054830	0.902100
H4671	H467	0.693800	0.041100	0.925100
C5241	C524	0.801200	0.065490	0.860700
C5251	C525	0.773900	0.045440	0.894800
H4681	H468	0.798100	0.025500	0.912700
C5261	C526	0.514850	0.092580	0.909340
C5271	C527	0.457400	0.043260	0.942600
H4691	H469	0.494400	0.028700	0.941700
C5281	C528	0.405200	0.029760	0.960300
H4701	H470	0.407900	0.006400	0.971900
C5291	C529	0.456700	0.078540	0.926000
C5301	C530	0.402300	0.099220	0.930500
H4711	H471	0.401800	0.123100	0.922200
C5311	C531	0.348800	0.085530	0.946800
H4721	H472	0.312000	0.100000	0.948400
C5321	C532	0.349100	0.049910	0.961200
C5331	C533	0.725050	0.856920	0.910610
C5341	C534	0.761100	0.844330	0.963960
H4731	H473	0.757100	0.820700	0.972000
C5351	C535	0.731400	0.892190	0.900800
H4741	H474	0.706300	0.901600	0.865500
C5361	C536	0.681590	0.833150	0.865680
C5371	C537	0.803200	0.866270	0.006000
H4751	H475	0.826300	0.857200	0.041800
C5381	C538	0.774700	0.914120	0.942500
H4761	H476	0.779100	0.937800	0.934700
C5391	C539	0.811100	0.900850	0.995400
C5401	C540	0.648460	0.755910	0.778790
C5411	C541	0.699400	0.748880	0.754080
H4771	H477	0.737200	0.764300	0.759500
C5421	C542	0.694500	0.719170	0.721600
H4781	H478	0.729600	0.714600	0.705800
C5431	C543	0.593340	0.731820	0.770720
H4791	H479	0.559200	0.735800	0.787800
C5441	C544	0.649420	0.788690	0.809860
C5451	C545	0.638200	0.695900	0.711920
C5461	C546	0.588700	0.702440	0.738080
H4801	H480	0.551700	0.686600	0.733500
C5471	C547	0.593050	0.970740	0.805470
C5481	C548	0.633700	0.993350	0.780270
C5491	C549	0.607100	0.025380	0.754410
H4811	H481	0.564700	0.034100	0.756900
C5501	C550	0.705400	0.032250	0.721500
C5511	C551	0.697900	0.981940	0.777300
H4821	H482	0.717100	0.960900	0.794800
C5521	C552	0.642600	0.044280	0.725300
H4831	H483	0.623700	0.065400	0.708000
C5531	C553	0.733800	0.001000	0.749000
H4841	H484	0.777300	0.993000	0.748200
C5541	C554	0.414300	0.961970	0.867910
H4851	H485	0.406000	0.980900	0.843100
C5551	C555	0.438200	0.906140	0.941960
H4861	H486	0.446800	0.887200	0.966800
C5561	C556	0.477800	0.943840	0.881260
C5571	C557	0.527300	0.949460	0.850520
C5581	C558	0.488600	0.915700	0.919320
H4871	H487	0.531000	0.903300	0.929300
C5591	C559	0.374600	0.924020	0.928900
C5601	C560	0.363300	0.952370	0.890700
H4881	H488	0.320800	0.964700	0.880800
C5611	C561	0.961860	0.807570	0.959440
C5621	C562	0.012600	0.816220	0.011220
H4891	H489	0.037100	0.798300	0.034900
C5631	C563	0.926600	0.835230	0.925300
H4901	H490	0.892200	0.830400	0.890700
C5641	C564	0.942000	0.869960	0.942200
H4911	H491	0.918100	0.888100	0.918500
C5651	C565	0.946860	0.770830	0.941760
C5661	C566	0.027000	0.850720	0.028090
H4921	H492	0.060400	0.855700	0.063100
C5671	C567	0.992400	0.878070	0.993600
C5681	C568	0.891870	0.723490	0.903880
C5691	C569	0.770600	0.699840	0.885460
H4931	H493	0.763000	0.717400	0.908600
C5701	C570	0.718200	0.675540	0.862000
H4941	H494	0.675800	0.676800	0.869500
C5711	C571	0.728000	0.649120	0.827100
C5721	C572	0.790700	0.648300	0.815500
H4951	H495	0.797500	0.631100	0.791300
C5731	C573	0.843700	0.672690	0.839160
H4961	H496	0.885500	0.671700	0.830800
C5741	C574	0.834800	0.698610	0.875350
C5751	C575	0.333790	0.852910	0.813650
C5761	C576	0.260790	0.865910	0.789460
C5771	C577	0.236700	0.875660	0.733600
H4971	H497	0.263700	0.870200	0.710800
C5781	C578	0.219600	0.872660	0.822500
H4981	H498	0.234500	0.865800	0.860300
C5791	C579	0.173400	0.893420	0.710500
H4991	H499	0.158700	0.900100	0.672700
C5801	C580	0.133100	0.901200	0.741800
C5811	C581	0.155100	0.889900	0.798700
H5001	H500	0.126300	0.894000	0.820500
C5821	C582	0.482310	0.799920	0.890660
C5831	C583	0.474100	0.764670	0.875350
H5011	H501	0.431900	0.757100	0.848900
C5841	C584	0.527400	0.740750	0.898700
H5021	H502	0.521400	0.717300	0.887500
C5851	C585	0.597700	0.786260	0.955600
H5031	H503	0.639200	0.793600	0.983200
C5861	C586	0.590100	0.751580	0.938900
C5871	C587	0.429490	0.825810	0.858340
C5881	C588	0.544100	0.810560	0.931480
H5041	H504	0.550000	0.834000	0.942900
Cu571	Cu57	0.038620	0.371740	0.831940
Cu581	Cu58	0.053070	0.525430	0.867710
Cu591	Cu59	0.592990	0.245080	0.996680
Cu601	Cu60	0.295010	0.281750	0.881150
Cu611	Cu61	0.506320	0.171070	0.932300
Cu621	Cu62	0.816890	0.293940	0.887720
Cu631	Cu63	0.652400	0.168890	0.912890
Cu641	Cu64	0.108940	0.405390	0.746410
Cl81	Cl8	0.625110	0.181220	0.008010
N2111	N211	0.050010	0.422390	0.827690
N2121	N212	0.053450	0.480460	0.838070
N2131	N213	0.091680	0.435990	0.798420
N2141	N214	0.778920	0.295610	0.083830
N2151	N215	0.723800	0.245700	0.088840
N2161	N216	0.682480	0.264140	0.041700
N2171	N217	0.494760	0.245300	0.952300
N2181	N218	0.459160	0.214770	0.927990
N2191	N219	0.381390	0.258340	0.910970
N2201	N220	0.033350	0.626340	0.911330
N2211	N221	0.094980	0.627700	0.897660
N2221	N222	0.060590	0.572100	0.893290
N2231	N223	0.885710	0.369350	0.802410
N2241	N224	0.947390	0.351800	0.830950
N2251	N225	0.858830	0.325420	0.849340
N2261	N226	0.206050	0.302410	0.850920
N2271	N227	0.114070	0.338130	0.835710
N2281	N228	0.093280	0.309440	0.799960
N2291	N229	0.175800	0.124060	0.805100
H5051	H505	0.182100	0.107600	0.783800
H5061	H506	0.137100	0.125000	0.812800
N2301	N230	0.131500	0.167040	0.676700
H5071	H507	0.096200	0.152900	0.670900
H5081	H508	0.162700	0.163200	0.660600
N2311	N231	0.824900	0.414910	0.953600
H5091	H509	0.833300	0.397900	0.977500
H5101	H510	0.785600	0.426300	0.945100
N2321	N232	0.241300	0.551620	0.692100
H5111	H511	0.224000	0.571200	0.676300
H5121	H512	0.280700	0.544000	0.689900
N2331	N233	0.145600	0.227540	0.961800
H5131	H513	0.184600	0.234500	0.986400
H5141	H514	0.140700	0.205900	0.951200
N2341	N234	0.576300	0.406270	0.898500
H5151	H515	0.582500	0.427500	0.911400
H5161	H516	0.546500	0.402100	0.865500
N2351	N235	0.509100	0.412830	0.009600
H5171	H517	0.541200	0.417500	0.041300
H5181	H518	0.487200	0.429700	0.987800
N2361	N236	0.978100	0.226040	0.325690
H5191	H519	0.983300	0.204300	0.336000
H5201	H520	0.002800	0.242100	0.347700
N2371	N237	0.352100	0.422960	0.038600
H5211	H521	0.372500	0.414700	0.072000
H5221	H522	0.357000	0.444800	0.031700
N2381	N238	0.366500	0.557180	0.855500
H5231	H523	0.383800	0.570200	0.835300
H5241	H524	0.389500	0.539000	0.872500
N2391	N239	0.795300	0.535200	0.977200
H5251	H525	0.797200	0.513300	0.986500
H5261	H526	0.760000	0.547900	0.977700
N2401	N240	0.568000	0.418700	0.717700
H5271	H527	0.554100	0.424500	0.682500
H5281	H528	0.542100	0.423600	0.738100
C5891	C589	0.716610	0.294000	0.040460
C5901	C590	0.642500	0.316500	0.945410
H5291	H529	0.636400	0.293600	0.931300
C5911	C591	0.614600	0.378510	0.931500
C5921	C592	0.662800	0.384960	0.984900
H5301	H530	0.672000	0.408000	0.997800
C5931	C593	0.686820	0.322610	0.000430
C5941	C594	0.697100	0.357360	0.019010
H5311	H531	0.727800	0.362100	0.055200
C5951	C595	0.607200	0.344060	0.911240
H5321	H532	0.578200	0.339500	0.874400
C5961	C596	0.780930	0.265340	0.113140
C5971	C597	0.835120	0.255050	0.166430
C5981	C598	0.875300	0.280180	0.204020
H5331	H533	0.870700	0.303800	0.193800
C5991	C599	0.922300	0.270360	0.256500
H5341	H534	0.949100	0.287500	0.280800
C6001	C600	0.842900	0.219950	0.183920
H5351	H535	0.816500	0.202700	0.159700
C6011	C601	0.929700	0.235230	0.273100
C6021	C602	0.889300	0.210120	0.236800
H5361	H536	0.893100	0.186600	0.247600
C6031	C603	0.110140	0.595000	0.887660
C6041	C604	0.174200	0.584550	0.875840
C6051	C605	0.201500	0.604010	0.841500
H5371	H537	0.177300	0.623900	0.823300
C6061	C606	0.264200	0.594450	0.833700
H5381	H538	0.281500	0.607700	0.810000
C6071	C607	0.211500	0.554830	0.902100
H5391	H539	0.193800	0.541100	0.925100
C6081	C608	0.301200	0.565490	0.860700
C6091	C609	0.273900	0.545440	0.894800
H5401	H540	0.298100	0.525500	0.912700
C6101	C610	0.014850	0.592580	0.909340
C6111	C611	0.957400	0.543260	0.942600
H5411	H541	0.994400	0.528700	0.941700
C6121	C612	0.905200	0.529760	0.960300
H5421	H542	0.907900	0.506400	0.971900
C6131	C613	0.956700	0.578540	0.926000
C6141	C614	0.902300	0.599220	0.930500
H5431	H543	0.901800	0.623100	0.922200
C6151	C615	0.848800	0.585530	0.946800
H5441	H544	0.812000	0.600000	0.948400
C6161	C616	0.849100	0.549910	0.961200
C6171	C617	0.225050	0.356920	0.910610
C6181	C618	0.261100	0.344330	0.963960
H5451	H545	0.257100	0.320700	0.972000
C6191	C619	0.231400	0.392190	0.900800
H5461	H546	0.206300	0.401600	0.865500
C6201	C620	0.181590	0.333150	0.865680
C6211	C621	0.303200	0.366270	0.006000
H5471	H547	0.326300	0.357200	0.041800
C6221	C622	0.274700	0.414120	0.942500
H5481	H548	0.279100	0.437800	0.934700
C6231	C623	0.311100	0.400850	0.995400
C6241	C624	0.148460	0.255910	0.778790
C6251	C625	0.199400	0.248880	0.754080
H5491	H549	0.237200	0.264300	0.759500
C6261	C626	0.194500	0.219170	0.721600
H5501	H550	0.229600	0.214600	0.705800
C6271	C627	0.093340	0.231820	0.770720
H5511	H551	0.059200	0.235800	0.787800
C6281	C628	0.149420	0.288690	0.809860
C6291	C629	0.138200	0.195900	0.711920
C6301	C630	0.088700	0.202440	0.738080
H5521	H552	0.051700	0.186600	0.733500
C6311	C631	0.093050	0.470740	0.805470
C6321	C632	0.133700	0.493350	0.780270
C6331	C633	0.107100	0.525380	0.754410
H5531	H553	0.064700	0.534100	0.756900
C6341	C634	0.205400	0.532250	0.721500
C6351	C635	0.197900	0.481940	0.777300
H5541	H554	0.217100	0.460900	0.794800
C6361	C636	0.142600	0.544280	0.725300
H5551	H555	0.123700	0.565400	0.708000
C6371	C637	0.233800	0.501000	0.749000
H5561	H556	0.277300	0.493000	0.748200
C6381	C638	0.914300	0.461970	0.867910
H5571	H557	0.906000	0.480900	0.843100
C6391	C639	0.938200	0.406140	0.941960
H5581	H558	0.946800	0.387200	0.966800
C6401	C640	0.977800	0.443840	0.881260
C6411	C641	0.027300	0.449460	0.850520
C6421	C642	0.988600	0.415700	0.919320
H5591	H559	0.031000	0.403300	0.929300
C6431	C643	0.874600	0.424020	0.928900
C6441	C644	0.863300	0.452370	0.890700
H5601	H560	0.820800	0.464700	0.880800
C6451	C645	0.461860	0.307570	0.959440
C6461	C646	0.512600	0.316220	0.011220
H5611	H561	0.537100	0.298300	0.034900
C6471	C647	0.426600	0.335230	0.925300
H5621	H562	0.392200	0.330400	0.890700
C6481	C648	0.442000	0.369960	0.942200
H5631	H563	0.418100	0.388100	0.918500
C6491	C649	0.446860	0.270830	0.941760
C6501	C650	0.527000	0.350720	0.028090
H5641	H564	0.560400	0.355700	0.063100
C6511	C651	0.492400	0.378070	0.993600
C6521	C652	0.391870	0.223490	0.903880
C6531	C653	0.270600	0.199840	0.885460
H5651	H565	0.263000	0.217400	0.908600
C6541	C654	0.218200	0.175540	0.862000
H5661	H566	0.175800	0.176800	0.869500
C6551	C655	0.228000	0.149120	0.827100
C6561	C656	0.290700	0.148300	0.815500
H5671	H567	0.297500	0.131100	0.791300
C6571	C657	0.343700	0.172690	0.839160
H5681	H568	0.385500	0.171700	0.830800
C6581	C658	0.334800	0.198610	0.875350
C6591	C659	0.833790	0.352910	0.813650
C6601	C660	0.760790	0.365910	0.789460
C6611	C661	0.736700	0.375660	0.733600
H5691	H569	0.763700	0.370200	0.710800
C6621	C662	0.719600	0.372660	0.822500
H5701	H570	0.734500	0.365800	0.860300
C6631	C663	0.673400	0.393420	0.710500
H5711	H571	0.658700	0.400100	0.672700
C6641	C664	0.633100	0.401200	0.741800
C6651	C665	0.655100	0.389900	0.798700
H5721	H572	0.626300	0.394000	0.820500
C6661	C666	0.982310	0.299920	0.890660
C6671	C667	0.974100	0.264670	0.875350
H5731	H573	0.931900	0.257100	0.848900
C6681	C668	0.027400	0.240750	0.898700
H5741	H574	0.021400	0.217300	0.887500
C6691	C669	0.097700	0.286260	0.955600
H5751	H575	0.139200	0.293600	0.983200
C6701	C670	0.090100	0.251580	0.938900
C6711	C671	0.929490	0.325810	0.858340
C6721	C672	0.044100	0.310560	0.931480
H5761	H576	0.050000	0.334000	0.942900
Cu651	Cu65	0.500000	0.191950	0.250000
Cu661	Cu66	0.000000	0.691950	0.250000
Cu671	Cu67	0.500000	0.808050	0.750000
Cu681	Cu68	0.000000	0.308050	0.750000
