data_AWEZOS_clean_PM
_symmetry_space_group_name_H-M	'P1'
_cell_length_a	20.014000
_cell_length_b	37.956000
_cell_length_c	25.085000
_cell_angle_alpha	90.000000
_cell_angle_beta	109.384000
_cell_angle_gamma	90.000000
_symmetry_Int_Tables_number 1

loop_
_symmetry_equiv_pos_as_xyz
'x,y,z'

loop_
_atom_site_label
_atom_site_type_symbol
_atom_site_fract_x
_atom_site_fract_y
_atom_site_fract_z
Cu11	Cu1	0.538650	0.128260	0.331960
Cu21	Cu2	0.553070	0.974570	0.367680
Cu31	Cu3	0.093000	0.254920	0.496680
Cu41	Cu4	0.795020	0.218250	0.381150
Cu51	Cu5	0.006340	0.328930	0.432320
Cu61	Cu6	0.316900	0.206050	0.387710
Cu71	Cu7	0.152400	0.331120	0.412890
Cu81	Cu8	0.608930	0.094610	0.246410
Cl11	Cl1	0.125110	0.318780	0.507990
N11	N1	0.550120	0.077550	0.327770
N21	N2	0.553400	0.019560	0.338080
N31	N3	0.591460	0.063990	0.298420
N41	N4	0.278970	0.204380	0.583860
N51	N5	0.223670	0.254270	0.588710
N61	N6	0.182370	0.235890	0.541650
N71	N7	0.994820	0.254650	0.452170
N81	N8	0.959060	0.285230	0.427820
N91	N9	0.881420	0.241690	0.411050
N101	N10	0.533550	0.873670	0.411390
N111	N11	0.595140	0.872360	0.397740
N121	N12	0.560710	0.927860	0.393130
N131	N13	0.385680	0.130660	0.302250
N141	N14	0.447530	0.148240	0.330910
N151	N15	0.358860	0.174590	0.349360
N161	N16	0.705910	0.197600	0.350840
N171	N17	0.613980	0.161980	0.335710
N181	N18	0.593190	0.190550	0.299980
N191	N19	0.675600	0.375800	0.305100
H11	H1	0.681700	0.392300	0.283600
H21	H2	0.636900	0.374800	0.312900
N201	N20	0.631700	0.332830	0.176600
H31	H3	0.596300	0.346900	0.170500
H41	H4	0.662900	0.336600	0.160600
N211	N21	0.324800	0.085120	0.453800
H51	H5	0.333300	0.102100	0.477800
H61	H6	0.285500	0.073800	0.445300
N221	N22	0.741500	0.948610	0.191700
H71	H7	0.724000	0.929100	0.175600
H81	H8	0.781000	0.956200	0.189600
N231	N23	0.645500	0.272490	0.461500
H91	H9	0.684500	0.265700	0.486300
H101	H10	0.640300	0.294100	0.450700
N241	N24	0.076600	0.093690	0.398900
H111	H11	0.082900	0.072500	0.411900
H121	H12	0.046700	0.097700	0.365900
N251	N25	0.009100	0.087040	0.509600
H131	H13	0.041400	0.082400	0.541200
H141	H14	0.987200	0.070200	0.487800
N261	N26	0.478200	0.273970	0.825450
H151	H15	0.483600	0.295700	0.835500
H161	H16	0.502700	0.257900	0.847700
N271	N27	0.851900	0.076880	0.538900
H171	H17	0.872200	0.085200	0.572300
H181	H18	0.856800	0.055000	0.532100
N281	N28	0.866600	0.942910	0.355600
H191	H19	0.884100	0.929900	0.335500
H201	H20	0.889400	0.961100	0.372700
N291	N29	0.294700	0.964670	0.476300
H211	H21	0.295700	0.986700	0.484600
H221	H22	0.259700	0.951800	0.477000
N301	N30	0.067900	0.080700	0.218800
H231	H23	0.053700	0.074700	0.183800
H241	H24	0.042400	0.075800	0.239500
C11	C1	0.216490	0.206060	0.540390
C21	C2	0.142200	0.183530	0.445510
H251	H25	0.135900	0.206400	0.431400
C31	C3	0.114700	0.121470	0.431600
C41	C4	0.162200	0.114980	0.484300
H261	H26	0.171400	0.091900	0.497100
C51	C5	0.186730	0.177430	0.500380
C61	C6	0.197100	0.142670	0.519060
H271	H27	0.227700	0.137800	0.555300
C71	C7	0.106900	0.155870	0.411300
H281	H28	0.077800	0.160400	0.374500
C81	C8	0.280980	0.234620	0.613070
C91	C9	0.335200	0.244980	0.666410
C101	C10	0.375700	0.219800	0.704200
H291	H29	0.371200	0.196100	0.694100
C111	C11	0.422400	0.229750	0.756300
H301	H30	0.449300	0.212600	0.780500
C121	C12	0.343200	0.280150	0.683900
H311	H31	0.316800	0.297500	0.659800
C131	C13	0.429800	0.264680	0.773100
C141	C14	0.389600	0.289760	0.736400
H321	H32	0.393800	0.313300	0.747000
C151	C15	0.609960	0.905000	0.387480
C161	C16	0.674000	0.915390	0.375860
C171	C17	0.701400	0.895920	0.341800
H331	H33	0.677500	0.875900	0.323800
C181	C18	0.764500	0.905640	0.333900
H341	H34	0.781700	0.892400	0.310200
C191	C19	0.711300	0.945170	0.402100
H351	H35	0.693500	0.959000	0.424900
C201	C20	0.801400	0.934450	0.360700
C211	C21	0.774100	0.954540	0.394800
H361	H36	0.798400	0.974400	0.412900
C221	C22	0.514930	0.907370	0.409220
C231	C23	0.457400	0.956700	0.442600
H371	H37	0.494400	0.971300	0.441900
C241	C24	0.404800	0.970140	0.460200
H381	H38	0.407200	0.993600	0.471400
C251	C25	0.456600	0.921450	0.425740
C261	C26	0.401900	0.900800	0.430200
H391	H39	0.401000	0.877000	0.421200
C271	C27	0.349200	0.914230	0.447400
H401	H40	0.313100	0.899600	0.449800
C281	C28	0.349000	0.950090	0.461600
C291	C29	0.725240	0.143060	0.410610
C301	C30	0.761200	0.155710	0.464000
H411	H41	0.757100	0.179400	0.472000
C311	C31	0.731700	0.107860	0.400800
H421	H42	0.706900	0.098400	0.365600
C321	C32	0.681720	0.166850	0.365820
C331	C33	0.803300	0.133790	0.506200
H431	H43	0.826400	0.142900	0.542000
C341	C34	0.774900	0.086080	0.442900
H441	H44	0.779300	0.062400	0.435100
C351	C35	0.811100	0.099020	0.495500
C361	C36	0.648440	0.244200	0.278950
C371	C37	0.699400	0.251220	0.254160
H451	H45	0.737100	0.235700	0.259600
C381	C38	0.694800	0.280780	0.221700
H461	H46	0.730000	0.285300	0.206000
C391	C39	0.593400	0.268240	0.270860
H471	H47	0.559400	0.264300	0.288000
C401	C40	0.649220	0.211310	0.309910
C411	C41	0.638300	0.304090	0.211970
C421	C42	0.588700	0.297440	0.238190
H481	H48	0.551600	0.313200	0.233400
C431	C43	0.592990	0.029380	0.305470
C441	C44	0.633300	0.006620	0.279990
C451	C45	0.606400	0.974640	0.254130
H491	H49	0.564100	0.966000	0.256600
C461	C46	0.705700	0.967880	0.221400
C471	C47	0.697900	0.018080	0.277100
H501	H50	0.717000	0.039100	0.294600
C481	C48	0.642000	0.955750	0.225000
H511	H51	0.623100	0.934700	0.207600
C491	C49	0.734100	0.999260	0.249200
H521	H52	0.777700	0.007300	0.248600
C501	C50	0.414400	0.038050	0.368000
H531	H53	0.406100	0.019000	0.343200
C511	C51	0.438000	0.094050	0.441980
H541	H54	0.446300	0.113100	0.466500
C521	C52	0.477900	0.056150	0.381140
C531	C53	0.527420	0.050630	0.350430
C541	C54	0.489000	0.084290	0.419570
H551	H55	0.531800	0.096500	0.429900
C551	C55	0.374500	0.076080	0.428800
C561	C56	0.363200	0.047660	0.390800
H561	H56	0.320800	0.035200	0.381000
C571	C57	0.961800	0.192440	0.459440
C581	C58	0.012500	0.183910	0.511150
H571	H57	0.037200	0.201900	0.534700
C591	C59	0.926300	0.164670	0.425100
H581	H58	0.892000	0.169500	0.390400
C601	C60	0.941700	0.130110	0.441900
H591	H59	0.917700	0.112000	0.418300
C611	C61	0.946800	0.229120	0.441710
C621	C62	0.027000	0.149280	0.528140
H601	H60	0.060500	0.144300	0.563200
C631	C63	0.992200	0.121860	0.493500
C641	C64	0.891800	0.276420	0.403820
C651	C65	0.770500	0.300040	0.385370
H611	H61	0.762700	0.282400	0.408400
C661	C66	0.718000	0.324410	0.361700
H621	H62	0.675500	0.323100	0.369000
C671	C67	0.728000	0.350900	0.327100
C681	C68	0.790600	0.351730	0.315600
H631	H63	0.797300	0.368900	0.291500
C691	C69	0.843600	0.327460	0.339120
H641	H64	0.885500	0.328500	0.330700
C701	C70	0.834890	0.301300	0.375460
C711	C71	0.333830	0.147060	0.313740
C721	C72	0.260760	0.134080	0.289370
C731	C73	0.236800	0.124450	0.233600
H651	H65	0.263700	0.130100	0.210900
C741	C74	0.219500	0.127050	0.322600
H661	H66	0.234400	0.134000	0.360200
C751	C75	0.173600	0.106450	0.210000
H671	H67	0.159000	0.099800	0.172200
C761	C76	0.133100	0.098600	0.242500
C771	C77	0.155600	0.109400	0.299200
H681	H68	0.127400	0.104800	0.321300
C781	C78	0.482300	0.200020	0.390560
C791	C79	0.474400	0.235410	0.375430
H691	H69	0.432200	0.243100	0.349000
C801	C80	0.527900	0.259330	0.398900
H701	H70	0.522000	0.282900	0.388000
C811	C81	0.598000	0.213590	0.455800
H711	H71	0.639300	0.206300	0.483700
C821	C82	0.590200	0.248290	0.438800
C831	C83	0.429480	0.174220	0.358280
C841	C84	0.544500	0.189360	0.431600
H721	H72	0.550400	0.165900	0.443000
Cu91	Cu9	0.038650	0.628260	0.331960
Cu101	Cu10	0.053070	0.474570	0.367680
Cu111	Cu11	0.593000	0.754920	0.496680
Cu121	Cu12	0.295020	0.718250	0.381150
Cu131	Cu13	0.506340	0.828930	0.432320
Cu141	Cu14	0.816900	0.706050	0.387710
Cu151	Cu15	0.652400	0.831120	0.412890
Cu161	Cu16	0.108930	0.594610	0.246410
Cl21	Cl2	0.625110	0.818780	0.507990
N311	N31	0.050120	0.577550	0.327770
N321	N32	0.053400	0.519560	0.338080
N331	N33	0.091460	0.563990	0.298420
N341	N34	0.778970	0.704380	0.583860
N351	N35	0.723670	0.754270	0.588710
N361	N36	0.682370	0.735890	0.541650
N371	N37	0.494820	0.754650	0.452170
N381	N38	0.459060	0.785230	0.427820
N391	N39	0.381420	0.741690	0.411050
N401	N40	0.033550	0.373670	0.411390
N411	N41	0.095140	0.372360	0.397740
N421	N42	0.060710	0.427860	0.393130
N431	N43	0.885680	0.630660	0.302250
N441	N44	0.947530	0.648240	0.330910
N451	N45	0.858860	0.674590	0.349360
N461	N46	0.205910	0.697600	0.350840
N471	N47	0.113980	0.661980	0.335710
N481	N48	0.093190	0.690550	0.299980
N491	N49	0.175600	0.875800	0.305100
H731	H73	0.181700	0.892300	0.283600
H741	H74	0.136900	0.874800	0.312900
N501	N50	0.131700	0.832830	0.176600
H751	H75	0.096300	0.846900	0.170500
H761	H76	0.162900	0.836600	0.160600
N511	N51	0.824800	0.585120	0.453800
H771	H77	0.833300	0.602100	0.477800
H781	H78	0.785500	0.573800	0.445300
N521	N52	0.241500	0.448610	0.191700
H791	H79	0.224000	0.429100	0.175600
H801	H80	0.281000	0.456200	0.189600
N531	N53	0.145500	0.772490	0.461500
H811	H81	0.184500	0.765700	0.486300
H821	H82	0.140300	0.794100	0.450700
N541	N54	0.576600	0.593690	0.398900
H831	H83	0.582900	0.572500	0.411900
H841	H84	0.546700	0.597700	0.365900
N551	N55	0.509100	0.587040	0.509600
H851	H85	0.541400	0.582400	0.541200
H861	H86	0.487200	0.570200	0.487800
N561	N56	0.978200	0.773970	0.825450
H871	H87	0.983600	0.795700	0.835500
H881	H88	0.002700	0.757900	0.847700
N571	N57	0.351900	0.576880	0.538900
H891	H89	0.372200	0.585200	0.572300
H901	H90	0.356800	0.555000	0.532100
N581	N58	0.366600	0.442910	0.355600
H911	H91	0.384100	0.429900	0.335500
H921	H92	0.389400	0.461100	0.372700
N591	N59	0.794700	0.464670	0.476300
H931	H93	0.795700	0.486700	0.484600
H941	H94	0.759700	0.451800	0.477000
N601	N60	0.567900	0.580700	0.218800
H951	H95	0.553700	0.574700	0.183800
H961	H96	0.542400	0.575800	0.239500
C851	C85	0.716490	0.706060	0.540390
C861	C86	0.642200	0.683530	0.445510
H971	H97	0.635900	0.706400	0.431400
C871	C87	0.614700	0.621470	0.431600
C881	C88	0.662200	0.614980	0.484300
H981	H98	0.671400	0.591900	0.497100
C891	C89	0.686730	0.677430	0.500380
C901	C90	0.697100	0.642670	0.519060
H991	H99	0.727700	0.637800	0.555300
C911	C91	0.606900	0.655870	0.411300
H1001	H100	0.577800	0.660400	0.374500
C921	C92	0.780980	0.734620	0.613070
C931	C93	0.835200	0.744980	0.666410
C941	C94	0.875700	0.719800	0.704200
H1011	H101	0.871200	0.696100	0.694100
C951	C95	0.922400	0.729750	0.756300
H1021	H102	0.949300	0.712600	0.780500
C961	C96	0.843200	0.780150	0.683900
H1031	H103	0.816800	0.797500	0.659800
C971	C97	0.929800	0.764680	0.773100
C981	C98	0.889600	0.789760	0.736400
H1041	H104	0.893800	0.813300	0.747000
C991	C99	0.109960	0.405000	0.387480
C1001	C100	0.174000	0.415390	0.375860
C1011	C101	0.201400	0.395920	0.341800
H1051	H105	0.177500	0.375900	0.323800
C1021	C102	0.264500	0.405640	0.333900
H1061	H106	0.281700	0.392400	0.310200
C1031	C103	0.211300	0.445170	0.402100
H1071	H107	0.193500	0.459000	0.424900
C1041	C104	0.301400	0.434450	0.360700
C1051	C105	0.274100	0.454540	0.394800
H1081	H108	0.298400	0.474400	0.412900
C1061	C106	0.014930	0.407370	0.409220
C1071	C107	0.957400	0.456700	0.442600
H1091	H109	0.994400	0.471300	0.441900
C1081	C108	0.904800	0.470140	0.460200
H1101	H110	0.907200	0.493600	0.471400
C1091	C109	0.956600	0.421450	0.425740
C1101	C110	0.901900	0.400800	0.430200
H1111	H111	0.901000	0.377000	0.421200
C1111	C111	0.849200	0.414230	0.447400
H1121	H112	0.813100	0.399600	0.449800
C1121	C112	0.849000	0.450090	0.461600
C1131	C113	0.225240	0.643060	0.410610
C1141	C114	0.261200	0.655710	0.464000
H1131	H113	0.257100	0.679400	0.472000
C1151	C115	0.231700	0.607860	0.400800
H1141	H114	0.206900	0.598400	0.365600
C1161	C116	0.181720	0.666850	0.365820
C1171	C117	0.303300	0.633790	0.506200
H1151	H115	0.326400	0.642900	0.542000
C1181	C118	0.274900	0.586080	0.442900
H1161	H116	0.279300	0.562400	0.435100
C1191	C119	0.311100	0.599020	0.495500
C1201	C120	0.148440	0.744200	0.278950
C1211	C121	0.199400	0.751220	0.254160
H1171	H117	0.237100	0.735700	0.259600
C1221	C122	0.194800	0.780780	0.221700
H1181	H118	0.230000	0.785300	0.206000
C1231	C123	0.093400	0.768240	0.270860
H1191	H119	0.059400	0.764300	0.288000
C1241	C124	0.149220	0.711310	0.309910
C1251	C125	0.138300	0.804090	0.211970
C1261	C126	0.088700	0.797440	0.238190
H1201	H120	0.051600	0.813200	0.233400
C1271	C127	0.092990	0.529380	0.305470
C1281	C128	0.133300	0.506620	0.279990
C1291	C129	0.106400	0.474640	0.254130
H1211	H121	0.064100	0.466000	0.256600
C1301	C130	0.205700	0.467880	0.221400
C1311	C131	0.197900	0.518080	0.277100
H1221	H122	0.217000	0.539100	0.294600
C1321	C132	0.142000	0.455750	0.225000
H1231	H123	0.123100	0.434700	0.207600
C1331	C133	0.234100	0.499260	0.249200
H1241	H124	0.277700	0.507300	0.248600
C1341	C134	0.914400	0.538050	0.368000
H1251	H125	0.906100	0.519000	0.343200
C1351	C135	0.938000	0.594050	0.441980
H1261	H126	0.946300	0.613100	0.466500
C1361	C136	0.977900	0.556150	0.381140
C1371	C137	0.027420	0.550630	0.350430
C1381	C138	0.989000	0.584290	0.419570
H1271	H127	0.031800	0.596500	0.429900
C1391	C139	0.874500	0.576080	0.428800
C1401	C140	0.863200	0.547660	0.390800
H1281	H128	0.820800	0.535200	0.381000
C1411	C141	0.461800	0.692440	0.459440
C1421	C142	0.512500	0.683910	0.511150
H1291	H129	0.537200	0.701900	0.534700
C1431	C143	0.426300	0.664670	0.425100
H1301	H130	0.392000	0.669500	0.390400
C1441	C144	0.441700	0.630110	0.441900
H1311	H131	0.417700	0.612000	0.418300
C1451	C145	0.446800	0.729120	0.441710
C1461	C146	0.527000	0.649280	0.528140
H1321	H132	0.560500	0.644300	0.563200
C1471	C147	0.492200	0.621860	0.493500
C1481	C148	0.391800	0.776420	0.403820
C1491	C149	0.270500	0.800040	0.385370
H1331	H133	0.262700	0.782400	0.408400
C1501	C150	0.218000	0.824410	0.361700
H1341	H134	0.175500	0.823100	0.369000
C1511	C151	0.228000	0.850900	0.327100
C1521	C152	0.290600	0.851730	0.315600
H1351	H135	0.297300	0.868900	0.291500
C1531	C153	0.343600	0.827460	0.339120
H1361	H136	0.385500	0.828500	0.330700
C1541	C154	0.334890	0.801300	0.375460
C1551	C155	0.833830	0.647060	0.313740
C1561	C156	0.760760	0.634080	0.289370
C1571	C157	0.736800	0.624450	0.233600
H1371	H137	0.763700	0.630100	0.210900
C1581	C158	0.719500	0.627050	0.322600
H1381	H138	0.734400	0.634000	0.360200
C1591	C159	0.673600	0.606450	0.210000
H1391	H139	0.659000	0.599800	0.172200
C1601	C160	0.633100	0.598600	0.242500
C1611	C161	0.655600	0.609400	0.299200
H1401	H140	0.627400	0.604800	0.321300
C1621	C162	0.982300	0.700020	0.390560
C1631	C163	0.974400	0.735410	0.375430
H1411	H141	0.932200	0.743100	0.349000
C1641	C164	0.027900	0.759330	0.398900
H1421	H142	0.022000	0.782900	0.388000
C1651	C165	0.098000	0.713590	0.455800
H1431	H143	0.139300	0.706300	0.483700
C1661	C166	0.090200	0.748290	0.438800
C1671	C167	0.929480	0.674220	0.358280
C1681	C168	0.044500	0.689360	0.431600
H1441	H144	0.050400	0.665900	0.443000
Cu171	Cu17	0.461350	0.128260	0.168040
Cu181	Cu18	0.446930	0.974570	0.132320
Cu191	Cu19	0.907000	0.254920	0.003320
Cu201	Cu20	0.204980	0.218250	0.118850
Cu211	Cu21	0.993660	0.328930	0.067680
Cu221	Cu22	0.683100	0.206050	0.112290
Cu231	Cu23	0.847600	0.331120	0.087110
Cu241	Cu24	0.391070	0.094610	0.253590
Cl31	Cl3	0.874890	0.318780	0.992010
N611	N61	0.449880	0.077550	0.172230
N621	N62	0.446600	0.019560	0.161920
N631	N63	0.408540	0.063990	0.201580
N641	N64	0.721030	0.204380	0.916140
N651	N65	0.776330	0.254270	0.911290
N661	N66	0.817630	0.235890	0.958350
N671	N67	0.005180	0.254650	0.047830
N681	N68	0.040940	0.285230	0.072180
N691	N69	0.118580	0.241690	0.088950
N701	N70	0.466450	0.873670	0.088610
N711	N71	0.404860	0.872360	0.102260
N721	N72	0.439290	0.927860	0.106870
N731	N73	0.614320	0.130660	0.197750
N741	N74	0.552470	0.148240	0.169090
N751	N75	0.641140	0.174590	0.150640
N761	N76	0.294090	0.197600	0.149160
N771	N77	0.386020	0.161980	0.164290
N781	N78	0.406810	0.190550	0.200020
N791	N79	0.324400	0.375800	0.194900
H1451	H145	0.318300	0.392300	0.216400
H1461	H146	0.363100	0.374800	0.187100
N801	N80	0.368300	0.332830	0.323400
H1471	H147	0.403700	0.346900	0.329500
H1481	H148	0.337100	0.336600	0.339400
N811	N81	0.675200	0.085120	0.046200
H1491	H149	0.666700	0.102100	0.022200
H1501	H150	0.714500	0.073800	0.054700
N821	N82	0.258500	0.948610	0.308300
H1511	H151	0.276000	0.929100	0.324400
H1521	H152	0.219000	0.956200	0.310400
N831	N83	0.354500	0.272490	0.038500
H1531	H153	0.315500	0.265700	0.013700
H1541	H154	0.359700	0.294100	0.049300
N841	N84	0.923400	0.093690	0.101100
H1551	H155	0.917100	0.072500	0.088100
H1561	H156	0.953300	0.097700	0.134100
N851	N85	0.990900	0.087040	0.990400
H1571	H157	0.958600	0.082400	0.958800
H1581	H158	0.012800	0.070200	0.012200
N861	N86	0.521800	0.273970	0.674550
H1591	H159	0.516400	0.295700	0.664500
H1601	H160	0.497300	0.257900	0.652300
N871	N87	0.148100	0.076880	0.961100
H1611	H161	0.127800	0.085200	0.927700
H1621	H162	0.143200	0.055000	0.967900
N881	N88	0.133400	0.942910	0.144400
H1631	H163	0.115900	0.929900	0.164500
H1641	H164	0.110600	0.961100	0.127300
N891	N89	0.705300	0.964670	0.023700
H1651	H165	0.704300	0.986700	0.015400
H1661	H166	0.740300	0.951800	0.023000
N901	N90	0.932100	0.080700	0.281200
H1671	H167	0.946300	0.074700	0.316200
H1681	H168	0.957600	0.075800	0.260500
C1691	C169	0.783510	0.206060	0.959610
C1701	C170	0.857800	0.183530	0.054490
H1691	H169	0.864100	0.206400	0.068600
C1711	C171	0.885300	0.121470	0.068400
C1721	C172	0.837800	0.114980	0.015700
H1701	H170	0.828600	0.091900	0.002900
C1731	C173	0.813270	0.177430	0.999620
C1741	C174	0.802900	0.142670	0.980940
H1711	H171	0.772300	0.137800	0.944700
C1751	C175	0.893100	0.155870	0.088700
H1721	H172	0.922200	0.160400	0.125500
C1761	C176	0.719020	0.234620	0.886930
C1771	C177	0.664800	0.244980	0.833590
C1781	C178	0.624300	0.219800	0.795800
H1731	H173	0.628800	0.196100	0.805900
C1791	C179	0.577600	0.229750	0.743700
H1741	H174	0.550700	0.212600	0.719500
C1801	C180	0.656800	0.280150	0.816100
H1751	H175	0.683200	0.297500	0.840200
C1811	C181	0.570200	0.264680	0.726900
C1821	C182	0.610400	0.289760	0.763600
H1761	H176	0.606200	0.313300	0.753000
C1831	C183	0.390040	0.905000	0.112520
C1841	C184	0.326000	0.915390	0.124140
C1851	C185	0.298600	0.895920	0.158200
H1771	H177	0.322500	0.875900	0.176200
C1861	C186	0.235500	0.905640	0.166100
H1781	H178	0.218300	0.892400	0.189800
C1871	C187	0.288700	0.945170	0.097900
H1791	H179	0.306500	0.959000	0.075100
C1881	C188	0.198600	0.934450	0.139300
C1891	C189	0.225900	0.954540	0.105200
H1801	H180	0.201600	0.974400	0.087100
C1901	C190	0.485070	0.907370	0.090780
C1911	C191	0.542600	0.956700	0.057400
H1811	H181	0.505600	0.971300	0.058100
C1921	C192	0.595200	0.970140	0.039800
H1821	H182	0.592800	0.993600	0.028600
C1931	C193	0.543400	0.921450	0.074260
C1941	C194	0.598100	0.900800	0.069800
H1831	H183	0.599000	0.877000	0.078800
C1951	C195	0.650800	0.914230	0.052600
H1841	H184	0.686900	0.899600	0.050200
C1961	C196	0.651000	0.950090	0.038400
C1971	C197	0.274760	0.143060	0.089390
C1981	C198	0.238800	0.155710	0.036000
H1851	H185	0.242900	0.179400	0.028000
C1991	C199	0.268300	0.107860	0.099200
H1861	H186	0.293100	0.098400	0.134400
C2001	C200	0.318280	0.166850	0.134180
C2011	C201	0.196700	0.133790	0.993800
H1871	H187	0.173600	0.142900	0.958000
C2021	C202	0.225100	0.086080	0.057100
H1881	H188	0.220700	0.062400	0.064900
C2031	C203	0.188900	0.099020	0.004500
C2041	C204	0.351560	0.244200	0.221050
C2051	C205	0.300600	0.251220	0.245840
H1891	H189	0.262900	0.235700	0.240400
C2061	C206	0.305200	0.280780	0.278300
H1901	H190	0.270000	0.285300	0.294000
C2071	C207	0.406600	0.268240	0.229140
H1911	H191	0.440600	0.264300	0.212000
C2081	C208	0.350780	0.211310	0.190090
C2091	C209	0.361700	0.304090	0.288030
C2101	C210	0.411300	0.297440	0.261810
H1921	H192	0.448400	0.313200	0.266600
C2111	C211	0.407010	0.029380	0.194530
C2121	C212	0.366700	0.006620	0.220010
C2131	C213	0.393600	0.974640	0.245870
H1931	H193	0.435900	0.966000	0.243400
C2141	C214	0.294300	0.967880	0.278600
C2151	C215	0.302100	0.018080	0.222900
H1941	H194	0.283000	0.039100	0.205400
C2161	C216	0.358000	0.955750	0.275000
H1951	H195	0.376900	0.934700	0.292400
C2171	C217	0.265900	0.999260	0.250800
H1961	H196	0.222300	0.007300	0.251400
C2181	C218	0.585600	0.038050	0.132000
H1971	H197	0.593900	0.019000	0.156800
C2191	C219	0.562000	0.094050	0.058020
H1981	H198	0.553700	0.113100	0.033500
C2201	C220	0.522100	0.056150	0.118860
C2211	C221	0.472580	0.050630	0.149570
C2221	C222	0.511000	0.084290	0.080430
H1991	H199	0.468200	0.096500	0.070100
C2231	C223	0.625500	0.076080	0.071200
C2241	C224	0.636800	0.047660	0.109200
H2001	H200	0.679200	0.035200	0.119000
C2251	C225	0.038200	0.192440	0.040560
C2261	C226	0.987500	0.183910	0.988850
H2011	H201	0.962800	0.201900	0.965300
C2271	C227	0.073700	0.164670	0.074900
H2021	H202	0.108000	0.169500	0.109600
C2281	C228	0.058300	0.130110	0.058100
H2031	H203	0.082300	0.112000	0.081700
C2291	C229	0.053200	0.229120	0.058290
C2301	C230	0.973000	0.149280	0.971860
H2041	H204	0.939500	0.144300	0.936800
C2311	C231	0.007800	0.121860	0.006500
C2321	C232	0.108200	0.276420	0.096180
C2331	C233	0.229500	0.300040	0.114630
H2051	H205	0.237300	0.282400	0.091600
C2341	C234	0.282000	0.324410	0.138300
H2061	H206	0.324500	0.323100	0.131000
C2351	C235	0.272000	0.350900	0.172900
C2361	C236	0.209400	0.351730	0.184400
H2071	H207	0.202700	0.368900	0.208500
C2371	C237	0.156400	0.327460	0.160880
H2081	H208	0.114500	0.328500	0.169300
C2381	C238	0.165110	0.301300	0.124540
C2391	C239	0.666170	0.147060	0.186260
C2401	C240	0.739240	0.134080	0.210630
C2411	C241	0.763200	0.124450	0.266400
H2091	H209	0.736300	0.130100	0.289100
C2421	C242	0.780500	0.127050	0.177400
H2101	H210	0.765600	0.134000	0.139800
C2431	C243	0.826400	0.106450	0.290000
H2111	H211	0.841000	0.099800	0.327800
C2441	C244	0.866900	0.098600	0.257500
C2451	C245	0.844400	0.109400	0.200800
H2121	H212	0.872600	0.104800	0.178700
C2461	C246	0.517700	0.200020	0.109440
C2471	C247	0.525600	0.235410	0.124570
H2131	H213	0.567800	0.243100	0.151000
C2481	C248	0.472100	0.259330	0.101100
H2141	H214	0.478000	0.282900	0.112000
C2491	C249	0.402000	0.213590	0.044200
H2151	H215	0.360700	0.206300	0.016300
C2501	C250	0.409800	0.248290	0.061200
C2511	C251	0.570520	0.174220	0.141720
C2521	C252	0.455500	0.189360	0.068400
H2161	H216	0.449600	0.165900	0.057000
Cu251	Cu25	0.961350	0.628260	0.168040
Cu261	Cu26	0.946930	0.474570	0.132320
Cu271	Cu27	0.407000	0.754920	0.003320
Cu281	Cu28	0.704980	0.718250	0.118850
Cu291	Cu29	0.493660	0.828930	0.067680
Cu301	Cu30	0.183100	0.706050	0.112290
Cu311	Cu31	0.347600	0.831120	0.087110
Cu321	Cu32	0.891070	0.594610	0.253590
Cl41	Cl4	0.374890	0.818780	0.992010
N911	N91	0.949880	0.577550	0.172230
N921	N92	0.946600	0.519560	0.161920
N931	N93	0.908540	0.563990	0.201580
N941	N94	0.221030	0.704380	0.916140
N951	N95	0.276330	0.754270	0.911290
N961	N96	0.317630	0.735890	0.958350
N971	N97	0.505180	0.754650	0.047830
N981	N98	0.540940	0.785230	0.072180
N991	N99	0.618580	0.741690	0.088950
N1001	N100	0.966450	0.373670	0.088610
N1011	N101	0.904860	0.372360	0.102260
N1021	N102	0.939290	0.427860	0.106870
N1031	N103	0.114320	0.630660	0.197750
N1041	N104	0.052470	0.648240	0.169090
N1051	N105	0.141140	0.674590	0.150640
N1061	N106	0.794090	0.697600	0.149160
N1071	N107	0.886020	0.661980	0.164290
N1081	N108	0.906810	0.690550	0.200020
N1091	N109	0.824400	0.875800	0.194900
H2171	H217	0.818300	0.892300	0.216400
H2181	H218	0.863100	0.874800	0.187100
N1101	N110	0.868300	0.832830	0.323400
H2191	H219	0.903700	0.846900	0.329500
H2201	H220	0.837100	0.836600	0.339400
N1111	N111	0.175200	0.585120	0.046200
H2211	H221	0.166700	0.602100	0.022200
H2221	H222	0.214500	0.573800	0.054700
N1121	N112	0.758500	0.448610	0.308300
H2231	H223	0.776000	0.429100	0.324400
H2241	H224	0.719000	0.456200	0.310400
N1131	N113	0.854500	0.772490	0.038500
H2251	H225	0.815500	0.765700	0.013700
H2261	H226	0.859700	0.794100	0.049300
N1141	N114	0.423400	0.593690	0.101100
H2271	H227	0.417100	0.572500	0.088100
H2281	H228	0.453300	0.597700	0.134100
N1151	N115	0.490900	0.587040	0.990400
H2291	H229	0.458600	0.582400	0.958800
H2301	H230	0.512800	0.570200	0.012200
N1161	N116	0.021800	0.773970	0.674550
H2311	H231	0.016400	0.795700	0.664500
H2321	H232	0.997300	0.757900	0.652300
N1171	N117	0.648100	0.576880	0.961100
H2331	H233	0.627800	0.585200	0.927700
H2341	H234	0.643200	0.555000	0.967900
N1181	N118	0.633400	0.442910	0.144400
H2351	H235	0.615900	0.429900	0.164500
H2361	H236	0.610600	0.461100	0.127300
N1191	N119	0.205300	0.464670	0.023700
H2371	H237	0.204300	0.486700	0.015400
H2381	H238	0.240300	0.451800	0.023000
N1201	N120	0.432100	0.580700	0.281200
H2391	H239	0.446300	0.574700	0.316200
H2401	H240	0.457600	0.575800	0.260500
C2531	C253	0.283510	0.706060	0.959610
C2541	C254	0.357800	0.683530	0.054490
H2411	H241	0.364100	0.706400	0.068600
C2551	C255	0.385300	0.621470	0.068400
C2561	C256	0.337800	0.614980	0.015700
H2421	H242	0.328600	0.591900	0.002900
C2571	C257	0.313270	0.677430	0.999620
C2581	C258	0.302900	0.642670	0.980940
H2431	H243	0.272300	0.637800	0.944700
C2591	C259	0.393100	0.655870	0.088700
H2441	H244	0.422200	0.660400	0.125500
C2601	C260	0.219020	0.734620	0.886930
C2611	C261	0.164800	0.744980	0.833590
C2621	C262	0.124300	0.719800	0.795800
H2451	H245	0.128800	0.696100	0.805900
C2631	C263	0.077600	0.729750	0.743700
H2461	H246	0.050700	0.712600	0.719500
C2641	C264	0.156800	0.780150	0.816100
H2471	H247	0.183200	0.797500	0.840200
C2651	C265	0.070200	0.764680	0.726900
C2661	C266	0.110400	0.789760	0.763600
H2481	H248	0.106200	0.813300	0.753000
C2671	C267	0.890040	0.405000	0.112520
C2681	C268	0.826000	0.415390	0.124140
C2691	C269	0.798600	0.395920	0.158200
H2491	H249	0.822500	0.375900	0.176200
C2701	C270	0.735500	0.405640	0.166100
H2501	H250	0.718300	0.392400	0.189800
C2711	C271	0.788700	0.445170	0.097900
H2511	H251	0.806500	0.459000	0.075100
C2721	C272	0.698600	0.434450	0.139300
C2731	C273	0.725900	0.454540	0.105200
H2521	H252	0.701600	0.474400	0.087100
C2741	C274	0.985070	0.407370	0.090780
C2751	C275	0.042600	0.456700	0.057400
H2531	H253	0.005600	0.471300	0.058100
C2761	C276	0.095200	0.470140	0.039800
H2541	H254	0.092800	0.493600	0.028600
C2771	C277	0.043400	0.421450	0.074260
C2781	C278	0.098100	0.400800	0.069800
H2551	H255	0.099000	0.377000	0.078800
C2791	C279	0.150800	0.414230	0.052600
H2561	H256	0.186900	0.399600	0.050200
C2801	C280	0.151000	0.450090	0.038400
C2811	C281	0.774760	0.643060	0.089390
C2821	C282	0.738800	0.655710	0.036000
H2571	H257	0.742900	0.679400	0.028000
C2831	C283	0.768300	0.607860	0.099200
H2581	H258	0.793100	0.598400	0.134400
C2841	C284	0.818280	0.666850	0.134180
C2851	C285	0.696700	0.633790	0.993800
H2591	H259	0.673600	0.642900	0.958000
C2861	C286	0.725100	0.586080	0.057100
H2601	H260	0.720700	0.562400	0.064900
C2871	C287	0.688900	0.599020	0.004500
C2881	C288	0.851560	0.744200	0.221050
C2891	C289	0.800600	0.751220	0.245840
H2611	H261	0.762900	0.735700	0.240400
C2901	C290	0.805200	0.780780	0.278300
H2621	H262	0.770000	0.785300	0.294000
C2911	C291	0.906600	0.768240	0.229140
H2631	H263	0.940600	0.764300	0.212000
C2921	C292	0.850780	0.711310	0.190090
C2931	C293	0.861700	0.804090	0.288030
C2941	C294	0.911300	0.797440	0.261810
H2641	H264	0.948400	0.813200	0.266600
C2951	C295	0.907010	0.529380	0.194530
C2961	C296	0.866700	0.506620	0.220010
C2971	C297	0.893600	0.474640	0.245870
H2651	H265	0.935900	0.466000	0.243400
C2981	C298	0.794300	0.467880	0.278600
C2991	C299	0.802100	0.518080	0.222900
H2661	H266	0.783000	0.539100	0.205400
C3001	C300	0.858000	0.455750	0.275000
H2671	H267	0.876900	0.434700	0.292400
C3011	C301	0.765900	0.499260	0.250800
H2681	H268	0.722300	0.507300	0.251400
C3021	C302	0.085600	0.538050	0.132000
H2691	H269	0.093900	0.519000	0.156800
C3031	C303	0.062000	0.594050	0.058020
H2701	H270	0.053700	0.613100	0.033500
C3041	C304	0.022100	0.556150	0.118860
C3051	C305	0.972580	0.550630	0.149570
C3061	C306	0.011000	0.584290	0.080430
H2711	H271	0.968200	0.596500	0.070100
C3071	C307	0.125500	0.576080	0.071200
C3081	C308	0.136800	0.547660	0.109200
H2721	H272	0.179200	0.535200	0.119000
C3091	C309	0.538200	0.692440	0.040560
C3101	C310	0.487500	0.683910	0.988850
H2731	H273	0.462800	0.701900	0.965300
C3111	C311	0.573700	0.664670	0.074900
H2741	H274	0.608000	0.669500	0.109600
C3121	C312	0.558300	0.630110	0.058100
H2751	H275	0.582300	0.612000	0.081700
C3131	C313	0.553200	0.729120	0.058290
C3141	C314	0.473000	0.649280	0.971860
H2761	H276	0.439500	0.644300	0.936800
C3151	C315	0.507800	0.621860	0.006500
C3161	C316	0.608200	0.776420	0.096180
C3171	C317	0.729500	0.800040	0.114630
H2771	H277	0.737300	0.782400	0.091600
C3181	C318	0.782000	0.824410	0.138300
H2781	H278	0.824500	0.823100	0.131000
C3191	C319	0.772000	0.850900	0.172900
C3201	C320	0.709400	0.851730	0.184400
H2791	H279	0.702700	0.868900	0.208500
C3211	C321	0.656400	0.827460	0.160880
H2801	H280	0.614500	0.828500	0.169300
C3221	C322	0.665110	0.801300	0.124540
C3231	C323	0.166170	0.647060	0.186260
C3241	C324	0.239240	0.634080	0.210630
C3251	C325	0.263200	0.624450	0.266400
H2811	H281	0.236300	0.630100	0.289100
C3261	C326	0.280500	0.627050	0.177400
H2821	H282	0.265600	0.634000	0.139800
C3271	C327	0.326400	0.606450	0.290000
H2831	H283	0.341000	0.599800	0.327800
C3281	C328	0.366900	0.598600	0.257500
C3291	C329	0.344400	0.609400	0.200800
H2841	H284	0.372600	0.604800	0.178700
C3301	C330	0.017700	0.700020	0.109440
C3311	C331	0.025600	0.735410	0.124570
H2851	H285	0.067800	0.743100	0.151000
C3321	C332	0.972100	0.759330	0.101100
H2861	H286	0.978000	0.782900	0.112000
C3331	C333	0.902000	0.713590	0.044200
H2871	H287	0.860700	0.706300	0.016300
C3341	C334	0.909800	0.748290	0.061200
C3351	C335	0.070520	0.674220	0.141720
C3361	C336	0.955500	0.689360	0.068400
H2881	H288	0.949600	0.665900	0.057000
Cu331	Cu33	0.461350	0.871740	0.668040
Cu341	Cu34	0.446930	0.025430	0.632320
Cu351	Cu35	0.907000	0.745080	0.503320
Cu361	Cu36	0.204980	0.781750	0.618850
Cu371	Cu37	0.993660	0.671070	0.567680
Cu381	Cu38	0.683100	0.793950	0.612290
Cu391	Cu39	0.847600	0.668880	0.587110
Cu401	Cu40	0.391070	0.905390	0.753590
Cl51	Cl5	0.874890	0.681220	0.492010
N1211	N121	0.449880	0.922450	0.672230
N1221	N122	0.446600	0.980440	0.661920
N1231	N123	0.408540	0.936010	0.701580
N1241	N124	0.721030	0.795620	0.416140
N1251	N125	0.776330	0.745730	0.411290
N1261	N126	0.817630	0.764110	0.458350
N1271	N127	0.005180	0.745350	0.547830
N1281	N128	0.040940	0.714770	0.572180
N1291	N129	0.118580	0.758310	0.588950
N1301	N130	0.466450	0.126330	0.588610
N1311	N131	0.404860	0.127640	0.602260
N1321	N132	0.439290	0.072140	0.606870
N1331	N133	0.614320	0.869340	0.697750
N1341	N134	0.552470	0.851760	0.669090
N1351	N135	0.641140	0.825410	0.650640
N1361	N136	0.294090	0.802400	0.649160
N1371	N137	0.386020	0.838020	0.664290
N1381	N138	0.406810	0.809450	0.700020
N1391	N139	0.324400	0.624200	0.694900
H2891	H289	0.318300	0.607700	0.716400
H2901	H290	0.363100	0.625200	0.687100
N1401	N140	0.368300	0.667170	0.823400
H2911	H291	0.403700	0.653100	0.829500
H2921	H292	0.337100	0.663400	0.839400
N1411	N141	0.675200	0.914880	0.546200
H2931	H293	0.666700	0.897900	0.522200
H2941	H294	0.714500	0.926200	0.554700
N1421	N142	0.258500	0.051390	0.808300
H2951	H295	0.276000	0.070900	0.824400
H2961	H296	0.219000	0.043800	0.810400
N1431	N143	0.354500	0.727510	0.538500
H2971	H297	0.315500	0.734300	0.513700
H2981	H298	0.359700	0.705900	0.549300
N1441	N144	0.923400	0.906310	0.601100
H2991	H299	0.917100	0.927500	0.588100
H3001	H300	0.953300	0.902300	0.634100
N1451	N145	0.990900	0.912960	0.490400
H3011	H301	0.958600	0.917600	0.458800
H3021	H302	0.012800	0.929800	0.512200
N1461	N146	0.521800	0.726030	0.174550
H3031	H303	0.516400	0.704300	0.164500
H3041	H304	0.497300	0.742100	0.152300
N1471	N147	0.148100	0.923120	0.461100
H3051	H305	0.127800	0.914800	0.427700
H3061	H306	0.143200	0.945000	0.467900
N1481	N148	0.133400	0.057090	0.644400
H3071	H307	0.115900	0.070100	0.664500
H3081	H308	0.110600	0.038900	0.627300
N1491	N149	0.705300	0.035330	0.523700
H3091	H309	0.704300	0.013300	0.515400
H3101	H310	0.740300	0.048200	0.523000
N1501	N150	0.932100	0.919300	0.781200
H3111	H311	0.946300	0.925300	0.816200
H3121	H312	0.957600	0.924200	0.760500
C3371	C337	0.783510	0.793940	0.459610
C3381	C338	0.857800	0.816470	0.554490
H3131	H313	0.864100	0.793600	0.568600
C3391	C339	0.885300	0.878530	0.568400
C3401	C340	0.837800	0.885020	0.515700
H3141	H314	0.828600	0.908100	0.502900
C3411	C341	0.813270	0.822570	0.499620
C3421	C342	0.802900	0.857330	0.480940
H3151	H315	0.772300	0.862200	0.444700
C3431	C343	0.893100	0.844130	0.588700
H3161	H316	0.922200	0.839600	0.625500
C3441	C344	0.719020	0.765380	0.386930
C3451	C345	0.664800	0.755020	0.333590
C3461	C346	0.624300	0.780200	0.295800
H3171	H317	0.628800	0.803900	0.305900
C3471	C347	0.577600	0.770250	0.243700
H3181	H318	0.550700	0.787400	0.219500
C3481	C348	0.656800	0.719850	0.316100
H3191	H319	0.683200	0.702500	0.340200
C3491	C349	0.570200	0.735320	0.226900
C3501	C350	0.610400	0.710240	0.263600
H3201	H320	0.606200	0.686700	0.253000
C3511	C351	0.390040	0.095000	0.612520
C3521	C352	0.326000	0.084610	0.624140
C3531	C353	0.298600	0.104080	0.658200
H3211	H321	0.322500	0.124100	0.676200
C3541	C354	0.235500	0.094360	0.666100
H3221	H322	0.218300	0.107600	0.689800
C3551	C355	0.288700	0.054830	0.597900
H3231	H323	0.306500	0.041000	0.575100
C3561	C356	0.198600	0.065550	0.639300
C3571	C357	0.225900	0.045460	0.605200
H3241	H324	0.201600	0.025600	0.587100
C3581	C358	0.485070	0.092630	0.590780
C3591	C359	0.542600	0.043300	0.557400
H3251	H325	0.505600	0.028700	0.558100
C3601	C360	0.595200	0.029860	0.539800
H3261	H326	0.592800	0.006400	0.528600
C3611	C361	0.543400	0.078550	0.574260
C3621	C362	0.598100	0.099200	0.569800
H3271	H327	0.599000	0.123000	0.578800
C3631	C363	0.650800	0.085770	0.552600
H3281	H328	0.686900	0.100400	0.550200
C3641	C364	0.651000	0.049910	0.538400
C3651	C365	0.274760	0.856940	0.589390
C3661	C366	0.238800	0.844290	0.536000
H3291	H329	0.242900	0.820600	0.528000
C3671	C367	0.268300	0.892140	0.599200
H3301	H330	0.293100	0.901600	0.634400
C3681	C368	0.318280	0.833150	0.634180
C3691	C369	0.196700	0.866210	0.493800
H3311	H331	0.173600	0.857100	0.458000
C3701	C370	0.225100	0.913920	0.557100
H3321	H332	0.220700	0.937600	0.564900
C3711	C371	0.188900	0.900980	0.504500
C3721	C372	0.351560	0.755800	0.721050
C3731	C373	0.300600	0.748780	0.745840
H3331	H333	0.262900	0.764300	0.740400
C3741	C374	0.305200	0.719220	0.778300
H3341	H334	0.270000	0.714700	0.794000
C3751	C375	0.406600	0.731760	0.729140
H3351	H335	0.440600	0.735700	0.712000
C3761	C376	0.350780	0.788690	0.690090
C3771	C377	0.361700	0.695910	0.788030
C3781	C378	0.411300	0.702560	0.761810
H3361	H336	0.448400	0.686800	0.766600
C3791	C379	0.407010	0.970620	0.694530
C3801	C380	0.366700	0.993380	0.720010
C3811	C381	0.393600	0.025360	0.745870
H3371	H337	0.435900	0.034000	0.743400
C3821	C382	0.294300	0.032120	0.778600
C3831	C383	0.302100	0.981920	0.722900
H3381	H338	0.283000	0.960900	0.705400
C3841	C384	0.358000	0.044250	0.775000
H3391	H339	0.376900	0.065300	0.792400
C3851	C385	0.265900	0.000740	0.750800
H3401	H340	0.222300	0.992700	0.751400
C3861	C386	0.585600	0.961950	0.632000
H3411	H341	0.593900	0.981000	0.656800
C3871	C387	0.562000	0.905950	0.558020
H3421	H342	0.553700	0.886900	0.533500
C3881	C388	0.522100	0.943850	0.618860
C3891	C389	0.472580	0.949370	0.649570
C3901	C390	0.511000	0.915710	0.580430
H3431	H343	0.468200	0.903500	0.570100
C3911	C391	0.625500	0.923920	0.571200
C3921	C392	0.636800	0.952340	0.609200
H3441	H344	0.679200	0.964800	0.619000
C3931	C393	0.038200	0.807560	0.540560
C3941	C394	0.987500	0.816090	0.488850
H3451	H345	0.962800	0.798100	0.465300
C3951	C395	0.073700	0.835330	0.574900
H3461	H346	0.108000	0.830500	0.609600
C3961	C396	0.058300	0.869890	0.558100
H3471	H347	0.082300	0.888000	0.581700
C3971	C397	0.053200	0.770880	0.558290
C3981	C398	0.973000	0.850720	0.471860
H3481	H348	0.939500	0.855700	0.436800
C3991	C399	0.007800	0.878140	0.506500
C4001	C400	0.108200	0.723580	0.596180
C4011	C401	0.229500	0.699960	0.614630
H3491	H349	0.237300	0.717600	0.591600
C4021	C402	0.282000	0.675590	0.638300
H3501	H350	0.324500	0.676900	0.631000
C4031	C403	0.272000	0.649100	0.672900
C4041	C404	0.209400	0.648270	0.684400
H3511	H351	0.202700	0.631100	0.708500
C4051	C405	0.156400	0.672540	0.660880
H3521	H352	0.114500	0.671500	0.669300
C4061	C406	0.165110	0.698700	0.624540
C4071	C407	0.666170	0.852940	0.686260
C4081	C408	0.739240	0.865920	0.710630
C4091	C409	0.763200	0.875550	0.766400
H3531	H353	0.736300	0.869900	0.789100
C4101	C410	0.780500	0.872950	0.677400
H3541	H354	0.765600	0.866000	0.639800
C4111	C411	0.826400	0.893550	0.790000
H3551	H355	0.841000	0.900200	0.827800
C4121	C412	0.866900	0.901400	0.757500
C4131	C413	0.844400	0.890600	0.700800
H3561	H356	0.872600	0.895200	0.678700
C4141	C414	0.517700	0.799980	0.609440
C4151	C415	0.525600	0.764590	0.624570
H3571	H357	0.567800	0.756900	0.651000
C4161	C416	0.472100	0.740670	0.601100
H3581	H358	0.478000	0.717100	0.612000
C4171	C417	0.402000	0.786410	0.544200
H3591	H359	0.360700	0.793700	0.516300
C4181	C418	0.409800	0.751710	0.561200
C4191	C419	0.570520	0.825780	0.641720
C4201	C420	0.455500	0.810640	0.568400
H3601	H360	0.449600	0.834100	0.557000
Cu411	Cu41	0.961350	0.371740	0.668040
Cu421	Cu42	0.946930	0.525430	0.632320
Cu431	Cu43	0.407000	0.245080	0.503320
Cu441	Cu44	0.704980	0.281750	0.618850
Cu451	Cu45	0.493660	0.171070	0.567680
Cu461	Cu46	0.183100	0.293950	0.612290
Cu471	Cu47	0.347600	0.168880	0.587110
Cu481	Cu48	0.891070	0.405390	0.753590
Cl61	Cl6	0.374890	0.181220	0.492010
N1511	N151	0.949880	0.422450	0.672230
N1521	N152	0.946600	0.480440	0.661920
N1531	N153	0.908540	0.436010	0.701580
N1541	N154	0.221030	0.295620	0.416140
N1551	N155	0.276330	0.245730	0.411290
N1561	N156	0.317630	0.264110	0.458350
N1571	N157	0.505180	0.245350	0.547830
N1581	N158	0.540940	0.214770	0.572180
N1591	N159	0.618580	0.258310	0.588950
N1601	N160	0.966450	0.626330	0.588610
N1611	N161	0.904860	0.627640	0.602260
N1621	N162	0.939290	0.572140	0.606870
N1631	N163	0.114320	0.369340	0.697750
N1641	N164	0.052470	0.351760	0.669090
N1651	N165	0.141140	0.325410	0.650640
N1661	N166	0.794090	0.302400	0.649160
N1671	N167	0.886020	0.338020	0.664290
N1681	N168	0.906810	0.309450	0.700020
N1691	N169	0.824400	0.124200	0.694900
H3611	H361	0.818300	0.107700	0.716400
H3621	H362	0.863100	0.125200	0.687100
N1701	N170	0.868300	0.167170	0.823400
H3631	H363	0.903700	0.153100	0.829500
H3641	H364	0.837100	0.163400	0.839400
N1711	N171	0.175200	0.414880	0.546200
H3651	H365	0.166700	0.397900	0.522200
H3661	H366	0.214500	0.426200	0.554700
N1721	N172	0.758500	0.551390	0.808300
H3671	H367	0.776000	0.570900	0.824400
H3681	H368	0.719000	0.543800	0.810400
N1731	N173	0.854500	0.227510	0.538500
H3691	H369	0.815500	0.234300	0.513700
H3701	H370	0.859700	0.205900	0.549300
N1741	N174	0.423400	0.406310	0.601100
H3711	H371	0.417100	0.427500	0.588100
H3721	H372	0.453300	0.402300	0.634100
N1751	N175	0.490900	0.412960	0.490400
H3731	H373	0.458600	0.417600	0.458800
H3741	H374	0.512800	0.429800	0.512200
N1761	N176	0.021800	0.226030	0.174550
H3751	H375	0.016400	0.204300	0.164500
H3761	H376	0.997300	0.242100	0.152300
N1771	N177	0.648100	0.423120	0.461100
H3771	H377	0.627800	0.414800	0.427700
H3781	H378	0.643200	0.445000	0.467900
N1781	N178	0.633400	0.557090	0.644400
H3791	H379	0.615900	0.570100	0.664500
H3801	H380	0.610600	0.538900	0.627300
N1791	N179	0.205300	0.535330	0.523700
H3811	H381	0.204300	0.513300	0.515400
H3821	H382	0.240300	0.548200	0.523000
N1801	N180	0.432100	0.419300	0.781200
H3831	H383	0.446300	0.425300	0.816200
H3841	H384	0.457600	0.424200	0.760500
C4211	C421	0.283510	0.293940	0.459610
C4221	C422	0.357800	0.316470	0.554490
H3851	H385	0.364100	0.293600	0.568600
C4231	C423	0.385300	0.378530	0.568400
C4241	C424	0.337800	0.385020	0.515700
H3861	H386	0.328600	0.408100	0.502900
C4251	C425	0.313270	0.322570	0.499620
C4261	C426	0.302900	0.357330	0.480940
H3871	H387	0.272300	0.362200	0.444700
C4271	C427	0.393100	0.344130	0.588700
H3881	H388	0.422200	0.339600	0.625500
C4281	C428	0.219020	0.265380	0.386930
C4291	C429	0.164800	0.255020	0.333590
C4301	C430	0.124300	0.280200	0.295800
H3891	H389	0.128800	0.303900	0.305900
C4311	C431	0.077600	0.270250	0.243700
H3901	H390	0.050700	0.287400	0.219500
C4321	C432	0.156800	0.219850	0.316100
H3911	H391	0.183200	0.202500	0.340200
C4331	C433	0.070200	0.235320	0.226900
C4341	C434	0.110400	0.210240	0.263600
H3921	H392	0.106200	0.186700	0.253000
C4351	C435	0.890040	0.595000	0.612520
C4361	C436	0.826000	0.584610	0.624140
C4371	C437	0.798600	0.604080	0.658200
H3931	H393	0.822500	0.624100	0.676200
C4381	C438	0.735500	0.594360	0.666100
H3941	H394	0.718300	0.607600	0.689800
C4391	C439	0.788700	0.554830	0.597900
H3951	H395	0.806500	0.541000	0.575100
C4401	C440	0.698600	0.565550	0.639300
C4411	C441	0.725900	0.545460	0.605200
H3961	H396	0.701600	0.525600	0.587100
C4421	C442	0.985070	0.592630	0.590780
C4431	C443	0.042600	0.543300	0.557400
H3971	H397	0.005600	0.528700	0.558100
C4441	C444	0.095200	0.529860	0.539800
H3981	H398	0.092800	0.506400	0.528600
C4451	C445	0.043400	0.578550	0.574260
C4461	C446	0.098100	0.599200	0.569800
H3991	H399	0.099000	0.623000	0.578800
C4471	C447	0.150800	0.585770	0.552600
H4001	H400	0.186900	0.600400	0.550200
C4481	C448	0.151000	0.549910	0.538400
C4491	C449	0.774760	0.356940	0.589390
C4501	C450	0.738800	0.344290	0.536000
H4011	H401	0.742900	0.320600	0.528000
C4511	C451	0.768300	0.392140	0.599200
H4021	H402	0.793100	0.401600	0.634400
C4521	C452	0.818280	0.333150	0.634180
C4531	C453	0.696700	0.366210	0.493800
H4031	H403	0.673600	0.357100	0.458000
C4541	C454	0.725100	0.413920	0.557100
H4041	H404	0.720700	0.437600	0.564900
C4551	C455	0.688900	0.400980	0.504500
C4561	C456	0.851560	0.255800	0.721050
C4571	C457	0.800600	0.248780	0.745840
H4051	H405	0.762900	0.264300	0.740400
C4581	C458	0.805200	0.219220	0.778300
H4061	H406	0.770000	0.214700	0.794000
C4591	C459	0.906600	0.231760	0.729140
H4071	H407	0.940600	0.235700	0.712000
C4601	C460	0.850780	0.288690	0.690090
C4611	C461	0.861700	0.195910	0.788030
C4621	C462	0.911300	0.202560	0.761810
H4081	H408	0.948400	0.186800	0.766600
C4631	C463	0.907010	0.470620	0.694530
C4641	C464	0.866700	0.493380	0.720010
C4651	C465	0.893600	0.525360	0.745870
H4091	H409	0.935900	0.534000	0.743400
C4661	C466	0.794300	0.532120	0.778600
C4671	C467	0.802100	0.481920	0.722900
H4101	H410	0.783000	0.460900	0.705400
C4681	C468	0.858000	0.544250	0.775000
H4111	H411	0.876900	0.565300	0.792400
C4691	C469	0.765900	0.500740	0.750800
H4121	H412	0.722300	0.492700	0.751400
C4701	C470	0.085600	0.461950	0.632000
H4131	H413	0.093900	0.481000	0.656800
C4711	C471	0.062000	0.405950	0.558020
H4141	H414	0.053700	0.386900	0.533500
C4721	C472	0.022100	0.443850	0.618860
C4731	C473	0.972580	0.449370	0.649570
C4741	C474	0.011000	0.415710	0.580430
H4151	H415	0.968200	0.403500	0.570100
C4751	C475	0.125500	0.423920	0.571200
C4761	C476	0.136800	0.452340	0.609200
H4161	H416	0.179200	0.464800	0.619000
C4771	C477	0.538200	0.307560	0.540560
C4781	C478	0.487500	0.316090	0.488850
H4171	H417	0.462800	0.298100	0.465300
C4791	C479	0.573700	0.335330	0.574900
H4181	H418	0.608000	0.330500	0.609600
C4801	C480	0.558300	0.369890	0.558100
H4191	H419	0.582300	0.388000	0.581700
C4811	C481	0.553200	0.270880	0.558290
C4821	C482	0.473000	0.350720	0.471860
H4201	H420	0.439500	0.355700	0.436800
C4831	C483	0.507800	0.378140	0.506500
C4841	C484	0.608200	0.223580	0.596180
C4851	C485	0.729500	0.199960	0.614630
H4211	H421	0.737300	0.217600	0.591600
C4861	C486	0.782000	0.175590	0.638300
H4221	H422	0.824500	0.176900	0.631000
C4871	C487	0.772000	0.149100	0.672900
C4881	C488	0.709400	0.148270	0.684400
H4231	H423	0.702700	0.131100	0.708500
C4891	C489	0.656400	0.172540	0.660880
H4241	H424	0.614500	0.171500	0.669300
C4901	C490	0.665110	0.198700	0.624540
C4911	C491	0.166170	0.352940	0.686260
C4921	C492	0.239240	0.365920	0.710630
C4931	C493	0.263200	0.375550	0.766400
H4251	H425	0.236300	0.369900	0.789100
C4941	C494	0.280500	0.372950	0.677400
H4261	H426	0.265600	0.366000	0.639800
C4951	C495	0.326400	0.393550	0.790000
H4271	H427	0.341000	0.400200	0.827800
C4961	C496	0.366900	0.401400	0.757500
C4971	C497	0.344400	0.390600	0.700800
H4281	H428	0.372600	0.395200	0.678700
C4981	C498	0.017700	0.299980	0.609440
C4991	C499	0.025600	0.264590	0.624570
H4291	H429	0.067800	0.256900	0.651000
C5001	C500	0.972100	0.240670	0.601100
H4301	H430	0.978000	0.217100	0.612000
C5011	C501	0.902000	0.286410	0.544200
H4311	H431	0.860700	0.293700	0.516300
C5021	C502	0.909800	0.251710	0.561200
C5031	C503	0.070520	0.325780	0.641720
C5041	C504	0.955500	0.310640	0.568400
H4321	H432	0.949600	0.334100	0.557000
Cu491	Cu49	0.538650	0.871740	0.831960
Cu501	Cu50	0.553070	0.025430	0.867680
Cu511	Cu51	0.093000	0.745080	0.996680
Cu521	Cu52	0.795020	0.781750	0.881150
Cu531	Cu53	0.006340	0.671070	0.932320
Cu541	Cu54	0.316900	0.793950	0.887710
Cu551	Cu55	0.152400	0.668880	0.912890
Cu561	Cu56	0.608930	0.905390	0.746410
Cl71	Cl7	0.125110	0.681220	0.007990
N1811	N181	0.550120	0.922450	0.827770
N1821	N182	0.553400	0.980440	0.838080
N1831	N183	0.591460	0.936010	0.798420
N1841	N184	0.278970	0.795620	0.083860
N1851	N185	0.223670	0.745730	0.088710
N1861	N186	0.182370	0.764110	0.041650
N1871	N187	0.994820	0.745350	0.952170
N1881	N188	0.959060	0.714770	0.927820
N1891	N189	0.881420	0.758310	0.911050
N1901	N190	0.533550	0.126330	0.911390
N1911	N191	0.595140	0.127640	0.897740
N1921	N192	0.560710	0.072140	0.893130
N1931	N193	0.385680	0.869340	0.802250
N1941	N194	0.447530	0.851760	0.830910
N1951	N195	0.358860	0.825410	0.849360
N1961	N196	0.705910	0.802400	0.850840
N1971	N197	0.613980	0.838020	0.835710
N1981	N198	0.593190	0.809450	0.799980
N1991	N199	0.675600	0.624200	0.805100
H4331	H433	0.681700	0.607700	0.783600
H4341	H434	0.636900	0.625200	0.812900
N2001	N200	0.631700	0.667170	0.676600
H4351	H435	0.596300	0.653100	0.670500
H4361	H436	0.662900	0.663400	0.660600
N2011	N201	0.324800	0.914880	0.953800
H4371	H437	0.333300	0.897900	0.977800
H4381	H438	0.285500	0.926200	0.945300
N2021	N202	0.741500	0.051390	0.691700
H4391	H439	0.724000	0.070900	0.675600
H4401	H440	0.781000	0.043800	0.689600
N2031	N203	0.645500	0.727510	0.961500
H4411	H441	0.684500	0.734300	0.986300
H4421	H442	0.640300	0.705900	0.950700
N2041	N204	0.076600	0.906310	0.898900
H4431	H443	0.082900	0.927500	0.911900
H4441	H444	0.046700	0.902300	0.865900
N2051	N205	0.009100	0.912960	0.009600
H4451	H445	0.041400	0.917600	0.041200
H4461	H446	0.987200	0.929800	0.987800
N2061	N206	0.478200	0.726030	0.325450
H4471	H447	0.483600	0.704300	0.335500
H4481	H448	0.502700	0.742100	0.347700
N2071	N207	0.851900	0.923120	0.038900
H4491	H449	0.872200	0.914800	0.072300
H4501	H450	0.856800	0.945000	0.032100
N2081	N208	0.866600	0.057090	0.855600
H4511	H451	0.884100	0.070100	0.835500
H4521	H452	0.889400	0.038900	0.872700
N2091	N209	0.294700	0.035330	0.976300
H4531	H453	0.295700	0.013300	0.984600
H4541	H454	0.259700	0.048200	0.977000
N2101	N210	0.067900	0.919300	0.718800
H4551	H455	0.053700	0.925300	0.683800
H4561	H456	0.042400	0.924200	0.739500
C5051	C505	0.216490	0.793940	0.040390
C5061	C506	0.142200	0.816470	0.945510
H4571	H457	0.135900	0.793600	0.931400
C5071	C507	0.114700	0.878530	0.931600
C5081	C508	0.162200	0.885020	0.984300
H4581	H458	0.171400	0.908100	0.997100
C5091	C509	0.186730	0.822570	0.000380
C5101	C510	0.197100	0.857330	0.019060
H4591	H459	0.227700	0.862200	0.055300
C5111	C511	0.106900	0.844130	0.911300
H4601	H460	0.077800	0.839600	0.874500
C5121	C512	0.280980	0.765380	0.113070
C5131	C513	0.335200	0.755020	0.166410
C5141	C514	0.375700	0.780200	0.204200
H4611	H461	0.371200	0.803900	0.194100
C5151	C515	0.422400	0.770250	0.256300
H4621	H462	0.449300	0.787400	0.280500
C5161	C516	0.343200	0.719850	0.183900
H4631	H463	0.316800	0.702500	0.159800
C5171	C517	0.429800	0.735320	0.273100
C5181	C518	0.389600	0.710240	0.236400
H4641	H464	0.393800	0.686700	0.247000
C5191	C519	0.609960	0.095000	0.887480
C5201	C520	0.674000	0.084610	0.875860
C5211	C521	0.701400	0.104080	0.841800
H4651	H465	0.677500	0.124100	0.823800
C5221	C522	0.764500	0.094360	0.833900
H4661	H466	0.781700	0.107600	0.810200
C5231	C523	0.711300	0.054830	0.902100
H4671	H467	0.693500	0.041000	0.924900
C5241	C524	0.801400	0.065550	0.860700
C5251	C525	0.774100	0.045460	0.894800
H4681	H468	0.798400	0.025600	0.912900
C5261	C526	0.514930	0.092630	0.909220
C5271	C527	0.457400	0.043300	0.942600
H4691	H469	0.494400	0.028700	0.941900
C5281	C528	0.404800	0.029860	0.960200
H4701	H470	0.407200	0.006400	0.971400
C5291	C529	0.456600	0.078550	0.925740
C5301	C530	0.401900	0.099200	0.930200
H4711	H471	0.401000	0.123000	0.921200
C5311	C531	0.349200	0.085770	0.947400
H4721	H472	0.313100	0.100400	0.949800
C5321	C532	0.349000	0.049910	0.961600
C5331	C533	0.725240	0.856940	0.910610
C5341	C534	0.761200	0.844290	0.964000
H4731	H473	0.757100	0.820600	0.972000
C5351	C535	0.731700	0.892140	0.900800
H4741	H474	0.706900	0.901600	0.865600
C5361	C536	0.681720	0.833150	0.865820
C5371	C537	0.803300	0.866210	0.006200
H4751	H475	0.826400	0.857100	0.042000
C5381	C538	0.774900	0.913920	0.942900
H4761	H476	0.779300	0.937600	0.935100
C5391	C539	0.811100	0.900980	0.995500
C5401	C540	0.648440	0.755800	0.778950
C5411	C541	0.699400	0.748780	0.754160
H4771	H477	0.737100	0.764300	0.759600
C5421	C542	0.694800	0.719220	0.721700
H4781	H478	0.730000	0.714700	0.706000
C5431	C543	0.593400	0.731760	0.770860
H4791	H479	0.559400	0.735700	0.788000
C5441	C544	0.649220	0.788690	0.809910
C5451	C545	0.638300	0.695910	0.711970
C5461	C546	0.588700	0.702560	0.738190
H4801	H480	0.551600	0.686800	0.733400
C5471	C547	0.592990	0.970620	0.805470
C5481	C548	0.633300	0.993380	0.779990
C5491	C549	0.606400	0.025360	0.754130
H4811	H481	0.564100	0.034000	0.756600
C5501	C550	0.705700	0.032120	0.721400
C5511	C551	0.697900	0.981920	0.777100
H4821	H482	0.717000	0.960900	0.794600
C5521	C552	0.642000	0.044250	0.725000
H4831	H483	0.623100	0.065300	0.707600
C5531	C553	0.734100	0.000740	0.749200
H4841	H484	0.777700	0.992700	0.748600
C5541	C554	0.414400	0.961950	0.868000
H4851	H485	0.406100	0.981000	0.843200
C5551	C555	0.438000	0.905950	0.941980
H4861	H486	0.446300	0.886900	0.966500
C5561	C556	0.477900	0.943850	0.881140
C5571	C557	0.527420	0.949370	0.850430
C5581	C558	0.489000	0.915710	0.919570
H4871	H487	0.531800	0.903500	0.929900
C5591	C559	0.374500	0.923920	0.928800
C5601	C560	0.363200	0.952340	0.890800
H4881	H488	0.320800	0.964800	0.881000
C5611	C561	0.961800	0.807560	0.959440
C5621	C562	0.012500	0.816090	0.011150
H4891	H489	0.037200	0.798100	0.034700
C5631	C563	0.926300	0.835330	0.925100
H4901	H490	0.892000	0.830500	0.890400
C5641	C564	0.941700	0.869890	0.941900
H4911	H491	0.917700	0.888000	0.918300
C5651	C565	0.946800	0.770880	0.941710
C5661	C566	0.027000	0.850720	0.028140
H4921	H492	0.060500	0.855700	0.063200
C5671	C567	0.992200	0.878140	0.993500
C5681	C568	0.891800	0.723580	0.903820
C5691	C569	0.770500	0.699960	0.885370
H4931	H493	0.762700	0.717600	0.908400
C5701	C570	0.718000	0.675590	0.861700
H4941	H494	0.675500	0.676900	0.869000
C5711	C571	0.728000	0.649100	0.827100
C5721	C572	0.790600	0.648270	0.815600
H4951	H495	0.797300	0.631100	0.791500
C5731	C573	0.843600	0.672540	0.839120
H4961	H496	0.885500	0.671500	0.830700
C5741	C574	0.834890	0.698700	0.875460
C5751	C575	0.333830	0.852940	0.813740
C5761	C576	0.260760	0.865920	0.789370
C5771	C577	0.236800	0.875550	0.733600
H4971	H497	0.263700	0.869900	0.710900
C5781	C578	0.219500	0.872950	0.822600
H4981	H498	0.234400	0.866000	0.860200
C5791	C579	0.173600	0.893550	0.710000
H4991	H499	0.159000	0.900200	0.672200
C5801	C580	0.133100	0.901400	0.742500
C5811	C581	0.155600	0.890600	0.799200
H5001	H500	0.127400	0.895200	0.821300
C5821	C582	0.482300	0.799980	0.890560
C5831	C583	0.474400	0.764590	0.875430
H5011	H501	0.432200	0.756900	0.849000
C5841	C584	0.527900	0.740670	0.898900
H5021	H502	0.522000	0.717100	0.888000
C5851	C585	0.598000	0.786410	0.955800
H5031	H503	0.639300	0.793700	0.983700
C5861	C586	0.590200	0.751710	0.938800
C5871	C587	0.429480	0.825780	0.858280
C5881	C588	0.544500	0.810640	0.931600
H5041	H504	0.550400	0.834100	0.943000
Cu571	Cu57	0.038650	0.371740	0.831960
Cu581	Cu58	0.053070	0.525430	0.867680
Cu591	Cu59	0.593000	0.245080	0.996680
Cu601	Cu60	0.295020	0.281750	0.881150
Cu611	Cu61	0.506340	0.171070	0.932320
Cu621	Cu62	0.816900	0.293950	0.887710
Cu631	Cu63	0.652400	0.168880	0.912890
Cu641	Cu64	0.108930	0.405390	0.746410
Cl81	Cl8	0.625110	0.181220	0.007990
N2111	N211	0.050120	0.422450	0.827770
N2121	N212	0.053400	0.480440	0.838080
N2131	N213	0.091460	0.436010	0.798420
N2141	N214	0.778970	0.295620	0.083860
N2151	N215	0.723670	0.245730	0.088710
N2161	N216	0.682370	0.264110	0.041650
N2171	N217	0.494820	0.245350	0.952170
N2181	N218	0.459060	0.214770	0.927820
N2191	N219	0.381420	0.258310	0.911050
N2201	N220	0.033550	0.626330	0.911390
N2211	N221	0.095140	0.627640	0.897740
N2221	N222	0.060710	0.572140	0.893130
N2231	N223	0.885680	0.369340	0.802250
N2241	N224	0.947530	0.351760	0.830910
N2251	N225	0.858860	0.325410	0.849360
N2261	N226	0.205910	0.302400	0.850840
N2271	N227	0.113980	0.338020	0.835710
N2281	N228	0.093190	0.309450	0.799980
N2291	N229	0.175600	0.124200	0.805100
H5051	H505	0.181700	0.107700	0.783600
H5061	H506	0.136900	0.125200	0.812900
N2301	N230	0.131700	0.167170	0.676600
H5071	H507	0.096300	0.153100	0.670500
H5081	H508	0.162900	0.163400	0.660600
N2311	N231	0.824800	0.414880	0.953800
H5091	H509	0.833300	0.397900	0.977800
H5101	H510	0.785500	0.426200	0.945300
N2321	N232	0.241500	0.551390	0.691700
H5111	H511	0.224000	0.570900	0.675600
H5121	H512	0.281000	0.543800	0.689600
N2331	N233	0.145500	0.227510	0.961500
H5131	H513	0.184500	0.234300	0.986300
H5141	H514	0.140300	0.205900	0.950700
N2341	N234	0.576600	0.406310	0.898900
H5151	H515	0.582900	0.427500	0.911900
H5161	H516	0.546700	0.402300	0.865900
N2351	N235	0.509100	0.412960	0.009600
H5171	H517	0.541400	0.417600	0.041200
H5181	H518	0.487200	0.429800	0.987800
N2361	N236	0.978200	0.226030	0.325450
H5191	H519	0.983600	0.204300	0.335500
H5201	H520	0.002700	0.242100	0.347700
N2371	N237	0.351900	0.423120	0.038900
H5211	H521	0.372200	0.414800	0.072300
H5221	H522	0.356800	0.445000	0.032100
N2381	N238	0.366600	0.557090	0.855600
H5231	H523	0.384100	0.570100	0.835500
H5241	H524	0.389400	0.538900	0.872700
N2391	N239	0.794700	0.535330	0.976300
H5251	H525	0.795700	0.513300	0.984600
H5261	H526	0.759700	0.548200	0.977000
N2401	N240	0.567900	0.419300	0.718800
H5271	H527	0.553700	0.425300	0.683800
H5281	H528	0.542400	0.424200	0.739500
C5891	C589	0.716490	0.293940	0.040390
C5901	C590	0.642200	0.316470	0.945510
H5291	H529	0.635900	0.293600	0.931400
C5911	C591	0.614700	0.378530	0.931600
C5921	C592	0.662200	0.385020	0.984300
H5301	H530	0.671400	0.408100	0.997100
C5931	C593	0.686730	0.322570	0.000380
C5941	C594	0.697100	0.357330	0.019060
H5311	H531	0.727700	0.362200	0.055300
C5951	C595	0.606900	0.344130	0.911300
H5321	H532	0.577800	0.339600	0.874500
C5961	C596	0.780980	0.265380	0.113070
C5971	C597	0.835200	0.255020	0.166410
C5981	C598	0.875700	0.280200	0.204200
H5331	H533	0.871200	0.303900	0.194100
C5991	C599	0.922400	0.270250	0.256300
H5341	H534	0.949300	0.287400	0.280500
C6001	C600	0.843200	0.219850	0.183900
H5351	H535	0.816800	0.202500	0.159800
C6011	C601	0.929800	0.235320	0.273100
C6021	C602	0.889600	0.210240	0.236400
H5361	H536	0.893800	0.186700	0.247000
C6031	C603	0.109960	0.595000	0.887480
C6041	C604	0.174000	0.584610	0.875860
C6051	C605	0.201400	0.604080	0.841800
H5371	H537	0.177500	0.624100	0.823800
C6061	C606	0.264500	0.594360	0.833900
H5381	H538	0.281700	0.607600	0.810200
C6071	C607	0.211300	0.554830	0.902100
H5391	H539	0.193500	0.541000	0.924900
C6081	C608	0.301400	0.565550	0.860700
C6091	C609	0.274100	0.545460	0.894800
H5401	H540	0.298400	0.525600	0.912900
C6101	C610	0.014930	0.592630	0.909220
C6111	C611	0.957400	0.543300	0.942600
H5411	H541	0.994400	0.528700	0.941900
C6121	C612	0.904800	0.529860	0.960200
H5421	H542	0.907200	0.506400	0.971400
C6131	C613	0.956600	0.578550	0.925740
C6141	C614	0.901900	0.599200	0.930200
H5431	H543	0.901000	0.623000	0.921200
C6151	C615	0.849200	0.585770	0.947400
H5441	H544	0.813100	0.600400	0.949800
C6161	C616	0.849000	0.549910	0.961600
C6171	C617	0.225240	0.356940	0.910610
C6181	C618	0.261200	0.344290	0.964000
H5451	H545	0.257100	0.320600	0.972000
C6191	C619	0.231700	0.392140	0.900800
H5461	H546	0.206900	0.401600	0.865600
C6201	C620	0.181720	0.333150	0.865820
C6211	C621	0.303300	0.366210	0.006200
H5471	H547	0.326400	0.357100	0.042000
C6221	C622	0.274900	0.413920	0.942900
H5481	H548	0.279300	0.437600	0.935100
C6231	C623	0.311100	0.400980	0.995500
C6241	C624	0.148440	0.255800	0.778950
C6251	C625	0.199400	0.248780	0.754160
H5491	H549	0.237100	0.264300	0.759600
C6261	C626	0.194800	0.219220	0.721700
H5501	H550	0.230000	0.214700	0.706000
C6271	C627	0.093400	0.231760	0.770860
H5511	H551	0.059400	0.235700	0.788000
C6281	C628	0.149220	0.288690	0.809910
C6291	C629	0.138300	0.195910	0.711970
C6301	C630	0.088700	0.202560	0.738190
H5521	H552	0.051600	0.186800	0.733400
C6311	C631	0.092990	0.470620	0.805470
C6321	C632	0.133300	0.493380	0.779990
C6331	C633	0.106400	0.525360	0.754130
H5531	H553	0.064100	0.534000	0.756600
C6341	C634	0.205700	0.532120	0.721400
C6351	C635	0.197900	0.481920	0.777100
H5541	H554	0.217000	0.460900	0.794600
C6361	C636	0.142000	0.544250	0.725000
H5551	H555	0.123100	0.565300	0.707600
C6371	C637	0.234100	0.500740	0.749200
H5561	H556	0.277700	0.492700	0.748600
C6381	C638	0.914400	0.461950	0.868000
H5571	H557	0.906100	0.481000	0.843200
C6391	C639	0.938000	0.405950	0.941980
H5581	H558	0.946300	0.386900	0.966500
C6401	C640	0.977900	0.443850	0.881140
C6411	C641	0.027420	0.449370	0.850430
C6421	C642	0.989000	0.415710	0.919570
H5591	H559	0.031800	0.403500	0.929900
C6431	C643	0.874500	0.423920	0.928800
C6441	C644	0.863200	0.452340	0.890800
H5601	H560	0.820800	0.464800	0.881000
C6451	C645	0.461800	0.307560	0.959440
C6461	C646	0.512500	0.316090	0.011150
H5611	H561	0.537200	0.298100	0.034700
C6471	C647	0.426300	0.335330	0.925100
H5621	H562	0.392000	0.330500	0.890400
C6481	C648	0.441700	0.369890	0.941900
H5631	H563	0.417700	0.388000	0.918300
C6491	C649	0.446800	0.270880	0.941710
C6501	C650	0.527000	0.350720	0.028140
H5641	H564	0.560500	0.355700	0.063200
C6511	C651	0.492200	0.378140	0.993500
C6521	C652	0.391800	0.223580	0.903820
C6531	C653	0.270500	0.199960	0.885370
H5651	H565	0.262700	0.217600	0.908400
C6541	C654	0.218000	0.175590	0.861700
H5661	H566	0.175500	0.176900	0.869000
C6551	C655	0.228000	0.149100	0.827100
C6561	C656	0.290600	0.148270	0.815600
H5671	H567	0.297300	0.131100	0.791500
C6571	C657	0.343600	0.172540	0.839120
H5681	H568	0.385500	0.171500	0.830700
C6581	C658	0.334890	0.198700	0.875460
C6591	C659	0.833830	0.352940	0.813740
C6601	C660	0.760760	0.365920	0.789370
C6611	C661	0.736800	0.375550	0.733600
H5691	H569	0.763700	0.369900	0.710900
C6621	C662	0.719500	0.372950	0.822600
H5701	H570	0.734400	0.366000	0.860200
C6631	C663	0.673600	0.393550	0.710000
H5711	H571	0.659000	0.400200	0.672200
C6641	C664	0.633100	0.401400	0.742500
C6651	C665	0.655600	0.390600	0.799200
H5721	H572	0.627400	0.395200	0.821300
C6661	C666	0.982300	0.299980	0.890560
C6671	C667	0.974400	0.264590	0.875430
H5731	H573	0.932200	0.256900	0.849000
C6681	C668	0.027900	0.240670	0.898900
H5741	H574	0.022000	0.217100	0.888000
C6691	C669	0.098000	0.286410	0.955800
H5751	H575	0.139300	0.293700	0.983700
C6701	C670	0.090200	0.251710	0.938800
C6711	C671	0.929480	0.325780	0.858280
C6721	C672	0.044500	0.310640	0.931600
H5761	H576	0.050400	0.334100	0.943000
Cu651	Cu65	0.500000	0.191930	0.250000
Cu661	Cu66	0.000000	0.691930	0.250000
Cu671	Cu67	0.500000	0.808070	0.750000
Cu681	Cu68	0.000000	0.308070	0.750000
