data_AWIBAK_clean_PM
_symmetry_space_group_name_H-M	'P1'
_cell_length_a	20.014000
_cell_length_b	37.956000
_cell_length_c	25.085000
_cell_angle_alpha	90.000000
_cell_angle_beta	109.384000
_cell_angle_gamma	90.000000
_symmetry_Int_Tables_number 1

loop_
_symmetry_equiv_pos_as_xyz
'x,y,z'

loop_
_atom_site_label
_atom_site_type_symbol
_atom_site_fract_x
_atom_site_fract_y
_atom_site_fract_z
Cu11	Cu1	0.538760	0.128350	0.331830
Cu21	Cu2	0.552570	0.974500	0.367370
Cu31	Cu3	0.092970	0.254670	0.496840
Cu41	Cu4	0.795080	0.218170	0.381010
Cu51	Cu5	0.006440	0.328740	0.432460
Cu61	Cu6	0.317290	0.206240	0.387650
Cu71	Cu7	0.152220	0.331090	0.412600
Cu81	Cu8	0.608570	0.094660	0.246210
Cl11	Cl1	0.125150	0.318590	0.507860
N11	N1	0.550080	0.077600	0.327770
N21	N2	0.553360	0.019590	0.337850
N31	N3	0.591450	0.063900	0.298290
N41	N4	0.278890	0.204240	0.583950
N51	N5	0.223580	0.254030	0.589020
N61	N6	0.182400	0.235570	0.542210
N71	N7	0.995000	0.254400	0.452550
N81	N8	0.959330	0.284940	0.428230
N91	N9	0.881630	0.241440	0.410970
N101	N10	0.533230	0.873520	0.411270
N111	N11	0.594530	0.872130	0.397160
N121	N12	0.559820	0.927720	0.392710
N131	N13	0.386070	0.130700	0.302520
N141	N14	0.447860	0.148350	0.330800
N151	N15	0.359340	0.174660	0.349360
N161	N16	0.705850	0.197740	0.350500
N171	N17	0.614000	0.162130	0.335430
N181	N18	0.593340	0.190760	0.299850
N191	N19	0.677000	0.376070	0.305400
H11	H1	0.683800	0.392500	0.284200
H21	H2	0.638100	0.375300	0.312900
N201	N20	0.631700	0.333240	0.176900
H31	H3	0.596400	0.347300	0.171200
H41	H4	0.662900	0.337100	0.160900
N211	N21	0.326000	0.085050	0.454400
H51	H5	0.334400	0.102200	0.478100
H61	H6	0.286800	0.073600	0.446300
N221	N22	0.738900	0.948190	0.190600
H71	H7	0.721000	0.928700	0.174600
H81	H8	0.778300	0.955700	0.188000
N231	N23	0.644800	0.273420	0.461500
H91	H9	0.684100	0.266700	0.485900
H101	H10	0.639200	0.295100	0.450900
N241	N24	0.076300	0.093640	0.398400
H111	H11	0.082000	0.072400	0.411100
H121	H12	0.046700	0.097900	0.365300
N251	N25	0.009100	0.086680	0.509500
H131	H13	0.988100	0.069800	0.487300
H141	H14	0.040600	0.082000	0.541500
N261	N26	0.478100	0.274100	0.825360
H151	H15	0.503100	0.258100	0.847400
H161	H16	0.482900	0.295800	0.835600
N271	N27	0.851700	0.076790	0.538000
H171	H17	0.871700	0.085000	0.571500
H181	H18	0.856800	0.055000	0.530900
N281	N28	0.865300	0.942630	0.354900
H191	H19	0.889100	0.960400	0.372800
H201	H20	0.881900	0.930000	0.333700
N291	N29	0.297000	0.963930	0.479600
H211	H21	0.298100	0.985900	0.488100
H221	H22	0.262500	0.950900	0.481000
N301	N30	0.068200	0.081300	0.218700
H231	H23	0.054200	0.075400	0.183700
H241	H24	0.042400	0.076500	0.239200
C11	C1	0.216380	0.205940	0.540650
C21	C2	0.142700	0.183320	0.445620
H251	H25	0.136800	0.206200	0.431400
C31	C3	0.115200	0.121260	0.431600
C41	C4	0.162800	0.114890	0.484600
H261	H26	0.172000	0.091800	0.497500
C51	C5	0.186750	0.177300	0.500680
C61	C6	0.197200	0.142520	0.519120
H271	H27	0.227900	0.137700	0.555300
C71	C7	0.107400	0.155780	0.411660
H281	H28	0.078000	0.160400	0.375000
C81	C8	0.280640	0.234440	0.613460
C91	C9	0.334800	0.244900	0.666610
C101	C10	0.375600	0.219840	0.704100
H291	H29	0.371500	0.196200	0.693900
C111	C11	0.422800	0.229910	0.757000
H301	H30	0.449500	0.212800	0.781500
C121	C12	0.342800	0.280000	0.684100
H311	H31	0.316300	0.297300	0.660000
C131	C13	0.430100	0.264780	0.773200
C141	C14	0.389600	0.289760	0.736800
H321	H32	0.393400	0.313300	0.747600
C151	C15	0.609240	0.904870	0.387170
C161	C16	0.672900	0.915420	0.375080
C171	C17	0.699800	0.895620	0.340300
H331	H33	0.675500	0.875800	0.322000
C181	C18	0.762800	0.905320	0.332700
H341	H34	0.780000	0.892200	0.308700
C191	C19	0.710600	0.944810	0.401400
H351	H35	0.692900	0.958500	0.424400
C201	C20	0.800500	0.934300	0.360300
C211	C21	0.773200	0.954160	0.394200
H361	H36	0.797400	0.974100	0.412300
C221	C22	0.514360	0.907190	0.409050
C231	C23	0.457500	0.956480	0.442700
H371	H37	0.494200	0.971000	0.441100
C241	C24	0.405900	0.970100	0.461000
H381	H38	0.408200	0.993600	0.471900
C251	C25	0.456700	0.921200	0.426210
C261	C26	0.402600	0.900260	0.431200
H391	H39	0.401800	0.876400	0.422500
C271	C27	0.350000	0.913950	0.448600
H401	H40	0.313500	0.899500	0.450700
C281	C28	0.350800	0.949510	0.463400
C291	C29	0.725100	0.143100	0.410110
C301	C30	0.760600	0.155470	0.463760
H411	H41	0.756100	0.179100	0.471900
C311	C31	0.731300	0.107930	0.400000
H421	H42	0.706100	0.098600	0.364700
C321	C32	0.681430	0.166970	0.365410
C331	C33	0.802800	0.133710	0.505900
H431	H43	0.825600	0.142700	0.541900
C341	C34	0.774600	0.085900	0.441400
H441	H44	0.779300	0.062300	0.433200
C351	C35	0.811000	0.099000	0.494900
C361	C36	0.648420	0.244310	0.278810
C371	C37	0.699300	0.251500	0.253940
H451	H45	0.737300	0.236200	0.259500
C381	C38	0.694300	0.280810	0.221450
H461	H46	0.729100	0.285200	0.205300
C391	C39	0.593180	0.268430	0.270740
H471	H47	0.559100	0.264500	0.287800
C401	C40	0.649340	0.211510	0.309930
C411	C41	0.638400	0.304270	0.212010
C421	C42	0.588400	0.297790	0.238100
H481	H48	0.551300	0.313600	0.233300
C431	C43	0.592770	0.029330	0.305310
C441	C44	0.632700	0.006480	0.279770
C451	C45	0.606000	0.974570	0.254190
H491	H49	0.563700	0.966000	0.256900
C461	C46	0.704100	0.967560	0.220700
C471	C47	0.697000	0.017880	0.276500
H501	H50	0.716500	0.038900	0.293900
C481	C48	0.641000	0.955340	0.224700
H511	H51	0.622100	0.934200	0.207700
C491	C49	0.732600	0.998740	0.247800
H521	H52	0.776000	0.006700	0.246600
C501	C50	0.415400	0.037850	0.368270
H531	H53	0.407400	0.018700	0.343800
C511	C51	0.438200	0.094180	0.442140
H541	H54	0.446300	0.113300	0.466700
C521	C52	0.477900	0.056270	0.381320
C531	C53	0.527470	0.050620	0.350440
C541	C54	0.488900	0.084520	0.419160
H551	H55	0.531300	0.097000	0.428900
C551	C55	0.375500	0.075910	0.429200
C561	C56	0.364000	0.047690	0.391500
H561	H56	0.321500	0.035400	0.381700
C571	C57	0.961860	0.192250	0.459380
C581	C58	0.012200	0.183550	0.511180
H571	H57	0.036400	0.201500	0.535100
C591	C59	0.926700	0.164410	0.425300
H581	H58	0.892400	0.169200	0.390500
C601	C60	0.941800	0.129780	0.442100
H591	H59	0.917600	0.111700	0.418500
C611	C61	0.946920	0.228940	0.441710
C621	C62	0.027100	0.148990	0.527930
H601	H60	0.061000	0.144000	0.562800
C631	C63	0.992200	0.121540	0.493400
C641	C64	0.891960	0.276140	0.403660
C651	C65	0.771200	0.300020	0.385750
H611	H61	0.763500	0.282400	0.408900
C661	C66	0.718900	0.324520	0.362100
H621	H62	0.676400	0.323300	0.369600
C671	C67	0.728600	0.350970	0.327500
C681	C68	0.791400	0.351850	0.315900
H631	H63	0.798300	0.369100	0.292000
C691	C69	0.844200	0.327380	0.339460
H641	H64	0.886100	0.328400	0.331200
C701	C70	0.835190	0.301170	0.375520
C711	C71	0.334120	0.147140	0.313980
C721	C72	0.261510	0.134100	0.289720
C731	C73	0.237500	0.124380	0.234200
H651	H65	0.264500	0.129800	0.211400
C741	C74	0.220400	0.127130	0.323100
H661	H66	0.235600	0.133800	0.360900
C751	C75	0.174300	0.106640	0.210800
H671	H67	0.159700	0.099900	0.173100
C761	C76	0.133600	0.099100	0.242700
C771	C77	0.156300	0.110000	0.299300
H681	H68	0.127700	0.105800	0.321200
C781	C78	0.482500	0.200400	0.390510
C791	C79	0.474200	0.235620	0.375230
H691	H69	0.432100	0.243100	0.348600
C801	C80	0.527000	0.259660	0.398500
H701	H70	0.520700	0.283100	0.387200
C811	C81	0.597900	0.214000	0.455400
H711	H71	0.639500	0.206700	0.482900
C821	C82	0.589600	0.248990	0.438800
C831	C83	0.430030	0.174380	0.358530
C841	C84	0.544700	0.189830	0.431450
H721	H72	0.550700	0.166400	0.442900
Cu91	Cu9	0.038760	0.628350	0.331830
Cu101	Cu10	0.052570	0.474500	0.367370
Cu111	Cu11	0.592970	0.754670	0.496840
Cu121	Cu12	0.295080	0.718170	0.381010
Cu131	Cu13	0.506440	0.828740	0.432460
Cu141	Cu14	0.817290	0.706240	0.387650
Cu151	Cu15	0.652220	0.831090	0.412600
Cu161	Cu16	0.108570	0.594660	0.246210
Cl21	Cl2	0.625150	0.818590	0.507860
N311	N31	0.050080	0.577600	0.327770
N321	N32	0.053360	0.519590	0.337850
N331	N33	0.091450	0.563900	0.298290
N341	N34	0.778890	0.704240	0.583950
N351	N35	0.723580	0.754030	0.589020
N361	N36	0.682400	0.735570	0.542210
N371	N37	0.495000	0.754400	0.452550
N381	N38	0.459330	0.784940	0.428230
N391	N39	0.381630	0.741440	0.410970
N401	N40	0.033230	0.373520	0.411270
N411	N41	0.094530	0.372130	0.397160
N421	N42	0.059820	0.427720	0.392710
N431	N43	0.886070	0.630700	0.302520
N441	N44	0.947860	0.648350	0.330800
N451	N45	0.859340	0.674660	0.349360
N461	N46	0.205850	0.697740	0.350500
N471	N47	0.114000	0.662130	0.335430
N481	N48	0.093340	0.690760	0.299850
N491	N49	0.177000	0.876070	0.305400
H731	H73	0.183800	0.892500	0.284200
H741	H74	0.138100	0.875300	0.312900
N501	N50	0.131700	0.833240	0.176900
H751	H75	0.096400	0.847300	0.171200
H761	H76	0.162900	0.837100	0.160900
N511	N51	0.826000	0.585050	0.454400
H771	H77	0.834400	0.602200	0.478100
H781	H78	0.786800	0.573600	0.446300
N521	N52	0.238900	0.448190	0.190600
H791	H79	0.221000	0.428700	0.174600
H801	H80	0.278300	0.455700	0.188000
N531	N53	0.144800	0.773420	0.461500
H811	H81	0.184100	0.766700	0.485900
H821	H82	0.139200	0.795100	0.450900
N541	N54	0.576300	0.593640	0.398400
H831	H83	0.582000	0.572400	0.411100
H841	H84	0.546700	0.597900	0.365300
N551	N55	0.509100	0.586680	0.509500
H851	H85	0.488100	0.569800	0.487300
H861	H86	0.540600	0.582000	0.541500
N561	N56	0.978100	0.774100	0.825360
H871	H87	0.003100	0.758100	0.847400
H881	H88	0.982900	0.795800	0.835600
N571	N57	0.351700	0.576790	0.538000
H891	H89	0.371700	0.585000	0.571500
H901	H90	0.356800	0.555000	0.530900
N581	N58	0.365300	0.442630	0.354900
H911	H91	0.389100	0.460400	0.372800
H921	H92	0.381900	0.430000	0.333700
N591	N59	0.797000	0.463930	0.479600
H931	H93	0.798100	0.485900	0.488100
H941	H94	0.762500	0.450900	0.481000
N601	N60	0.568200	0.581300	0.218700
H951	H95	0.554200	0.575400	0.183700
H961	H96	0.542400	0.576500	0.239200
C851	C85	0.716380	0.705940	0.540650
C861	C86	0.642700	0.683320	0.445620
H971	H97	0.636800	0.706200	0.431400
C871	C87	0.615200	0.621260	0.431600
C881	C88	0.662800	0.614890	0.484600
H981	H98	0.672000	0.591800	0.497500
C891	C89	0.686750	0.677300	0.500680
C901	C90	0.697200	0.642520	0.519120
H991	H99	0.727900	0.637700	0.555300
C911	C91	0.607400	0.655780	0.411660
H1001	H100	0.578000	0.660400	0.375000
C921	C92	0.780640	0.734440	0.613460
C931	C93	0.834800	0.744900	0.666610
C941	C94	0.875600	0.719840	0.704100
H1011	H101	0.871500	0.696200	0.693900
C951	C95	0.922800	0.729910	0.757000
H1021	H102	0.949500	0.712800	0.781500
C961	C96	0.842800	0.780000	0.684100
H1031	H103	0.816300	0.797300	0.660000
C971	C97	0.930100	0.764780	0.773200
C981	C98	0.889600	0.789760	0.736800
H1041	H104	0.893400	0.813300	0.747600
C991	C99	0.109240	0.404870	0.387170
C1001	C100	0.172900	0.415420	0.375080
C1011	C101	0.199800	0.395620	0.340300
H1051	H105	0.175500	0.375800	0.322000
C1021	C102	0.262800	0.405320	0.332700
H1061	H106	0.280000	0.392200	0.308700
C1031	C103	0.210600	0.444810	0.401400
H1071	H107	0.192900	0.458500	0.424400
C1041	C104	0.300500	0.434300	0.360300
C1051	C105	0.273200	0.454160	0.394200
H1081	H108	0.297400	0.474100	0.412300
C1061	C106	0.014360	0.407190	0.409050
C1071	C107	0.957500	0.456480	0.442700
H1091	H109	0.994200	0.471000	0.441100
C1081	C108	0.905900	0.470100	0.461000
H1101	H110	0.908200	0.493600	0.471900
C1091	C109	0.956700	0.421200	0.426210
C1101	C110	0.902600	0.400260	0.431200
H1111	H111	0.901800	0.376400	0.422500
C1111	C111	0.850000	0.413950	0.448600
H1121	H112	0.813500	0.399500	0.450700
C1121	C112	0.850800	0.449510	0.463400
C1131	C113	0.225100	0.643100	0.410110
C1141	C114	0.260600	0.655470	0.463760
H1131	H113	0.256100	0.679100	0.471900
C1151	C115	0.231300	0.607930	0.400000
H1141	H114	0.206100	0.598600	0.364700
C1161	C116	0.181430	0.666970	0.365410
C1171	C117	0.302800	0.633710	0.505900
H1151	H115	0.325600	0.642700	0.541900
C1181	C118	0.274600	0.585900	0.441400
H1161	H116	0.279300	0.562300	0.433200
C1191	C119	0.311000	0.599000	0.494900
C1201	C120	0.148420	0.744310	0.278810
C1211	C121	0.199300	0.751500	0.253940
H1171	H117	0.237300	0.736200	0.259500
C1221	C122	0.194300	0.780810	0.221450
H1181	H118	0.229100	0.785200	0.205300
C1231	C123	0.093180	0.768430	0.270740
H1191	H119	0.059100	0.764500	0.287800
C1241	C124	0.149340	0.711510	0.309930
C1251	C125	0.138400	0.804270	0.212010
C1261	C126	0.088400	0.797790	0.238100
H1201	H120	0.051300	0.813600	0.233300
C1271	C127	0.092770	0.529330	0.305310
C1281	C128	0.132700	0.506480	0.279770
C1291	C129	0.106000	0.474570	0.254190
H1211	H121	0.063700	0.466000	0.256900
C1301	C130	0.204100	0.467560	0.220700
C1311	C131	0.197000	0.517880	0.276500
H1221	H122	0.216500	0.538900	0.293900
C1321	C132	0.141000	0.455340	0.224700
H1231	H123	0.122100	0.434200	0.207700
C1331	C133	0.232600	0.498740	0.247800
H1241	H124	0.276000	0.506700	0.246600
C1341	C134	0.915400	0.537850	0.368270
H1251	H125	0.907400	0.518700	0.343800
C1351	C135	0.938200	0.594180	0.442140
H1261	H126	0.946300	0.613300	0.466700
C1361	C136	0.977900	0.556270	0.381320
C1371	C137	0.027470	0.550620	0.350440
C1381	C138	0.988900	0.584520	0.419160
H1271	H127	0.031300	0.597000	0.428900
C1391	C139	0.875500	0.575910	0.429200
C1401	C140	0.864000	0.547690	0.391500
H1281	H128	0.821500	0.535400	0.381700
C1411	C141	0.461860	0.692250	0.459380
C1421	C142	0.512200	0.683550	0.511180
H1291	H129	0.536400	0.701500	0.535100
C1431	C143	0.426700	0.664410	0.425300
H1301	H130	0.392400	0.669200	0.390500
C1441	C144	0.441800	0.629780	0.442100
H1311	H131	0.417600	0.611700	0.418500
C1451	C145	0.446920	0.728940	0.441710
C1461	C146	0.527100	0.648990	0.527930
H1321	H132	0.561000	0.644000	0.562800
C1471	C147	0.492200	0.621540	0.493400
C1481	C148	0.391960	0.776140	0.403660
C1491	C149	0.271200	0.800020	0.385750
H1331	H133	0.263500	0.782400	0.408900
C1501	C150	0.218900	0.824520	0.362100
H1341	H134	0.176400	0.823300	0.369600
C1511	C151	0.228600	0.850970	0.327500
C1521	C152	0.291400	0.851850	0.315900
H1351	H135	0.298300	0.869100	0.292000
C1531	C153	0.344200	0.827380	0.339460
H1361	H136	0.386100	0.828400	0.331200
C1541	C154	0.335190	0.801170	0.375520
C1551	C155	0.834120	0.647140	0.313980
C1561	C156	0.761510	0.634100	0.289720
C1571	C157	0.737500	0.624380	0.234200
H1371	H137	0.764500	0.629800	0.211400
C1581	C158	0.720400	0.627130	0.323100
H1381	H138	0.735600	0.633800	0.360900
C1591	C159	0.674300	0.606640	0.210800
H1391	H139	0.659700	0.599900	0.173100
C1601	C160	0.633600	0.599100	0.242700
C1611	C161	0.656300	0.610000	0.299300
H1401	H140	0.627700	0.605800	0.321200
C1621	C162	0.982500	0.700400	0.390510
C1631	C163	0.974200	0.735620	0.375230
H1411	H141	0.932100	0.743100	0.348600
C1641	C164	0.027000	0.759660	0.398500
H1421	H142	0.020700	0.783100	0.387200
C1651	C165	0.097900	0.714000	0.455400
H1431	H143	0.139500	0.706700	0.482900
C1661	C166	0.089600	0.748990	0.438800
C1671	C167	0.930030	0.674380	0.358530
C1681	C168	0.044700	0.689830	0.431450
H1441	H144	0.050700	0.666400	0.442900
Cu171	Cu17	0.461240	0.128350	0.168170
Cu181	Cu18	0.447430	0.974500	0.132630
Cu191	Cu19	0.907030	0.254670	0.003160
Cu201	Cu20	0.204920	0.218170	0.118990
Cu211	Cu21	0.993560	0.328740	0.067540
Cu221	Cu22	0.682710	0.206240	0.112350
Cu231	Cu23	0.847780	0.331090	0.087400
Cu241	Cu24	0.391430	0.094660	0.253790
Cl31	Cl3	0.874850	0.318590	0.992140
N611	N61	0.449920	0.077600	0.172230
N621	N62	0.446640	0.019590	0.162150
N631	N63	0.408550	0.063900	0.201710
N641	N64	0.721110	0.204240	0.916050
N651	N65	0.776420	0.254030	0.910980
N661	N66	0.817600	0.235570	0.957790
N671	N67	0.005000	0.254400	0.047450
N681	N68	0.040670	0.284940	0.071770
N691	N69	0.118370	0.241440	0.089030
N701	N70	0.466770	0.873520	0.088730
N711	N71	0.405470	0.872130	0.102840
N721	N72	0.440180	0.927720	0.107290
N731	N73	0.613930	0.130700	0.197480
N741	N74	0.552140	0.148350	0.169200
N751	N75	0.640660	0.174660	0.150640
N761	N76	0.294150	0.197740	0.149500
N771	N77	0.386000	0.162130	0.164570
N781	N78	0.406660	0.190760	0.200150
N791	N79	0.323000	0.376070	0.194600
H1451	H145	0.316200	0.392500	0.215800
H1461	H146	0.361900	0.375300	0.187100
N801	N80	0.368300	0.333240	0.323100
H1471	H147	0.403600	0.347300	0.328800
H1481	H148	0.337100	0.337100	0.339100
N811	N81	0.674000	0.085050	0.045600
H1491	H149	0.665600	0.102200	0.021900
H1501	H150	0.713200	0.073600	0.053700
N821	N82	0.261100	0.948190	0.309400
H1511	H151	0.279000	0.928700	0.325400
H1521	H152	0.221700	0.955700	0.312000
N831	N83	0.355200	0.273420	0.038500
H1531	H153	0.315900	0.266700	0.014100
H1541	H154	0.360800	0.295100	0.049100
N841	N84	0.923700	0.093640	0.101600
H1551	H155	0.918000	0.072400	0.088900
H1561	H156	0.953300	0.097900	0.134700
N851	N85	0.990900	0.086680	0.990500
H1571	H157	0.011900	0.069800	0.012700
H1581	H158	0.959400	0.082000	0.958500
N861	N86	0.521900	0.274100	0.674640
H1591	H159	0.496900	0.258100	0.652600
H1601	H160	0.517100	0.295800	0.664400
N871	N87	0.148300	0.076790	0.962000
H1611	H161	0.128300	0.085000	0.928500
H1621	H162	0.143200	0.055000	0.969100
N881	N88	0.134700	0.942630	0.145100
H1631	H163	0.110900	0.960400	0.127200
H1641	H164	0.118100	0.930000	0.166300
N891	N89	0.703000	0.963930	0.020400
H1651	H165	0.701900	0.985900	0.011900
H1661	H166	0.737500	0.950900	0.019000
N901	N90	0.931800	0.081300	0.281300
H1671	H167	0.945800	0.075400	0.316300
H1681	H168	0.957600	0.076500	0.260800
C1691	C169	0.783620	0.205940	0.959350
C1701	C170	0.857300	0.183320	0.054380
H1691	H169	0.863200	0.206200	0.068600
C1711	C171	0.884800	0.121260	0.068400
C1721	C172	0.837200	0.114890	0.015400
H1701	H170	0.828000	0.091800	0.002500
C1731	C173	0.813250	0.177300	0.999320
C1741	C174	0.802800	0.142520	0.980880
H1711	H171	0.772100	0.137700	0.944700
C1751	C175	0.892600	0.155780	0.088340
H1721	H172	0.922000	0.160400	0.125000
C1761	C176	0.719360	0.234440	0.886540
C1771	C177	0.665200	0.244900	0.833390
C1781	C178	0.624400	0.219840	0.795900
H1731	H173	0.628500	0.196200	0.806100
C1791	C179	0.577200	0.229910	0.743000
H1741	H174	0.550500	0.212800	0.718500
C1801	C180	0.657200	0.280000	0.815900
H1751	H175	0.683700	0.297300	0.840000
C1811	C181	0.569900	0.264780	0.726800
C1821	C182	0.610400	0.289760	0.763200
H1761	H176	0.606600	0.313300	0.752400
C1831	C183	0.390760	0.904870	0.112830
C1841	C184	0.327100	0.915420	0.124920
C1851	C185	0.300200	0.895620	0.159700
H1771	H177	0.324500	0.875800	0.178000
C1861	C186	0.237200	0.905320	0.167300
H1781	H178	0.220000	0.892200	0.191300
C1871	C187	0.289400	0.944810	0.098600
H1791	H179	0.307100	0.958500	0.075600
C1881	C188	0.199500	0.934300	0.139700
C1891	C189	0.226800	0.954160	0.105800
H1801	H180	0.202600	0.974100	0.087700
C1901	C190	0.485640	0.907190	0.090950
C1911	C191	0.542500	0.956480	0.057300
H1811	H181	0.505800	0.971000	0.058900
C1921	C192	0.594100	0.970100	0.039000
H1821	H182	0.591800	0.993600	0.028100
C1931	C193	0.543300	0.921200	0.073790
C1941	C194	0.597400	0.900260	0.068800
H1831	H183	0.598200	0.876400	0.077500
C1951	C195	0.650000	0.913950	0.051400
H1841	H184	0.686500	0.899500	0.049300
C1961	C196	0.649200	0.949510	0.036600
C1971	C197	0.274900	0.143100	0.089890
C1981	C198	0.239400	0.155470	0.036240
H1851	H185	0.243900	0.179100	0.028100
C1991	C199	0.268700	0.107930	0.100000
H1861	H186	0.293900	0.098600	0.135300
C2001	C200	0.318570	0.166970	0.134590
C2011	C201	0.197200	0.133710	0.994100
H1871	H187	0.174400	0.142700	0.958100
C2021	C202	0.225400	0.085900	0.058600
H1881	H188	0.220700	0.062300	0.066800
C2031	C203	0.189000	0.099000	0.005100
C2041	C204	0.351580	0.244310	0.221190
C2051	C205	0.300700	0.251500	0.246060
H1891	H189	0.262700	0.236200	0.240500
C2061	C206	0.305700	0.280810	0.278550
H1901	H190	0.270900	0.285200	0.294700
C2071	C207	0.406820	0.268430	0.229260
H1911	H191	0.440900	0.264500	0.212200
C2081	C208	0.350660	0.211510	0.190070
C2091	C209	0.361600	0.304270	0.287990
C2101	C210	0.411600	0.297790	0.261900
H1921	H192	0.448700	0.313600	0.266700
C2111	C211	0.407230	0.029330	0.194690
C2121	C212	0.367300	0.006480	0.220230
C2131	C213	0.394000	0.974570	0.245810
H1931	H193	0.436300	0.966000	0.243100
C2141	C214	0.295900	0.967560	0.279300
C2151	C215	0.303000	0.017880	0.223500
H1941	H194	0.283500	0.038900	0.206100
C2161	C216	0.359000	0.955340	0.275300
H1951	H195	0.377900	0.934200	0.292300
C2171	C217	0.267400	0.998740	0.252200
H1961	H196	0.224000	0.006700	0.253400
C2181	C218	0.584600	0.037850	0.131730
H1971	H197	0.592600	0.018700	0.156200
C2191	C219	0.561800	0.094180	0.057860
H1981	H198	0.553700	0.113300	0.033300
C2201	C220	0.522100	0.056270	0.118680
C2211	C221	0.472530	0.050620	0.149560
C2221	C222	0.511100	0.084520	0.080840
H1991	H199	0.468700	0.097000	0.071100
C2231	C223	0.624500	0.075910	0.070800
C2241	C224	0.636000	0.047690	0.108500
H2001	H200	0.678500	0.035400	0.118300
C2251	C225	0.038140	0.192250	0.040620
C2261	C226	0.987800	0.183550	0.988820
H2011	H201	0.963600	0.201500	0.964900
C2271	C227	0.073300	0.164410	0.074700
H2021	H202	0.107600	0.169200	0.109500
C2281	C228	0.058200	0.129780	0.057900
H2031	H203	0.082400	0.111700	0.081500
C2291	C229	0.053080	0.228940	0.058290
C2301	C230	0.972900	0.148990	0.972070
H2041	H204	0.939000	0.144000	0.937200
C2311	C231	0.007800	0.121540	0.006600
C2321	C232	0.108040	0.276140	0.096340
C2331	C233	0.228800	0.300020	0.114250
H2051	H205	0.236500	0.282400	0.091100
C2341	C234	0.281100	0.324520	0.137900
H2061	H206	0.323600	0.323300	0.130400
C2351	C235	0.271400	0.350970	0.172500
C2361	C236	0.208600	0.351850	0.184100
H2071	H207	0.201700	0.369100	0.208000
C2371	C237	0.155800	0.327380	0.160540
H2081	H208	0.113900	0.328400	0.168800
C2381	C238	0.164810	0.301170	0.124480
C2391	C239	0.665880	0.147140	0.186020
C2401	C240	0.738490	0.134100	0.210280
C2411	C241	0.762500	0.124380	0.265800
H2091	H209	0.735500	0.129800	0.288600
C2421	C242	0.779600	0.127130	0.176900
H2101	H210	0.764400	0.133800	0.139100
C2431	C243	0.825700	0.106640	0.289200
H2111	H211	0.840300	0.099900	0.326900
C2441	C244	0.866400	0.099100	0.257300
C2451	C245	0.843700	0.110000	0.200700
H2121	H212	0.872300	0.105800	0.178800
C2461	C246	0.517500	0.200400	0.109490
C2471	C247	0.525800	0.235620	0.124770
H2131	H213	0.567900	0.243100	0.151400
C2481	C248	0.473000	0.259660	0.101500
H2141	H214	0.479300	0.283100	0.112800
C2491	C249	0.402100	0.214000	0.044600
H2151	H215	0.360500	0.206700	0.017100
C2501	C250	0.410400	0.248990	0.061200
C2511	C251	0.569970	0.174380	0.141470
C2521	C252	0.455300	0.189830	0.068550
H2161	H216	0.449300	0.166400	0.057100
Cu251	Cu25	0.961240	0.628350	0.168170
Cu261	Cu26	0.947430	0.474500	0.132630
Cu271	Cu27	0.407030	0.754670	0.003160
Cu281	Cu28	0.704920	0.718170	0.118990
Cu291	Cu29	0.493560	0.828740	0.067540
Cu301	Cu30	0.182710	0.706240	0.112350
Cu311	Cu31	0.347780	0.831090	0.087400
Cu321	Cu32	0.891430	0.594660	0.253790
Cl41	Cl4	0.374850	0.818590	0.992140
N911	N91	0.949920	0.577600	0.172230
N921	N92	0.946640	0.519590	0.162150
N931	N93	0.908550	0.563900	0.201710
N941	N94	0.221110	0.704240	0.916050
N951	N95	0.276420	0.754030	0.910980
N961	N96	0.317600	0.735570	0.957790
N971	N97	0.505000	0.754400	0.047450
N981	N98	0.540670	0.784940	0.071770
N991	N99	0.618370	0.741440	0.089030
N1001	N100	0.966770	0.373520	0.088730
N1011	N101	0.905470	0.372130	0.102840
N1021	N102	0.940180	0.427720	0.107290
N1031	N103	0.113930	0.630700	0.197480
N1041	N104	0.052140	0.648350	0.169200
N1051	N105	0.140660	0.674660	0.150640
N1061	N106	0.794150	0.697740	0.149500
N1071	N107	0.886000	0.662130	0.164570
N1081	N108	0.906660	0.690760	0.200150
N1091	N109	0.823000	0.876070	0.194600
H2171	H217	0.816200	0.892500	0.215800
H2181	H218	0.861900	0.875300	0.187100
N1101	N110	0.868300	0.833240	0.323100
H2191	H219	0.903600	0.847300	0.328800
H2201	H220	0.837100	0.837100	0.339100
N1111	N111	0.174000	0.585050	0.045600
H2211	H221	0.165600	0.602200	0.021900
H2221	H222	0.213200	0.573600	0.053700
N1121	N112	0.761100	0.448190	0.309400
H2231	H223	0.779000	0.428700	0.325400
H2241	H224	0.721700	0.455700	0.312000
N1131	N113	0.855200	0.773420	0.038500
H2251	H225	0.815900	0.766700	0.014100
H2261	H226	0.860800	0.795100	0.049100
N1141	N114	0.423700	0.593640	0.101600
H2271	H227	0.418000	0.572400	0.088900
H2281	H228	0.453300	0.597900	0.134700
N1151	N115	0.490900	0.586680	0.990500
H2291	H229	0.511900	0.569800	0.012700
H2301	H230	0.459400	0.582000	0.958500
N1161	N116	0.021900	0.774100	0.674640
H2311	H231	0.996900	0.758100	0.652600
H2321	H232	0.017100	0.795800	0.664400
N1171	N117	0.648300	0.576790	0.962000
H2331	H233	0.628300	0.585000	0.928500
H2341	H234	0.643200	0.555000	0.969100
N1181	N118	0.634700	0.442630	0.145100
H2351	H235	0.610900	0.460400	0.127200
H2361	H236	0.618100	0.430000	0.166300
N1191	N119	0.203000	0.463930	0.020400
H2371	H237	0.201900	0.485900	0.011900
H2381	H238	0.237500	0.450900	0.019000
N1201	N120	0.431800	0.581300	0.281300
H2391	H239	0.445800	0.575400	0.316300
H2401	H240	0.457600	0.576500	0.260800
C2531	C253	0.283620	0.705940	0.959350
C2541	C254	0.357300	0.683320	0.054380
H2411	H241	0.363200	0.706200	0.068600
C2551	C255	0.384800	0.621260	0.068400
C2561	C256	0.337200	0.614890	0.015400
H2421	H242	0.328000	0.591800	0.002500
C2571	C257	0.313250	0.677300	0.999320
C2581	C258	0.302800	0.642520	0.980880
H2431	H243	0.272100	0.637700	0.944700
C2591	C259	0.392600	0.655780	0.088340
H2441	H244	0.422000	0.660400	0.125000
C2601	C260	0.219360	0.734440	0.886540
C2611	C261	0.165200	0.744900	0.833390
C2621	C262	0.124400	0.719840	0.795900
H2451	H245	0.128500	0.696200	0.806100
C2631	C263	0.077200	0.729910	0.743000
H2461	H246	0.050500	0.712800	0.718500
C2641	C264	0.157200	0.780000	0.815900
H2471	H247	0.183700	0.797300	0.840000
C2651	C265	0.069900	0.764780	0.726800
C2661	C266	0.110400	0.789760	0.763200
H2481	H248	0.106600	0.813300	0.752400
C2671	C267	0.890760	0.404870	0.112830
C2681	C268	0.827100	0.415420	0.124920
C2691	C269	0.800200	0.395620	0.159700
H2491	H249	0.824500	0.375800	0.178000
C2701	C270	0.737200	0.405320	0.167300
H2501	H250	0.720000	0.392200	0.191300
C2711	C271	0.789400	0.444810	0.098600
H2511	H251	0.807100	0.458500	0.075600
C2721	C272	0.699500	0.434300	0.139700
C2731	C273	0.726800	0.454160	0.105800
H2521	H252	0.702600	0.474100	0.087700
C2741	C274	0.985640	0.407190	0.090950
C2751	C275	0.042500	0.456480	0.057300
H2531	H253	0.005800	0.471000	0.058900
C2761	C276	0.094100	0.470100	0.039000
H2541	H254	0.091800	0.493600	0.028100
C2771	C277	0.043300	0.421200	0.073790
C2781	C278	0.097400	0.400260	0.068800
H2551	H255	0.098200	0.376400	0.077500
C2791	C279	0.150000	0.413950	0.051400
H2561	H256	0.186500	0.399500	0.049300
C2801	C280	0.149200	0.449510	0.036600
C2811	C281	0.774900	0.643100	0.089890
C2821	C282	0.739400	0.655470	0.036240
H2571	H257	0.743900	0.679100	0.028100
C2831	C283	0.768700	0.607930	0.100000
H2581	H258	0.793900	0.598600	0.135300
C2841	C284	0.818570	0.666970	0.134590
C2851	C285	0.697200	0.633710	0.994100
H2591	H259	0.674400	0.642700	0.958100
C2861	C286	0.725400	0.585900	0.058600
H2601	H260	0.720700	0.562300	0.066800
C2871	C287	0.689000	0.599000	0.005100
C2881	C288	0.851580	0.744310	0.221190
C2891	C289	0.800700	0.751500	0.246060
H2611	H261	0.762700	0.736200	0.240500
C2901	C290	0.805700	0.780810	0.278550
H2621	H262	0.770900	0.785200	0.294700
C2911	C291	0.906820	0.768430	0.229260
H2631	H263	0.940900	0.764500	0.212200
C2921	C292	0.850660	0.711510	0.190070
C2931	C293	0.861600	0.804270	0.287990
C2941	C294	0.911600	0.797790	0.261900
H2641	H264	0.948700	0.813600	0.266700
C2951	C295	0.907230	0.529330	0.194690
C2961	C296	0.867300	0.506480	0.220230
C2971	C297	0.894000	0.474570	0.245810
H2651	H265	0.936300	0.466000	0.243100
C2981	C298	0.795900	0.467560	0.279300
C2991	C299	0.803000	0.517880	0.223500
H2661	H266	0.783500	0.538900	0.206100
C3001	C300	0.859000	0.455340	0.275300
H2671	H267	0.877900	0.434200	0.292300
C3011	C301	0.767400	0.498740	0.252200
H2681	H268	0.724000	0.506700	0.253400
C3021	C302	0.084600	0.537850	0.131730
H2691	H269	0.092600	0.518700	0.156200
C3031	C303	0.061800	0.594180	0.057860
H2701	H270	0.053700	0.613300	0.033300
C3041	C304	0.022100	0.556270	0.118680
C3051	C305	0.972530	0.550620	0.149560
C3061	C306	0.011100	0.584520	0.080840
H2711	H271	0.968700	0.597000	0.071100
C3071	C307	0.124500	0.575910	0.070800
C3081	C308	0.136000	0.547690	0.108500
H2721	H272	0.178500	0.535400	0.118300
C3091	C309	0.538140	0.692250	0.040620
C3101	C310	0.487800	0.683550	0.988820
H2731	H273	0.463600	0.701500	0.964900
C3111	C311	0.573300	0.664410	0.074700
H2741	H274	0.607600	0.669200	0.109500
C3121	C312	0.558200	0.629780	0.057900
H2751	H275	0.582400	0.611700	0.081500
C3131	C313	0.553080	0.728940	0.058290
C3141	C314	0.472900	0.648990	0.972070
H2761	H276	0.439000	0.644000	0.937200
C3151	C315	0.507800	0.621540	0.006600
C3161	C316	0.608040	0.776140	0.096340
C3171	C317	0.728800	0.800020	0.114250
H2771	H277	0.736500	0.782400	0.091100
C3181	C318	0.781100	0.824520	0.137900
H2781	H278	0.823600	0.823300	0.130400
C3191	C319	0.771400	0.850970	0.172500
C3201	C320	0.708600	0.851850	0.184100
H2791	H279	0.701700	0.869100	0.208000
C3211	C321	0.655800	0.827380	0.160540
H2801	H280	0.613900	0.828400	0.168800
C3221	C322	0.664810	0.801170	0.124480
C3231	C323	0.165880	0.647140	0.186020
C3241	C324	0.238490	0.634100	0.210280
C3251	C325	0.262500	0.624380	0.265800
H2811	H281	0.235500	0.629800	0.288600
C3261	C326	0.279600	0.627130	0.176900
H2821	H282	0.264400	0.633800	0.139100
C3271	C327	0.325700	0.606640	0.289200
H2831	H283	0.340300	0.599900	0.326900
C3281	C328	0.366400	0.599100	0.257300
C3291	C329	0.343700	0.610000	0.200700
H2841	H284	0.372300	0.605800	0.178800
C3301	C330	0.017500	0.700400	0.109490
C3311	C331	0.025800	0.735620	0.124770
H2851	H285	0.067900	0.743100	0.151400
C3321	C332	0.973000	0.759660	0.101500
H2861	H286	0.979300	0.783100	0.112800
C3331	C333	0.902100	0.714000	0.044600
H2871	H287	0.860500	0.706700	0.017100
C3341	C334	0.910400	0.748990	0.061200
C3351	C335	0.069970	0.674380	0.141470
C3361	C336	0.955300	0.689830	0.068550
H2881	H288	0.949300	0.666400	0.057100
Cu331	Cu33	0.461240	0.871650	0.668170
Cu341	Cu34	0.447430	0.025500	0.632630
Cu351	Cu35	0.907030	0.745330	0.503160
Cu361	Cu36	0.204920	0.781830	0.618990
Cu371	Cu37	0.993560	0.671260	0.567540
Cu381	Cu38	0.682710	0.793760	0.612350
Cu391	Cu39	0.847780	0.668910	0.587400
Cu401	Cu40	0.391430	0.905340	0.753790
Cl51	Cl5	0.874850	0.681410	0.492140
N1211	N121	0.449920	0.922400	0.672230
N1221	N122	0.446640	0.980410	0.662150
N1231	N123	0.408550	0.936100	0.701710
N1241	N124	0.721110	0.795760	0.416050
N1251	N125	0.776420	0.745970	0.410980
N1261	N126	0.817600	0.764430	0.457790
N1271	N127	0.005000	0.745600	0.547450
N1281	N128	0.040670	0.715060	0.571770
N1291	N129	0.118370	0.758560	0.589030
N1301	N130	0.466770	0.126480	0.588730
N1311	N131	0.405470	0.127870	0.602840
N1321	N132	0.440180	0.072280	0.607290
N1331	N133	0.613930	0.869300	0.697480
N1341	N134	0.552140	0.851650	0.669200
N1351	N135	0.640660	0.825340	0.650640
N1361	N136	0.294150	0.802260	0.649500
N1371	N137	0.386000	0.837870	0.664570
N1381	N138	0.406660	0.809240	0.700150
N1391	N139	0.323000	0.623930	0.694600
H2891	H289	0.316200	0.607500	0.715800
H2901	H290	0.361900	0.624700	0.687100
N1401	N140	0.368300	0.666760	0.823100
H2911	H291	0.403600	0.652700	0.828800
H2921	H292	0.337100	0.662900	0.839100
N1411	N141	0.674000	0.914950	0.545600
H2931	H293	0.665600	0.897800	0.521900
H2941	H294	0.713200	0.926400	0.553700
N1421	N142	0.261100	0.051810	0.809400
H2951	H295	0.279000	0.071300	0.825400
H2961	H296	0.221700	0.044300	0.812000
N1431	N143	0.355200	0.726580	0.538500
H2971	H297	0.315900	0.733300	0.514100
H2981	H298	0.360800	0.704900	0.549100
N1441	N144	0.923700	0.906360	0.601600
H2991	H299	0.918000	0.927600	0.588900
H3001	H300	0.953300	0.902100	0.634700
N1451	N145	0.990900	0.913320	0.490500
H3011	H301	0.011900	0.930200	0.512700
H3021	H302	0.959400	0.918000	0.458500
N1461	N146	0.521900	0.725900	0.174640
H3031	H303	0.496900	0.741900	0.152600
H3041	H304	0.517100	0.704200	0.164400
N1471	N147	0.148300	0.923210	0.462000
H3051	H305	0.128300	0.915000	0.428500
H3061	H306	0.143200	0.945000	0.469100
N1481	N148	0.134700	0.057370	0.645100
H3071	H307	0.110900	0.039600	0.627200
H3081	H308	0.118100	0.070000	0.666300
N1491	N149	0.703000	0.036070	0.520400
H3091	H309	0.701900	0.014100	0.511900
H3101	H310	0.737500	0.049100	0.519000
N1501	N150	0.931800	0.918700	0.781300
H3111	H311	0.945800	0.924600	0.816300
H3121	H312	0.957600	0.923500	0.760800
C3371	C337	0.783620	0.794060	0.459350
C3381	C338	0.857300	0.816680	0.554380
H3131	H313	0.863200	0.793800	0.568600
C3391	C339	0.884800	0.878740	0.568400
C3401	C340	0.837200	0.885110	0.515400
H3141	H314	0.828000	0.908200	0.502500
C3411	C341	0.813250	0.822700	0.499320
C3421	C342	0.802800	0.857480	0.480880
H3151	H315	0.772100	0.862300	0.444700
C3431	C343	0.892600	0.844220	0.588340
H3161	H316	0.922000	0.839600	0.625000
C3441	C344	0.719360	0.765560	0.386540
C3451	C345	0.665200	0.755100	0.333390
C3461	C346	0.624400	0.780160	0.295900
H3171	H317	0.628500	0.803800	0.306100
C3471	C347	0.577200	0.770090	0.243000
H3181	H318	0.550500	0.787200	0.218500
C3481	C348	0.657200	0.720000	0.315900
H3191	H319	0.683700	0.702700	0.340000
C3491	C349	0.569900	0.735220	0.226800
C3501	C350	0.610400	0.710240	0.263200
H3201	H320	0.606600	0.686700	0.252400
C3511	C351	0.390760	0.095130	0.612830
C3521	C352	0.327100	0.084580	0.624920
C3531	C353	0.300200	0.104380	0.659700
H3211	H321	0.324500	0.124200	0.678000
C3541	C354	0.237200	0.094680	0.667300
H3221	H322	0.220000	0.107800	0.691300
C3551	C355	0.289400	0.055190	0.598600
H3231	H323	0.307100	0.041500	0.575600
C3561	C356	0.199500	0.065700	0.639700
C3571	C357	0.226800	0.045840	0.605800
H3241	H324	0.202600	0.025900	0.587700
C3581	C358	0.485640	0.092810	0.590950
C3591	C359	0.542500	0.043520	0.557300
H3251	H325	0.505800	0.029000	0.558900
C3601	C360	0.594100	0.029900	0.539000
H3261	H326	0.591800	0.006400	0.528100
C3611	C361	0.543300	0.078800	0.573790
C3621	C362	0.597400	0.099740	0.568800
H3271	H327	0.598200	0.123600	0.577500
C3631	C363	0.650000	0.086050	0.551400
H3281	H328	0.686500	0.100500	0.549300
C3641	C364	0.649200	0.050490	0.536600
C3651	C365	0.274900	0.856900	0.589890
C3661	C366	0.239400	0.844530	0.536240
H3291	H329	0.243900	0.820900	0.528100
C3671	C367	0.268700	0.892070	0.600000
H3301	H330	0.293900	0.901400	0.635300
C3681	C368	0.318570	0.833030	0.634590
C3691	C369	0.197200	0.866290	0.494100
H3311	H331	0.174400	0.857300	0.458100
C3701	C370	0.225400	0.914100	0.558600
H3321	H332	0.220700	0.937700	0.566800
C3711	C371	0.189000	0.901000	0.505100
C3721	C372	0.351580	0.755690	0.721190
C3731	C373	0.300700	0.748500	0.746060
H3331	H333	0.262700	0.763800	0.740500
C3741	C374	0.305700	0.719190	0.778550
H3341	H334	0.270900	0.714800	0.794700
C3751	C375	0.406820	0.731570	0.729260
H3351	H335	0.440900	0.735500	0.712200
C3761	C376	0.350660	0.788490	0.690070
C3771	C377	0.361600	0.695730	0.787990
C3781	C378	0.411600	0.702210	0.761900
H3361	H336	0.448700	0.686400	0.766700
C3791	C379	0.407230	0.970670	0.694690
C3801	C380	0.367300	0.993520	0.720230
C3811	C381	0.394000	0.025430	0.745810
H3371	H337	0.436300	0.034000	0.743100
C3821	C382	0.295900	0.032440	0.779300
C3831	C383	0.303000	0.982120	0.723500
H3381	H338	0.283500	0.961100	0.706100
C3841	C384	0.359000	0.044660	0.775300
H3391	H339	0.377900	0.065800	0.792300
C3851	C385	0.267400	0.001260	0.752200
H3401	H340	0.224000	0.993300	0.753400
C3861	C386	0.584600	0.962150	0.631730
H3411	H341	0.592600	0.981300	0.656200
C3871	C387	0.561800	0.905820	0.557860
H3421	H342	0.553700	0.886700	0.533300
C3881	C388	0.522100	0.943730	0.618680
C3891	C389	0.472530	0.949380	0.649560
C3901	C390	0.511100	0.915480	0.580840
H3431	H343	0.468700	0.903000	0.571100
C3911	C391	0.624500	0.924090	0.570800
C3921	C392	0.636000	0.952310	0.608500
H3441	H344	0.678500	0.964600	0.618300
C3931	C393	0.038140	0.807750	0.540620
C3941	C394	0.987800	0.816450	0.488820
H3451	H345	0.963600	0.798500	0.464900
C3951	C395	0.073300	0.835590	0.574700
H3461	H346	0.107600	0.830800	0.609500
C3961	C396	0.058200	0.870220	0.557900
H3471	H347	0.082400	0.888300	0.581500
C3971	C397	0.053080	0.771060	0.558290
C3981	C398	0.972900	0.851010	0.472070
H3481	H348	0.939000	0.856000	0.437200
C3991	C399	0.007800	0.878460	0.506600
C4001	C400	0.108040	0.723860	0.596340
C4011	C401	0.228800	0.699980	0.614250
H3491	H349	0.236500	0.717600	0.591100
C4021	C402	0.281100	0.675480	0.637900
H3501	H350	0.323600	0.676700	0.630400
C4031	C403	0.271400	0.649030	0.672500
C4041	C404	0.208600	0.648150	0.684100
H3511	H351	0.201700	0.630900	0.708000
C4051	C405	0.155800	0.672620	0.660540
H3521	H352	0.113900	0.671600	0.668800
C4061	C406	0.164810	0.698830	0.624480
C4071	C407	0.665880	0.852860	0.686020
C4081	C408	0.738490	0.865900	0.710280
C4091	C409	0.762500	0.875620	0.765800
H3531	H353	0.735500	0.870200	0.788600
C4101	C410	0.779600	0.872870	0.676900
H3541	H354	0.764400	0.866200	0.639100
C4111	C411	0.825700	0.893360	0.789200
H3551	H355	0.840300	0.900100	0.826900
C4121	C412	0.866400	0.900900	0.757300
C4131	C413	0.843700	0.890000	0.700700
H3561	H356	0.872300	0.894200	0.678800
C4141	C414	0.517500	0.799600	0.609490
C4151	C415	0.525800	0.764380	0.624770
H3571	H357	0.567900	0.756900	0.651400
C4161	C416	0.473000	0.740340	0.601500
H3581	H358	0.479300	0.716900	0.612800
C4171	C417	0.402100	0.786000	0.544600
H3591	H359	0.360500	0.793300	0.517100
C4181	C418	0.410400	0.751010	0.561200
C4191	C419	0.569970	0.825620	0.641470
C4201	C420	0.455300	0.810170	0.568550
H3601	H360	0.449300	0.833600	0.557100
Cu411	Cu41	0.961240	0.371650	0.668170
Cu421	Cu42	0.947430	0.525500	0.632630
Cu431	Cu43	0.407030	0.245330	0.503160
Cu441	Cu44	0.704920	0.281830	0.618990
Cu451	Cu45	0.493560	0.171260	0.567540
Cu461	Cu46	0.182710	0.293760	0.612350
Cu471	Cu47	0.347780	0.168910	0.587400
Cu481	Cu48	0.891430	0.405340	0.753790
Cl61	Cl6	0.374850	0.181410	0.492140
N1511	N151	0.949920	0.422400	0.672230
N1521	N152	0.946640	0.480410	0.662150
N1531	N153	0.908550	0.436100	0.701710
N1541	N154	0.221110	0.295760	0.416050
N1551	N155	0.276420	0.245970	0.410980
N1561	N156	0.317600	0.264430	0.457790
N1571	N157	0.505000	0.245600	0.547450
N1581	N158	0.540670	0.215060	0.571770
N1591	N159	0.618370	0.258560	0.589030
N1601	N160	0.966770	0.626480	0.588730
N1611	N161	0.905470	0.627870	0.602840
N1621	N162	0.940180	0.572280	0.607290
N1631	N163	0.113930	0.369300	0.697480
N1641	N164	0.052140	0.351650	0.669200
N1651	N165	0.140660	0.325340	0.650640
N1661	N166	0.794150	0.302260	0.649500
N1671	N167	0.886000	0.337870	0.664570
N1681	N168	0.906660	0.309240	0.700150
N1691	N169	0.823000	0.123930	0.694600
H3611	H361	0.816200	0.107500	0.715800
H3621	H362	0.861900	0.124700	0.687100
N1701	N170	0.868300	0.166760	0.823100
H3631	H363	0.903600	0.152700	0.828800
H3641	H364	0.837100	0.162900	0.839100
N1711	N171	0.174000	0.414950	0.545600
H3651	H365	0.165600	0.397800	0.521900
H3661	H366	0.213200	0.426400	0.553700
N1721	N172	0.761100	0.551810	0.809400
H3671	H367	0.779000	0.571300	0.825400
H3681	H368	0.721700	0.544300	0.812000
N1731	N173	0.855200	0.226580	0.538500
H3691	H369	0.815900	0.233300	0.514100
H3701	H370	0.860800	0.204900	0.549100
N1741	N174	0.423700	0.406360	0.601600
H3711	H371	0.418000	0.427600	0.588900
H3721	H372	0.453300	0.402100	0.634700
N1751	N175	0.490900	0.413320	0.490500
H3731	H373	0.511900	0.430200	0.512700
H3741	H374	0.459400	0.418000	0.458500
N1761	N176	0.021900	0.225900	0.174640
H3751	H375	0.996900	0.241900	0.152600
H3761	H376	0.017100	0.204200	0.164400
N1771	N177	0.648300	0.423210	0.462000
H3771	H377	0.628300	0.415000	0.428500
H3781	H378	0.643200	0.445000	0.469100
N1781	N178	0.634700	0.557370	0.645100
H3791	H379	0.610900	0.539600	0.627200
H3801	H380	0.618100	0.570000	0.666300
N1791	N179	0.203000	0.536070	0.520400
H3811	H381	0.201900	0.514100	0.511900
H3821	H382	0.237500	0.549100	0.519000
N1801	N180	0.431800	0.418700	0.781300
H3831	H383	0.445800	0.424600	0.816300
H3841	H384	0.457600	0.423500	0.760800
C4211	C421	0.283620	0.294060	0.459350
C4221	C422	0.357300	0.316680	0.554380
H3851	H385	0.363200	0.293800	0.568600
C4231	C423	0.384800	0.378740	0.568400
C4241	C424	0.337200	0.385110	0.515400
H3861	H386	0.328000	0.408200	0.502500
C4251	C425	0.313250	0.322700	0.499320
C4261	C426	0.302800	0.357480	0.480880
H3871	H387	0.272100	0.362300	0.444700
C4271	C427	0.392600	0.344220	0.588340
H3881	H388	0.422000	0.339600	0.625000
C4281	C428	0.219360	0.265560	0.386540
C4291	C429	0.165200	0.255100	0.333390
C4301	C430	0.124400	0.280160	0.295900
H3891	H389	0.128500	0.303800	0.306100
C4311	C431	0.077200	0.270090	0.243000
H3901	H390	0.050500	0.287200	0.218500
C4321	C432	0.157200	0.220000	0.315900
H3911	H391	0.183700	0.202700	0.340000
C4331	C433	0.069900	0.235220	0.226800
C4341	C434	0.110400	0.210240	0.263200
H3921	H392	0.106600	0.186700	0.252400
C4351	C435	0.890760	0.595130	0.612830
C4361	C436	0.827100	0.584580	0.624920
C4371	C437	0.800200	0.604380	0.659700
H3931	H393	0.824500	0.624200	0.678000
C4381	C438	0.737200	0.594680	0.667300
H3941	H394	0.720000	0.607800	0.691300
C4391	C439	0.789400	0.555190	0.598600
H3951	H395	0.807100	0.541500	0.575600
C4401	C440	0.699500	0.565700	0.639700
C4411	C441	0.726800	0.545840	0.605800
H3961	H396	0.702600	0.525900	0.587700
C4421	C442	0.985640	0.592810	0.590950
C4431	C443	0.042500	0.543520	0.557300
H3971	H397	0.005800	0.529000	0.558900
C4441	C444	0.094100	0.529900	0.539000
H3981	H398	0.091800	0.506400	0.528100
C4451	C445	0.043300	0.578800	0.573790
C4461	C446	0.097400	0.599740	0.568800
H3991	H399	0.098200	0.623600	0.577500
C4471	C447	0.150000	0.586050	0.551400
H4001	H400	0.186500	0.600500	0.549300
C4481	C448	0.149200	0.550490	0.536600
C4491	C449	0.774900	0.356900	0.589890
C4501	C450	0.739400	0.344530	0.536240
H4011	H401	0.743900	0.320900	0.528100
C4511	C451	0.768700	0.392070	0.600000
H4021	H402	0.793900	0.401400	0.635300
C4521	C452	0.818570	0.333030	0.634590
C4531	C453	0.697200	0.366290	0.494100
H4031	H403	0.674400	0.357300	0.458100
C4541	C454	0.725400	0.414100	0.558600
H4041	H404	0.720700	0.437700	0.566800
C4551	C455	0.689000	0.401000	0.505100
C4561	C456	0.851580	0.255690	0.721190
C4571	C457	0.800700	0.248500	0.746060
H4051	H405	0.762700	0.263800	0.740500
C4581	C458	0.805700	0.219190	0.778550
H4061	H406	0.770900	0.214800	0.794700
C4591	C459	0.906820	0.231570	0.729260
H4071	H407	0.940900	0.235500	0.712200
C4601	C460	0.850660	0.288490	0.690070
C4611	C461	0.861600	0.195730	0.787990
C4621	C462	0.911600	0.202210	0.761900
H4081	H408	0.948700	0.186400	0.766700
C4631	C463	0.907230	0.470670	0.694690
C4641	C464	0.867300	0.493520	0.720230
C4651	C465	0.894000	0.525430	0.745810
H4091	H409	0.936300	0.534000	0.743100
C4661	C466	0.795900	0.532440	0.779300
C4671	C467	0.803000	0.482120	0.723500
H4101	H410	0.783500	0.461100	0.706100
C4681	C468	0.859000	0.544660	0.775300
H4111	H411	0.877900	0.565800	0.792300
C4691	C469	0.767400	0.501260	0.752200
H4121	H412	0.724000	0.493300	0.753400
C4701	C470	0.084600	0.462150	0.631730
H4131	H413	0.092600	0.481300	0.656200
C4711	C471	0.061800	0.405820	0.557860
H4141	H414	0.053700	0.386700	0.533300
C4721	C472	0.022100	0.443730	0.618680
C4731	C473	0.972530	0.449380	0.649560
C4741	C474	0.011100	0.415480	0.580840
H4151	H415	0.968700	0.403000	0.571100
C4751	C475	0.124500	0.424090	0.570800
C4761	C476	0.136000	0.452310	0.608500
H4161	H416	0.178500	0.464600	0.618300
C4771	C477	0.538140	0.307750	0.540620
C4781	C478	0.487800	0.316450	0.488820
H4171	H417	0.463600	0.298500	0.464900
C4791	C479	0.573300	0.335590	0.574700
H4181	H418	0.607600	0.330800	0.609500
C4801	C480	0.558200	0.370220	0.557900
H4191	H419	0.582400	0.388300	0.581500
C4811	C481	0.553080	0.271060	0.558290
C4821	C482	0.472900	0.351010	0.472070
H4201	H420	0.439000	0.356000	0.437200
C4831	C483	0.507800	0.378460	0.506600
C4841	C484	0.608040	0.223860	0.596340
C4851	C485	0.728800	0.199980	0.614250
H4211	H421	0.736500	0.217600	0.591100
C4861	C486	0.781100	0.175480	0.637900
H4221	H422	0.823600	0.176700	0.630400
C4871	C487	0.771400	0.149030	0.672500
C4881	C488	0.708600	0.148150	0.684100
H4231	H423	0.701700	0.130900	0.708000
C4891	C489	0.655800	0.172620	0.660540
H4241	H424	0.613900	0.171600	0.668800
C4901	C490	0.664810	0.198830	0.624480
C4911	C491	0.165880	0.352860	0.686020
C4921	C492	0.238490	0.365900	0.710280
C4931	C493	0.262500	0.375620	0.765800
H4251	H425	0.235500	0.370200	0.788600
C4941	C494	0.279600	0.372870	0.676900
H4261	H426	0.264400	0.366200	0.639100
C4951	C495	0.325700	0.393360	0.789200
H4271	H427	0.340300	0.400100	0.826900
C4961	C496	0.366400	0.400900	0.757300
C4971	C497	0.343700	0.390000	0.700700
H4281	H428	0.372300	0.394200	0.678800
C4981	C498	0.017500	0.299600	0.609490
C4991	C499	0.025800	0.264380	0.624770
H4291	H429	0.067900	0.256900	0.651400
C5001	C500	0.973000	0.240340	0.601500
H4301	H430	0.979300	0.216900	0.612800
C5011	C501	0.902100	0.286000	0.544600
H4311	H431	0.860500	0.293300	0.517100
C5021	C502	0.910400	0.251010	0.561200
C5031	C503	0.069970	0.325620	0.641470
C5041	C504	0.955300	0.310170	0.568550
H4321	H432	0.949300	0.333600	0.557100
Cu491	Cu49	0.538760	0.871650	0.831830
Cu501	Cu50	0.552570	0.025500	0.867370
Cu511	Cu51	0.092970	0.745330	0.996840
Cu521	Cu52	0.795080	0.781830	0.881010
Cu531	Cu53	0.006440	0.671260	0.932460
Cu541	Cu54	0.317290	0.793760	0.887650
Cu551	Cu55	0.152220	0.668910	0.912600
Cu561	Cu56	0.608570	0.905340	0.746210
Cl71	Cl7	0.125150	0.681410	0.007860
N1811	N181	0.550080	0.922400	0.827770
N1821	N182	0.553360	0.980410	0.837850
N1831	N183	0.591450	0.936100	0.798290
N1841	N184	0.278890	0.795760	0.083950
N1851	N185	0.223580	0.745970	0.089020
N1861	N186	0.182400	0.764430	0.042210
N1871	N187	0.995000	0.745600	0.952550
N1881	N188	0.959330	0.715060	0.928230
N1891	N189	0.881630	0.758560	0.910970
N1901	N190	0.533230	0.126480	0.911270
N1911	N191	0.594530	0.127870	0.897160
N1921	N192	0.559820	0.072280	0.892710
N1931	N193	0.386070	0.869300	0.802520
N1941	N194	0.447860	0.851650	0.830800
N1951	N195	0.359340	0.825340	0.849360
N1961	N196	0.705850	0.802260	0.850500
N1971	N197	0.614000	0.837870	0.835430
N1981	N198	0.593340	0.809240	0.799850
N1991	N199	0.677000	0.623930	0.805400
H4331	H433	0.683800	0.607500	0.784200
H4341	H434	0.638100	0.624700	0.812900
N2001	N200	0.631700	0.666760	0.676900
H4351	H435	0.596400	0.652700	0.671200
H4361	H436	0.662900	0.662900	0.660900
N2011	N201	0.326000	0.914950	0.954400
H4371	H437	0.334400	0.897800	0.978100
H4381	H438	0.286800	0.926400	0.946300
N2021	N202	0.738900	0.051810	0.690600
H4391	H439	0.721000	0.071300	0.674600
H4401	H440	0.778300	0.044300	0.688000
N2031	N203	0.644800	0.726580	0.961500
H4411	H441	0.684100	0.733300	0.985900
H4421	H442	0.639200	0.704900	0.950900
N2041	N204	0.076300	0.906360	0.898400
H4431	H443	0.082000	0.927600	0.911100
H4441	H444	0.046700	0.902100	0.865300
N2051	N205	0.009100	0.913320	0.009500
H4451	H445	0.988100	0.930200	0.987300
H4461	H446	0.040600	0.918000	0.041500
N2061	N206	0.478100	0.725900	0.325360
H4471	H447	0.503100	0.741900	0.347400
H4481	H448	0.482900	0.704200	0.335600
N2071	N207	0.851700	0.923210	0.038000
H4491	H449	0.871700	0.915000	0.071500
H4501	H450	0.856800	0.945000	0.030900
N2081	N208	0.865300	0.057370	0.854900
H4511	H451	0.889100	0.039600	0.872800
H4521	H452	0.881900	0.070000	0.833700
N2091	N209	0.297000	0.036070	0.979600
H4531	H453	0.298100	0.014100	0.988100
H4541	H454	0.262500	0.049100	0.981000
N2101	N210	0.068200	0.918700	0.718700
H4551	H455	0.054200	0.924600	0.683700
H4561	H456	0.042400	0.923500	0.739200
C5051	C505	0.216380	0.794060	0.040650
C5061	C506	0.142700	0.816680	0.945620
H4571	H457	0.136800	0.793800	0.931400
C5071	C507	0.115200	0.878740	0.931600
C5081	C508	0.162800	0.885110	0.984600
H4581	H458	0.172000	0.908200	0.997500
C5091	C509	0.186750	0.822700	0.000680
C5101	C510	0.197200	0.857480	0.019120
H4591	H459	0.227900	0.862300	0.055300
C5111	C511	0.107400	0.844220	0.911660
H4601	H460	0.078000	0.839600	0.875000
C5121	C512	0.280640	0.765560	0.113460
C5131	C513	0.334800	0.755100	0.166610
C5141	C514	0.375600	0.780160	0.204100
H4611	H461	0.371500	0.803800	0.193900
C5151	C515	0.422800	0.770090	0.257000
H4621	H462	0.449500	0.787200	0.281500
C5161	C516	0.342800	0.720000	0.184100
H4631	H463	0.316300	0.702700	0.160000
C5171	C517	0.430100	0.735220	0.273200
C5181	C518	0.389600	0.710240	0.236800
H4641	H464	0.393400	0.686700	0.247600
C5191	C519	0.609240	0.095130	0.887170
C5201	C520	0.672900	0.084580	0.875080
C5211	C521	0.699800	0.104380	0.840300
H4651	H465	0.675500	0.124200	0.822000
C5221	C522	0.762800	0.094680	0.832700
H4661	H466	0.780000	0.107800	0.808700
C5231	C523	0.710600	0.055190	0.901400
H4671	H467	0.692900	0.041500	0.924400
C5241	C524	0.800500	0.065700	0.860300
C5251	C525	0.773200	0.045840	0.894200
H4681	H468	0.797400	0.025900	0.912300
C5261	C526	0.514360	0.092810	0.909050
C5271	C527	0.457500	0.043520	0.942700
H4691	H469	0.494200	0.029000	0.941100
C5281	C528	0.405900	0.029900	0.961000
H4701	H470	0.408200	0.006400	0.971900
C5291	C529	0.456700	0.078800	0.926210
C5301	C530	0.402600	0.099740	0.931200
H4711	H471	0.401800	0.123600	0.922500
C5311	C531	0.350000	0.086050	0.948600
H4721	H472	0.313500	0.100500	0.950700
C5321	C532	0.350800	0.050490	0.963400
C5331	C533	0.725100	0.856900	0.910110
C5341	C534	0.760600	0.844530	0.963760
H4731	H473	0.756100	0.820900	0.971900
C5351	C535	0.731300	0.892070	0.900000
H4741	H474	0.706100	0.901400	0.864700
C5361	C536	0.681430	0.833030	0.865410
C5371	C537	0.802800	0.866290	0.005900
H4751	H475	0.825600	0.857300	0.041900
C5381	C538	0.774600	0.914100	0.941400
H4761	H476	0.779300	0.937700	0.933200
C5391	C539	0.811000	0.901000	0.994900
C5401	C540	0.648420	0.755690	0.778810
C5411	C541	0.699300	0.748500	0.753940
H4771	H477	0.737300	0.763800	0.759500
C5421	C542	0.694300	0.719190	0.721450
H4781	H478	0.729100	0.714800	0.705300
C5431	C543	0.593180	0.731570	0.770740
H4791	H479	0.559100	0.735500	0.787800
C5441	C544	0.649340	0.788490	0.809930
C5451	C545	0.638400	0.695730	0.712010
C5461	C546	0.588400	0.702210	0.738100
H4801	H480	0.551300	0.686400	0.733300
C5471	C547	0.592770	0.970670	0.805310
C5481	C548	0.632700	0.993520	0.779770
C5491	C549	0.606000	0.025430	0.754190
H4811	H481	0.563700	0.034000	0.756900
C5501	C550	0.704100	0.032440	0.720700
C5511	C551	0.697000	0.982120	0.776500
H4821	H482	0.716500	0.961100	0.793900
C5521	C552	0.641000	0.044660	0.724700
H4831	H483	0.622100	0.065800	0.707700
C5531	C553	0.732600	0.001260	0.747800
H4841	H484	0.776000	0.993300	0.746600
C5541	C554	0.415400	0.962150	0.868270
H4851	H485	0.407400	0.981300	0.843800
C5551	C555	0.438200	0.905820	0.942140
H4861	H486	0.446300	0.886700	0.966700
C5561	C556	0.477900	0.943730	0.881320
C5571	C557	0.527470	0.949380	0.850440
C5581	C558	0.488900	0.915480	0.919160
H4871	H487	0.531300	0.903000	0.928900
C5591	C559	0.375500	0.924090	0.929200
C5601	C560	0.364000	0.952310	0.891500
H4881	H488	0.321500	0.964600	0.881700
C5611	C561	0.961860	0.807750	0.959380
C5621	C562	0.012200	0.816450	0.011180
H4891	H489	0.036400	0.798500	0.035100
C5631	C563	0.926700	0.835590	0.925300
H4901	H490	0.892400	0.830800	0.890500
C5641	C564	0.941800	0.870220	0.942100
H4911	H491	0.917600	0.888300	0.918500
C5651	C565	0.946920	0.771060	0.941710
C5661	C566	0.027100	0.851010	0.027930
H4921	H492	0.061000	0.856000	0.062800
C5671	C567	0.992200	0.878460	0.993400
C5681	C568	0.891960	0.723860	0.903660
C5691	C569	0.771200	0.699980	0.885750
H4931	H493	0.763500	0.717600	0.908900
C5701	C570	0.718900	0.675480	0.862100
H4941	H494	0.676400	0.676700	0.869600
C5711	C571	0.728600	0.649030	0.827500
C5721	C572	0.791400	0.648150	0.815900
H4951	H495	0.798300	0.630900	0.792000
C5731	C573	0.844200	0.672620	0.839460
H4961	H496	0.886100	0.671600	0.831200
C5741	C574	0.835190	0.698830	0.875520
C5751	C575	0.334120	0.852860	0.813980
C5761	C576	0.261510	0.865900	0.789720
C5771	C577	0.237500	0.875620	0.734200
H4971	H497	0.264500	0.870200	0.711400
C5781	C578	0.220400	0.872870	0.823100
H4981	H498	0.235600	0.866200	0.860900
C5791	C579	0.174300	0.893360	0.710800
H4991	H499	0.159700	0.900100	0.673100
C5801	C580	0.133600	0.900900	0.742700
C5811	C581	0.156300	0.890000	0.799300
H5001	H500	0.127700	0.894200	0.821200
C5821	C582	0.482500	0.799600	0.890510
C5831	C583	0.474200	0.764380	0.875230
H5011	H501	0.432100	0.756900	0.848600
C5841	C584	0.527000	0.740340	0.898500
H5021	H502	0.520700	0.716900	0.887200
C5851	C585	0.597900	0.786000	0.955400
H5031	H503	0.639500	0.793300	0.982900
C5861	C586	0.589600	0.751010	0.938800
C5871	C587	0.430030	0.825620	0.858530
C5881	C588	0.544700	0.810170	0.931450
H5041	H504	0.550700	0.833600	0.942900
Cu571	Cu57	0.038760	0.371650	0.831830
Cu581	Cu58	0.052570	0.525500	0.867370
Cu591	Cu59	0.592970	0.245330	0.996840
Cu601	Cu60	0.295080	0.281830	0.881010
Cu611	Cu61	0.506440	0.171260	0.932460
Cu621	Cu62	0.817290	0.293760	0.887650
Cu631	Cu63	0.652220	0.168910	0.912600
Cu641	Cu64	0.108570	0.405340	0.746210
Cl81	Cl8	0.625150	0.181410	0.007860
N2111	N211	0.050080	0.422400	0.827770
N2121	N212	0.053360	0.480410	0.837850
N2131	N213	0.091450	0.436100	0.798290
N2141	N214	0.778890	0.295760	0.083950
N2151	N215	0.723580	0.245970	0.089020
N2161	N216	0.682400	0.264430	0.042210
N2171	N217	0.495000	0.245600	0.952550
N2181	N218	0.459330	0.215060	0.928230
N2191	N219	0.381630	0.258560	0.910970
N2201	N220	0.033230	0.626480	0.911270
N2211	N221	0.094530	0.627870	0.897160
N2221	N222	0.059820	0.572280	0.892710
N2231	N223	0.886070	0.369300	0.802520
N2241	N224	0.947860	0.351650	0.830800
N2251	N225	0.859340	0.325340	0.849360
N2261	N226	0.205850	0.302260	0.850500
N2271	N227	0.114000	0.337870	0.835430
N2281	N228	0.093340	0.309240	0.799850
N2291	N229	0.177000	0.123930	0.805400
H5051	H505	0.183800	0.107500	0.784200
H5061	H506	0.138100	0.124700	0.812900
N2301	N230	0.131700	0.166760	0.676900
H5071	H507	0.096400	0.152700	0.671200
H5081	H508	0.162900	0.162900	0.660900
N2311	N231	0.826000	0.414950	0.954400
H5091	H509	0.834400	0.397800	0.978100
H5101	H510	0.786800	0.426400	0.946300
N2321	N232	0.238900	0.551810	0.690600
H5111	H511	0.221000	0.571300	0.674600
H5121	H512	0.278300	0.544300	0.688000
N2331	N233	0.144800	0.226580	0.961500
H5131	H513	0.184100	0.233300	0.985900
H5141	H514	0.139200	0.204900	0.950900
N2341	N234	0.576300	0.406360	0.898400
H5151	H515	0.582000	0.427600	0.911100
H5161	H516	0.546700	0.402100	0.865300
N2351	N235	0.509100	0.413320	0.009500
H5171	H517	0.488100	0.430200	0.987300
H5181	H518	0.540600	0.418000	0.041500
N2361	N236	0.978100	0.225900	0.325360
H5191	H519	0.003100	0.241900	0.347400
H5201	H520	0.982900	0.204200	0.335600
N2371	N237	0.351700	0.423210	0.038000
H5211	H521	0.371700	0.415000	0.071500
H5221	H522	0.356800	0.445000	0.030900
N2381	N238	0.365300	0.557370	0.854900
H5231	H523	0.389100	0.539600	0.872800
H5241	H524	0.381900	0.570000	0.833700
N2391	N239	0.797000	0.536070	0.979600
H5251	H525	0.798100	0.514100	0.988100
H5261	H526	0.762500	0.549100	0.981000
N2401	N240	0.568200	0.418700	0.718700
H5271	H527	0.554200	0.424600	0.683700
H5281	H528	0.542400	0.423500	0.739200
C5891	C589	0.716380	0.294060	0.040650
C5901	C590	0.642700	0.316680	0.945620
H5291	H529	0.636800	0.293800	0.931400
C5911	C591	0.615200	0.378740	0.931600
C5921	C592	0.662800	0.385110	0.984600
H5301	H530	0.672000	0.408200	0.997500
C5931	C593	0.686750	0.322700	0.000680
C5941	C594	0.697200	0.357480	0.019120
H5311	H531	0.727900	0.362300	0.055300
C5951	C595	0.607400	0.344220	0.911660
H5321	H532	0.578000	0.339600	0.875000
C5961	C596	0.780640	0.265560	0.113460
C5971	C597	0.834800	0.255100	0.166610
C5981	C598	0.875600	0.280160	0.204100
H5331	H533	0.871500	0.303800	0.193900
C5991	C599	0.922800	0.270090	0.257000
H5341	H534	0.949500	0.287200	0.281500
C6001	C600	0.842800	0.220000	0.184100
H5351	H535	0.816300	0.202700	0.160000
C6011	C601	0.930100	0.235220	0.273200
C6021	C602	0.889600	0.210240	0.236800
H5361	H536	0.893400	0.186700	0.247600
C6031	C603	0.109240	0.595130	0.887170
C6041	C604	0.172900	0.584580	0.875080
C6051	C605	0.199800	0.604380	0.840300
H5371	H537	0.175500	0.624200	0.822000
C6061	C606	0.262800	0.594680	0.832700
H5381	H538	0.280000	0.607800	0.808700
C6071	C607	0.210600	0.555190	0.901400
H5391	H539	0.192900	0.541500	0.924400
C6081	C608	0.300500	0.565700	0.860300
C6091	C609	0.273200	0.545840	0.894200
H5401	H540	0.297400	0.525900	0.912300
C6101	C610	0.014360	0.592810	0.909050
C6111	C611	0.957500	0.543520	0.942700
H5411	H541	0.994200	0.529000	0.941100
C6121	C612	0.905900	0.529900	0.961000
H5421	H542	0.908200	0.506400	0.971900
C6131	C613	0.956700	0.578800	0.926210
C6141	C614	0.902600	0.599740	0.931200
H5431	H543	0.901800	0.623600	0.922500
C6151	C615	0.850000	0.586050	0.948600
H5441	H544	0.813500	0.600500	0.950700
C6161	C616	0.850800	0.550490	0.963400
C6171	C617	0.225100	0.356900	0.910110
C6181	C618	0.260600	0.344530	0.963760
H5451	H545	0.256100	0.320900	0.971900
C6191	C619	0.231300	0.392070	0.900000
H5461	H546	0.206100	0.401400	0.864700
C6201	C620	0.181430	0.333030	0.865410
C6211	C621	0.302800	0.366290	0.005900
H5471	H547	0.325600	0.357300	0.041900
C6221	C622	0.274600	0.414100	0.941400
H5481	H548	0.279300	0.437700	0.933200
C6231	C623	0.311000	0.401000	0.994900
C6241	C624	0.148420	0.255690	0.778810
C6251	C625	0.199300	0.248500	0.753940
H5491	H549	0.237300	0.263800	0.759500
C6261	C626	0.194300	0.219190	0.721450
H5501	H550	0.229100	0.214800	0.705300
C6271	C627	0.093180	0.231570	0.770740
H5511	H551	0.059100	0.235500	0.787800
C6281	C628	0.149340	0.288490	0.809930
C6291	C629	0.138400	0.195730	0.712010
C6301	C630	0.088400	0.202210	0.738100
H5521	H552	0.051300	0.186400	0.733300
C6311	C631	0.092770	0.470670	0.805310
C6321	C632	0.132700	0.493520	0.779770
C6331	C633	0.106000	0.525430	0.754190
H5531	H553	0.063700	0.534000	0.756900
C6341	C634	0.204100	0.532440	0.720700
C6351	C635	0.197000	0.482120	0.776500
H5541	H554	0.216500	0.461100	0.793900
C6361	C636	0.141000	0.544660	0.724700
H5551	H555	0.122100	0.565800	0.707700
C6371	C637	0.232600	0.501260	0.747800
H5561	H556	0.276000	0.493300	0.746600
C6381	C638	0.915400	0.462150	0.868270
H5571	H557	0.907400	0.481300	0.843800
C6391	C639	0.938200	0.405820	0.942140
H5581	H558	0.946300	0.386700	0.966700
C6401	C640	0.977900	0.443730	0.881320
C6411	C641	0.027470	0.449380	0.850440
C6421	C642	0.988900	0.415480	0.919160
H5591	H559	0.031300	0.403000	0.928900
C6431	C643	0.875500	0.424090	0.929200
C6441	C644	0.864000	0.452310	0.891500
H5601	H560	0.821500	0.464600	0.881700
C6451	C645	0.461860	0.307750	0.959380
C6461	C646	0.512200	0.316450	0.011180
H5611	H561	0.536400	0.298500	0.035100
C6471	C647	0.426700	0.335590	0.925300
H5621	H562	0.392400	0.330800	0.890500
C6481	C648	0.441800	0.370220	0.942100
H5631	H563	0.417600	0.388300	0.918500
C6491	C649	0.446920	0.271060	0.941710
C6501	C650	0.527100	0.351010	0.027930
H5641	H564	0.561000	0.356000	0.062800
C6511	C651	0.492200	0.378460	0.993400
C6521	C652	0.391960	0.223860	0.903660
C6531	C653	0.271200	0.199980	0.885750
H5651	H565	0.263500	0.217600	0.908900
C6541	C654	0.218900	0.175480	0.862100
H5661	H566	0.176400	0.176700	0.869600
C6551	C655	0.228600	0.149030	0.827500
C6561	C656	0.291400	0.148150	0.815900
H5671	H567	0.298300	0.130900	0.792000
C6571	C657	0.344200	0.172620	0.839460
H5681	H568	0.386100	0.171600	0.831200
C6581	C658	0.335190	0.198830	0.875520
C6591	C659	0.834120	0.352860	0.813980
C6601	C660	0.761510	0.365900	0.789720
C6611	C661	0.737500	0.375620	0.734200
H5691	H569	0.764500	0.370200	0.711400
C6621	C662	0.720400	0.372870	0.823100
H5701	H570	0.735600	0.366200	0.860900
C6631	C663	0.674300	0.393360	0.710800
H5711	H571	0.659700	0.400100	0.673100
C6641	C664	0.633600	0.400900	0.742700
C6651	C665	0.656300	0.390000	0.799300
H5721	H572	0.627700	0.394200	0.821200
C6661	C666	0.982500	0.299600	0.890510
C6671	C667	0.974200	0.264380	0.875230
H5731	H573	0.932100	0.256900	0.848600
C6681	C668	0.027000	0.240340	0.898500
H5741	H574	0.020700	0.216900	0.887200
C6691	C669	0.097900	0.286000	0.955400
H5751	H575	0.139500	0.293300	0.982900
C6701	C670	0.089600	0.251010	0.938800
C6711	C671	0.930030	0.325620	0.858530
C6721	C672	0.044700	0.310170	0.931450
H5761	H576	0.050700	0.333600	0.942900
Cu651	Cu65	0.500000	0.192250	0.250000
Cu661	Cu66	0.000000	0.692250	0.250000
Cu671	Cu67	0.500000	0.807750	0.750000
Cu681	Cu68	0.000000	0.307750	0.750000
