data_AWIBEO_clean_PM
_symmetry_space_group_name_H-M	'P1'
_cell_length_a	20.014000
_cell_length_b	37.956000
_cell_length_c	25.085000
_cell_angle_alpha	90.000000
_cell_angle_beta	109.384000
_cell_angle_gamma	90.000000
_symmetry_Int_Tables_number 1

loop_
_symmetry_equiv_pos_as_xyz
'x,y,z'

loop_
_atom_site_label
_atom_site_type_symbol
_atom_site_fract_x
_atom_site_fract_y
_atom_site_fract_z
Cu11	Cu1	0.539040	0.126610	0.332280
Cu21	Cu2	0.551220	0.973680	0.366230
Cu31	Cu3	0.094820	0.254860	0.500780
Cu41	Cu4	0.795630	0.217640	0.383770
Cu51	Cu5	0.005910	0.328710	0.432570
Cu61	Cu6	0.314450	0.206690	0.382000
Cu71	Cu7	0.148950	0.330820	0.406530
Cu81	Cu8	0.610180	0.093180	0.246630
Br11	Br1	0.131210	0.321000	0.510960
C11	C1	0.219000	0.205980	0.545530
C21	C2	0.145700	0.183620	0.449290
H11	H1	0.141100	0.206400	0.434800
C31	C3	0.116200	0.122040	0.436300
C41	C4	0.162600	0.115750	0.490800
H21	H2	0.169600	0.092800	0.504400
C51	C5	0.188800	0.177600	0.505320
C61	C6	0.198000	0.142740	0.524800
H31	H3	0.228400	0.137900	0.561100
C71	C7	0.109700	0.156060	0.415000
H41	H4	0.081400	0.160500	0.377900
C81	C8	0.284100	0.234430	0.619030
C91	C9	0.338700	0.244870	0.672310
C101	C10	0.379200	0.220160	0.710800
H51	H5	0.374600	0.196400	0.701100
C111	C11	0.426500	0.230080	0.763500
H61	H6	0.452600	0.213000	0.788200
C121	C12	0.347400	0.280190	0.688700
H71	H7	0.321500	0.297400	0.664000
C131	C13	0.434600	0.265250	0.779300
C141	C14	0.394200	0.290290	0.741400
H81	H8	0.398600	0.314000	0.751300
C151	C15	0.605800	0.904020	0.381880
C161	C16	0.670400	0.913880	0.369960
C171	C17	0.696900	0.893880	0.335300
H91	H9	0.671300	0.874500	0.316500
C181	C18	0.761200	0.902300	0.328200
H101	H10	0.777700	0.888800	0.304300
C191	C19	0.709400	0.943060	0.397100
H111	H11	0.692200	0.957000	0.420200
C201	C20	0.800700	0.930750	0.356600
C211	C21	0.773000	0.951610	0.390300
H121	H12	0.797700	0.971400	0.408200
C221	C22	0.512200	0.906540	0.406620
C231	C23	0.458300	0.956420	0.442300
H131	H13	0.495500	0.970500	0.440500
C241	C24	0.407100	0.970690	0.461300
H141	H14	0.411600	0.994000	0.473400
C251	C25	0.455500	0.921260	0.425600
C261	C26	0.401100	0.900620	0.431100
H151	H15	0.400400	0.876600	0.423600
C271	C27	0.347100	0.915460	0.447900
H161	H16	0.309600	0.901400	0.449200
C281	C28	0.348900	0.951400	0.462900
C291	C29	0.726500	0.141840	0.412840
C301	C30	0.762800	0.154770	0.466600
H171	H17	0.758800	0.178500	0.474000
C311	C31	0.733200	0.106600	0.402400
H181	H18	0.708900	0.097200	0.367000
C321	C32	0.682600	0.165560	0.367610
C331	C33	0.804900	0.133320	0.509500
H191	H19	0.827600	0.142600	0.545200
C341	C34	0.776400	0.084970	0.444800
H201	H20	0.781000	0.061300	0.437200
C351	C35	0.813000	0.098250	0.498800
C361	C36	0.648700	0.242660	0.280420
C371	C37	0.701300	0.249990	0.256450
H211	H21	0.739500	0.234800	0.262500
C381	C38	0.696200	0.279930	0.223860
H221	H22	0.731700	0.284900	0.208600
C391	C39	0.592900	0.266340	0.272180
H231	H23	0.558700	0.262100	0.289000
C401	C40	0.649900	0.209880	0.311790
C411	C41	0.639000	0.302540	0.213600
C421	C42	0.588100	0.296040	0.239330
H241	H24	0.550800	0.311700	0.234300
C431	C43	0.593200	0.028290	0.305470
C441	C44	0.634200	0.005380	0.279780
C451	C45	0.606800	0.973530	0.254400
H251	H25	0.564500	0.965000	0.257200
C461	C46	0.706000	0.966430	0.220800
C471	C47	0.699600	0.016930	0.277400
H261	H26	0.719000	0.037900	0.295000
C481	C48	0.642600	0.954560	0.225100
H271	H27	0.623600	0.933400	0.207900
C491	C49	0.735300	0.997420	0.249100
H281	H28	0.779500	0.004900	0.248900
C501	C50	0.412600	0.036690	0.366300
H291	H29	0.404400	0.018000	0.341000
C511	C51	0.436400	0.091820	0.442260
H301	H30	0.444700	0.110500	0.467700
C521	C52	0.476400	0.054940	0.380380
C531	C53	0.527000	0.049330	0.349970
C541	C54	0.487400	0.082790	0.419290
H311	H31	0.529800	0.095200	0.429600
C551	C55	0.372300	0.073650	0.428300
C561	C56	0.360500	0.045940	0.389600
H321	H32	0.317900	0.033600	0.379300
C571	C57	0.963200	0.192720	0.462970
C581	C58	0.014500	0.184060	0.515220
H331	H33	0.038900	0.202000	0.538900
C591	C59	0.927300	0.165370	0.427900
H341	H34	0.893100	0.170400	0.393300
C601	C60	0.942600	0.130630	0.444700
H351	H35	0.918600	0.112600	0.421100
C611	C61	0.947700	0.229430	0.445090
C621	C62	0.029100	0.149820	0.531840
H361	H36	0.062900	0.144800	0.566700
C631	C63	0.993700	0.122320	0.496900
C641	C64	0.892100	0.276140	0.405750
C651	C65	0.769100	0.299320	0.385490
H371	H37	0.760900	0.281600	0.408200
C661	C66	0.716400	0.323610	0.361400
H381	H38	0.673400	0.322000	0.368000
C671	C67	0.727300	0.350580	0.327420
C681	C68	0.791900	0.351350	0.316800
H391	H39	0.799200	0.368500	0.292900
C691	C69	0.844900	0.327070	0.341310
H401	H40	0.887600	0.328400	0.334200
C701	C70	0.834800	0.300600	0.376620
C711	C71	0.332300	0.146710	0.311220
C721	C72	0.258900	0.133980	0.287580
C731	C73	0.232900	0.123030	0.231500
H411	H41	0.259500	0.127600	0.208100
C741	C74	0.217800	0.128050	0.321700
H421	H42	0.234100	0.134900	0.359500
C751	C75	0.169500	0.105800	0.209500
H431	H43	0.154400	0.098600	0.171900
C761	C76	0.128400	0.099100	0.242000
C771	C77	0.151600	0.111600	0.298900
H441	H44	0.122600	0.108900	0.320900
C781	C78	0.482100	0.199760	0.388080
C791	C79	0.472400	0.234840	0.372650
H451	H45	0.429900	0.242200	0.346200
C801	C80	0.525800	0.259080	0.396500
H461	H46	0.519000	0.282600	0.385400
C811	C81	0.599000	0.213430	0.454100
H471	H47	0.640500	0.206100	0.481800
C821	C82	0.590200	0.248590	0.437300
C831	C83	0.429000	0.173670	0.355950
C841	C84	0.545200	0.189410	0.429280
H481	H48	0.551500	0.165900	0.440300
N11	N1	0.550480	0.076480	0.327840
N21	N2	0.552900	0.018510	0.337510
N31	N3	0.592850	0.062700	0.298930
N41	N4	0.281770	0.204340	0.589560
N51	N5	0.225910	0.254060	0.594330
N61	N6	0.184410	0.235690	0.546940
N71	N7	0.995960	0.254730	0.455860
N81	N8	0.959780	0.285000	0.430830
N91	N9	0.881780	0.241390	0.413930
N101	N10	0.529240	0.873030	0.407460
N111	N11	0.590370	0.871110	0.391720
N121	N12	0.557520	0.926740	0.389350
N131	N13	0.385130	0.129390	0.301880
N141	N14	0.447170	0.146760	0.330060
N151	N15	0.357380	0.174760	0.345450
N161	N16	0.706850	0.196320	0.353010
N171	N17	0.615020	0.160270	0.336500
N181	N18	0.593850	0.188620	0.300810
N191	N19	0.674800	0.375490	0.303400
H491	H49	0.635000	0.374400	0.309500
H501	H50	0.682200	0.392000	0.282500
N201	N20	0.631900	0.331000	0.178000
H511	H51	0.663100	0.334800	0.162000
H521	H52	0.596200	0.344900	0.171900
N211	N21	0.322900	0.081790	0.454300
H531	H53	0.331600	0.098200	0.479200
H541	H54	0.283600	0.070400	0.445300
N221	N22	0.741700	0.947300	0.191400
H551	H55	0.724500	0.927700	0.175400
H561	H56	0.781100	0.955100	0.189100
N231	N23	0.645200	0.272550	0.460500
H571	H57	0.684200	0.265600	0.485100
H581	H58	0.640000	0.294300	0.450300
N241	N24	0.077100	0.094270	0.403200
H591	H59	0.048900	0.098300	0.369500
H601	H60	0.081400	0.073200	0.416700
N251	N25	0.011200	0.087930	0.512300
H611	H61	0.044100	0.083200	0.543700
H621	H62	0.989200	0.071100	0.490700
N261	N26	0.482900	0.274870	0.831700
H631	H63	0.507500	0.259000	0.854200
H641	H64	0.488000	0.296700	0.841500
N271	N27	0.854200	0.076190	0.543200
H651	H65	0.874000	0.084700	0.576500
H661	H66	0.859500	0.054300	0.536800
N281	N28	0.867300	0.938180	0.353200
H671	H67	0.884700	0.925000	0.333300
H681	H68	0.891000	0.955900	0.371200
N291	N29	0.296800	0.966900	0.478600
H691	H69	0.299800	0.988800	0.487600
H701	H70	0.261000	0.954700	0.479500
N301	N30	0.062000	0.081800	0.218800
H711	H71	0.047500	0.075400	0.184000
H721	H72	0.036300	0.077700	0.239700
Cu91	Cu9	0.039040	0.626610	0.332280
Cu101	Cu10	0.051220	0.473680	0.366230
Cu111	Cu11	0.594820	0.754860	0.500780
Cu121	Cu12	0.295630	0.717640	0.383770
Cu131	Cu13	0.505910	0.828710	0.432570
Cu141	Cu14	0.814450	0.706690	0.382000
Cu151	Cu15	0.648950	0.830820	0.406530
Cu161	Cu16	0.110180	0.593180	0.246630
Br21	Br2	0.631210	0.821000	0.510960
C851	C85	0.719000	0.705980	0.545530
C861	C86	0.645700	0.683620	0.449290
H731	H73	0.641100	0.706400	0.434800
C871	C87	0.616200	0.622040	0.436300
C881	C88	0.662600	0.615750	0.490800
H741	H74	0.669600	0.592800	0.504400
C891	C89	0.688800	0.677600	0.505320
C901	C90	0.698000	0.642740	0.524800
H751	H75	0.728400	0.637900	0.561100
C911	C91	0.609700	0.656060	0.415000
H761	H76	0.581400	0.660500	0.377900
C921	C92	0.784100	0.734430	0.619030
C931	C93	0.838700	0.744870	0.672310
C941	C94	0.879200	0.720160	0.710800
H771	H77	0.874600	0.696400	0.701100
C951	C95	0.926500	0.730080	0.763500
H781	H78	0.952600	0.713000	0.788200
C961	C96	0.847400	0.780190	0.688700
H791	H79	0.821500	0.797400	0.664000
C971	C97	0.934600	0.765250	0.779300
C981	C98	0.894200	0.790290	0.741400
H801	H80	0.898600	0.814000	0.751300
C991	C99	0.105800	0.404020	0.381880
C1001	C100	0.170400	0.413880	0.369960
C1011	C101	0.196900	0.393880	0.335300
H811	H81	0.171300	0.374500	0.316500
C1021	C102	0.261200	0.402300	0.328200
H821	H82	0.277700	0.388800	0.304300
C1031	C103	0.209400	0.443060	0.397100
H831	H83	0.192200	0.457000	0.420200
C1041	C104	0.300700	0.430750	0.356600
C1051	C105	0.273000	0.451610	0.390300
H841	H84	0.297700	0.471400	0.408200
C1061	C106	0.012200	0.406540	0.406620
C1071	C107	0.958300	0.456420	0.442300
H851	H85	0.995500	0.470500	0.440500
C1081	C108	0.907100	0.470690	0.461300
H861	H86	0.911600	0.494000	0.473400
C1091	C109	0.955500	0.421260	0.425600
C1101	C110	0.901100	0.400620	0.431100
H871	H87	0.900400	0.376600	0.423600
C1111	C111	0.847100	0.415460	0.447900
H881	H88	0.809600	0.401400	0.449200
C1121	C112	0.848900	0.451400	0.462900
C1131	C113	0.226500	0.641840	0.412840
C1141	C114	0.262800	0.654770	0.466600
H891	H89	0.258800	0.678500	0.474000
C1151	C115	0.233200	0.606600	0.402400
H901	H90	0.208900	0.597200	0.367000
C1161	C116	0.182600	0.665560	0.367610
C1171	C117	0.304900	0.633320	0.509500
H911	H91	0.327600	0.642600	0.545200
C1181	C118	0.276400	0.584970	0.444800
H921	H92	0.281000	0.561300	0.437200
C1191	C119	0.313000	0.598250	0.498800
C1201	C120	0.148700	0.742660	0.280420
C1211	C121	0.201300	0.749990	0.256450
H931	H93	0.239500	0.734800	0.262500
C1221	C122	0.196200	0.779930	0.223860
H941	H94	0.231700	0.784900	0.208600
C1231	C123	0.092900	0.766340	0.272180
H951	H95	0.058700	0.762100	0.289000
C1241	C124	0.149900	0.709880	0.311790
C1251	C125	0.139000	0.802540	0.213600
C1261	C126	0.088100	0.796040	0.239330
H961	H96	0.050800	0.811700	0.234300
C1271	C127	0.093200	0.528290	0.305470
C1281	C128	0.134200	0.505380	0.279780
C1291	C129	0.106800	0.473530	0.254400
H971	H97	0.064500	0.465000	0.257200
C1301	C130	0.206000	0.466430	0.220800
C1311	C131	0.199600	0.516930	0.277400
H981	H98	0.219000	0.537900	0.295000
C1321	C132	0.142600	0.454560	0.225100
H991	H99	0.123600	0.433400	0.207900
C1331	C133	0.235300	0.497420	0.249100
H1001	H100	0.279500	0.504900	0.248900
C1341	C134	0.912600	0.536690	0.366300
H1011	H101	0.904400	0.518000	0.341000
C1351	C135	0.936400	0.591820	0.442260
H1021	H102	0.944700	0.610500	0.467700
C1361	C136	0.976400	0.554940	0.380380
C1371	C137	0.027000	0.549330	0.349970
C1381	C138	0.987400	0.582790	0.419290
H1031	H103	0.029800	0.595200	0.429600
C1391	C139	0.872300	0.573650	0.428300
C1401	C140	0.860500	0.545940	0.389600
H1041	H104	0.817900	0.533600	0.379300
C1411	C141	0.463200	0.692720	0.462970
C1421	C142	0.514500	0.684060	0.515220
H1051	H105	0.538900	0.702000	0.538900
C1431	C143	0.427300	0.665370	0.427900
H1061	H106	0.393100	0.670400	0.393300
C1441	C144	0.442600	0.630630	0.444700
H1071	H107	0.418600	0.612600	0.421100
C1451	C145	0.447700	0.729430	0.445090
C1461	C146	0.529100	0.649820	0.531840
H1081	H108	0.562900	0.644800	0.566700
C1471	C147	0.493700	0.622320	0.496900
C1481	C148	0.392100	0.776140	0.405750
C1491	C149	0.269100	0.799320	0.385490
H1091	H109	0.260900	0.781600	0.408200
C1501	C150	0.216400	0.823610	0.361400
H1101	H110	0.173400	0.822000	0.368000
C1511	C151	0.227300	0.850580	0.327420
C1521	C152	0.291900	0.851350	0.316800
H1111	H111	0.299200	0.868500	0.292900
C1531	C153	0.344900	0.827070	0.341310
H1121	H112	0.387600	0.828400	0.334200
C1541	C154	0.334800	0.800600	0.376620
C1551	C155	0.832300	0.646710	0.311220
C1561	C156	0.758900	0.633980	0.287580
C1571	C157	0.732900	0.623030	0.231500
H1131	H113	0.759500	0.627600	0.208100
C1581	C158	0.717800	0.628050	0.321700
H1141	H114	0.734100	0.634900	0.359500
C1591	C159	0.669500	0.605800	0.209500
H1151	H115	0.654400	0.598600	0.171900
C1601	C160	0.628400	0.599100	0.242000
C1611	C161	0.651600	0.611600	0.298900
H1161	H116	0.622600	0.608900	0.320900
C1621	C162	0.982100	0.699760	0.388080
C1631	C163	0.972400	0.734840	0.372650
H1171	H117	0.929900	0.742200	0.346200
C1641	C164	0.025800	0.759080	0.396500
H1181	H118	0.019000	0.782600	0.385400
C1651	C165	0.099000	0.713430	0.454100
H1191	H119	0.140500	0.706100	0.481800
C1661	C166	0.090200	0.748590	0.437300
C1671	C167	0.929000	0.673670	0.355950
C1681	C168	0.045200	0.689410	0.429280
H1201	H120	0.051500	0.665900	0.440300
N311	N31	0.050480	0.576480	0.327840
N321	N32	0.052900	0.518510	0.337510
N331	N33	0.092850	0.562700	0.298930
N341	N34	0.781770	0.704340	0.589560
N351	N35	0.725910	0.754060	0.594330
N361	N36	0.684410	0.735690	0.546940
N371	N37	0.495960	0.754730	0.455860
N381	N38	0.459780	0.785000	0.430830
N391	N39	0.381780	0.741390	0.413930
N401	N40	0.029240	0.373030	0.407460
N411	N41	0.090370	0.371110	0.391720
N421	N42	0.057520	0.426740	0.389350
N431	N43	0.885130	0.629390	0.301880
N441	N44	0.947170	0.646760	0.330060
N451	N45	0.857380	0.674760	0.345450
N461	N46	0.206850	0.696320	0.353010
N471	N47	0.115020	0.660270	0.336500
N481	N48	0.093850	0.688620	0.300810
N491	N49	0.174800	0.875490	0.303400
H1211	H121	0.135000	0.874400	0.309500
H1221	H122	0.182200	0.892000	0.282500
N501	N50	0.131900	0.831000	0.178000
H1231	H123	0.163100	0.834800	0.162000
H1241	H124	0.096200	0.844900	0.171900
N511	N51	0.822900	0.581790	0.454300
H1251	H125	0.831600	0.598200	0.479200
H1261	H126	0.783600	0.570400	0.445300
N521	N52	0.241700	0.447300	0.191400
H1271	H127	0.224500	0.427700	0.175400
H1281	H128	0.281100	0.455100	0.189100
N531	N53	0.145200	0.772550	0.460500
H1291	H129	0.184200	0.765600	0.485100
H1301	H130	0.140000	0.794300	0.450300
N541	N54	0.577100	0.594270	0.403200
H1311	H131	0.548900	0.598300	0.369500
H1321	H132	0.581400	0.573200	0.416700
N551	N55	0.511200	0.587930	0.512300
H1331	H133	0.544100	0.583200	0.543700
H1341	H134	0.489200	0.571100	0.490700
N561	N56	0.982900	0.774870	0.831700
H1351	H135	0.007500	0.759000	0.854200
H1361	H136	0.988000	0.796700	0.841500
N571	N57	0.354200	0.576190	0.543200
H1371	H137	0.374000	0.584700	0.576500
H1381	H138	0.359500	0.554300	0.536800
N581	N58	0.367300	0.438180	0.353200
H1391	H139	0.384700	0.425000	0.333300
H1401	H140	0.391000	0.455900	0.371200
N591	N59	0.796800	0.466900	0.478600
H1411	H141	0.799800	0.488800	0.487600
H1421	H142	0.761000	0.454700	0.479500
N601	N60	0.562000	0.581800	0.218800
H1431	H143	0.547500	0.575400	0.184000
H1441	H144	0.536300	0.577700	0.239700
Cu171	Cu17	0.460960	0.126610	0.167720
Cu181	Cu18	0.448780	0.973680	0.133770
Cu191	Cu19	0.905180	0.254860	0.999220
Cu201	Cu20	0.204370	0.217640	0.116230
Cu211	Cu21	0.994090	0.328710	0.067430
Cu221	Cu22	0.685550	0.206690	0.118000
Cu231	Cu23	0.851050	0.330820	0.093470
Cu241	Cu24	0.389820	0.093180	0.253370
Br31	Br3	0.868790	0.321000	0.989040
C1691	C169	0.781000	0.205980	0.954470
C1701	C170	0.854300	0.183620	0.050710
H1451	H145	0.858900	0.206400	0.065200
C1711	C171	0.883800	0.122040	0.063700
C1721	C172	0.837400	0.115750	0.009200
H1461	H146	0.830400	0.092800	0.995600
C1731	C173	0.811200	0.177600	0.994680
C1741	C174	0.802000	0.142740	0.975200
H1471	H147	0.771600	0.137900	0.938900
C1751	C175	0.890300	0.156060	0.085000
H1481	H148	0.918600	0.160500	0.122100
C1761	C176	0.715900	0.234430	0.880970
C1771	C177	0.661300	0.244870	0.827690
C1781	C178	0.620800	0.220160	0.789200
H1491	H149	0.625400	0.196400	0.798900
C1791	C179	0.573500	0.230080	0.736500
H1501	H150	0.547400	0.213000	0.711800
C1801	C180	0.652600	0.280190	0.811300
H1511	H151	0.678500	0.297400	0.836000
C1811	C181	0.565400	0.265250	0.720700
C1821	C182	0.605800	0.290290	0.758600
H1521	H152	0.601400	0.314000	0.748700
C1831	C183	0.394200	0.904020	0.118120
C1841	C184	0.329600	0.913880	0.130040
C1851	C185	0.303100	0.893880	0.164700
H1531	H153	0.328700	0.874500	0.183500
C1861	C186	0.238800	0.902300	0.171800
H1541	H154	0.222300	0.888800	0.195700
C1871	C187	0.290600	0.943060	0.102900
H1551	H155	0.307800	0.957000	0.079800
C1881	C188	0.199300	0.930750	0.143400
C1891	C189	0.227000	0.951610	0.109700
H1561	H156	0.202300	0.971400	0.091800
C1901	C190	0.487800	0.906540	0.093380
C1911	C191	0.541700	0.956420	0.057700
H1571	H157	0.504500	0.970500	0.059500
C1921	C192	0.592900	0.970690	0.038700
H1581	H158	0.588400	0.994000	0.026600
C1931	C193	0.544500	0.921260	0.074400
C1941	C194	0.598900	0.900620	0.068900
H1591	H159	0.599600	0.876600	0.076400
C1951	C195	0.652900	0.915460	0.052100
H1601	H160	0.690400	0.901400	0.050800
C1961	C196	0.651100	0.951400	0.037100
C1971	C197	0.273500	0.141840	0.087160
C1981	C198	0.237200	0.154770	0.033400
H1611	H161	0.241200	0.178500	0.026000
C1991	C199	0.266800	0.106600	0.097600
H1621	H162	0.291100	0.097200	0.133000
C2001	C200	0.317400	0.165560	0.132390
C2011	C201	0.195100	0.133320	0.990500
H1631	H163	0.172400	0.142600	0.954800
C2021	C202	0.223600	0.084970	0.055200
H1641	H164	0.219000	0.061300	0.062800
C2031	C203	0.187000	0.098250	0.001200
C2041	C204	0.351300	0.242660	0.219580
C2051	C205	0.298700	0.249990	0.243550
H1651	H165	0.260500	0.234800	0.237500
C2061	C206	0.303800	0.279930	0.276140
H1661	H166	0.268300	0.284900	0.291400
C2071	C207	0.407100	0.266340	0.227820
H1671	H167	0.441300	0.262100	0.211000
C2081	C208	0.350100	0.209880	0.188210
C2091	C209	0.361000	0.302540	0.286400
C2101	C210	0.411900	0.296040	0.260670
H1681	H168	0.449200	0.311700	0.265700
C2111	C211	0.406800	0.028290	0.194530
C2121	C212	0.365800	0.005380	0.220220
C2131	C213	0.393200	0.973530	0.245600
H1691	H169	0.435500	0.965000	0.242800
C2141	C214	0.294000	0.966430	0.279200
C2151	C215	0.300400	0.016930	0.222600
H1701	H170	0.281000	0.037900	0.205000
C2161	C216	0.357400	0.954560	0.274900
H1711	H171	0.376400	0.933400	0.292100
C2171	C217	0.264700	0.997420	0.250900
H1721	H172	0.220500	0.004900	0.251100
C2181	C218	0.587400	0.036690	0.133700
H1731	H173	0.595600	0.018000	0.159000
C2191	C219	0.563600	0.091820	0.057740
H1741	H174	0.555300	0.110500	0.032300
C2201	C220	0.523600	0.054940	0.119620
C2211	C221	0.473000	0.049330	0.150030
C2221	C222	0.512600	0.082790	0.080710
H1751	H175	0.470200	0.095200	0.070400
C2231	C223	0.627700	0.073650	0.071700
C2241	C224	0.639500	0.045940	0.110400
H1761	H176	0.682100	0.033600	0.120700
C2251	C225	0.036800	0.192720	0.037030
C2261	C226	0.985500	0.184060	0.984780
H1771	H177	0.961100	0.202000	0.961100
C2271	C227	0.072700	0.165370	0.072100
H1781	H178	0.106900	0.170400	0.106700
C2281	C228	0.057400	0.130630	0.055300
H1791	H179	0.081400	0.112600	0.078900
C2291	C229	0.052300	0.229430	0.054910
C2301	C230	0.970900	0.149820	0.968160
H1801	H180	0.937100	0.144800	0.933300
C2311	C231	0.006300	0.122320	0.003100
C2321	C232	0.107900	0.276140	0.094250
C2331	C233	0.230900	0.299320	0.114510
H1811	H181	0.239100	0.281600	0.091800
C2341	C234	0.283600	0.323610	0.138600
H1821	H182	0.326600	0.322000	0.132000
C2351	C235	0.272700	0.350580	0.172580
C2361	C236	0.208100	0.351350	0.183200
H1831	H183	0.200800	0.368500	0.207100
C2371	C237	0.155100	0.327070	0.158690
H1841	H184	0.112400	0.328400	0.165800
C2381	C238	0.165200	0.300600	0.123380
C2391	C239	0.667700	0.146710	0.188780
C2401	C240	0.741100	0.133980	0.212420
C2411	C241	0.767100	0.123030	0.268500
H1851	H185	0.740500	0.127600	0.291900
C2421	C242	0.782200	0.128050	0.178300
H1861	H186	0.765900	0.134900	0.140500
C2431	C243	0.830500	0.105800	0.290500
H1871	H187	0.845600	0.098600	0.328100
C2441	C244	0.871600	0.099100	0.258000
C2451	C245	0.848400	0.111600	0.201100
H1881	H188	0.877400	0.108900	0.179100
C2461	C246	0.517900	0.199760	0.111920
C2471	C247	0.527600	0.234840	0.127350
H1891	H189	0.570100	0.242200	0.153800
C2481	C248	0.474200	0.259080	0.103500
H1901	H190	0.481000	0.282600	0.114600
C2491	C249	0.401000	0.213430	0.045900
H1911	H191	0.359500	0.206100	0.018200
C2501	C250	0.409800	0.248590	0.062700
C2511	C251	0.571000	0.173670	0.144050
C2521	C252	0.454800	0.189410	0.070720
H1921	H192	0.448500	0.165900	0.059700
N611	N61	0.449520	0.076480	0.172160
N621	N62	0.447100	0.018510	0.162490
N631	N63	0.407150	0.062700	0.201070
N641	N64	0.718230	0.204340	0.910440
N651	N65	0.774090	0.254060	0.905670
N661	N66	0.815590	0.235690	0.953060
N671	N67	0.004040	0.254730	0.044140
N681	N68	0.040220	0.285000	0.069170
N691	N69	0.118220	0.241390	0.086070
N701	N70	0.470760	0.873030	0.092540
N711	N71	0.409630	0.871110	0.108280
N721	N72	0.442480	0.926740	0.110650
N731	N73	0.614870	0.129390	0.198120
N741	N74	0.552830	0.146760	0.169940
N751	N75	0.642620	0.174760	0.154550
N761	N76	0.293150	0.196320	0.146990
N771	N77	0.384980	0.160270	0.163500
N781	N78	0.406150	0.188620	0.199190
N791	N79	0.325200	0.375490	0.196600
H1931	H193	0.365000	0.374400	0.190500
H1941	H194	0.317800	0.392000	0.217500
N801	N80	0.368100	0.331000	0.322000
H1951	H195	0.336900	0.334800	0.338000
H1961	H196	0.403800	0.344900	0.328100
N811	N81	0.677100	0.081790	0.045700
H1971	H197	0.668400	0.098200	0.020800
H1981	H198	0.716400	0.070400	0.054700
N821	N82	0.258300	0.947300	0.308600
H1991	H199	0.275500	0.927700	0.324600
H2001	H200	0.218900	0.955100	0.310900
N831	N83	0.354800	0.272550	0.039500
H2011	H201	0.315800	0.265600	0.014900
H2021	H202	0.360000	0.294300	0.049700
N841	N84	0.922900	0.094270	0.096800
H2031	H203	0.951100	0.098300	0.130500
H2041	H204	0.918600	0.073200	0.083300
N851	N85	0.988800	0.087930	0.987700
H2051	H205	0.955900	0.083200	0.956300
H2061	H206	0.010800	0.071100	0.009300
N861	N86	0.517100	0.274870	0.668300
H2071	H207	0.492500	0.259000	0.645800
H2081	H208	0.512000	0.296700	0.658500
N871	N87	0.145800	0.076190	0.956800
H2091	H209	0.126000	0.084700	0.923500
H2101	H210	0.140500	0.054300	0.963200
N881	N88	0.132700	0.938180	0.146800
H2111	H211	0.115300	0.925000	0.166700
H2121	H212	0.109000	0.955900	0.128800
N891	N89	0.703200	0.966900	0.021400
H2131	H213	0.700200	0.988800	0.012400
H2141	H214	0.739000	0.954700	0.020500
N901	N90	0.938000	0.081800	0.281200
H2151	H215	0.952500	0.075400	0.316000
H2161	H216	0.963700	0.077700	0.260300
Cu251	Cu25	0.960960	0.626610	0.167720
Cu261	Cu26	0.948780	0.473680	0.133770
Cu271	Cu27	0.405180	0.754860	0.999220
Cu281	Cu28	0.704370	0.717640	0.116230
Cu291	Cu29	0.494090	0.828710	0.067430
Cu301	Cu30	0.185550	0.706690	0.118000
Cu311	Cu31	0.351050	0.830820	0.093470
Cu321	Cu32	0.889820	0.593180	0.253370
Br41	Br4	0.368790	0.821000	0.989040
C2531	C253	0.281000	0.705980	0.954470
C2541	C254	0.354300	0.683620	0.050710
H2171	H217	0.358900	0.706400	0.065200
C2551	C255	0.383800	0.622040	0.063700
C2561	C256	0.337400	0.615750	0.009200
H2181	H218	0.330400	0.592800	0.995600
C2571	C257	0.311200	0.677600	0.994680
C2581	C258	0.302000	0.642740	0.975200
H2191	H219	0.271600	0.637900	0.938900
C2591	C259	0.390300	0.656060	0.085000
H2201	H220	0.418600	0.660500	0.122100
C2601	C260	0.215900	0.734430	0.880970
C2611	C261	0.161300	0.744870	0.827690
C2621	C262	0.120800	0.720160	0.789200
H2211	H221	0.125400	0.696400	0.798900
C2631	C263	0.073500	0.730080	0.736500
H2221	H222	0.047400	0.713000	0.711800
C2641	C264	0.152600	0.780190	0.811300
H2231	H223	0.178500	0.797400	0.836000
C2651	C265	0.065400	0.765250	0.720700
C2661	C266	0.105800	0.790290	0.758600
H2241	H224	0.101400	0.814000	0.748700
C2671	C267	0.894200	0.404020	0.118120
C2681	C268	0.829600	0.413880	0.130040
C2691	C269	0.803100	0.393880	0.164700
H2251	H225	0.828700	0.374500	0.183500
C2701	C270	0.738800	0.402300	0.171800
H2261	H226	0.722300	0.388800	0.195700
C2711	C271	0.790600	0.443060	0.102900
H2271	H227	0.807800	0.457000	0.079800
C2721	C272	0.699300	0.430750	0.143400
C2731	C273	0.727000	0.451610	0.109700
H2281	H228	0.702300	0.471400	0.091800
C2741	C274	0.987800	0.406540	0.093380
C2751	C275	0.041700	0.456420	0.057700
H2291	H229	0.004500	0.470500	0.059500
C2761	C276	0.092900	0.470690	0.038700
H2301	H230	0.088400	0.494000	0.026600
C2771	C277	0.044500	0.421260	0.074400
C2781	C278	0.098900	0.400620	0.068900
H2311	H231	0.099600	0.376600	0.076400
C2791	C279	0.152900	0.415460	0.052100
H2321	H232	0.190400	0.401400	0.050800
C2801	C280	0.151100	0.451400	0.037100
C2811	C281	0.773500	0.641840	0.087160
C2821	C282	0.737200	0.654770	0.033400
H2331	H233	0.741200	0.678500	0.026000
C2831	C283	0.766800	0.606600	0.097600
H2341	H234	0.791100	0.597200	0.133000
C2841	C284	0.817400	0.665560	0.132390
C2851	C285	0.695100	0.633320	0.990500
H2351	H235	0.672400	0.642600	0.954800
C2861	C286	0.723600	0.584970	0.055200
H2361	H236	0.719000	0.561300	0.062800
C2871	C287	0.687000	0.598250	0.001200
C2881	C288	0.851300	0.742660	0.219580
C2891	C289	0.798700	0.749990	0.243550
H2371	H237	0.760500	0.734800	0.237500
C2901	C290	0.803800	0.779930	0.276140
H2381	H238	0.768300	0.784900	0.291400
C2911	C291	0.907100	0.766340	0.227820
H2391	H239	0.941300	0.762100	0.211000
C2921	C292	0.850100	0.709880	0.188210
C2931	C293	0.861000	0.802540	0.286400
C2941	C294	0.911900	0.796040	0.260670
H2401	H240	0.949200	0.811700	0.265700
C2951	C295	0.906800	0.528290	0.194530
C2961	C296	0.865800	0.505380	0.220220
C2971	C297	0.893200	0.473530	0.245600
H2411	H241	0.935500	0.465000	0.242800
C2981	C298	0.794000	0.466430	0.279200
C2991	C299	0.800400	0.516930	0.222600
H2421	H242	0.781000	0.537900	0.205000
C3001	C300	0.857400	0.454560	0.274900
H2431	H243	0.876400	0.433400	0.292100
C3011	C301	0.764700	0.497420	0.250900
H2441	H244	0.720500	0.504900	0.251100
C3021	C302	0.087400	0.536690	0.133700
H2451	H245	0.095600	0.518000	0.159000
C3031	C303	0.063600	0.591820	0.057740
H2461	H246	0.055300	0.610500	0.032300
C3041	C304	0.023600	0.554940	0.119620
C3051	C305	0.973000	0.549330	0.150030
C3061	C306	0.012600	0.582790	0.080710
H2471	H247	0.970200	0.595200	0.070400
C3071	C307	0.127700	0.573650	0.071700
C3081	C308	0.139500	0.545940	0.110400
H2481	H248	0.182100	0.533600	0.120700
C3091	C309	0.536800	0.692720	0.037030
C3101	C310	0.485500	0.684060	0.984780
H2491	H249	0.461100	0.702000	0.961100
C3111	C311	0.572700	0.665370	0.072100
H2501	H250	0.606900	0.670400	0.106700
C3121	C312	0.557400	0.630630	0.055300
H2511	H251	0.581400	0.612600	0.078900
C3131	C313	0.552300	0.729430	0.054910
C3141	C314	0.470900	0.649820	0.968160
H2521	H252	0.437100	0.644800	0.933300
C3151	C315	0.506300	0.622320	0.003100
C3161	C316	0.607900	0.776140	0.094250
C3171	C317	0.730900	0.799320	0.114510
H2531	H253	0.739100	0.781600	0.091800
C3181	C318	0.783600	0.823610	0.138600
H2541	H254	0.826600	0.822000	0.132000
C3191	C319	0.772700	0.850580	0.172580
C3201	C320	0.708100	0.851350	0.183200
H2551	H255	0.700800	0.868500	0.207100
C3211	C321	0.655100	0.827070	0.158690
H2561	H256	0.612400	0.828400	0.165800
C3221	C322	0.665200	0.800600	0.123380
C3231	C323	0.167700	0.646710	0.188780
C3241	C324	0.241100	0.633980	0.212420
C3251	C325	0.267100	0.623030	0.268500
H2571	H257	0.240500	0.627600	0.291900
C3261	C326	0.282200	0.628050	0.178300
H2581	H258	0.265900	0.634900	0.140500
C3271	C327	0.330500	0.605800	0.290500
H2591	H259	0.345600	0.598600	0.328100
C3281	C328	0.371600	0.599100	0.258000
C3291	C329	0.348400	0.611600	0.201100
H2601	H260	0.377400	0.608900	0.179100
C3301	C330	0.017900	0.699760	0.111920
C3311	C331	0.027600	0.734840	0.127350
H2611	H261	0.070100	0.742200	0.153800
C3321	C332	0.974200	0.759080	0.103500
H2621	H262	0.981000	0.782600	0.114600
C3331	C333	0.901000	0.713430	0.045900
H2631	H263	0.859500	0.706100	0.018200
C3341	C334	0.909800	0.748590	0.062700
C3351	C335	0.071000	0.673670	0.144050
C3361	C336	0.954800	0.689410	0.070720
H2641	H264	0.948500	0.665900	0.059700
N911	N91	0.949520	0.576480	0.172160
N921	N92	0.947100	0.518510	0.162490
N931	N93	0.907150	0.562700	0.201070
N941	N94	0.218230	0.704340	0.910440
N951	N95	0.274090	0.754060	0.905670
N961	N96	0.315590	0.735690	0.953060
N971	N97	0.504040	0.754730	0.044140
N981	N98	0.540220	0.785000	0.069170
N991	N99	0.618220	0.741390	0.086070
N1001	N100	0.970760	0.373030	0.092540
N1011	N101	0.909630	0.371110	0.108280
N1021	N102	0.942480	0.426740	0.110650
N1031	N103	0.114870	0.629390	0.198120
N1041	N104	0.052830	0.646760	0.169940
N1051	N105	0.142620	0.674760	0.154550
N1061	N106	0.793150	0.696320	0.146990
N1071	N107	0.884980	0.660270	0.163500
N1081	N108	0.906150	0.688620	0.199190
N1091	N109	0.825200	0.875490	0.196600
H2651	H265	0.865000	0.874400	0.190500
H2661	H266	0.817800	0.892000	0.217500
N1101	N110	0.868100	0.831000	0.322000
H2671	H267	0.836900	0.834800	0.338000
H2681	H268	0.903800	0.844900	0.328100
N1111	N111	0.177100	0.581790	0.045700
H2691	H269	0.168400	0.598200	0.020800
H2701	H270	0.216400	0.570400	0.054700
N1121	N112	0.758300	0.447300	0.308600
H2711	H271	0.775500	0.427700	0.324600
H2721	H272	0.718900	0.455100	0.310900
N1131	N113	0.854800	0.772550	0.039500
H2731	H273	0.815800	0.765600	0.014900
H2741	H274	0.860000	0.794300	0.049700
N1141	N114	0.422900	0.594270	0.096800
H2751	H275	0.451100	0.598300	0.130500
H2761	H276	0.418600	0.573200	0.083300
N1151	N115	0.488800	0.587930	0.987700
H2771	H277	0.455900	0.583200	0.956300
H2781	H278	0.510800	0.571100	0.009300
N1161	N116	0.017100	0.774870	0.668300
H2791	H279	0.992500	0.759000	0.645800
H2801	H280	0.012000	0.796700	0.658500
N1171	N117	0.645800	0.576190	0.956800
H2811	H281	0.626000	0.584700	0.923500
H2821	H282	0.640500	0.554300	0.963200
N1181	N118	0.632700	0.438180	0.146800
H2831	H283	0.615300	0.425000	0.166700
H2841	H284	0.609000	0.455900	0.128800
N1191	N119	0.203200	0.466900	0.021400
H2851	H285	0.200200	0.488800	0.012400
H2861	H286	0.239000	0.454700	0.020500
N1201	N120	0.438000	0.581800	0.281200
H2871	H287	0.452500	0.575400	0.316000
H2881	H288	0.463700	0.577700	0.260300
Cu331	Cu33	0.460960	0.873390	0.667720
Cu341	Cu34	0.448780	0.026320	0.633770
Cu351	Cu35	0.905180	0.745140	0.499220
Cu361	Cu36	0.204370	0.782360	0.616230
Cu371	Cu37	0.994090	0.671290	0.567430
Cu381	Cu38	0.685550	0.793310	0.618000
Cu391	Cu39	0.851050	0.669180	0.593470
Cu401	Cu40	0.389820	0.906820	0.753370
Br51	Br5	0.868790	0.679000	0.489040
C3371	C337	0.781000	0.794020	0.454470
C3381	C338	0.854300	0.816380	0.550710
H2891	H289	0.858900	0.793600	0.565200
C3391	C339	0.883800	0.877960	0.563700
C3401	C340	0.837400	0.884250	0.509200
H2901	H290	0.830400	0.907200	0.495600
C3411	C341	0.811200	0.822400	0.494680
C3421	C342	0.802000	0.857260	0.475200
H2911	H291	0.771600	0.862100	0.438900
C3431	C343	0.890300	0.843940	0.585000
H2921	H292	0.918600	0.839500	0.622100
C3441	C344	0.715900	0.765570	0.380970
C3451	C345	0.661300	0.755130	0.327690
C3461	C346	0.620800	0.779840	0.289200
H2931	H293	0.625400	0.803600	0.298900
C3471	C347	0.573500	0.769920	0.236500
H2941	H294	0.547400	0.787000	0.211800
C3481	C348	0.652600	0.719810	0.311300
H2951	H295	0.678500	0.702600	0.336000
C3491	C349	0.565400	0.734750	0.220700
C3501	C350	0.605800	0.709710	0.258600
H2961	H296	0.601400	0.686000	0.248700
C3511	C351	0.394200	0.095980	0.618120
C3521	C352	0.329600	0.086120	0.630040
C3531	C353	0.303100	0.106120	0.664700
H2971	H297	0.328700	0.125500	0.683500
C3541	C354	0.238800	0.097700	0.671800
H2981	H298	0.222300	0.111200	0.695700
C3551	C355	0.290600	0.056940	0.602900
H2991	H299	0.307800	0.043000	0.579800
C3561	C356	0.199300	0.069250	0.643400
C3571	C357	0.227000	0.048390	0.609700
H3001	H300	0.202300	0.028600	0.591800
C3581	C358	0.487800	0.093460	0.593380
C3591	C359	0.541700	0.043580	0.557700
H3011	H301	0.504500	0.029500	0.559500
C3601	C360	0.592900	0.029310	0.538700
H3021	H302	0.588400	0.006000	0.526600
C3611	C361	0.544500	0.078740	0.574400
C3621	C362	0.598900	0.099380	0.568900
H3031	H303	0.599600	0.123400	0.576400
C3631	C363	0.652900	0.084540	0.552100
H3041	H304	0.690400	0.098600	0.550800
C3641	C364	0.651100	0.048600	0.537100
C3651	C365	0.273500	0.858160	0.587160
C3661	C366	0.237200	0.845230	0.533400
H3051	H305	0.241200	0.821500	0.526000
C3671	C367	0.266800	0.893400	0.597600
H3061	H306	0.291100	0.902800	0.633000
C3681	C368	0.317400	0.834440	0.632390
C3691	C369	0.195100	0.866680	0.490500
H3071	H307	0.172400	0.857400	0.454800
C3701	C370	0.223600	0.915030	0.555200
H3081	H308	0.219000	0.938700	0.562800
C3711	C371	0.187000	0.901750	0.501200
C3721	C372	0.351300	0.757340	0.719580
C3731	C373	0.298700	0.750010	0.743550
H3091	H309	0.260500	0.765200	0.737500
C3741	C374	0.303800	0.720070	0.776140
H3101	H310	0.268300	0.715100	0.791400
C3751	C375	0.407100	0.733660	0.727820
H3111	H311	0.441300	0.737900	0.711000
C3761	C376	0.350100	0.790120	0.688210
C3771	C377	0.361000	0.697460	0.786400
C3781	C378	0.411900	0.703960	0.760670
H3121	H312	0.449200	0.688300	0.765700
C3791	C379	0.406800	0.971710	0.694530
C3801	C380	0.365800	0.994620	0.720220
C3811	C381	0.393200	0.026470	0.745600
H3131	H313	0.435500	0.035000	0.742800
C3821	C382	0.294000	0.033570	0.779200
C3831	C383	0.300400	0.983070	0.722600
H3141	H314	0.281000	0.962100	0.705000
C3841	C384	0.357400	0.045440	0.774900
H3151	H315	0.376400	0.066600	0.792100
C3851	C385	0.264700	0.002580	0.750900
H3161	H316	0.220500	0.995100	0.751100
C3861	C386	0.587400	0.963310	0.633700
H3171	H317	0.595600	0.982000	0.659000
C3871	C387	0.563600	0.908180	0.557740
H3181	H318	0.555300	0.889500	0.532300
C3881	C388	0.523600	0.945060	0.619620
C3891	C389	0.473000	0.950670	0.650030
C3901	C390	0.512600	0.917210	0.580710
H3191	H319	0.470200	0.904800	0.570400
C3911	C391	0.627700	0.926350	0.571700
C3921	C392	0.639500	0.954060	0.610400
H3201	H320	0.682100	0.966400	0.620700
C3931	C393	0.036800	0.807280	0.537030
C3941	C394	0.985500	0.815940	0.484780
H3211	H321	0.961100	0.798000	0.461100
C3951	C395	0.072700	0.834630	0.572100
H3221	H322	0.106900	0.829600	0.606700
C3961	C396	0.057400	0.869370	0.555300
H3231	H323	0.081400	0.887400	0.578900
C3971	C397	0.052300	0.770570	0.554910
C3981	C398	0.970900	0.850180	0.468160
H3241	H324	0.937100	0.855200	0.433300
C3991	C399	0.006300	0.877680	0.503100
C4001	C400	0.107900	0.723860	0.594250
C4011	C401	0.230900	0.700680	0.614510
H3251	H325	0.239100	0.718400	0.591800
C4021	C402	0.283600	0.676390	0.638600
H3261	H326	0.326600	0.678000	0.632000
C4031	C403	0.272700	0.649420	0.672580
C4041	C404	0.208100	0.648650	0.683200
H3271	H327	0.200800	0.631500	0.707100
C4051	C405	0.155100	0.672930	0.658690
H3281	H328	0.112400	0.671600	0.665800
C4061	C406	0.165200	0.699400	0.623380
C4071	C407	0.667700	0.853290	0.688780
C4081	C408	0.741100	0.866020	0.712420
C4091	C409	0.767100	0.876970	0.768500
H3291	H329	0.740500	0.872400	0.791900
C4101	C410	0.782200	0.871950	0.678300
H3301	H330	0.765900	0.865100	0.640500
C4111	C411	0.830500	0.894200	0.790500
H3311	H331	0.845600	0.901400	0.828100
C4121	C412	0.871600	0.900900	0.758000
C4131	C413	0.848400	0.888400	0.701100
H3321	H332	0.877400	0.891100	0.679100
C4141	C414	0.517900	0.800240	0.611920
C4151	C415	0.527600	0.765160	0.627350
H3331	H333	0.570100	0.757800	0.653800
C4161	C416	0.474200	0.740920	0.603500
H3341	H334	0.481000	0.717400	0.614600
C4171	C417	0.401000	0.786570	0.545900
H3351	H335	0.359500	0.793900	0.518200
C4181	C418	0.409800	0.751410	0.562700
C4191	C419	0.571000	0.826330	0.644050
C4201	C420	0.454800	0.810590	0.570720
H3361	H336	0.448500	0.834100	0.559700
N1211	N121	0.449520	0.923520	0.672160
N1221	N122	0.447100	0.981490	0.662490
N1231	N123	0.407150	0.937300	0.701070
N1241	N124	0.718230	0.795660	0.410440
N1251	N125	0.774090	0.745940	0.405670
N1261	N126	0.815590	0.764310	0.453060
N1271	N127	0.004040	0.745270	0.544140
N1281	N128	0.040220	0.715000	0.569170
N1291	N129	0.118220	0.758610	0.586070
N1301	N130	0.470760	0.126970	0.592540
N1311	N131	0.409630	0.128890	0.608280
N1321	N132	0.442480	0.073260	0.610650
N1331	N133	0.614870	0.870610	0.698120
N1341	N134	0.552830	0.853240	0.669940
N1351	N135	0.642620	0.825240	0.654550
N1361	N136	0.293150	0.803680	0.646990
N1371	N137	0.384980	0.839730	0.663500
N1381	N138	0.406150	0.811380	0.699190
N1391	N139	0.325200	0.624510	0.696600
H3371	H337	0.365000	0.625600	0.690500
H3381	H338	0.317800	0.608000	0.717500
N1401	N140	0.368100	0.669000	0.822000
H3391	H339	0.336900	0.665200	0.838000
H3401	H340	0.403800	0.655100	0.828100
N1411	N141	0.677100	0.918210	0.545700
H3411	H341	0.668400	0.901800	0.520800
H3421	H342	0.716400	0.929600	0.554700
N1421	N142	0.258300	0.052700	0.808600
H3431	H343	0.275500	0.072300	0.824600
H3441	H344	0.218900	0.044900	0.810900
N1431	N143	0.354800	0.727450	0.539500
H3451	H345	0.315800	0.734400	0.514900
H3461	H346	0.360000	0.705700	0.549700
N1441	N144	0.922900	0.905730	0.596800
H3471	H347	0.951100	0.901700	0.630500
H3481	H348	0.918600	0.926800	0.583300
N1451	N145	0.988800	0.912070	0.487700
H3491	H349	0.955900	0.916800	0.456300
H3501	H350	0.010800	0.928900	0.509300
N1461	N146	0.517100	0.725130	0.168300
H3511	H351	0.492500	0.741000	0.145800
H3521	H352	0.512000	0.703300	0.158500
N1471	N147	0.145800	0.923810	0.456800
H3531	H353	0.126000	0.915300	0.423500
H3541	H354	0.140500	0.945700	0.463200
N1481	N148	0.132700	0.061820	0.646800
H3551	H355	0.115300	0.075000	0.666700
H3561	H356	0.109000	0.044100	0.628800
N1491	N149	0.703200	0.033100	0.521400
H3571	H357	0.700200	0.011200	0.512400
H3581	H358	0.739000	0.045300	0.520500
N1501	N150	0.938000	0.918200	0.781200
H3591	H359	0.952500	0.924600	0.816000
H3601	H360	0.963700	0.922300	0.760300
Cu411	Cu41	0.960960	0.373390	0.667720
Cu421	Cu42	0.948780	0.526320	0.633770
Cu431	Cu43	0.405180	0.245140	0.499220
Cu441	Cu44	0.704370	0.282360	0.616230
Cu451	Cu45	0.494090	0.171290	0.567430
Cu461	Cu46	0.185550	0.293310	0.618000
Cu471	Cu47	0.351050	0.169180	0.593470
Cu481	Cu48	0.889820	0.406820	0.753370
Br61	Br6	0.368790	0.179000	0.489040
C4211	C421	0.281000	0.294020	0.454470
C4221	C422	0.354300	0.316380	0.550710
H3611	H361	0.358900	0.293600	0.565200
C4231	C423	0.383800	0.377960	0.563700
C4241	C424	0.337400	0.384250	0.509200
H3621	H362	0.330400	0.407200	0.495600
C4251	C425	0.311200	0.322400	0.494680
C4261	C426	0.302000	0.357260	0.475200
H3631	H363	0.271600	0.362100	0.438900
C4271	C427	0.390300	0.343940	0.585000
H3641	H364	0.418600	0.339500	0.622100
C4281	C428	0.215900	0.265570	0.380970
C4291	C429	0.161300	0.255130	0.327690
C4301	C430	0.120800	0.279840	0.289200
H3651	H365	0.125400	0.303600	0.298900
C4311	C431	0.073500	0.269920	0.236500
H3661	H366	0.047400	0.287000	0.211800
C4321	C432	0.152600	0.219810	0.311300
H3671	H367	0.178500	0.202600	0.336000
C4331	C433	0.065400	0.234750	0.220700
C4341	C434	0.105800	0.209710	0.258600
H3681	H368	0.101400	0.186000	0.248700
C4351	C435	0.894200	0.595980	0.618120
C4361	C436	0.829600	0.586120	0.630040
C4371	C437	0.803100	0.606120	0.664700
H3691	H369	0.828700	0.625500	0.683500
C4381	C438	0.738800	0.597700	0.671800
H3701	H370	0.722300	0.611200	0.695700
C4391	C439	0.790600	0.556940	0.602900
H3711	H371	0.807800	0.543000	0.579800
C4401	C440	0.699300	0.569250	0.643400
C4411	C441	0.727000	0.548390	0.609700
H3721	H372	0.702300	0.528600	0.591800
C4421	C442	0.987800	0.593460	0.593380
C4431	C443	0.041700	0.543580	0.557700
H3731	H373	0.004500	0.529500	0.559500
C4441	C444	0.092900	0.529310	0.538700
H3741	H374	0.088400	0.506000	0.526600
C4451	C445	0.044500	0.578740	0.574400
C4461	C446	0.098900	0.599380	0.568900
H3751	H375	0.099600	0.623400	0.576400
C4471	C447	0.152900	0.584540	0.552100
H3761	H376	0.190400	0.598600	0.550800
C4481	C448	0.151100	0.548600	0.537100
C4491	C449	0.773500	0.358160	0.587160
C4501	C450	0.737200	0.345230	0.533400
H3771	H377	0.741200	0.321500	0.526000
C4511	C451	0.766800	0.393400	0.597600
H3781	H378	0.791100	0.402800	0.633000
C4521	C452	0.817400	0.334440	0.632390
C4531	C453	0.695100	0.366680	0.490500
H3791	H379	0.672400	0.357400	0.454800
C4541	C454	0.723600	0.415030	0.555200
H3801	H380	0.719000	0.438700	0.562800
C4551	C455	0.687000	0.401750	0.501200
C4561	C456	0.851300	0.257340	0.719580
C4571	C457	0.798700	0.250010	0.743550
H3811	H381	0.760500	0.265200	0.737500
C4581	C458	0.803800	0.220070	0.776140
H3821	H382	0.768300	0.215100	0.791400
C4591	C459	0.907100	0.233660	0.727820
H3831	H383	0.941300	0.237900	0.711000
C4601	C460	0.850100	0.290120	0.688210
C4611	C461	0.861000	0.197460	0.786400
C4621	C462	0.911900	0.203960	0.760670
H3841	H384	0.949200	0.188300	0.765700
C4631	C463	0.906800	0.471710	0.694530
C4641	C464	0.865800	0.494620	0.720220
C4651	C465	0.893200	0.526470	0.745600
H3851	H385	0.935500	0.535000	0.742800
C4661	C466	0.794000	0.533570	0.779200
C4671	C467	0.800400	0.483070	0.722600
H3861	H386	0.781000	0.462100	0.705000
C4681	C468	0.857400	0.545440	0.774900
H3871	H387	0.876400	0.566600	0.792100
C4691	C469	0.764700	0.502580	0.750900
H3881	H388	0.720500	0.495100	0.751100
C4701	C470	0.087400	0.463310	0.633700
H3891	H389	0.095600	0.482000	0.659000
C4711	C471	0.063600	0.408180	0.557740
H3901	H390	0.055300	0.389500	0.532300
C4721	C472	0.023600	0.445060	0.619620
C4731	C473	0.973000	0.450670	0.650030
C4741	C474	0.012600	0.417210	0.580710
H3911	H391	0.970200	0.404800	0.570400
C4751	C475	0.127700	0.426350	0.571700
C4761	C476	0.139500	0.454060	0.610400
H3921	H392	0.182100	0.466400	0.620700
C4771	C477	0.536800	0.307280	0.537030
C4781	C478	0.485500	0.315940	0.484780
H3931	H393	0.461100	0.298000	0.461100
C4791	C479	0.572700	0.334630	0.572100
H3941	H394	0.606900	0.329600	0.606700
C4801	C480	0.557400	0.369370	0.555300
H3951	H395	0.581400	0.387400	0.578900
C4811	C481	0.552300	0.270570	0.554910
C4821	C482	0.470900	0.350180	0.468160
H3961	H396	0.437100	0.355200	0.433300
C4831	C483	0.506300	0.377680	0.503100
C4841	C484	0.607900	0.223860	0.594250
C4851	C485	0.730900	0.200680	0.614510
H3971	H397	0.739100	0.218400	0.591800
C4861	C486	0.783600	0.176390	0.638600
H3981	H398	0.826600	0.178000	0.632000
C4871	C487	0.772700	0.149420	0.672580
C4881	C488	0.708100	0.148650	0.683200
H3991	H399	0.700800	0.131500	0.707100
C4891	C489	0.655100	0.172930	0.658690
H4001	H400	0.612400	0.171600	0.665800
C4901	C490	0.665200	0.199400	0.623380
C4911	C491	0.167700	0.353290	0.688780
C4921	C492	0.241100	0.366020	0.712420
C4931	C493	0.267100	0.376970	0.768500
H4011	H401	0.240500	0.372400	0.791900
C4941	C494	0.282200	0.371950	0.678300
H4021	H402	0.265900	0.365100	0.640500
C4951	C495	0.330500	0.394200	0.790500
H4031	H403	0.345600	0.401400	0.828100
C4961	C496	0.371600	0.400900	0.758000
C4971	C497	0.348400	0.388400	0.701100
H4041	H404	0.377400	0.391100	0.679100
C4981	C498	0.017900	0.300240	0.611920
C4991	C499	0.027600	0.265160	0.627350
H4051	H405	0.070100	0.257800	0.653800
C5001	C500	0.974200	0.240920	0.603500
H4061	H406	0.981000	0.217400	0.614600
C5011	C501	0.901000	0.286570	0.545900
H4071	H407	0.859500	0.293900	0.518200
C5021	C502	0.909800	0.251410	0.562700
C5031	C503	0.071000	0.326330	0.644050
C5041	C504	0.954800	0.310590	0.570720
H4081	H408	0.948500	0.334100	0.559700
N1511	N151	0.949520	0.423520	0.672160
N1521	N152	0.947100	0.481490	0.662490
N1531	N153	0.907150	0.437300	0.701070
N1541	N154	0.218230	0.295660	0.410440
N1551	N155	0.274090	0.245940	0.405670
N1561	N156	0.315590	0.264310	0.453060
N1571	N157	0.504040	0.245270	0.544140
N1581	N158	0.540220	0.215000	0.569170
N1591	N159	0.618220	0.258610	0.586070
N1601	N160	0.970760	0.626970	0.592540
N1611	N161	0.909630	0.628890	0.608280
N1621	N162	0.942480	0.573260	0.610650
N1631	N163	0.114870	0.370610	0.698120
N1641	N164	0.052830	0.353240	0.669940
N1651	N165	0.142620	0.325240	0.654550
N1661	N166	0.793150	0.303680	0.646990
N1671	N167	0.884980	0.339730	0.663500
N1681	N168	0.906150	0.311380	0.699190
N1691	N169	0.825200	0.124510	0.696600
H4091	H409	0.865000	0.125600	0.690500
H4101	H410	0.817800	0.108000	0.717500
N1701	N170	0.868100	0.169000	0.822000
H4111	H411	0.836900	0.165200	0.838000
H4121	H412	0.903800	0.155100	0.828100
N1711	N171	0.177100	0.418210	0.545700
H4131	H413	0.168400	0.401800	0.520800
H4141	H414	0.216400	0.429600	0.554700
N1721	N172	0.758300	0.552700	0.808600
H4151	H415	0.775500	0.572300	0.824600
H4161	H416	0.718900	0.544900	0.810900
N1731	N173	0.854800	0.227450	0.539500
H4171	H417	0.815800	0.234400	0.514900
H4181	H418	0.860000	0.205700	0.549700
N1741	N174	0.422900	0.405730	0.596800
H4191	H419	0.451100	0.401700	0.630500
H4201	H420	0.418600	0.426800	0.583300
N1751	N175	0.488800	0.412070	0.487700
H4211	H421	0.455900	0.416800	0.456300
H4221	H422	0.510800	0.428900	0.509300
N1761	N176	0.017100	0.225130	0.168300
H4231	H423	0.992500	0.241000	0.145800
H4241	H424	0.012000	0.203300	0.158500
N1771	N177	0.645800	0.423810	0.456800
H4251	H425	0.626000	0.415300	0.423500
H4261	H426	0.640500	0.445700	0.463200
N1781	N178	0.632700	0.561820	0.646800
H4271	H427	0.615300	0.575000	0.666700
H4281	H428	0.609000	0.544100	0.628800
N1791	N179	0.203200	0.533100	0.521400
H4291	H429	0.200200	0.511200	0.512400
H4301	H430	0.239000	0.545300	0.520500
N1801	N180	0.438000	0.418200	0.781200
H4311	H431	0.452500	0.424600	0.816000
H4321	H432	0.463700	0.422300	0.760300
Cu491	Cu49	0.539040	0.873390	0.832280
Cu501	Cu50	0.551220	0.026320	0.866230
Cu511	Cu51	0.094820	0.745140	0.000780
Cu521	Cu52	0.795630	0.782360	0.883770
Cu531	Cu53	0.005910	0.671290	0.932570
Cu541	Cu54	0.314450	0.793310	0.882000
Cu551	Cu55	0.148950	0.669180	0.906530
Cu561	Cu56	0.610180	0.906820	0.746630
Br71	Br7	0.131210	0.679000	0.010960
C5051	C505	0.219000	0.794020	0.045530
C5061	C506	0.145700	0.816380	0.949290
H4331	H433	0.141100	0.793600	0.934800
C5071	C507	0.116200	0.877960	0.936300
C5081	C508	0.162600	0.884250	0.990800
H4341	H434	0.169600	0.907200	0.004400
C5091	C509	0.188800	0.822400	0.005320
C5101	C510	0.198000	0.857260	0.024800
H4351	H435	0.228400	0.862100	0.061100
C5111	C511	0.109700	0.843940	0.915000
H4361	H436	0.081400	0.839500	0.877900
C5121	C512	0.284100	0.765570	0.119030
C5131	C513	0.338700	0.755130	0.172310
C5141	C514	0.379200	0.779840	0.210800
H4371	H437	0.374600	0.803600	0.201100
C5151	C515	0.426500	0.769920	0.263500
H4381	H438	0.452600	0.787000	0.288200
C5161	C516	0.347400	0.719810	0.188700
H4391	H439	0.321500	0.702600	0.164000
C5171	C517	0.434600	0.734750	0.279300
C5181	C518	0.394200	0.709710	0.241400
H4401	H440	0.398600	0.686000	0.251300
C5191	C519	0.605800	0.095980	0.881880
C5201	C520	0.670400	0.086120	0.869960
C5211	C521	0.696900	0.106120	0.835300
H4411	H441	0.671300	0.125500	0.816500
C5221	C522	0.761200	0.097700	0.828200
H4421	H442	0.777700	0.111200	0.804300
C5231	C523	0.709400	0.056940	0.897100
H4431	H443	0.692200	0.043000	0.920200
C5241	C524	0.800700	0.069250	0.856600
C5251	C525	0.773000	0.048390	0.890300
H4441	H444	0.797700	0.028600	0.908200
C5261	C526	0.512200	0.093460	0.906620
C5271	C527	0.458300	0.043580	0.942300
H4451	H445	0.495500	0.029500	0.940500
C5281	C528	0.407100	0.029310	0.961300
H4461	H446	0.411600	0.006000	0.973400
C5291	C529	0.455500	0.078740	0.925600
C5301	C530	0.401100	0.099380	0.931100
H4471	H447	0.400400	0.123400	0.923600
C5311	C531	0.347100	0.084540	0.947900
H4481	H448	0.309600	0.098600	0.949200
C5321	C532	0.348900	0.048600	0.962900
C5331	C533	0.726500	0.858160	0.912840
C5341	C534	0.762800	0.845230	0.966600
H4491	H449	0.758800	0.821500	0.974000
C5351	C535	0.733200	0.893400	0.902400
H4501	H450	0.708900	0.902800	0.867000
C5361	C536	0.682600	0.834440	0.867610
C5371	C537	0.804900	0.866680	0.009500
H4511	H451	0.827600	0.857400	0.045200
C5381	C538	0.776400	0.915030	0.944800
H4521	H452	0.781000	0.938700	0.937200
C5391	C539	0.813000	0.901750	0.998800
C5401	C540	0.648700	0.757340	0.780420
C5411	C541	0.701300	0.750010	0.756450
H4531	H453	0.739500	0.765200	0.762500
C5421	C542	0.696200	0.720070	0.723860
H4541	H454	0.731700	0.715100	0.708600
C5431	C543	0.592900	0.733660	0.772180
H4551	H455	0.558700	0.737900	0.789000
C5441	C544	0.649900	0.790120	0.811790
C5451	C545	0.639000	0.697460	0.713600
C5461	C546	0.588100	0.703960	0.739330
H4561	H456	0.550800	0.688300	0.734300
C5471	C547	0.593200	0.971710	0.805470
C5481	C548	0.634200	0.994620	0.779780
C5491	C549	0.606800	0.026470	0.754400
H4571	H457	0.564500	0.035000	0.757200
C5501	C550	0.706000	0.033570	0.720800
C5511	C551	0.699600	0.983070	0.777400
H4581	H458	0.719000	0.962100	0.795000
C5521	C552	0.642600	0.045440	0.725100
H4591	H459	0.623600	0.066600	0.707900
C5531	C553	0.735300	0.002580	0.749100
H4601	H460	0.779500	0.995100	0.748900
C5541	C554	0.412600	0.963310	0.866300
H4611	H461	0.404400	0.982000	0.841000
C5551	C555	0.436400	0.908180	0.942260
H4621	H462	0.444700	0.889500	0.967700
C5561	C556	0.476400	0.945060	0.880380
C5571	C557	0.527000	0.950670	0.849970
C5581	C558	0.487400	0.917210	0.919290
H4631	H463	0.529800	0.904800	0.929600
C5591	C559	0.372300	0.926350	0.928300
C5601	C560	0.360500	0.954060	0.889600
H4641	H464	0.317900	0.966400	0.879300
C5611	C561	0.963200	0.807280	0.962970
C5621	C562	0.014500	0.815940	0.015220
H4651	H465	0.038900	0.798000	0.038900
C5631	C563	0.927300	0.834630	0.927900
H4661	H466	0.893100	0.829600	0.893300
C5641	C564	0.942600	0.869370	0.944700
H4671	H467	0.918600	0.887400	0.921100
C5651	C565	0.947700	0.770570	0.945090
C5661	C566	0.029100	0.850180	0.031840
H4681	H468	0.062900	0.855200	0.066700
C5671	C567	0.993700	0.877680	0.996900
C5681	C568	0.892100	0.723860	0.905750
C5691	C569	0.769100	0.700680	0.885490
H4691	H469	0.760900	0.718400	0.908200
C5701	C570	0.716400	0.676390	0.861400
H4701	H470	0.673400	0.678000	0.868000
C5711	C571	0.727300	0.649420	0.827420
C5721	C572	0.791900	0.648650	0.816800
H4711	H471	0.799200	0.631500	0.792900
C5731	C573	0.844900	0.672930	0.841310
H4721	H472	0.887600	0.671600	0.834200
C5741	C574	0.834800	0.699400	0.876620
C5751	C575	0.332300	0.853290	0.811220
C5761	C576	0.258900	0.866020	0.787580
C5771	C577	0.232900	0.876970	0.731500
H4731	H473	0.259500	0.872400	0.708100
C5781	C578	0.217800	0.871950	0.821700
H4741	H474	0.234100	0.865100	0.859500
C5791	C579	0.169500	0.894200	0.709500
H4751	H475	0.154400	0.901400	0.671900
C5801	C580	0.128400	0.900900	0.742000
C5811	C581	0.151600	0.888400	0.798900
H4761	H476	0.122600	0.891100	0.820900
C5821	C582	0.482100	0.800240	0.888080
C5831	C583	0.472400	0.765160	0.872650
H4771	H477	0.429900	0.757800	0.846200
C5841	C584	0.525800	0.740920	0.896500
H4781	H478	0.519000	0.717400	0.885400
C5851	C585	0.599000	0.786570	0.954100
H4791	H479	0.640500	0.793900	0.981800
C5861	C586	0.590200	0.751410	0.937300
C5871	C587	0.429000	0.826330	0.855950
C5881	C588	0.545200	0.810590	0.929280
H4801	H480	0.551500	0.834100	0.940300
N1811	N181	0.550480	0.923520	0.827840
N1821	N182	0.552900	0.981490	0.837510
N1831	N183	0.592850	0.937300	0.798930
N1841	N184	0.281770	0.795660	0.089560
N1851	N185	0.225910	0.745940	0.094330
N1861	N186	0.184410	0.764310	0.046940
N1871	N187	0.995960	0.745270	0.955860
N1881	N188	0.959780	0.715000	0.930830
N1891	N189	0.881780	0.758610	0.913930
N1901	N190	0.529240	0.126970	0.907460
N1911	N191	0.590370	0.128890	0.891720
N1921	N192	0.557520	0.073260	0.889350
N1931	N193	0.385130	0.870610	0.801880
N1941	N194	0.447170	0.853240	0.830060
N1951	N195	0.357380	0.825240	0.845450
N1961	N196	0.706850	0.803680	0.853010
N1971	N197	0.615020	0.839730	0.836500
N1981	N198	0.593850	0.811380	0.800810
N1991	N199	0.674800	0.624510	0.803400
H4811	H481	0.635000	0.625600	0.809500
H4821	H482	0.682200	0.608000	0.782500
N2001	N200	0.631900	0.669000	0.678000
H4831	H483	0.663100	0.665200	0.662000
H4841	H484	0.596200	0.655100	0.671900
N2011	N201	0.322900	0.918210	0.954300
H4851	H485	0.331600	0.901800	0.979200
H4861	H486	0.283600	0.929600	0.945300
N2021	N202	0.741700	0.052700	0.691400
H4871	H487	0.724500	0.072300	0.675400
H4881	H488	0.781100	0.044900	0.689100
N2031	N203	0.645200	0.727450	0.960500
H4891	H489	0.684200	0.734400	0.985100
H4901	H490	0.640000	0.705700	0.950300
N2041	N204	0.077100	0.905730	0.903200
H4911	H491	0.048900	0.901700	0.869500
H4921	H492	0.081400	0.926800	0.916700
N2051	N205	0.011200	0.912070	0.012300
H4931	H493	0.044100	0.916800	0.043700
H4941	H494	0.989200	0.928900	0.990700
N2061	N206	0.482900	0.725130	0.331700
H4951	H495	0.507500	0.741000	0.354200
H4961	H496	0.488000	0.703300	0.341500
N2071	N207	0.854200	0.923810	0.043200
H4971	H497	0.874000	0.915300	0.076500
H4981	H498	0.859500	0.945700	0.036800
N2081	N208	0.867300	0.061820	0.853200
H4991	H499	0.884700	0.075000	0.833300
H5001	H500	0.891000	0.044100	0.871200
N2091	N209	0.296800	0.033100	0.978600
H5011	H501	0.299800	0.011200	0.987600
H5021	H502	0.261000	0.045300	0.979500
N2101	N210	0.062000	0.918200	0.718800
H5031	H503	0.047500	0.924600	0.684000
H5041	H504	0.036300	0.922300	0.739700
Cu571	Cu57	0.039040	0.373390	0.832280
Cu581	Cu58	0.051220	0.526320	0.866230
Cu591	Cu59	0.594820	0.245140	0.000780
Cu601	Cu60	0.295630	0.282360	0.883770
Cu611	Cu61	0.505910	0.171290	0.932570
Cu621	Cu62	0.814450	0.293310	0.882000
Cu631	Cu63	0.648950	0.169180	0.906530
Cu641	Cu64	0.110180	0.406820	0.746630
Br81	Br8	0.631210	0.179000	0.010960
C5891	C589	0.719000	0.294020	0.045530
C5901	C590	0.645700	0.316380	0.949290
H5051	H505	0.641100	0.293600	0.934800
C5911	C591	0.616200	0.377960	0.936300
C5921	C592	0.662600	0.384250	0.990800
H5061	H506	0.669600	0.407200	0.004400
C5931	C593	0.688800	0.322400	0.005320
C5941	C594	0.698000	0.357260	0.024800
H5071	H507	0.728400	0.362100	0.061100
C5951	C595	0.609700	0.343940	0.915000
H5081	H508	0.581400	0.339500	0.877900
C5961	C596	0.784100	0.265570	0.119030
C5971	C597	0.838700	0.255130	0.172310
C5981	C598	0.879200	0.279840	0.210800
H5091	H509	0.874600	0.303600	0.201100
C5991	C599	0.926500	0.269920	0.263500
H5101	H510	0.952600	0.287000	0.288200
C6001	C600	0.847400	0.219810	0.188700
H5111	H511	0.821500	0.202600	0.164000
C6011	C601	0.934600	0.234750	0.279300
C6021	C602	0.894200	0.209710	0.241400
H5121	H512	0.898600	0.186000	0.251300
C6031	C603	0.105800	0.595980	0.881880
C6041	C604	0.170400	0.586120	0.869960
C6051	C605	0.196900	0.606120	0.835300
H5131	H513	0.171300	0.625500	0.816500
C6061	C606	0.261200	0.597700	0.828200
H5141	H514	0.277700	0.611200	0.804300
C6071	C607	0.209400	0.556940	0.897100
H5151	H515	0.192200	0.543000	0.920200
C6081	C608	0.300700	0.569250	0.856600
C6091	C609	0.273000	0.548390	0.890300
H5161	H516	0.297700	0.528600	0.908200
C6101	C610	0.012200	0.593460	0.906620
C6111	C611	0.958300	0.543580	0.942300
H5171	H517	0.995500	0.529500	0.940500
C6121	C612	0.907100	0.529310	0.961300
H5181	H518	0.911600	0.506000	0.973400
C6131	C613	0.955500	0.578740	0.925600
C6141	C614	0.901100	0.599380	0.931100
H5191	H519	0.900400	0.623400	0.923600
C6151	C615	0.847100	0.584540	0.947900
H5201	H520	0.809600	0.598600	0.949200
C6161	C616	0.848900	0.548600	0.962900
C6171	C617	0.226500	0.358160	0.912840
C6181	C618	0.262800	0.345230	0.966600
H5211	H521	0.258800	0.321500	0.974000
C6191	C619	0.233200	0.393400	0.902400
H5221	H522	0.208900	0.402800	0.867000
C6201	C620	0.182600	0.334440	0.867610
C6211	C621	0.304900	0.366680	0.009500
H5231	H523	0.327600	0.357400	0.045200
C6221	C622	0.276400	0.415030	0.944800
H5241	H524	0.281000	0.438700	0.937200
C6231	C623	0.313000	0.401750	0.998800
C6241	C624	0.148700	0.257340	0.780420
C6251	C625	0.201300	0.250010	0.756450
H5251	H525	0.239500	0.265200	0.762500
C6261	C626	0.196200	0.220070	0.723860
H5261	H526	0.231700	0.215100	0.708600
C6271	C627	0.092900	0.233660	0.772180
H5271	H527	0.058700	0.237900	0.789000
C6281	C628	0.149900	0.290120	0.811790
C6291	C629	0.139000	0.197460	0.713600
C6301	C630	0.088100	0.203960	0.739330
H5281	H528	0.050800	0.188300	0.734300
C6311	C631	0.093200	0.471710	0.805470
C6321	C632	0.134200	0.494620	0.779780
C6331	C633	0.106800	0.526470	0.754400
H5291	H529	0.064500	0.535000	0.757200
C6341	C634	0.206000	0.533570	0.720800
C6351	C635	0.199600	0.483070	0.777400
H5301	H530	0.219000	0.462100	0.795000
C6361	C636	0.142600	0.545440	0.725100
H5311	H531	0.123600	0.566600	0.707900
C6371	C637	0.235300	0.502580	0.749100
H5321	H532	0.279500	0.495100	0.748900
C6381	C638	0.912600	0.463310	0.866300
H5331	H533	0.904400	0.482000	0.841000
C6391	C639	0.936400	0.408180	0.942260
H5341	H534	0.944700	0.389500	0.967700
C6401	C640	0.976400	0.445060	0.880380
C6411	C641	0.027000	0.450670	0.849970
C6421	C642	0.987400	0.417210	0.919290
H5351	H535	0.029800	0.404800	0.929600
C6431	C643	0.872300	0.426350	0.928300
C6441	C644	0.860500	0.454060	0.889600
H5361	H536	0.817900	0.466400	0.879300
C6451	C645	0.463200	0.307280	0.962970
C6461	C646	0.514500	0.315940	0.015220
H5371	H537	0.538900	0.298000	0.038900
C6471	C647	0.427300	0.334630	0.927900
H5381	H538	0.393100	0.329600	0.893300
C6481	C648	0.442600	0.369370	0.944700
H5391	H539	0.418600	0.387400	0.921100
C6491	C649	0.447700	0.270570	0.945090
C6501	C650	0.529100	0.350180	0.031840
H5401	H540	0.562900	0.355200	0.066700
C6511	C651	0.493700	0.377680	0.996900
C6521	C652	0.392100	0.223860	0.905750
C6531	C653	0.269100	0.200680	0.885490
H5411	H541	0.260900	0.218400	0.908200
C6541	C654	0.216400	0.176390	0.861400
H5421	H542	0.173400	0.178000	0.868000
C6551	C655	0.227300	0.149420	0.827420
C6561	C656	0.291900	0.148650	0.816800
H5431	H543	0.299200	0.131500	0.792900
C6571	C657	0.344900	0.172930	0.841310
H5441	H544	0.387600	0.171600	0.834200
C6581	C658	0.334800	0.199400	0.876620
C6591	C659	0.832300	0.353290	0.811220
C6601	C660	0.758900	0.366020	0.787580
C6611	C661	0.732900	0.376970	0.731500
H5451	H545	0.759500	0.372400	0.708100
C6621	C662	0.717800	0.371950	0.821700
H5461	H546	0.734100	0.365100	0.859500
C6631	C663	0.669500	0.394200	0.709500
H5471	H547	0.654400	0.401400	0.671900
C6641	C664	0.628400	0.400900	0.742000
C6651	C665	0.651600	0.388400	0.798900
H5481	H548	0.622600	0.391100	0.820900
C6661	C666	0.982100	0.300240	0.888080
C6671	C667	0.972400	0.265160	0.872650
H5491	H549	0.929900	0.257800	0.846200
C6681	C668	0.025800	0.240920	0.896500
H5501	H550	0.019000	0.217400	0.885400
C6691	C669	0.099000	0.286570	0.954100
H5511	H551	0.140500	0.293900	0.981800
C6701	C670	0.090200	0.251410	0.937300
C6711	C671	0.929000	0.326330	0.855950
C6721	C672	0.045200	0.310590	0.929280
H5521	H552	0.051500	0.334100	0.940300
N2111	N211	0.050480	0.423520	0.827840
N2121	N212	0.052900	0.481490	0.837510
N2131	N213	0.092850	0.437300	0.798930
N2141	N214	0.781770	0.295660	0.089560
N2151	N215	0.725910	0.245940	0.094330
N2161	N216	0.684410	0.264310	0.046940
N2171	N217	0.495960	0.245270	0.955860
N2181	N218	0.459780	0.215000	0.930830
N2191	N219	0.381780	0.258610	0.913930
N2201	N220	0.029240	0.626970	0.907460
N2211	N221	0.090370	0.628890	0.891720
N2221	N222	0.057520	0.573260	0.889350
N2231	N223	0.885130	0.370610	0.801880
N2241	N224	0.947170	0.353240	0.830060
N2251	N225	0.857380	0.325240	0.845450
N2261	N226	0.206850	0.303680	0.853010
N2271	N227	0.115020	0.339730	0.836500
N2281	N228	0.093850	0.311380	0.800810
N2291	N229	0.174800	0.124510	0.803400
H5531	H553	0.135000	0.125600	0.809500
H5541	H554	0.182200	0.108000	0.782500
N2301	N230	0.131900	0.169000	0.678000
H5551	H555	0.163100	0.165200	0.662000
H5561	H556	0.096200	0.155100	0.671900
N2311	N231	0.822900	0.418210	0.954300
H5571	H557	0.831600	0.401800	0.979200
H5581	H558	0.783600	0.429600	0.945300
N2321	N232	0.241700	0.552700	0.691400
H5591	H559	0.224500	0.572300	0.675400
H5601	H560	0.281100	0.544900	0.689100
N2331	N233	0.145200	0.227450	0.960500
H5611	H561	0.184200	0.234400	0.985100
H5621	H562	0.140000	0.205700	0.950300
N2341	N234	0.577100	0.405730	0.903200
H5631	H563	0.548900	0.401700	0.869500
H5641	H564	0.581400	0.426800	0.916700
N2351	N235	0.511200	0.412070	0.012300
H5651	H565	0.544100	0.416800	0.043700
H5661	H566	0.489200	0.428900	0.990700
N2361	N236	0.982900	0.225130	0.331700
H5671	H567	0.007500	0.241000	0.354200
H5681	H568	0.988000	0.203300	0.341500
N2371	N237	0.354200	0.423810	0.043200
H5691	H569	0.374000	0.415300	0.076500
H5701	H570	0.359500	0.445700	0.036800
N2381	N238	0.367300	0.561820	0.853200
H5711	H571	0.384700	0.575000	0.833300
H5721	H572	0.391000	0.544100	0.871200
N2391	N239	0.796800	0.533100	0.978600
H5731	H573	0.799800	0.511200	0.987600
H5741	H574	0.761000	0.545300	0.979500
N2401	N240	0.562000	0.418200	0.718800
H5751	H575	0.547500	0.424600	0.684000
H5761	H576	0.536300	0.422300	0.739700
Cu651	Cu65	0.500000	0.190280	0.250000
Cu661	Cu66	0.000000	0.690280	0.250000
Cu671	Cu67	0.500000	0.809720	0.750000
Cu681	Cu68	0.000000	0.309720	0.750000
