data_AWIBIS_clean_PM
_symmetry_space_group_name_H-M	'P1'
_cell_length_a	20.015000
_cell_length_b	38.064000
_cell_length_c	25.197000
_cell_angle_alpha	90.000000
_cell_angle_beta	109.846000
_cell_angle_gamma	90.000000
_symmetry_Int_Tables_number 1

loop_
_symmetry_equiv_pos_as_xyz
'x,y,z'

loop_
_atom_site_label
_atom_site_type_symbol
_atom_site_fract_x
_atom_site_fract_y
_atom_site_fract_z
Cu11	Cu1	0.039210	0.127440	0.831520
Cu21	Cu2	0.593750	0.254580	0.000120
Cu31	Cu3	0.295500	0.218030	0.882240
Cu41	Cu4	0.506750	0.328760	0.932120
Cu51	Cu5	0.816460	0.206950	0.882930
Cu61	Cu6	0.052040	0.973940	0.865470
Cu71	Cu7	0.849420	0.169040	0.091970
Cu81	Cu8	0.109170	0.094080	0.746640
Br11	Br1	0.630850	0.320940	0.010910
N11	N1	0.948140	0.147660	0.829770
N21	N2	0.859250	0.175050	0.846470
N31	N3	0.885990	0.130220	0.801450
N41	N4	0.146200	0.271960	0.962300
H11	H1	0.185100	0.265000	0.987200
H21	H2	0.141200	0.293600	0.952100
N51	N5	0.591790	0.371440	0.892730
N61	N6	0.558610	0.427140	0.889540
N71	N7	0.531310	0.373200	0.907920
N81	N8	0.865500	0.439100	0.851000
H31	H3	0.889400	0.456900	0.868400
H41	H4	0.881900	0.426100	0.830300
H51	H5	0.267600	0.451000	0.985500
H61	H6	0.304100	0.485600	0.991600
N91	N9	0.114440	0.161170	0.835780
N101	N10	0.093920	0.189890	0.800050
N111	N11	0.206640	0.197230	0.851810
N121	N12	0.352700	0.076420	0.038800
H71	H7	0.356400	0.054500	0.032300
H81	H8	0.374600	0.084900	0.071800
N131	N13	0.132100	0.331680	0.677900
H91	H9	0.163500	0.335400	0.662300
H101	H10	0.096600	0.345700	0.671700
N141	N14	0.092150	0.063320	0.798250
N151	N15	0.050730	0.076950	0.827530
N161	N16	0.238500	0.947950	0.690500
H111	H11	0.220800	0.928400	0.674800
H121	H12	0.277600	0.955600	0.687800
N171	N17	0.053850	0.019060	0.837130
N181	N18	0.826600	0.082120	0.953700
H131	H13	0.835200	0.098900	0.977900
H141	H14	0.787400	0.070600	0.945400
N191	N19	0.495750	0.254650	0.954330
N201	N20	0.460080	0.285090	0.929570
N211	N21	0.381580	0.241590	0.912370
N221	N22	0.508700	0.087660	0.011300
H151	H15	0.540000	0.083000	0.043600
H161	H16	0.487400	0.070900	0.989300
N231	N23	0.176300	0.375870	0.804600
H171	H17	0.137100	0.375100	0.811500
H181	H18	0.183200	0.392200	0.783400
N241	N24	0.682630	0.235220	0.046700
N251	N25	0.779960	0.204140	0.088330
N261	N26	0.724130	0.253430	0.093800
N271	N27	0.577700	0.094720	0.900500
H191	H19	0.582700	0.073500	0.913000
H201	H20	0.548800	0.099200	0.867200
N281	N28	0.981500	0.273900	0.328700
H211	H21	0.006600	0.258000	0.350900
H221	H22	0.986500	0.295600	0.338800
C11	C1	0.091200	0.248200	0.938700
C21	C2	0.098600	0.213630	0.954700
H231	H23	0.140100	0.206200	0.982600
C31	C3	0.045100	0.189460	0.930000
H241	H24	0.051100	0.166100	0.941200
C41	C4	0.982900	0.200140	0.888690
C51	C5	0.974800	0.235070	0.873900
H251	H25	0.932500	0.242800	0.847400
C61	C6	0.028600	0.258860	0.898000
H261	H26	0.022800	0.282300	0.886700
C71	C7	0.930000	0.174160	0.856170
C81	C8	0.656300	0.111100	0.800400
H271	H27	0.628500	0.107500	0.822900
C91	C9	0.632200	0.099400	0.743400
C101	C10	0.670700	0.106500	0.711600
H281	H28	0.654500	0.099500	0.674000
C111	C11	0.734900	0.124120	0.733000
H291	H29	0.760900	0.129100	0.709500
C121	C12	0.760700	0.134340	0.788990
C131	C13	0.720700	0.127820	0.822200
H301	H30	0.737100	0.134700	0.859900
C141	C14	0.833600	0.147290	0.811670
C151	C15	0.352600	0.449800	0.964000
C161	C16	0.351200	0.414300	0.948700
H311	H31	0.314500	0.400000	0.950800
C171	C17	0.403200	0.400240	0.930700
H321	H32	0.402300	0.376400	0.922200
C181	C18	0.456800	0.421140	0.925100
C191	C19	0.458800	0.456090	0.941400
H331	H33	0.495300	0.470500	0.939300
C201	C20	0.407600	0.469740	0.960600
H341	H34	0.410500	0.493200	0.971600
C211	C21	0.513200	0.406850	0.906280
C221	C22	0.772700	0.452060	0.889300
H351	H35	0.797400	0.472000	0.906600
C231	C23	0.799300	0.431210	0.856200
C241	C24	0.760400	0.402510	0.828600
H361	H36	0.776700	0.389000	0.804700
C251	C25	0.697600	0.393970	0.836600
H371	H37	0.672500	0.374300	0.818700
C261	C26	0.671100	0.414000	0.870700
C271	C27	0.709700	0.443390	0.896800
H381	H38	0.692700	0.457400	0.919700
C281	C28	0.606900	0.404190	0.882840
C291	C29	0.311000	0.098370	0.995600
C301	C30	0.275400	0.085500	0.942500
H391	H39	0.279900	0.061900	0.934700
C311	C31	0.232800	0.107390	0.900600
H401	H40	0.208500	0.098200	0.865000
C321	C32	0.225800	0.142470	0.910700
C331	C33	0.261400	0.155120	0.964400
H411	H41	0.256800	0.178700	0.972400
C341	C34	0.303500	0.133570	0.006400
H421	H42	0.327100	0.142700	0.042100
C351	C35	0.182100	0.166370	0.866080
C361	C36	0.195500	0.280340	0.723400
H431	H43	0.230900	0.285000	0.708300
C371	C37	0.200400	0.250600	0.756100
H441	H44	0.238500	0.235300	0.762100
C381	C38	0.148700	0.243520	0.779970
C391	C39	0.093500	0.267310	0.771910
H451	H45	0.059500	0.263300	0.788800
C401	C40	0.088800	0.296740	0.739000
H461	H46	0.051700	0.312500	0.734200
C411	C41	0.138600	0.303230	0.712900
C421	C42	0.149500	0.210780	0.810760
C431	C43	0.232900	0.998290	0.747900
H471	H47	0.276200	0.006200	0.746600
C441	C44	0.203700	0.967170	0.720300
C451	C45	0.141300	0.955100	0.724900
H481	H48	0.122200	0.934000	0.707900
C461	C46	0.106100	0.974110	0.754500
H491	H49	0.064000	0.965600	0.757500
C471	C47	0.133800	0.005930	0.779770
C481	C48	0.198000	0.017330	0.777000
H501	H50	0.218000	0.038100	0.795000
C491	C49	0.093400	0.028800	0.805070
C501	C50	0.864400	0.045980	0.890200
H511	H51	0.822200	0.033400	0.880200
C511	C51	0.875400	0.073690	0.928300
C521	C52	0.938300	0.092010	0.941300
H521	H52	0.946300	0.110900	0.966200
C531	C53	0.989500	0.083250	0.918470
H531	H53	0.031800	0.095900	0.928600
C541	C54	0.978400	0.055350	0.880130
C551	C55	0.915700	0.037010	0.867200
H541	H54	0.907600	0.018100	0.842300
C561	C56	0.028100	0.049880	0.849810
C571	C57	0.492600	0.122170	0.995000
C581	C58	0.442100	0.130600	0.942900
H551	H55	0.418200	0.112700	0.918800
C591	C59	0.427100	0.164990	0.926500
H561	H56	0.393000	0.169900	0.891600
C601	C60	0.462300	0.192650	0.961150
C611	C61	0.512000	0.183950	0.013200
H571	H57	0.536200	0.201800	0.037200
C621	C62	0.526300	0.149630	0.029900
H581	H58	0.559200	0.144700	0.065300
C631	C63	0.447500	0.229250	0.943430
C641	C64	0.228200	0.350860	0.827600
C651	C65	0.292000	0.351420	0.816600
H591	H59	0.299000	0.368500	0.792500
C661	C66	0.344700	0.327340	0.840600
H601	H60	0.387000	0.328500	0.833000
C671	C67	0.335600	0.301090	0.876140
C681	C68	0.270600	0.300130	0.885700
H611	H61	0.262600	0.282700	0.908800
C691	C69	0.218600	0.324490	0.861600
H621	H62	0.175800	0.323100	0.868500
C701	C70	0.392400	0.276170	0.904840
C711	C71	0.610400	0.156210	0.914800
H631	H63	0.582100	0.160800	0.877700
C721	C72	0.617000	0.122120	0.934700
C731	C73	0.663500	0.115420	0.988100
H641	H64	0.672100	0.092400	0.000700
C741	C74	0.697400	0.142410	0.022700
H651	H65	0.727400	0.137400	0.059100
C751	C75	0.687800	0.177310	0.004670
C761	C76	0.645600	0.183800	0.949600
H661	H66	0.640500	0.206600	0.935600
C771	C77	0.717100	0.205730	0.044890
C781	C78	0.932300	0.264400	0.276100
C791	C79	0.891800	0.289400	0.239200
H671	H67	0.896300	0.313000	0.249600
C801	C80	0.844900	0.279640	0.187300
H681	H68	0.818400	0.296800	0.162900
C811	C81	0.836500	0.244600	0.170650
C821	C82	0.877300	0.219820	0.208400
H691	H69	0.872600	0.196200	0.198400
C831	C83	0.924800	0.229600	0.260400
H701	H70	0.951700	0.212600	0.284900
C841	C84	0.781800	0.234170	0.117710
N291	N29	0.302500	0.464100	0.983100
N301	N30	0.565500	0.081600	0.720900
H711	H71	0.550100	0.075300	0.686100
H721	H72	0.540900	0.077100	0.742200
Cu91	Cu9	0.539210	0.627440	0.831520
Cu101	Cu10	0.093750	0.754580	0.000120
Cu111	Cu11	0.795500	0.718030	0.882240
Cu121	Cu12	0.006750	0.828760	0.932120
Cu131	Cu13	0.316460	0.706950	0.882930
Cu141	Cu14	0.552040	0.473940	0.865470
Cu151	Cu15	0.349420	0.669040	0.091970
Cu161	Cu16	0.609170	0.594080	0.746640
Br21	Br2	0.130850	0.820940	0.010910
N311	N31	0.448140	0.647660	0.829770
N321	N32	0.359250	0.675050	0.846470
N331	N33	0.385990	0.630220	0.801450
N341	N34	0.646200	0.771960	0.962300
H731	H73	0.685100	0.765000	0.987200
H741	H74	0.641200	0.793600	0.952100
N351	N35	0.091790	0.871440	0.892730
N361	N36	0.058610	0.927140	0.889540
N371	N37	0.031310	0.873200	0.907920
N381	N38	0.365500	0.939100	0.851000
H751	H75	0.389400	0.956900	0.868400
H761	H76	0.381900	0.926100	0.830300
H771	H77	0.767600	0.951000	0.985500
H781	H78	0.804100	0.985600	0.991600
N391	N39	0.614440	0.661170	0.835780
N401	N40	0.593920	0.689890	0.800050
N411	N41	0.706640	0.697230	0.851810
N421	N42	0.852700	0.576420	0.038800
H791	H79	0.856400	0.554500	0.032300
H801	H80	0.874600	0.584900	0.071800
N431	N43	0.632100	0.831680	0.677900
H811	H81	0.663500	0.835400	0.662300
H821	H82	0.596600	0.845700	0.671700
N441	N44	0.592150	0.563320	0.798250
N451	N45	0.550730	0.576950	0.827530
N461	N46	0.738500	0.447950	0.690500
H831	H83	0.720800	0.428400	0.674800
H841	H84	0.777600	0.455600	0.687800
N471	N47	0.553850	0.519060	0.837130
N481	N48	0.326600	0.582120	0.953700
H851	H85	0.335200	0.598900	0.977900
H861	H86	0.287400	0.570600	0.945400
N491	N49	0.995750	0.754650	0.954330
N501	N50	0.960080	0.785090	0.929570
N511	N51	0.881580	0.741590	0.912370
N521	N52	0.008700	0.587660	0.011300
H871	H87	0.040000	0.583000	0.043600
H881	H88	0.987400	0.570900	0.989300
N531	N53	0.676300	0.875870	0.804600
H891	H89	0.637100	0.875100	0.811500
H901	H90	0.683200	0.892200	0.783400
N541	N54	0.182630	0.735220	0.046700
N551	N55	0.279960	0.704140	0.088330
N561	N56	0.224130	0.753430	0.093800
N571	N57	0.077700	0.594720	0.900500
H911	H91	0.082700	0.573500	0.913000
H921	H92	0.048800	0.599200	0.867200
N581	N58	0.481500	0.773900	0.328700
H931	H93	0.506600	0.758000	0.350900
H941	H94	0.486500	0.795600	0.338800
C851	C85	0.591200	0.748200	0.938700
C861	C86	0.598600	0.713630	0.954700
H951	H95	0.640100	0.706200	0.982600
C871	C87	0.545100	0.689460	0.930000
H961	H96	0.551100	0.666100	0.941200
C881	C88	0.482900	0.700140	0.888690
C891	C89	0.474800	0.735070	0.873900
H971	H97	0.432500	0.742800	0.847400
C901	C90	0.528600	0.758860	0.898000
H981	H98	0.522800	0.782300	0.886700
C911	C91	0.430000	0.674160	0.856170
C921	C92	0.156300	0.611100	0.800400
H991	H99	0.128500	0.607500	0.822900
C931	C93	0.132200	0.599400	0.743400
C941	C94	0.170700	0.606500	0.711600
H1001	H100	0.154500	0.599500	0.674000
C951	C95	0.234900	0.624120	0.733000
H1011	H101	0.260900	0.629100	0.709500
C961	C96	0.260700	0.634340	0.788990
C971	C97	0.220700	0.627820	0.822200
H1021	H102	0.237100	0.634700	0.859900
C981	C98	0.333600	0.647290	0.811670
C991	C99	0.852600	0.949800	0.964000
C1001	C100	0.851200	0.914300	0.948700
H1031	H103	0.814500	0.900000	0.950800
C1011	C101	0.903200	0.900240	0.930700
H1041	H104	0.902300	0.876400	0.922200
C1021	C102	0.956800	0.921140	0.925100
C1031	C103	0.958800	0.956090	0.941400
H1051	H105	0.995300	0.970500	0.939300
C1041	C104	0.907600	0.969740	0.960600
H1061	H106	0.910500	0.993200	0.971600
C1051	C105	0.013200	0.906850	0.906280
C1061	C106	0.272700	0.952060	0.889300
H1071	H107	0.297400	0.972000	0.906600
C1071	C107	0.299300	0.931210	0.856200
C1081	C108	0.260400	0.902510	0.828600
H1081	H108	0.276700	0.889000	0.804700
C1091	C109	0.197600	0.893970	0.836600
H1091	H109	0.172500	0.874300	0.818700
C1101	C110	0.171100	0.914000	0.870700
C1111	C111	0.209700	0.943390	0.896800
H1101	H110	0.192700	0.957400	0.919700
C1121	C112	0.106900	0.904190	0.882840
C1131	C113	0.811000	0.598370	0.995600
C1141	C114	0.775400	0.585500	0.942500
H1111	H111	0.779900	0.561900	0.934700
C1151	C115	0.732800	0.607390	0.900600
H1121	H112	0.708500	0.598200	0.865000
C1161	C116	0.725800	0.642470	0.910700
C1171	C117	0.761400	0.655120	0.964400
H1131	H113	0.756800	0.678700	0.972400
C1181	C118	0.803500	0.633570	0.006400
H1141	H114	0.827100	0.642700	0.042100
C1191	C119	0.682100	0.666370	0.866080
C1201	C120	0.695500	0.780340	0.723400
H1151	H115	0.730900	0.785000	0.708300
C1211	C121	0.700400	0.750600	0.756100
H1161	H116	0.738500	0.735300	0.762100
C1221	C122	0.648700	0.743520	0.779970
C1231	C123	0.593500	0.767310	0.771910
H1171	H117	0.559500	0.763300	0.788800
C1241	C124	0.588800	0.796740	0.739000
H1181	H118	0.551700	0.812500	0.734200
C1251	C125	0.638600	0.803230	0.712900
C1261	C126	0.649500	0.710780	0.810760
C1271	C127	0.732900	0.498290	0.747900
H1191	H119	0.776200	0.506200	0.746600
C1281	C128	0.703700	0.467170	0.720300
C1291	C129	0.641300	0.455100	0.724900
H1201	H120	0.622200	0.434000	0.707900
C1301	C130	0.606100	0.474110	0.754500
H1211	H121	0.564000	0.465600	0.757500
C1311	C131	0.633800	0.505930	0.779770
C1321	C132	0.698000	0.517330	0.777000
H1221	H122	0.718000	0.538100	0.795000
C1331	C133	0.593400	0.528800	0.805070
C1341	C134	0.364400	0.545980	0.890200
H1231	H123	0.322200	0.533400	0.880200
C1351	C135	0.375400	0.573690	0.928300
C1361	C136	0.438300	0.592010	0.941300
H1241	H124	0.446300	0.610900	0.966200
C1371	C137	0.489500	0.583250	0.918470
H1251	H125	0.531800	0.595900	0.928600
C1381	C138	0.478400	0.555350	0.880130
C1391	C139	0.415700	0.537010	0.867200
H1261	H126	0.407600	0.518100	0.842300
C1401	C140	0.528100	0.549880	0.849810
C1411	C141	0.992600	0.622170	0.995000
C1421	C142	0.942100	0.630600	0.942900
H1271	H127	0.918200	0.612700	0.918800
C1431	C143	0.927100	0.664990	0.926500
H1281	H128	0.893000	0.669900	0.891600
C1441	C144	0.962300	0.692650	0.961150
C1451	C145	0.012000	0.683950	0.013200
H1291	H129	0.036200	0.701800	0.037200
C1461	C146	0.026300	0.649630	0.029900
H1301	H130	0.059200	0.644700	0.065300
C1471	C147	0.947500	0.729250	0.943430
C1481	C148	0.728200	0.850860	0.827600
C1491	C149	0.792000	0.851420	0.816600
H1311	H131	0.799000	0.868500	0.792500
C1501	C150	0.844700	0.827340	0.840600
H1321	H132	0.887000	0.828500	0.833000
C1511	C151	0.835600	0.801090	0.876140
C1521	C152	0.770600	0.800130	0.885700
H1331	H133	0.762600	0.782700	0.908800
C1531	C153	0.718600	0.824490	0.861600
H1341	H134	0.675800	0.823100	0.868500
C1541	C154	0.892400	0.776170	0.904840
C1551	C155	0.110400	0.656210	0.914800
H1351	H135	0.082100	0.660800	0.877700
C1561	C156	0.117000	0.622120	0.934700
C1571	C157	0.163500	0.615420	0.988100
H1361	H136	0.172100	0.592400	0.000700
C1581	C158	0.197400	0.642410	0.022700
H1371	H137	0.227400	0.637400	0.059100
C1591	C159	0.187800	0.677310	0.004670
C1601	C160	0.145600	0.683800	0.949600
H1381	H138	0.140500	0.706600	0.935600
C1611	C161	0.217100	0.705730	0.044890
C1621	C162	0.432300	0.764400	0.276100
C1631	C163	0.391800	0.789400	0.239200
H1391	H139	0.396300	0.813000	0.249600
C1641	C164	0.344900	0.779640	0.187300
H1401	H140	0.318400	0.796800	0.162900
C1651	C165	0.336500	0.744600	0.170650
C1661	C166	0.377300	0.719820	0.208400
H1411	H141	0.372600	0.696200	0.198400
C1671	C167	0.424800	0.729600	0.260400
H1421	H142	0.451700	0.712600	0.284900
C1681	C168	0.281800	0.734170	0.117710
N591	N59	0.802500	0.964100	0.983100
N601	N60	0.065500	0.581600	0.720900
H1431	H143	0.050100	0.575300	0.686100
H1441	H144	0.040900	0.577100	0.742200
Cu171	Cu17	0.960790	0.127440	0.668480
Cu181	Cu18	0.406250	0.254580	0.499880
Cu191	Cu19	0.704500	0.218030	0.617760
Cu201	Cu20	0.493250	0.328760	0.567880
Cu211	Cu21	0.183540	0.206950	0.617070
Cu221	Cu22	0.947960	0.973940	0.634530
Cu231	Cu23	0.150580	0.169040	0.408030
Cu241	Cu24	0.890830	0.094080	0.753360
Br31	Br3	0.369150	0.320940	0.489090
N611	N61	0.051860	0.147660	0.670230
N621	N62	0.140750	0.175050	0.653530
N631	N63	0.114010	0.130220	0.698550
N641	N64	0.853800	0.271960	0.537700
H1451	H145	0.814900	0.265000	0.512800
H1461	H146	0.858800	0.293600	0.547900
N651	N65	0.408210	0.371440	0.607270
N661	N66	0.441390	0.427140	0.610460
N671	N67	0.468690	0.373200	0.592080
N681	N68	0.134500	0.439100	0.649000
H1471	H147	0.110600	0.456900	0.631600
H1481	H148	0.118100	0.426100	0.669700
H1491	H149	0.732400	0.451000	0.514500
H1501	H150	0.695900	0.485600	0.508400
N691	N69	0.885560	0.161170	0.664220
N701	N70	0.906080	0.189890	0.699950
N711	N71	0.793360	0.197230	0.648190
N721	N72	0.647300	0.076420	0.461200
H1511	H151	0.643600	0.054500	0.467700
H1521	H152	0.625400	0.084900	0.428200
N731	N73	0.867900	0.331680	0.822100
H1531	H153	0.836500	0.335400	0.837700
H1541	H154	0.903400	0.345700	0.828300
N741	N74	0.907850	0.063320	0.701750
N751	N75	0.949270	0.076950	0.672470
N761	N76	0.761500	0.947950	0.809500
H1551	H155	0.779200	0.928400	0.825200
H1561	H156	0.722400	0.955600	0.812200
N771	N77	0.946150	0.019060	0.662870
N781	N78	0.173400	0.082120	0.546300
H1571	H157	0.164800	0.098900	0.522100
H1581	H158	0.212600	0.070600	0.554600
N791	N79	0.504250	0.254650	0.545670
N801	N80	0.539920	0.285090	0.570430
N811	N81	0.618420	0.241590	0.587630
N821	N82	0.491300	0.087660	0.488700
H1591	H159	0.460000	0.083000	0.456400
H1601	H160	0.512600	0.070900	0.510700
N831	N83	0.823700	0.375870	0.695400
H1611	H161	0.862900	0.375100	0.688500
H1621	H162	0.816800	0.392200	0.716600
N841	N84	0.317370	0.235220	0.453300
N851	N85	0.220040	0.204140	0.411670
N861	N86	0.275870	0.253430	0.406200
N871	N87	0.422300	0.094720	0.599500
H1631	H163	0.417300	0.073500	0.587000
H1641	H164	0.451200	0.099200	0.632800
N881	N88	0.018500	0.273900	0.171300
H1651	H165	0.993400	0.258000	0.149100
H1661	H166	0.013500	0.295600	0.161200
C1691	C169	0.908800	0.248200	0.561300
C1701	C170	0.901400	0.213630	0.545300
H1671	H167	0.859900	0.206200	0.517400
C1711	C171	0.954900	0.189460	0.570000
H1681	H168	0.948900	0.166100	0.558800
C1721	C172	0.017100	0.200140	0.611310
C1731	C173	0.025200	0.235070	0.626100
H1691	H169	0.067500	0.242800	0.652600
C1741	C174	0.971400	0.258860	0.602000
H1701	H170	0.977200	0.282300	0.613300
C1751	C175	0.070000	0.174160	0.643830
C1761	C176	0.343700	0.111100	0.699600
H1711	H171	0.371500	0.107500	0.677100
C1771	C177	0.367800	0.099400	0.756600
C1781	C178	0.329300	0.106500	0.788400
H1721	H172	0.345500	0.099500	0.826000
C1791	C179	0.265100	0.124120	0.767000
H1731	H173	0.239100	0.129100	0.790500
C1801	C180	0.239300	0.134340	0.711010
C1811	C181	0.279300	0.127820	0.677800
H1741	H174	0.262900	0.134700	0.640100
C1821	C182	0.166400	0.147290	0.688330
C1831	C183	0.647400	0.449800	0.536000
C1841	C184	0.648800	0.414300	0.551300
H1751	H175	0.685500	0.400000	0.549200
C1851	C185	0.596800	0.400240	0.569300
H1761	H176	0.597700	0.376400	0.577800
C1861	C186	0.543200	0.421140	0.574900
C1871	C187	0.541200	0.456090	0.558600
H1771	H177	0.504700	0.470500	0.560700
C1881	C188	0.592400	0.469740	0.539400
H1781	H178	0.589500	0.493200	0.528400
C1891	C189	0.486800	0.406850	0.593720
C1901	C190	0.227300	0.452060	0.610700
H1791	H179	0.202600	0.472000	0.593400
C1911	C191	0.200700	0.431210	0.643800
C1921	C192	0.239600	0.402510	0.671400
H1801	H180	0.223300	0.389000	0.695300
C1931	C193	0.302400	0.393970	0.663400
H1811	H181	0.327500	0.374300	0.681300
C1941	C194	0.328900	0.414000	0.629300
C1951	C195	0.290300	0.443390	0.603200
H1821	H182	0.307300	0.457400	0.580300
C1961	C196	0.393100	0.404190	0.617160
C1971	C197	0.689000	0.098370	0.504400
C1981	C198	0.724600	0.085500	0.557500
H1831	H183	0.720100	0.061900	0.565300
C1991	C199	0.767200	0.107390	0.599400
H1841	H184	0.791500	0.098200	0.635000
C2001	C200	0.774200	0.142470	0.589300
C2011	C201	0.738600	0.155120	0.535600
H1851	H185	0.743200	0.178700	0.527600
C2021	C202	0.696500	0.133570	0.493600
H1861	H186	0.672900	0.142700	0.457900
C2031	C203	0.817900	0.166370	0.633920
C2041	C204	0.804500	0.280340	0.776600
H1871	H187	0.769100	0.285000	0.791700
C2051	C205	0.799600	0.250600	0.743900
H1881	H188	0.761500	0.235300	0.737900
C2061	C206	0.851300	0.243520	0.720030
C2071	C207	0.906500	0.267310	0.728090
H1891	H189	0.940500	0.263300	0.711200
C2081	C208	0.911200	0.296740	0.761000
H1901	H190	0.948300	0.312500	0.765800
C2091	C209	0.861400	0.303230	0.787100
C2101	C210	0.850500	0.210780	0.689240
C2111	C211	0.767100	0.998290	0.752100
H1911	H191	0.723800	0.006200	0.753400
C2121	C212	0.796300	0.967170	0.779700
C2131	C213	0.858700	0.955100	0.775100
H1921	H192	0.877800	0.934000	0.792100
C2141	C214	0.893900	0.974110	0.745500
H1931	H193	0.936000	0.965600	0.742500
C2151	C215	0.866200	0.005930	0.720230
C2161	C216	0.802000	0.017330	0.723000
H1941	H194	0.782000	0.038100	0.705000
C2171	C217	0.906600	0.028800	0.694930
C2181	C218	0.135600	0.045980	0.609800
H1951	H195	0.177800	0.033400	0.619800
C2191	C219	0.124600	0.073690	0.571700
C2201	C220	0.061700	0.092010	0.558700
H1961	H196	0.053700	0.110900	0.533800
C2211	C221	0.010500	0.083250	0.581530
H1971	H197	0.968200	0.095900	0.571400
C2221	C222	0.021600	0.055350	0.619870
C2231	C223	0.084300	0.037010	0.632800
H1981	H198	0.092400	0.018100	0.657700
C2241	C224	0.971900	0.049880	0.650190
C2251	C225	0.507400	0.122170	0.505000
C2261	C226	0.557900	0.130600	0.557100
H1991	H199	0.581800	0.112700	0.581200
C2271	C227	0.572900	0.164990	0.573500
H2001	H200	0.607000	0.169900	0.608400
C2281	C228	0.537700	0.192650	0.538850
C2291	C229	0.488000	0.183950	0.486800
H2011	H201	0.463800	0.201800	0.462800
C2301	C230	0.473700	0.149630	0.470100
H2021	H202	0.440800	0.144700	0.434700
C2311	C231	0.552500	0.229250	0.556570
C2321	C232	0.771800	0.350860	0.672400
C2331	C233	0.708000	0.351420	0.683400
H2031	H203	0.701000	0.368500	0.707500
C2341	C234	0.655300	0.327340	0.659400
H2041	H204	0.613000	0.328500	0.667000
C2351	C235	0.664400	0.301090	0.623860
C2361	C236	0.729400	0.300130	0.614300
H2051	H205	0.737400	0.282700	0.591200
C2371	C237	0.781400	0.324490	0.638400
H2061	H206	0.824200	0.323100	0.631500
C2381	C238	0.607600	0.276170	0.595160
C2391	C239	0.389600	0.156210	0.585200
H2071	H207	0.417900	0.160800	0.622300
C2401	C240	0.383000	0.122120	0.565300
C2411	C241	0.336500	0.115420	0.511900
H2081	H208	0.327900	0.092400	0.499300
C2421	C242	0.302600	0.142410	0.477300
H2091	H209	0.272600	0.137400	0.440900
C2431	C243	0.312200	0.177310	0.495330
C2441	C244	0.354400	0.183800	0.550400
H2101	H210	0.359500	0.206600	0.564400
C2451	C245	0.282900	0.205730	0.455110
C2461	C246	0.067700	0.264400	0.223900
C2471	C247	0.108200	0.289400	0.260800
H2111	H211	0.103700	0.313000	0.250400
C2481	C248	0.155100	0.279640	0.312700
H2121	H212	0.181600	0.296800	0.337100
C2491	C249	0.163500	0.244600	0.329350
C2501	C250	0.122700	0.219820	0.291600
H2131	H213	0.127400	0.196200	0.301600
C2511	C251	0.075200	0.229600	0.239600
H2141	H214	0.048300	0.212600	0.215100
C2521	C252	0.218200	0.234170	0.382290
N891	N89	0.697500	0.464100	0.516900
N901	N90	0.434500	0.081600	0.779100
H2151	H215	0.449900	0.075300	0.813900
H2161	H216	0.459100	0.077100	0.757800
Cu251	Cu25	0.460790	0.627440	0.668480
Cu261	Cu26	0.906250	0.754580	0.499880
Cu271	Cu27	0.204500	0.718030	0.617760
Cu281	Cu28	0.993250	0.828760	0.567880
Cu291	Cu29	0.683540	0.706950	0.617070
Cu301	Cu30	0.447960	0.473940	0.634530
Cu311	Cu31	0.650580	0.669040	0.408030
Cu321	Cu32	0.390830	0.594080	0.753360
Br41	Br4	0.869150	0.820940	0.489090
N911	N91	0.551860	0.647660	0.670230
N921	N92	0.640750	0.675050	0.653530
N931	N93	0.614010	0.630220	0.698550
N941	N94	0.353800	0.771960	0.537700
H2171	H217	0.314900	0.765000	0.512800
H2181	H218	0.358800	0.793600	0.547900
N951	N95	0.908210	0.871440	0.607270
N961	N96	0.941390	0.927140	0.610460
N971	N97	0.968690	0.873200	0.592080
N981	N98	0.634500	0.939100	0.649000
H2191	H219	0.610600	0.956900	0.631600
H2201	H220	0.618100	0.926100	0.669700
H2211	H221	0.232400	0.951000	0.514500
H2221	H222	0.195900	0.985600	0.508400
N991	N99	0.385560	0.661170	0.664220
N1001	N100	0.406080	0.689890	0.699950
N1011	N101	0.293360	0.697230	0.648190
N1021	N102	0.147300	0.576420	0.461200
H2231	H223	0.143600	0.554500	0.467700
H2241	H224	0.125400	0.584900	0.428200
N1031	N103	0.367900	0.831680	0.822100
H2251	H225	0.336500	0.835400	0.837700
H2261	H226	0.403400	0.845700	0.828300
N1041	N104	0.407850	0.563320	0.701750
N1051	N105	0.449270	0.576950	0.672470
N1061	N106	0.261500	0.447950	0.809500
H2271	H227	0.279200	0.428400	0.825200
H2281	H228	0.222400	0.455600	0.812200
N1071	N107	0.446150	0.519060	0.662870
N1081	N108	0.673400	0.582120	0.546300
H2291	H229	0.664800	0.598900	0.522100
H2301	H230	0.712600	0.570600	0.554600
N1091	N109	0.004250	0.754650	0.545670
N1101	N110	0.039920	0.785090	0.570430
N1111	N111	0.118420	0.741590	0.587630
N1121	N112	0.991300	0.587660	0.488700
H2311	H231	0.960000	0.583000	0.456400
H2321	H232	0.012600	0.570900	0.510700
N1131	N113	0.323700	0.875870	0.695400
H2331	H233	0.362900	0.875100	0.688500
H2341	H234	0.316800	0.892200	0.716600
N1141	N114	0.817370	0.735220	0.453300
N1151	N115	0.720040	0.704140	0.411670
N1161	N116	0.775870	0.753430	0.406200
N1171	N117	0.922300	0.594720	0.599500
H2351	H235	0.917300	0.573500	0.587000
H2361	H236	0.951200	0.599200	0.632800
N1181	N118	0.518500	0.773900	0.171300
H2371	H237	0.493400	0.758000	0.149100
H2381	H238	0.513500	0.795600	0.161200
C2531	C253	0.408800	0.748200	0.561300
C2541	C254	0.401400	0.713630	0.545300
H2391	H239	0.359900	0.706200	0.517400
C2551	C255	0.454900	0.689460	0.570000
H2401	H240	0.448900	0.666100	0.558800
C2561	C256	0.517100	0.700140	0.611310
C2571	C257	0.525200	0.735070	0.626100
H2411	H241	0.567500	0.742800	0.652600
C2581	C258	0.471400	0.758860	0.602000
H2421	H242	0.477200	0.782300	0.613300
C2591	C259	0.570000	0.674160	0.643830
C2601	C260	0.843700	0.611100	0.699600
H2431	H243	0.871500	0.607500	0.677100
C2611	C261	0.867800	0.599400	0.756600
C2621	C262	0.829300	0.606500	0.788400
H2441	H244	0.845500	0.599500	0.826000
C2631	C263	0.765100	0.624120	0.767000
H2451	H245	0.739100	0.629100	0.790500
C2641	C264	0.739300	0.634340	0.711010
C2651	C265	0.779300	0.627820	0.677800
H2461	H246	0.762900	0.634700	0.640100
C2661	C266	0.666400	0.647290	0.688330
C2671	C267	0.147400	0.949800	0.536000
C2681	C268	0.148800	0.914300	0.551300
H2471	H247	0.185500	0.900000	0.549200
C2691	C269	0.096800	0.900240	0.569300
H2481	H248	0.097700	0.876400	0.577800
C2701	C270	0.043200	0.921140	0.574900
C2711	C271	0.041200	0.956090	0.558600
H2491	H249	0.004700	0.970500	0.560700
C2721	C272	0.092400	0.969740	0.539400
H2501	H250	0.089500	0.993200	0.528400
C2731	C273	0.986800	0.906850	0.593720
C2741	C274	0.727300	0.952060	0.610700
H2511	H251	0.702600	0.972000	0.593400
C2751	C275	0.700700	0.931210	0.643800
C2761	C276	0.739600	0.902510	0.671400
H2521	H252	0.723300	0.889000	0.695300
C2771	C277	0.802400	0.893970	0.663400
H2531	H253	0.827500	0.874300	0.681300
C2781	C278	0.828900	0.914000	0.629300
C2791	C279	0.790300	0.943390	0.603200
H2541	H254	0.807300	0.957400	0.580300
C2801	C280	0.893100	0.904190	0.617160
C2811	C281	0.189000	0.598370	0.504400
C2821	C282	0.224600	0.585500	0.557500
H2551	H255	0.220100	0.561900	0.565300
C2831	C283	0.267200	0.607390	0.599400
H2561	H256	0.291500	0.598200	0.635000
C2841	C284	0.274200	0.642470	0.589300
C2851	C285	0.238600	0.655120	0.535600
H2571	H257	0.243200	0.678700	0.527600
C2861	C286	0.196500	0.633570	0.493600
H2581	H258	0.172900	0.642700	0.457900
C2871	C287	0.317900	0.666370	0.633920
C2881	C288	0.304500	0.780340	0.776600
H2591	H259	0.269100	0.785000	0.791700
C2891	C289	0.299600	0.750600	0.743900
H2601	H260	0.261500	0.735300	0.737900
C2901	C290	0.351300	0.743520	0.720030
C2911	C291	0.406500	0.767310	0.728090
H2611	H261	0.440500	0.763300	0.711200
C2921	C292	0.411200	0.796740	0.761000
H2621	H262	0.448300	0.812500	0.765800
C2931	C293	0.361400	0.803230	0.787100
C2941	C294	0.350500	0.710780	0.689240
C2951	C295	0.267100	0.498290	0.752100
H2631	H263	0.223800	0.506200	0.753400
C2961	C296	0.296300	0.467170	0.779700
C2971	C297	0.358700	0.455100	0.775100
H2641	H264	0.377800	0.434000	0.792100
C2981	C298	0.393900	0.474110	0.745500
H2651	H265	0.436000	0.465600	0.742500
C2991	C299	0.366200	0.505930	0.720230
C3001	C300	0.302000	0.517330	0.723000
H2661	H266	0.282000	0.538100	0.705000
C3011	C301	0.406600	0.528800	0.694930
C3021	C302	0.635600	0.545980	0.609800
H2671	H267	0.677800	0.533400	0.619800
C3031	C303	0.624600	0.573690	0.571700
C3041	C304	0.561700	0.592010	0.558700
H2681	H268	0.553700	0.610900	0.533800
C3051	C305	0.510500	0.583250	0.581530
H2691	H269	0.468200	0.595900	0.571400
C3061	C306	0.521600	0.555350	0.619870
C3071	C307	0.584300	0.537010	0.632800
H2701	H270	0.592400	0.518100	0.657700
C3081	C308	0.471900	0.549880	0.650190
C3091	C309	0.007400	0.622170	0.505000
C3101	C310	0.057900	0.630600	0.557100
H2711	H271	0.081800	0.612700	0.581200
C3111	C311	0.072900	0.664990	0.573500
H2721	H272	0.107000	0.669900	0.608400
C3121	C312	0.037700	0.692650	0.538850
C3131	C313	0.988000	0.683950	0.486800
H2731	H273	0.963800	0.701800	0.462800
C3141	C314	0.973700	0.649630	0.470100
H2741	H274	0.940800	0.644700	0.434700
C3151	C315	0.052500	0.729250	0.556570
C3161	C316	0.271800	0.850860	0.672400
C3171	C317	0.208000	0.851420	0.683400
H2751	H275	0.201000	0.868500	0.707500
C3181	C318	0.155300	0.827340	0.659400
H2761	H276	0.113000	0.828500	0.667000
C3191	C319	0.164400	0.801090	0.623860
C3201	C320	0.229400	0.800130	0.614300
H2771	H277	0.237400	0.782700	0.591200
C3211	C321	0.281400	0.824490	0.638400
H2781	H278	0.324200	0.823100	0.631500
C3221	C322	0.107600	0.776170	0.595160
C3231	C323	0.889600	0.656210	0.585200
H2791	H279	0.917900	0.660800	0.622300
C3241	C324	0.883000	0.622120	0.565300
C3251	C325	0.836500	0.615420	0.511900
H2801	H280	0.827900	0.592400	0.499300
C3261	C326	0.802600	0.642410	0.477300
H2811	H281	0.772600	0.637400	0.440900
C3271	C327	0.812200	0.677310	0.495330
C3281	C328	0.854400	0.683800	0.550400
H2821	H282	0.859500	0.706600	0.564400
C3291	C329	0.782900	0.705730	0.455110
C3301	C330	0.567700	0.764400	0.223900
C3311	C331	0.608200	0.789400	0.260800
H2831	H283	0.603700	0.813000	0.250400
C3321	C332	0.655100	0.779640	0.312700
H2841	H284	0.681600	0.796800	0.337100
C3331	C333	0.663500	0.744600	0.329350
C3341	C334	0.622700	0.719820	0.291600
H2851	H285	0.627400	0.696200	0.301600
C3351	C335	0.575200	0.729600	0.239600
H2861	H286	0.548300	0.712600	0.215100
C3361	C336	0.718200	0.734170	0.382290
N1191	N119	0.197500	0.964100	0.516900
N1201	N120	0.934500	0.581600	0.779100
H2871	H287	0.949900	0.575300	0.813900
H2881	H288	0.959100	0.577100	0.757800
Cu331	Cu33	0.960790	0.872560	0.168480
Cu341	Cu34	0.406250	0.745420	0.999880
Cu351	Cu35	0.704500	0.781970	0.117760
Cu361	Cu36	0.493250	0.671240	0.067880
Cu371	Cu37	0.183540	0.793050	0.117070
Cu381	Cu38	0.947960	0.026060	0.134530
Cu391	Cu39	0.150580	0.830960	0.908030
Cu401	Cu40	0.890830	0.905920	0.253360
Br51	Br5	0.369150	0.679060	0.989090
N1211	N121	0.051860	0.852340	0.170230
N1221	N122	0.140750	0.824950	0.153530
N1231	N123	0.114010	0.869780	0.198550
N1241	N124	0.853800	0.728040	0.037700
H2891	H289	0.814900	0.735000	0.012800
H2901	H290	0.858800	0.706400	0.047900
N1251	N125	0.408210	0.628560	0.107270
N1261	N126	0.441390	0.572860	0.110460
N1271	N127	0.468690	0.626800	0.092080
N1281	N128	0.134500	0.560900	0.149000
H2911	H291	0.110600	0.543100	0.131600
H2921	H292	0.118100	0.573900	0.169700
H2931	H293	0.732400	0.549000	0.014500
H2941	H294	0.695900	0.514400	0.008400
N1291	N129	0.885560	0.838830	0.164220
N1301	N130	0.906080	0.810110	0.199950
N1311	N131	0.793360	0.802770	0.148190
N1321	N132	0.647300	0.923580	0.961200
H2951	H295	0.643600	0.945500	0.967700
H2961	H296	0.625400	0.915100	0.928200
N1331	N133	0.867900	0.668320	0.322100
H2971	H297	0.836500	0.664600	0.337700
H2981	H298	0.903400	0.654300	0.328300
N1341	N134	0.907850	0.936680	0.201750
N1351	N135	0.949270	0.923050	0.172470
N1361	N136	0.761500	0.052050	0.309500
H2991	H299	0.779200	0.071600	0.325200
H3001	H300	0.722400	0.044400	0.312200
N1371	N137	0.946150	0.980940	0.162870
N1381	N138	0.173400	0.917880	0.046300
H3011	H301	0.164800	0.901100	0.022100
H3021	H302	0.212600	0.929400	0.054600
N1391	N139	0.504250	0.745350	0.045670
N1401	N140	0.539920	0.714910	0.070430
N1411	N141	0.618420	0.758410	0.087630
N1421	N142	0.491300	0.912340	0.988700
H3031	H303	0.460000	0.917000	0.956400
H3041	H304	0.512600	0.929100	0.010700
N1431	N143	0.823700	0.624130	0.195400
H3051	H305	0.862900	0.624900	0.188500
H3061	H306	0.816800	0.607800	0.216600
N1441	N144	0.317370	0.764780	0.953300
N1451	N145	0.220040	0.795860	0.911670
N1461	N146	0.275870	0.746570	0.906200
N1471	N147	0.422300	0.905280	0.099500
H3071	H307	0.417300	0.926500	0.087000
H3081	H308	0.451200	0.900800	0.132800
N1481	N148	0.018500	0.726100	0.671300
H3091	H309	0.993400	0.742000	0.649100
H3101	H310	0.013500	0.704400	0.661200
C3371	C337	0.908800	0.751800	0.061300
C3381	C338	0.901400	0.786370	0.045300
H3111	H311	0.859900	0.793800	0.017400
C3391	C339	0.954900	0.810540	0.070000
H3121	H312	0.948900	0.833900	0.058800
C3401	C340	0.017100	0.799860	0.111310
C3411	C341	0.025200	0.764930	0.126100
H3131	H313	0.067500	0.757200	0.152600
C3421	C342	0.971400	0.741140	0.102000
H3141	H314	0.977200	0.717700	0.113300
C3431	C343	0.070000	0.825840	0.143830
C3441	C344	0.343700	0.888900	0.199600
H3151	H315	0.371500	0.892500	0.177100
C3451	C345	0.367800	0.900600	0.256600
C3461	C346	0.329300	0.893500	0.288400
H3161	H316	0.345500	0.900500	0.326000
C3471	C347	0.265100	0.875880	0.267000
H3171	H317	0.239100	0.870900	0.290500
C3481	C348	0.239300	0.865660	0.211010
C3491	C349	0.279300	0.872180	0.177800
H3181	H318	0.262900	0.865300	0.140100
C3501	C350	0.166400	0.852710	0.188330
C3511	C351	0.647400	0.550200	0.036000
C3521	C352	0.648800	0.585700	0.051300
H3191	H319	0.685500	0.600000	0.049200
C3531	C353	0.596800	0.599760	0.069300
H3201	H320	0.597700	0.623600	0.077800
C3541	C354	0.543200	0.578860	0.074900
C3551	C355	0.541200	0.543910	0.058600
H3211	H321	0.504700	0.529500	0.060700
C3561	C356	0.592400	0.530260	0.039400
H3221	H322	0.589500	0.506800	0.028400
C3571	C357	0.486800	0.593150	0.093720
C3581	C358	0.227300	0.547940	0.110700
H3231	H323	0.202600	0.528000	0.093400
C3591	C359	0.200700	0.568790	0.143800
C3601	C360	0.239600	0.597490	0.171400
H3241	H324	0.223300	0.611000	0.195300
C3611	C361	0.302400	0.606030	0.163400
H3251	H325	0.327500	0.625700	0.181300
C3621	C362	0.328900	0.586000	0.129300
C3631	C363	0.290300	0.556610	0.103200
H3261	H326	0.307300	0.542600	0.080300
C3641	C364	0.393100	0.595810	0.117160
C3651	C365	0.689000	0.901630	0.004400
C3661	C366	0.724600	0.914500	0.057500
H3271	H327	0.720100	0.938100	0.065300
C3671	C367	0.767200	0.892610	0.099400
H3281	H328	0.791500	0.901800	0.135000
C3681	C368	0.774200	0.857530	0.089300
C3691	C369	0.738600	0.844880	0.035600
H3291	H329	0.743200	0.821300	0.027600
C3701	C370	0.696500	0.866430	0.993600
H3301	H330	0.672900	0.857300	0.957900
C3711	C371	0.817900	0.833630	0.133920
C3721	C372	0.804500	0.719660	0.276600
H3311	H331	0.769100	0.715000	0.291700
C3731	C373	0.799600	0.749400	0.243900
H3321	H332	0.761500	0.764700	0.237900
C3741	C374	0.851300	0.756480	0.220030
C3751	C375	0.906500	0.732690	0.228090
H3331	H333	0.940500	0.736700	0.211200
C3761	C376	0.911200	0.703260	0.261000
H3341	H334	0.948300	0.687500	0.265800
C3771	C377	0.861400	0.696770	0.287100
C3781	C378	0.850500	0.789220	0.189240
C3791	C379	0.767100	0.001710	0.252100
H3351	H335	0.723800	0.993800	0.253400
C3801	C380	0.796300	0.032830	0.279700
C3811	C381	0.858700	0.044900	0.275100
H3361	H336	0.877800	0.066000	0.292100
C3821	C382	0.893900	0.025890	0.245500
H3371	H337	0.936000	0.034400	0.242500
C3831	C383	0.866200	0.994070	0.220230
C3841	C384	0.802000	0.982670	0.223000
H3381	H338	0.782000	0.961900	0.205000
C3851	C385	0.906600	0.971200	0.194930
C3861	C386	0.135600	0.954020	0.109800
H3391	H339	0.177800	0.966600	0.119800
C3871	C387	0.124600	0.926310	0.071700
C3881	C388	0.061700	0.907990	0.058700
H3401	H340	0.053700	0.889100	0.033800
C3891	C389	0.010500	0.916750	0.081530
H3411	H341	0.968200	0.904100	0.071400
C3901	C390	0.021600	0.944650	0.119870
C3911	C391	0.084300	0.962990	0.132800
H3421	H342	0.092400	0.981900	0.157700
C3921	C392	0.971900	0.950120	0.150190
C3931	C393	0.507400	0.877830	0.005000
C3941	C394	0.557900	0.869400	0.057100
H3431	H343	0.581800	0.887300	0.081200
C3951	C395	0.572900	0.835010	0.073500
H3441	H344	0.607000	0.830100	0.108400
C3961	C396	0.537700	0.807350	0.038850
C3971	C397	0.488000	0.816050	0.986800
H3451	H345	0.463800	0.798200	0.962800
C3981	C398	0.473700	0.850370	0.970100
H3461	H346	0.440800	0.855300	0.934700
C3991	C399	0.552500	0.770750	0.056570
C4001	C400	0.771800	0.649140	0.172400
C4011	C401	0.708000	0.648580	0.183400
H3471	H347	0.701000	0.631500	0.207500
C4021	C402	0.655300	0.672660	0.159400
H3481	H348	0.613000	0.671500	0.167000
C4031	C403	0.664400	0.698910	0.123860
C4041	C404	0.729400	0.699870	0.114300
H3491	H349	0.737400	0.717300	0.091200
C4051	C405	0.781400	0.675510	0.138400
H3501	H350	0.824200	0.676900	0.131500
C4061	C406	0.607600	0.723830	0.095160
C4071	C407	0.389600	0.843790	0.085200
H3511	H351	0.417900	0.839200	0.122300
C4081	C408	0.383000	0.877880	0.065300
C4091	C409	0.336500	0.884580	0.011900
H3521	H352	0.327900	0.907600	0.999300
C4101	C410	0.302600	0.857590	0.977300
H3531	H353	0.272600	0.862600	0.940900
C4111	C411	0.312200	0.822690	0.995330
C4121	C412	0.354400	0.816200	0.050400
H3541	H354	0.359500	0.793400	0.064400
C4131	C413	0.282900	0.794270	0.955110
C4141	C414	0.067700	0.735600	0.723900
C4151	C415	0.108200	0.710600	0.760800
H3551	H355	0.103700	0.687000	0.750400
C4161	C416	0.155100	0.720360	0.812700
H3561	H356	0.181600	0.703200	0.837100
C4171	C417	0.163500	0.755400	0.829350
C4181	C418	0.122700	0.780180	0.791600
H3571	H357	0.127400	0.803800	0.801600
C4191	C419	0.075200	0.770400	0.739600
H3581	H358	0.048300	0.787400	0.715100
C4201	C420	0.218200	0.765830	0.882290
N1491	N149	0.697500	0.535900	0.016900
N1501	N150	0.434500	0.918400	0.279100
H3591	H359	0.449900	0.924700	0.313900
H3601	H360	0.459100	0.922900	0.257800
Cu411	Cu41	0.460790	0.372560	0.168480
Cu421	Cu42	0.906250	0.245420	0.999880
Cu431	Cu43	0.204500	0.281970	0.117760
Cu441	Cu44	0.993250	0.171240	0.067880
Cu451	Cu45	0.683540	0.293050	0.117070
Cu461	Cu46	0.447960	0.526060	0.134530
Cu471	Cu47	0.650580	0.330960	0.908030
Cu481	Cu48	0.390830	0.405920	0.253360
Br61	Br6	0.869150	0.179060	0.989090
N1511	N151	0.551860	0.352340	0.170230
N1521	N152	0.640750	0.324950	0.153530
N1531	N153	0.614010	0.369780	0.198550
N1541	N154	0.353800	0.228040	0.037700
H3611	H361	0.314900	0.235000	0.012800
H3621	H362	0.358800	0.206400	0.047900
N1551	N155	0.908210	0.128560	0.107270
N1561	N156	0.941390	0.072860	0.110460
N1571	N157	0.968690	0.126800	0.092080
N1581	N158	0.634500	0.060900	0.149000
H3631	H363	0.610600	0.043100	0.131600
H3641	H364	0.618100	0.073900	0.169700
H3651	H365	0.232400	0.049000	0.014500
H3661	H366	0.195900	0.014400	0.008400
N1591	N159	0.385560	0.338830	0.164220
N1601	N160	0.406080	0.310110	0.199950
N1611	N161	0.293360	0.302770	0.148190
N1621	N162	0.147300	0.423580	0.961200
H3671	H367	0.143600	0.445500	0.967700
H3681	H368	0.125400	0.415100	0.928200
N1631	N163	0.367900	0.168320	0.322100
H3691	H369	0.336500	0.164600	0.337700
H3701	H370	0.403400	0.154300	0.328300
N1641	N164	0.407850	0.436680	0.201750
N1651	N165	0.449270	0.423050	0.172470
N1661	N166	0.261500	0.552050	0.309500
H3711	H371	0.279200	0.571600	0.325200
H3721	H372	0.222400	0.544400	0.312200
N1671	N167	0.446150	0.480940	0.162870
N1681	N168	0.673400	0.417880	0.046300
H3731	H373	0.664800	0.401100	0.022100
H3741	H374	0.712600	0.429400	0.054600
N1691	N169	0.004250	0.245350	0.045670
N1701	N170	0.039920	0.214910	0.070430
N1711	N171	0.118420	0.258410	0.087630
N1721	N172	0.991300	0.412340	0.988700
H3751	H375	0.960000	0.417000	0.956400
H3761	H376	0.012600	0.429100	0.010700
N1731	N173	0.323700	0.124130	0.195400
H3771	H377	0.362900	0.124900	0.188500
H3781	H378	0.316800	0.107800	0.216600
N1741	N174	0.817370	0.264780	0.953300
N1751	N175	0.720040	0.295860	0.911670
N1761	N176	0.775870	0.246570	0.906200
N1771	N177	0.922300	0.405280	0.099500
H3791	H379	0.917300	0.426500	0.087000
H3801	H380	0.951200	0.400800	0.132800
N1781	N178	0.518500	0.226100	0.671300
H3811	H381	0.493400	0.242000	0.649100
H3821	H382	0.513500	0.204400	0.661200
C4211	C421	0.408800	0.251800	0.061300
C4221	C422	0.401400	0.286370	0.045300
H3831	H383	0.359900	0.293800	0.017400
C4231	C423	0.454900	0.310540	0.070000
H3841	H384	0.448900	0.333900	0.058800
C4241	C424	0.517100	0.299860	0.111310
C4251	C425	0.525200	0.264930	0.126100
H3851	H385	0.567500	0.257200	0.152600
C4261	C426	0.471400	0.241140	0.102000
H3861	H386	0.477200	0.217700	0.113300
C4271	C427	0.570000	0.325840	0.143830
C4281	C428	0.843700	0.388900	0.199600
H3871	H387	0.871500	0.392500	0.177100
C4291	C429	0.867800	0.400600	0.256600
C4301	C430	0.829300	0.393500	0.288400
H3881	H388	0.845500	0.400500	0.326000
C4311	C431	0.765100	0.375880	0.267000
H3891	H389	0.739100	0.370900	0.290500
C4321	C432	0.739300	0.365660	0.211010
C4331	C433	0.779300	0.372180	0.177800
H3901	H390	0.762900	0.365300	0.140100
C4341	C434	0.666400	0.352710	0.188330
C4351	C435	0.147400	0.050200	0.036000
C4361	C436	0.148800	0.085700	0.051300
H3911	H391	0.185500	0.100000	0.049200
C4371	C437	0.096800	0.099760	0.069300
H3921	H392	0.097700	0.123600	0.077800
C4381	C438	0.043200	0.078860	0.074900
C4391	C439	0.041200	0.043910	0.058600
H3931	H393	0.004700	0.029500	0.060700
C4401	C440	0.092400	0.030260	0.039400
H3941	H394	0.089500	0.006800	0.028400
C4411	C441	0.986800	0.093150	0.093720
C4421	C442	0.727300	0.047940	0.110700
H3951	H395	0.702600	0.028000	0.093400
C4431	C443	0.700700	0.068790	0.143800
C4441	C444	0.739600	0.097490	0.171400
H3961	H396	0.723300	0.111000	0.195300
C4451	C445	0.802400	0.106030	0.163400
H3971	H397	0.827500	0.125700	0.181300
C4461	C446	0.828900	0.086000	0.129300
C4471	C447	0.790300	0.056610	0.103200
H3981	H398	0.807300	0.042600	0.080300
C4481	C448	0.893100	0.095810	0.117160
C4491	C449	0.189000	0.401630	0.004400
C4501	C450	0.224600	0.414500	0.057500
H3991	H399	0.220100	0.438100	0.065300
C4511	C451	0.267200	0.392610	0.099400
H4001	H400	0.291500	0.401800	0.135000
C4521	C452	0.274200	0.357530	0.089300
C4531	C453	0.238600	0.344880	0.035600
H4011	H401	0.243200	0.321300	0.027600
C4541	C454	0.196500	0.366430	0.993600
H4021	H402	0.172900	0.357300	0.957900
C4551	C455	0.317900	0.333630	0.133920
C4561	C456	0.304500	0.219660	0.276600
H4031	H403	0.269100	0.215000	0.291700
C4571	C457	0.299600	0.249400	0.243900
H4041	H404	0.261500	0.264700	0.237900
C4581	C458	0.351300	0.256480	0.220030
C4591	C459	0.406500	0.232690	0.228090
H4051	H405	0.440500	0.236700	0.211200
C4601	C460	0.411200	0.203260	0.261000
H4061	H406	0.448300	0.187500	0.265800
C4611	C461	0.361400	0.196770	0.287100
C4621	C462	0.350500	0.289220	0.189240
C4631	C463	0.267100	0.501710	0.252100
H4071	H407	0.223800	0.493800	0.253400
C4641	C464	0.296300	0.532830	0.279700
C4651	C465	0.358700	0.544900	0.275100
H4081	H408	0.377800	0.566000	0.292100
C4661	C466	0.393900	0.525890	0.245500
H4091	H409	0.436000	0.534400	0.242500
C4671	C467	0.366200	0.494070	0.220230
C4681	C468	0.302000	0.482670	0.223000
H4101	H410	0.282000	0.461900	0.205000
C4691	C469	0.406600	0.471200	0.194930
C4701	C470	0.635600	0.454020	0.109800
H4111	H411	0.677800	0.466600	0.119800
C4711	C471	0.624600	0.426310	0.071700
C4721	C472	0.561700	0.407990	0.058700
H4121	H412	0.553700	0.389100	0.033800
C4731	C473	0.510500	0.416750	0.081530
H4131	H413	0.468200	0.404100	0.071400
C4741	C474	0.521600	0.444650	0.119870
C4751	C475	0.584300	0.462990	0.132800
H4141	H414	0.592400	0.481900	0.157700
C4761	C476	0.471900	0.450120	0.150190
C4771	C477	0.007400	0.377830	0.005000
C4781	C478	0.057900	0.369400	0.057100
H4151	H415	0.081800	0.387300	0.081200
C4791	C479	0.072900	0.335010	0.073500
H4161	H416	0.107000	0.330100	0.108400
C4801	C480	0.037700	0.307350	0.038850
C4811	C481	0.988000	0.316050	0.986800
H4171	H417	0.963800	0.298200	0.962800
C4821	C482	0.973700	0.350370	0.970100
H4181	H418	0.940800	0.355300	0.934700
C4831	C483	0.052500	0.270750	0.056570
C4841	C484	0.271800	0.149140	0.172400
C4851	C485	0.208000	0.148580	0.183400
H4191	H419	0.201000	0.131500	0.207500
C4861	C486	0.155300	0.172660	0.159400
H4201	H420	0.113000	0.171500	0.167000
C4871	C487	0.164400	0.198910	0.123860
C4881	C488	0.229400	0.199870	0.114300
H4211	H421	0.237400	0.217300	0.091200
C4891	C489	0.281400	0.175510	0.138400
H4221	H422	0.324200	0.176900	0.131500
C4901	C490	0.107600	0.223830	0.095160
C4911	C491	0.889600	0.343790	0.085200
H4231	H423	0.917900	0.339200	0.122300
C4921	C492	0.883000	0.377880	0.065300
C4931	C493	0.836500	0.384580	0.011900
H4241	H424	0.827900	0.407600	0.999300
C4941	C494	0.802600	0.357590	0.977300
H4251	H425	0.772600	0.362600	0.940900
C4951	C495	0.812200	0.322690	0.995330
C4961	C496	0.854400	0.316200	0.050400
H4261	H426	0.859500	0.293400	0.064400
C4971	C497	0.782900	0.294270	0.955110
C4981	C498	0.567700	0.235600	0.723900
C4991	C499	0.608200	0.210600	0.760800
H4271	H427	0.603700	0.187000	0.750400
C5001	C500	0.655100	0.220360	0.812700
H4281	H428	0.681600	0.203200	0.837100
C5011	C501	0.663500	0.255400	0.829350
C5021	C502	0.622700	0.280180	0.791600
H4291	H429	0.627400	0.303800	0.801600
C5031	C503	0.575200	0.270400	0.739600
H4301	H430	0.548300	0.287400	0.715100
C5041	C504	0.718200	0.265830	0.882290
N1791	N179	0.197500	0.035900	0.016900
N1801	N180	0.934500	0.418400	0.279100
H4311	H431	0.949900	0.424700	0.313900
H4321	H432	0.959100	0.422900	0.257800
Cu491	Cu49	0.039210	0.872560	0.331520
Cu501	Cu50	0.593750	0.745420	0.500120
Cu511	Cu51	0.295500	0.781970	0.382240
Cu521	Cu52	0.506750	0.671240	0.432120
Cu531	Cu53	0.816460	0.793050	0.382930
Cu541	Cu54	0.052040	0.026060	0.365470
Cu551	Cu55	0.849420	0.830960	0.591970
Cu561	Cu56	0.109170	0.905920	0.246640
Br71	Br7	0.630850	0.679060	0.510910
N1811	N181	0.948140	0.852340	0.329770
N1821	N182	0.859250	0.824950	0.346470
N1831	N183	0.885990	0.869780	0.301450
N1841	N184	0.146200	0.728040	0.462300
H4331	H433	0.185100	0.735000	0.487200
H4341	H434	0.141200	0.706400	0.452100
N1851	N185	0.591790	0.628560	0.392730
N1861	N186	0.558610	0.572860	0.389540
N1871	N187	0.531310	0.626800	0.407920
N1881	N188	0.865500	0.560900	0.351000
H4351	H435	0.889400	0.543100	0.368400
H4361	H436	0.881900	0.573900	0.330300
H4371	H437	0.267600	0.549000	0.485500
H4381	H438	0.304100	0.514400	0.491600
N1891	N189	0.114440	0.838830	0.335780
N1901	N190	0.093920	0.810110	0.300050
N1911	N191	0.206640	0.802770	0.351810
N1921	N192	0.352700	0.923580	0.538800
H4391	H439	0.356400	0.945500	0.532300
H4401	H440	0.374600	0.915100	0.571800
N1931	N193	0.132100	0.668320	0.177900
H4411	H441	0.163500	0.664600	0.162300
H4421	H442	0.096600	0.654300	0.171700
N1941	N194	0.092150	0.936680	0.298250
N1951	N195	0.050730	0.923050	0.327530
N1961	N196	0.238500	0.052050	0.190500
H4431	H443	0.220800	0.071600	0.174800
H4441	H444	0.277600	0.044400	0.187800
N1971	N197	0.053850	0.980940	0.337130
N1981	N198	0.826600	0.917880	0.453700
H4451	H445	0.835200	0.901100	0.477900
H4461	H446	0.787400	0.929400	0.445400
N1991	N199	0.495750	0.745350	0.454330
N2001	N200	0.460080	0.714910	0.429570
N2011	N201	0.381580	0.758410	0.412370
N2021	N202	0.508700	0.912340	0.511300
H4471	H447	0.540000	0.917000	0.543600
H4481	H448	0.487400	0.929100	0.489300
N2031	N203	0.176300	0.624130	0.304600
H4491	H449	0.137100	0.624900	0.311500
H4501	H450	0.183200	0.607800	0.283400
N2041	N204	0.682630	0.764780	0.546700
N2051	N205	0.779960	0.795860	0.588330
N2061	N206	0.724130	0.746570	0.593800
N2071	N207	0.577700	0.905280	0.400500
H4511	H451	0.582700	0.926500	0.413000
H4521	H452	0.548800	0.900800	0.367200
N2081	N208	0.981500	0.726100	0.828700
H4531	H453	0.006600	0.742000	0.850900
H4541	H454	0.986500	0.704400	0.838800
C5051	C505	0.091200	0.751800	0.438700
C5061	C506	0.098600	0.786370	0.454700
H4551	H455	0.140100	0.793800	0.482600
C5071	C507	0.045100	0.810540	0.430000
H4561	H456	0.051100	0.833900	0.441200
C5081	C508	0.982900	0.799860	0.388690
C5091	C509	0.974800	0.764930	0.373900
H4571	H457	0.932500	0.757200	0.347400
C5101	C510	0.028600	0.741140	0.398000
H4581	H458	0.022800	0.717700	0.386700
C5111	C511	0.930000	0.825840	0.356170
C5121	C512	0.656300	0.888900	0.300400
H4591	H459	0.628500	0.892500	0.322900
C5131	C513	0.632200	0.900600	0.243400
C5141	C514	0.670700	0.893500	0.211600
H4601	H460	0.654500	0.900500	0.174000
C5151	C515	0.734900	0.875880	0.233000
H4611	H461	0.760900	0.870900	0.209500
C5161	C516	0.760700	0.865660	0.288990
C5171	C517	0.720700	0.872180	0.322200
H4621	H462	0.737100	0.865300	0.359900
C5181	C518	0.833600	0.852710	0.311670
C5191	C519	0.352600	0.550200	0.464000
C5201	C520	0.351200	0.585700	0.448700
H4631	H463	0.314500	0.600000	0.450800
C5211	C521	0.403200	0.599760	0.430700
H4641	H464	0.402300	0.623600	0.422200
C5221	C522	0.456800	0.578860	0.425100
C5231	C523	0.458800	0.543910	0.441400
H4651	H465	0.495300	0.529500	0.439300
C5241	C524	0.407600	0.530260	0.460600
H4661	H466	0.410500	0.506800	0.471600
C5251	C525	0.513200	0.593150	0.406280
C5261	C526	0.772700	0.547940	0.389300
H4671	H467	0.797400	0.528000	0.406600
C5271	C527	0.799300	0.568790	0.356200
C5281	C528	0.760400	0.597490	0.328600
H4681	H468	0.776700	0.611000	0.304700
C5291	C529	0.697600	0.606030	0.336600
H4691	H469	0.672500	0.625700	0.318700
C5301	C530	0.671100	0.586000	0.370700
C5311	C531	0.709700	0.556610	0.396800
H4701	H470	0.692700	0.542600	0.419700
C5321	C532	0.606900	0.595810	0.382840
C5331	C533	0.311000	0.901630	0.495600
C5341	C534	0.275400	0.914500	0.442500
H4711	H471	0.279900	0.938100	0.434700
C5351	C535	0.232800	0.892610	0.400600
H4721	H472	0.208500	0.901800	0.365000
C5361	C536	0.225800	0.857530	0.410700
C5371	C537	0.261400	0.844880	0.464400
H4731	H473	0.256800	0.821300	0.472400
C5381	C538	0.303500	0.866430	0.506400
H4741	H474	0.327100	0.857300	0.542100
C5391	C539	0.182100	0.833630	0.366080
C5401	C540	0.195500	0.719660	0.223400
H4751	H475	0.230900	0.715000	0.208300
C5411	C541	0.200400	0.749400	0.256100
H4761	H476	0.238500	0.764700	0.262100
C5421	C542	0.148700	0.756480	0.279970
C5431	C543	0.093500	0.732690	0.271910
H4771	H477	0.059500	0.736700	0.288800
C5441	C544	0.088800	0.703260	0.239000
H4781	H478	0.051700	0.687500	0.234200
C5451	C545	0.138600	0.696770	0.212900
C5461	C546	0.149500	0.789220	0.310760
C5471	C547	0.232900	0.001710	0.247900
H4791	H479	0.276200	0.993800	0.246600
C5481	C548	0.203700	0.032830	0.220300
C5491	C549	0.141300	0.044900	0.224900
H4801	H480	0.122200	0.066000	0.207900
C5501	C550	0.106100	0.025890	0.254500
H4811	H481	0.064000	0.034400	0.257500
C5511	C551	0.133800	0.994070	0.279770
C5521	C552	0.198000	0.982670	0.277000
H4821	H482	0.218000	0.961900	0.295000
C5531	C553	0.093400	0.971200	0.305070
C5541	C554	0.864400	0.954020	0.390200
H4831	H483	0.822200	0.966600	0.380200
C5551	C555	0.875400	0.926310	0.428300
C5561	C556	0.938300	0.907990	0.441300
H4841	H484	0.946300	0.889100	0.466200
C5571	C557	0.989500	0.916750	0.418470
H4851	H485	0.031800	0.904100	0.428600
C5581	C558	0.978400	0.944650	0.380130
C5591	C559	0.915700	0.962990	0.367200
H4861	H486	0.907600	0.981900	0.342300
C5601	C560	0.028100	0.950120	0.349810
C5611	C561	0.492600	0.877830	0.495000
C5621	C562	0.442100	0.869400	0.442900
H4871	H487	0.418200	0.887300	0.418800
C5631	C563	0.427100	0.835010	0.426500
H4881	H488	0.393000	0.830100	0.391600
C5641	C564	0.462300	0.807350	0.461150
C5651	C565	0.512000	0.816050	0.513200
H4891	H489	0.536200	0.798200	0.537200
C5661	C566	0.526300	0.850370	0.529900
H4901	H490	0.559200	0.855300	0.565300
C5671	C567	0.447500	0.770750	0.443430
C5681	C568	0.228200	0.649140	0.327600
C5691	C569	0.292000	0.648580	0.316600
H4911	H491	0.299000	0.631500	0.292500
C5701	C570	0.344700	0.672660	0.340600
H4921	H492	0.387000	0.671500	0.333000
C5711	C571	0.335600	0.698910	0.376140
C5721	C572	0.270600	0.699870	0.385700
H4931	H493	0.262600	0.717300	0.408800
C5731	C573	0.218600	0.675510	0.361600
H4941	H494	0.175800	0.676900	0.368500
C5741	C574	0.392400	0.723830	0.404840
C5751	C575	0.610400	0.843790	0.414800
H4951	H495	0.582100	0.839200	0.377700
C5761	C576	0.617000	0.877880	0.434700
C5771	C577	0.663500	0.884580	0.488100
H4961	H496	0.672100	0.907600	0.500700
C5781	C578	0.697400	0.857590	0.522700
H4971	H497	0.727400	0.862600	0.559100
C5791	C579	0.687800	0.822690	0.504670
C5801	C580	0.645600	0.816200	0.449600
H4981	H498	0.640500	0.793400	0.435600
C5811	C581	0.717100	0.794270	0.544890
C5821	C582	0.932300	0.735600	0.776100
C5831	C583	0.891800	0.710600	0.739200
H4991	H499	0.896300	0.687000	0.749600
C5841	C584	0.844900	0.720360	0.687300
H5001	H500	0.818400	0.703200	0.662900
C5851	C585	0.836500	0.755400	0.670650
C5861	C586	0.877300	0.780180	0.708400
H5011	H501	0.872600	0.803800	0.698400
C5871	C587	0.924800	0.770400	0.760400
H5021	H502	0.951700	0.787400	0.784900
C5881	C588	0.781800	0.765830	0.617710
N2091	N209	0.302500	0.535900	0.483100
N2101	N210	0.565500	0.918400	0.220900
H5031	H503	0.550100	0.924700	0.186100
H5041	H504	0.540900	0.922900	0.242200
Cu571	Cu57	0.539210	0.372560	0.331520
Cu581	Cu58	0.093750	0.245420	0.500120
Cu591	Cu59	0.795500	0.281970	0.382240
Cu601	Cu60	0.006750	0.171240	0.432120
Cu611	Cu61	0.316460	0.293050	0.382930
Cu621	Cu62	0.552040	0.526060	0.365470
Cu631	Cu63	0.349420	0.330960	0.591970
Cu641	Cu64	0.609170	0.405920	0.246640
Br81	Br8	0.130850	0.179060	0.510910
N2111	N211	0.448140	0.352340	0.329770
N2121	N212	0.359250	0.324950	0.346470
N2131	N213	0.385990	0.369780	0.301450
N2141	N214	0.646200	0.228040	0.462300
H5051	H505	0.685100	0.235000	0.487200
H5061	H506	0.641200	0.206400	0.452100
N2151	N215	0.091790	0.128560	0.392730
N2161	N216	0.058610	0.072860	0.389540
N2171	N217	0.031310	0.126800	0.407920
N2181	N218	0.365500	0.060900	0.351000
H5071	H507	0.389400	0.043100	0.368400
H5081	H508	0.381900	0.073900	0.330300
H5091	H509	0.767600	0.049000	0.485500
H5101	H510	0.804100	0.014400	0.491600
N2191	N219	0.614440	0.338830	0.335780
N2201	N220	0.593920	0.310110	0.300050
N2211	N221	0.706640	0.302770	0.351810
N2221	N222	0.852700	0.423580	0.538800
H5111	H511	0.856400	0.445500	0.532300
H5121	H512	0.874600	0.415100	0.571800
N2231	N223	0.632100	0.168320	0.177900
H5131	H513	0.663500	0.164600	0.162300
H5141	H514	0.596600	0.154300	0.171700
N2241	N224	0.592150	0.436680	0.298250
N2251	N225	0.550730	0.423050	0.327530
N2261	N226	0.738500	0.552050	0.190500
H5151	H515	0.720800	0.571600	0.174800
H5161	H516	0.777600	0.544400	0.187800
N2271	N227	0.553850	0.480940	0.337130
N2281	N228	0.326600	0.417880	0.453700
H5171	H517	0.335200	0.401100	0.477900
H5181	H518	0.287400	0.429400	0.445400
N2291	N229	0.995750	0.245350	0.454330
N2301	N230	0.960080	0.214910	0.429570
N2311	N231	0.881580	0.258410	0.412370
N2321	N232	0.008700	0.412340	0.511300
H5191	H519	0.040000	0.417000	0.543600
H5201	H520	0.987400	0.429100	0.489300
N2331	N233	0.676300	0.124130	0.304600
H5211	H521	0.637100	0.124900	0.311500
H5221	H522	0.683200	0.107800	0.283400
N2341	N234	0.182630	0.264780	0.546700
N2351	N235	0.279960	0.295860	0.588330
N2361	N236	0.224130	0.246570	0.593800
N2371	N237	0.077700	0.405280	0.400500
H5231	H523	0.082700	0.426500	0.413000
H5241	H524	0.048800	0.400800	0.367200
N2381	N238	0.481500	0.226100	0.828700
H5251	H525	0.506600	0.242000	0.850900
H5261	H526	0.486500	0.204400	0.838800
C5891	C589	0.591200	0.251800	0.438700
C5901	C590	0.598600	0.286370	0.454700
H5271	H527	0.640100	0.293800	0.482600
C5911	C591	0.545100	0.310540	0.430000
H5281	H528	0.551100	0.333900	0.441200
C5921	C592	0.482900	0.299860	0.388690
C5931	C593	0.474800	0.264930	0.373900
H5291	H529	0.432500	0.257200	0.347400
C5941	C594	0.528600	0.241140	0.398000
H5301	H530	0.522800	0.217700	0.386700
C5951	C595	0.430000	0.325840	0.356170
C5961	C596	0.156300	0.388900	0.300400
H5311	H531	0.128500	0.392500	0.322900
C5971	C597	0.132200	0.400600	0.243400
C5981	C598	0.170700	0.393500	0.211600
H5321	H532	0.154500	0.400500	0.174000
C5991	C599	0.234900	0.375880	0.233000
H5331	H533	0.260900	0.370900	0.209500
C6001	C600	0.260700	0.365660	0.288990
C6011	C601	0.220700	0.372180	0.322200
H5341	H534	0.237100	0.365300	0.359900
C6021	C602	0.333600	0.352710	0.311670
C6031	C603	0.852600	0.050200	0.464000
C6041	C604	0.851200	0.085700	0.448700
H5351	H535	0.814500	0.100000	0.450800
C6051	C605	0.903200	0.099760	0.430700
H5361	H536	0.902300	0.123600	0.422200
C6061	C606	0.956800	0.078860	0.425100
C6071	C607	0.958800	0.043910	0.441400
H5371	H537	0.995300	0.029500	0.439300
C6081	C608	0.907600	0.030260	0.460600
H5381	H538	0.910500	0.006800	0.471600
C6091	C609	0.013200	0.093150	0.406280
C6101	C610	0.272700	0.047940	0.389300
H5391	H539	0.297400	0.028000	0.406600
C6111	C611	0.299300	0.068790	0.356200
C6121	C612	0.260400	0.097490	0.328600
H5401	H540	0.276700	0.111000	0.304700
C6131	C613	0.197600	0.106030	0.336600
H5411	H541	0.172500	0.125700	0.318700
C6141	C614	0.171100	0.086000	0.370700
C6151	C615	0.209700	0.056610	0.396800
H5421	H542	0.192700	0.042600	0.419700
C6161	C616	0.106900	0.095810	0.382840
C6171	C617	0.811000	0.401630	0.495600
C6181	C618	0.775400	0.414500	0.442500
H5431	H543	0.779900	0.438100	0.434700
C6191	C619	0.732800	0.392610	0.400600
H5441	H544	0.708500	0.401800	0.365000
C6201	C620	0.725800	0.357530	0.410700
C6211	C621	0.761400	0.344880	0.464400
H5451	H545	0.756800	0.321300	0.472400
C6221	C622	0.803500	0.366430	0.506400
H5461	H546	0.827100	0.357300	0.542100
C6231	C623	0.682100	0.333630	0.366080
C6241	C624	0.695500	0.219660	0.223400
H5471	H547	0.730900	0.215000	0.208300
C6251	C625	0.700400	0.249400	0.256100
H5481	H548	0.738500	0.264700	0.262100
C6261	C626	0.648700	0.256480	0.279970
C6271	C627	0.593500	0.232690	0.271910
H5491	H549	0.559500	0.236700	0.288800
C6281	C628	0.588800	0.203260	0.239000
H5501	H550	0.551700	0.187500	0.234200
C6291	C629	0.638600	0.196770	0.212900
C6301	C630	0.649500	0.289220	0.310760
C6311	C631	0.732900	0.501710	0.247900
H5511	H551	0.776200	0.493800	0.246600
C6321	C632	0.703700	0.532830	0.220300
C6331	C633	0.641300	0.544900	0.224900
H5521	H552	0.622200	0.566000	0.207900
C6341	C634	0.606100	0.525890	0.254500
H5531	H553	0.564000	0.534400	0.257500
C6351	C635	0.633800	0.494070	0.279770
C6361	C636	0.698000	0.482670	0.277000
H5541	H554	0.718000	0.461900	0.295000
C6371	C637	0.593400	0.471200	0.305070
C6381	C638	0.364400	0.454020	0.390200
H5551	H555	0.322200	0.466600	0.380200
C6391	C639	0.375400	0.426310	0.428300
C6401	C640	0.438300	0.407990	0.441300
H5561	H556	0.446300	0.389100	0.466200
C6411	C641	0.489500	0.416750	0.418470
H5571	H557	0.531800	0.404100	0.428600
C6421	C642	0.478400	0.444650	0.380130
C6431	C643	0.415700	0.462990	0.367200
H5581	H558	0.407600	0.481900	0.342300
C6441	C644	0.528100	0.450120	0.349810
C6451	C645	0.992600	0.377830	0.495000
C6461	C646	0.942100	0.369400	0.442900
H5591	H559	0.918200	0.387300	0.418800
C6471	C647	0.927100	0.335010	0.426500
H5601	H560	0.893000	0.330100	0.391600
C6481	C648	0.962300	0.307350	0.461150
C6491	C649	0.012000	0.316050	0.513200
H5611	H561	0.036200	0.298200	0.537200
C6501	C650	0.026300	0.350370	0.529900
H5621	H562	0.059200	0.355300	0.565300
C6511	C651	0.947500	0.270750	0.443430
C6521	C652	0.728200	0.149140	0.327600
C6531	C653	0.792000	0.148580	0.316600
H5631	H563	0.799000	0.131500	0.292500
C6541	C654	0.844700	0.172660	0.340600
H5641	H564	0.887000	0.171500	0.333000
C6551	C655	0.835600	0.198910	0.376140
C6561	C656	0.770600	0.199870	0.385700
H5651	H565	0.762600	0.217300	0.408800
C6571	C657	0.718600	0.175510	0.361600
H5661	H566	0.675800	0.176900	0.368500
C6581	C658	0.892400	0.223830	0.404840
C6591	C659	0.110400	0.343790	0.414800
H5671	H567	0.082100	0.339200	0.377700
C6601	C660	0.117000	0.377880	0.434700
C6611	C661	0.163500	0.384580	0.488100
H5681	H568	0.172100	0.407600	0.500700
C6621	C662	0.197400	0.357590	0.522700
H5691	H569	0.227400	0.362600	0.559100
C6631	C663	0.187800	0.322690	0.504670
C6641	C664	0.145600	0.316200	0.449600
H5701	H570	0.140500	0.293400	0.435600
C6651	C665	0.217100	0.294270	0.544890
C6661	C666	0.432300	0.235600	0.776100
C6671	C667	0.391800	0.210600	0.739200
H5711	H571	0.396300	0.187000	0.749600
C6681	C668	0.344900	0.220360	0.687300
H5721	H572	0.318400	0.203200	0.662900
C6691	C669	0.336500	0.255400	0.670650
C6701	C670	0.377300	0.280180	0.708400
H5731	H573	0.372600	0.303800	0.698400
C6711	C671	0.424800	0.270400	0.760400
H5741	H574	0.451700	0.287400	0.784900
C6721	C672	0.281800	0.265830	0.617710
N2391	N239	0.802500	0.035900	0.483100
N2401	N240	0.065500	0.418400	0.220900
H5751	H575	0.050100	0.424700	0.186100
H5761	H576	0.040900	0.422900	0.242200
Cu651	Cu65	0.000000	0.191230	0.750000
Cu661	Cu66	0.500000	0.691230	0.750000
Cu671	Cu67	0.000000	0.808770	0.250000
Cu681	Cu68	0.500000	0.308770	0.250000
