data_AWUPAL_clean_PM
_symmetry_space_group_name_H-M	'P1'
_cell_length_a	23.489700
_cell_length_b	23.489500
_cell_length_c	31.964500
_cell_angle_alpha	90.000000
_cell_angle_beta	90.000000
_cell_angle_gamma	90.000000
_symmetry_Int_Tables_number 1

loop_
_symmetry_equiv_pos_as_xyz
'x,y,z'

loop_
_atom_site_label
_atom_site_type_symbol
_atom_site_fract_x
_atom_site_fract_y
_atom_site_fract_z
O11	O1	0.468690	0.090800	0.759800
O21	O2	0.481980	0.060520	0.695270
O31	O3	0.090910	0.469290	0.759650
O41	O4	0.060310	0.482350	0.695010
C11	C1	0.468150	0.098600	0.721000
C21	C2	0.426620	0.426440	0.575460
C31	C3	0.449140	0.156380	0.703790
C41	C4	0.410200	0.260700	0.673670
C51	C5	0.414430	0.414800	0.535140
C61	C6	0.428600	0.196200	0.731310
H11	H1	0.428000	0.188700	0.759900
C71	C7	0.260510	0.410200	0.673620
C81	C8	0.388330	0.315480	0.657200
C91	C9	0.395330	0.394910	0.609910
C101	C10	0.315430	0.387800	0.656860
C111	C11	0.338760	0.338800	0.672280
H21	H2	0.320100	0.320300	0.694100
C121	C12	0.344080	0.416920	0.625150
H31	H3	0.329300	0.450500	0.614300
C131	C13	0.197500	0.429000	0.732250
H41	H4	0.190600	0.429600	0.760900
C141	C14	0.467180	0.467600	0.589270
C151	C15	0.408300	0.249300	0.715680
H51	H5	0.393600	0.276300	0.734100
C161	C16	0.248400	0.407900	0.716700
H61	H6	0.274900	0.392200	0.735000
C171	C17	0.450700	0.167400	0.661410
H71	H7	0.463600	0.139700	0.642900
C181	C18	0.433000	0.219800	0.646660
H81	H8	0.436400	0.228100	0.618300
C191	C19	0.417580	0.343790	0.625410
H91	H9	0.451300	0.329000	0.614700
C201	C20	0.219000	0.434000	0.646440
H101	H10	0.226700	0.437100	0.618000
C211	C21	0.374300	0.374400	0.521010
H111	H11	0.351600	0.351500	0.538000
C221	C22	0.168000	0.452400	0.661730
H121	H12	0.140800	0.467000	0.643500
C231	C23	0.479500	0.479800	0.631170
H131	H13	0.462700	0.463200	0.654500
C241	C24	0.098000	0.468300	0.720700
C251	C25	0.156440	0.449300	0.703810
O51	O5	0.531310	0.909200	0.759800
O61	O6	0.518020	0.939480	0.695270
O71	O7	0.909090	0.530710	0.759650
O81	O8	0.939690	0.517650	0.695010
C261	C26	0.531850	0.901400	0.721000
C271	C27	0.573380	0.573560	0.575460
C281	C28	0.550860	0.843620	0.703790
C291	C29	0.589800	0.739300	0.673670
C301	C30	0.585570	0.585200	0.535140
C311	C31	0.571400	0.803800	0.731310
H141	H14	0.572000	0.811300	0.759900
C321	C32	0.739490	0.589800	0.673620
C331	C33	0.611670	0.684520	0.657200
C341	C34	0.604670	0.605090	0.609910
C351	C35	0.684570	0.612200	0.656860
C361	C36	0.661240	0.661200	0.672280
H151	H15	0.679900	0.679700	0.694100
C371	C37	0.655920	0.583080	0.625150
H161	H16	0.670700	0.549500	0.614300
C381	C38	0.802500	0.571000	0.732250
H171	H17	0.809400	0.570400	0.760900
C391	C39	0.532820	0.532400	0.589270
C401	C40	0.591700	0.750700	0.715680
H181	H18	0.606400	0.723700	0.734100
C411	C41	0.751600	0.592100	0.716700
H191	H19	0.725100	0.607800	0.735000
C421	C42	0.549300	0.832600	0.661410
H201	H20	0.536400	0.860300	0.642900
C431	C43	0.567000	0.780200	0.646660
H211	H21	0.563600	0.771900	0.618300
C441	C44	0.582420	0.656210	0.625410
H221	H22	0.548700	0.671000	0.614700
C451	C45	0.781000	0.566000	0.646440
H231	H23	0.773300	0.562900	0.618000
C461	C46	0.625700	0.625600	0.521010
H241	H24	0.648400	0.648500	0.538000
C471	C47	0.832000	0.547600	0.661730
H251	H25	0.859200	0.533000	0.643500
C481	C48	0.520500	0.520200	0.631170
H261	H26	0.537300	0.536800	0.654500
C491	C49	0.902000	0.531700	0.720700
C501	C50	0.843560	0.550700	0.703810
O91	O9	0.031310	0.590800	0.740200
O101	O10	0.018020	0.560520	0.804730
O111	O11	0.409090	0.969290	0.740350
O121	O12	0.439690	0.982350	0.804990
C511	C51	0.031850	0.598600	0.779000
C521	C52	0.073380	0.926440	0.924540
C531	C53	0.050860	0.656380	0.796210
C541	C54	0.089800	0.760700	0.826330
C551	C55	0.085570	0.914800	0.964860
C561	C56	0.071400	0.696200	0.768690
H271	H27	0.072000	0.688700	0.740100
C571	C57	0.239490	0.910200	0.826380
C581	C58	0.111670	0.815480	0.842800
C591	C59	0.104670	0.894910	0.890090
C601	C60	0.184570	0.887800	0.843140
C611	C61	0.161240	0.838800	0.827720
H281	H28	0.179900	0.820300	0.805900
C621	C62	0.155920	0.916920	0.874850
H291	H29	0.170700	0.950500	0.885700
C631	C63	0.302500	0.929000	0.767750
H301	H30	0.309400	0.929600	0.739100
C641	C64	0.032820	0.967600	0.910730
C651	C65	0.091700	0.749300	0.784320
H311	H31	0.106400	0.776300	0.765900
C661	C66	0.251600	0.907900	0.783300
H321	H32	0.225100	0.892200	0.765000
C671	C67	0.049300	0.667400	0.838590
H331	H33	0.036400	0.639700	0.857100
C681	C68	0.067000	0.719800	0.853340
H341	H34	0.063600	0.728100	0.881700
C691	C69	0.082420	0.843790	0.874590
H351	H35	0.048700	0.829000	0.885300
C701	C70	0.281000	0.934000	0.853560
H361	H36	0.273300	0.937100	0.882000
C711	C71	0.125700	0.874400	0.978990
H371	H37	0.148400	0.851500	0.962000
C721	C72	0.332000	0.952400	0.838270
H381	H38	0.359200	0.967000	0.856500
C731	C73	0.020500	0.979800	0.868830
H391	H39	0.037300	0.963200	0.845500
C741	C74	0.402000	0.968300	0.779300
C751	C75	0.343560	0.949300	0.796190
O131	O13	0.968690	0.409200	0.740200
O141	O14	0.981980	0.439480	0.804730
O151	O15	0.590910	0.030710	0.740350
O161	O16	0.560310	0.017650	0.804990
C761	C76	0.968150	0.401400	0.779000
C771	C77	0.926620	0.073560	0.924540
C781	C78	0.949140	0.343620	0.796210
C791	C79	0.910200	0.239300	0.826330
C801	C80	0.914430	0.085200	0.964860
C811	C81	0.928600	0.303800	0.768690
H401	H40	0.928000	0.311300	0.740100
C821	C82	0.760510	0.089800	0.826380
C831	C83	0.888330	0.184520	0.842800
C841	C84	0.895330	0.105090	0.890090
C851	C85	0.815430	0.112200	0.843140
C861	C86	0.838760	0.161200	0.827720
H411	H41	0.820100	0.179700	0.805900
C871	C87	0.844080	0.083080	0.874850
H421	H42	0.829300	0.049500	0.885700
C881	C88	0.697500	0.071000	0.767750
H431	H43	0.690600	0.070400	0.739100
C891	C89	0.967180	0.032400	0.910730
C901	C90	0.908300	0.250700	0.784320
H441	H44	0.893600	0.223700	0.765900
C911	C91	0.748400	0.092100	0.783300
H451	H45	0.774900	0.107800	0.765000
C921	C92	0.950700	0.332600	0.838590
H461	H46	0.963600	0.360300	0.857100
C931	C93	0.933000	0.280200	0.853340
H471	H47	0.936400	0.271900	0.881700
C941	C94	0.917580	0.156210	0.874590
H481	H48	0.951300	0.171000	0.885300
C951	C95	0.719000	0.066000	0.853560
H491	H49	0.726700	0.062900	0.882000
C961	C96	0.874300	0.125600	0.978990
H501	H50	0.851600	0.148500	0.962000
C971	C97	0.668000	0.047600	0.838270
H511	H51	0.640800	0.033000	0.856500
C981	C98	0.979500	0.020200	0.868830
H521	H52	0.962700	0.036800	0.845500
C991	C99	0.598000	0.031700	0.779300
C1001	C100	0.656440	0.050700	0.796190
O171	O17	0.531310	0.909200	0.240200
O181	O18	0.518020	0.939480	0.304730
O191	O19	0.909090	0.530710	0.240350
O201	O20	0.939690	0.517650	0.304990
C1011	C101	0.531850	0.901400	0.279000
C1021	C102	0.573380	0.573560	0.424540
C1031	C103	0.550860	0.843620	0.296210
C1041	C104	0.589800	0.739300	0.326330
C1051	C105	0.585570	0.585200	0.464860
C1061	C106	0.571400	0.803800	0.268690
H531	H53	0.572000	0.811300	0.240100
C1071	C107	0.739490	0.589800	0.326380
C1081	C108	0.611670	0.684520	0.342800
C1091	C109	0.604670	0.605090	0.390090
C1101	C110	0.684570	0.612200	0.343140
C1111	C111	0.661240	0.661200	0.327720
H541	H54	0.679900	0.679700	0.305900
C1121	C112	0.655920	0.583080	0.374850
H551	H55	0.670700	0.549500	0.385700
C1131	C113	0.802500	0.571000	0.267750
H561	H56	0.809400	0.570400	0.239100
C1141	C114	0.532820	0.532400	0.410730
C1151	C115	0.591700	0.750700	0.284320
H571	H57	0.606400	0.723700	0.265900
C1161	C116	0.751600	0.592100	0.283300
H581	H58	0.725100	0.607800	0.265000
C1171	C117	0.549300	0.832600	0.338590
H591	H59	0.536400	0.860300	0.357100
C1181	C118	0.567000	0.780200	0.353340
H601	H60	0.563600	0.771900	0.381700
C1191	C119	0.582420	0.656210	0.374590
H611	H61	0.548700	0.671000	0.385300
C1201	C120	0.781000	0.566000	0.353560
H621	H62	0.773300	0.562900	0.382000
C1211	C121	0.625700	0.625600	0.478990
H631	H63	0.648400	0.648500	0.462000
C1221	C122	0.832000	0.547600	0.338270
H641	H64	0.859200	0.533000	0.356500
C1231	C123	0.520500	0.520200	0.368830
H651	H65	0.537300	0.536800	0.345500
C1241	C124	0.902000	0.531700	0.279300
C1251	C125	0.843560	0.550700	0.296190
O211	O21	0.468690	0.090800	0.240200
O221	O22	0.481980	0.060520	0.304730
O231	O23	0.090910	0.469290	0.240350
O241	O24	0.060310	0.482350	0.304990
C1261	C126	0.468150	0.098600	0.279000
C1271	C127	0.426620	0.426440	0.424540
C1281	C128	0.449140	0.156380	0.296210
C1291	C129	0.410200	0.260700	0.326330
C1301	C130	0.414430	0.414800	0.464860
C1311	C131	0.428600	0.196200	0.268690
H661	H66	0.428000	0.188700	0.240100
C1321	C132	0.260510	0.410200	0.326380
C1331	C133	0.388330	0.315480	0.342800
C1341	C134	0.395330	0.394910	0.390090
C1351	C135	0.315430	0.387800	0.343140
C1361	C136	0.338760	0.338800	0.327720
H671	H67	0.320100	0.320300	0.305900
C1371	C137	0.344080	0.416920	0.374850
H681	H68	0.329300	0.450500	0.385700
C1381	C138	0.197500	0.429000	0.267750
H691	H69	0.190600	0.429600	0.239100
C1391	C139	0.467180	0.467600	0.410730
C1401	C140	0.408300	0.249300	0.284320
H701	H70	0.393600	0.276300	0.265900
C1411	C141	0.248400	0.407900	0.283300
H711	H71	0.274900	0.392200	0.265000
C1421	C142	0.450700	0.167400	0.338590
H721	H72	0.463600	0.139700	0.357100
C1431	C143	0.433000	0.219800	0.353340
H731	H73	0.436400	0.228100	0.381700
C1441	C144	0.417580	0.343790	0.374590
H741	H74	0.451300	0.329000	0.385300
C1451	C145	0.219000	0.434000	0.353560
H751	H75	0.226700	0.437100	0.382000
C1461	C146	0.374300	0.374400	0.478990
H761	H76	0.351600	0.351500	0.462000
C1471	C147	0.168000	0.452400	0.338270
H771	H77	0.140800	0.467000	0.356500
C1481	C148	0.479500	0.479800	0.368830
H781	H78	0.462700	0.463200	0.345500
C1491	C149	0.098000	0.468300	0.279300
C1501	C150	0.156440	0.449300	0.296190
O251	O25	0.968690	0.409200	0.259800
O261	O26	0.981980	0.439480	0.195270
O271	O27	0.590910	0.030710	0.259650
O281	O28	0.560310	0.017650	0.195010
C1511	C151	0.968150	0.401400	0.221000
C1521	C152	0.926620	0.073560	0.075460
C1531	C153	0.949140	0.343620	0.203790
C1541	C154	0.910200	0.239300	0.173670
C1551	C155	0.914430	0.085200	0.035140
C1561	C156	0.928600	0.303800	0.231310
H791	H79	0.928000	0.311300	0.259900
C1571	C157	0.760510	0.089800	0.173620
C1581	C158	0.888330	0.184520	0.157200
C1591	C159	0.895330	0.105090	0.109910
C1601	C160	0.815430	0.112200	0.156860
C1611	C161	0.838760	0.161200	0.172280
H801	H80	0.820100	0.179700	0.194100
C1621	C162	0.844080	0.083080	0.125150
H811	H81	0.829300	0.049500	0.114300
C1631	C163	0.697500	0.071000	0.232250
H821	H82	0.690600	0.070400	0.260900
C1641	C164	0.967180	0.032400	0.089270
C1651	C165	0.908300	0.250700	0.215680
H831	H83	0.893600	0.223700	0.234100
C1661	C166	0.748400	0.092100	0.216700
H841	H84	0.774900	0.107800	0.235000
C1671	C167	0.950700	0.332600	0.161410
H851	H85	0.963600	0.360300	0.142900
C1681	C168	0.933000	0.280200	0.146660
H861	H86	0.936400	0.271900	0.118300
C1691	C169	0.917580	0.156210	0.125410
H871	H87	0.951300	0.171000	0.114700
C1701	C170	0.719000	0.066000	0.146440
H881	H88	0.726700	0.062900	0.118000
C1711	C171	0.874300	0.125600	0.021010
H891	H89	0.851600	0.148500	0.038000
C1721	C172	0.668000	0.047600	0.161730
H901	H90	0.640800	0.033000	0.143500
C1731	C173	0.979500	0.020200	0.131170
H911	H91	0.962700	0.036800	0.154500
C1741	C174	0.598000	0.031700	0.220700
C1751	C175	0.656440	0.050700	0.203810
O291	O29	0.031310	0.590800	0.259800
O301	O30	0.018020	0.560520	0.195270
O311	O31	0.409090	0.969290	0.259650
O321	O32	0.439690	0.982350	0.195010
C1761	C176	0.031850	0.598600	0.221000
C1771	C177	0.073380	0.926440	0.075460
C1781	C178	0.050860	0.656380	0.203790
C1791	C179	0.089800	0.760700	0.173670
C1801	C180	0.085570	0.914800	0.035140
C1811	C181	0.071400	0.696200	0.231310
H921	H92	0.072000	0.688700	0.259900
C1821	C182	0.239490	0.910200	0.173620
C1831	C183	0.111670	0.815480	0.157200
C1841	C184	0.104670	0.894910	0.109910
C1851	C185	0.184570	0.887800	0.156860
C1861	C186	0.161240	0.838800	0.172280
H931	H93	0.179900	0.820300	0.194100
C1871	C187	0.155920	0.916920	0.125150
H941	H94	0.170700	0.950500	0.114300
C1881	C188	0.302500	0.929000	0.232250
H951	H95	0.309400	0.929600	0.260900
C1891	C189	0.032820	0.967600	0.089270
C1901	C190	0.091700	0.749300	0.215680
H961	H96	0.106400	0.776300	0.234100
C1911	C191	0.251600	0.907900	0.216700
H971	H97	0.225100	0.892200	0.235000
C1921	C192	0.049300	0.667400	0.161410
H981	H98	0.036400	0.639700	0.142900
C1931	C193	0.067000	0.719800	0.146660
H991	H99	0.063600	0.728100	0.118300
C1941	C194	0.082420	0.843790	0.125410
H1001	H100	0.048700	0.829000	0.114700
C1951	C195	0.281000	0.934000	0.146440
H1011	H101	0.273300	0.937100	0.118000
C1961	C196	0.125700	0.874400	0.021010
H1021	H102	0.148400	0.851500	0.038000
C1971	C197	0.332000	0.952400	0.161730
H1031	H103	0.359200	0.967000	0.143500
C1981	C198	0.020500	0.979800	0.131170
H1041	H104	0.037300	0.963200	0.154500
C1991	C199	0.402000	0.968300	0.220700
C2001	C200	0.343560	0.949300	0.203810
In11	In1	0.500000	0.000000	0.750020
In21	In2	0.000000	0.500000	0.749980
In31	In3	0.500000	0.000000	0.249980
In41	In4	0.000000	0.500000	0.250020
Fe11	Fe1	0.500000	0.500000	0.500000
Fe21	Fe2	0.000000	0.000000	0.000000
N11	N1	0.439000	0.439320	0.500000
N21	N2	0.561000	0.560680	0.500000
N31	N3	0.061000	0.939320	0.000000
N41	N4	0.939000	0.060680	0.000000
N51	N5	0.500000	0.500000	0.562780
N61	N6	0.000000	0.000000	0.937220
N71	N7	0.500000	0.500000	0.437220
N81	N8	0.000000	0.000000	0.062780
