data_AXAFAG_clean_PM
_symmetry_space_group_name_H-M	'P1'
_cell_length_a	13.448700
_cell_length_b	17.921000
_cell_length_c	19.902600
_cell_angle_alpha	90.000000
_cell_angle_beta	90.983300
_cell_angle_gamma	90.000000
_symmetry_Int_Tables_number 1

loop_
_symmetry_equiv_pos_as_xyz
'x,y,z'

loop_
_atom_site_label
_atom_site_type_symbol
_atom_site_fract_x
_atom_site_fract_y
_atom_site_fract_z
U11	U1	0.349040	0.978170	0.229050
U21	U2	0.652810	0.001750	0.274480
U31	U3	0.378560	0.738140	0.377290
U41	U4	0.623540	0.248350	0.122740
U51	U5	0.347800	0.005190	0.509410
U61	U6	0.348840	0.007550	0.011810
P11	P1	0.143000	0.032420	0.118490
P21	P2	0.774700	0.077910	0.128280
P31	P3	0.858700	0.958310	0.387960
P41	P4	0.493800	0.061050	0.128380
P51	P5	0.509200	0.923910	0.379240
P61	P6	0.227000	0.904820	0.374790
O11	O1	0.481000	0.975000	0.438100
F11	F1	0.460100	0.280300	0.140800
O21	O2	0.961700	0.999900	0.395600
O31	O3	0.378100	0.054200	0.127200
O41	O4	0.626000	0.932400	0.380100
O51	O5	0.201200	0.985000	0.168500
O61	O6	0.520800	0.019100	0.063400
O71	O7	0.800300	0.003100	0.335400
O81	O8	0.261400	0.972100	0.415400
O91	O9	0.195100	0.037600	0.051600
O101	O10	0.524400	0.016700	0.191900
O111	O11	0.479400	0.957600	0.310800
O121	O12	0.041700	0.988800	0.105800
O131	O13	0.254300	0.915000	0.301900
O141	O14	0.264400	0.831700	0.402700
O151	O15	0.878600	0.879500	0.365400
O161	O16	0.808000	0.962000	0.455000
O171	O17	0.748900	0.062300	0.201100
O181	O18	0.743400	0.011600	0.085000
O191	O19	0.119100	0.108200	0.146900
O201	O20	0.891700	0.080100	0.123900
F21	F2	0.543000	0.706200	0.366500
O211	O21	0.528700	0.139800	0.128900
O221	O22	0.476900	0.845800	0.389800
O231	O23	0.735100	0.151800	0.103600
O241	O24	0.109800	0.905200	0.380000
H11	H1	0.988600	0.012000	0.105900
H21	H2	0.085900	0.846300	0.375000
H31	H3	0.028200	0.977100	0.386900
H41	H4	0.932600	0.126500	0.119200
U71	U7	0.150960	0.478170	0.270950
U81	U8	0.847190	0.501750	0.225520
U91	U9	0.121440	0.238140	0.122710
U101	U10	0.876460	0.748350	0.377260
U111	U11	0.152200	0.505190	0.990590
U121	U12	0.151160	0.507550	0.488190
P71	P7	0.357000	0.532420	0.381510
P81	P8	0.725300	0.577910	0.371720
P91	P9	0.641300	0.458310	0.112040
P101	P10	0.006200	0.561050	0.371620
P111	P11	0.990800	0.423910	0.120760
P121	P12	0.273000	0.404820	0.125210
O251	O25	0.019000	0.475000	0.061900
F31	F3	0.039900	0.780300	0.359200
O261	O26	0.538300	0.499900	0.104400
O271	O27	0.121900	0.554200	0.372800
O281	O28	0.874000	0.432400	0.119900
O291	O29	0.298800	0.485000	0.331500
O301	O30	0.979200	0.519100	0.436600
O311	O31	0.699700	0.503100	0.164600
O321	O32	0.238600	0.472100	0.084600
O331	O33	0.304900	0.537600	0.448400
O341	O34	0.975600	0.516700	0.308100
O351	O35	0.020600	0.457600	0.189200
O361	O36	0.458300	0.488800	0.394200
O371	O37	0.245700	0.415000	0.198100
O381	O38	0.235600	0.331700	0.097300
O391	O39	0.621400	0.379500	0.134600
O401	O40	0.692000	0.462000	0.045000
O411	O41	0.751100	0.562300	0.298900
O421	O42	0.756600	0.511600	0.415000
O431	O43	0.380900	0.608200	0.353100
O441	O44	0.608300	0.580100	0.376100
F41	F4	0.957000	0.206200	0.133500
O451	O45	0.971300	0.639800	0.371100
O461	O46	0.023100	0.345800	0.110200
O471	O47	0.764900	0.651800	0.396400
O481	O48	0.390200	0.405200	0.120000
H51	H5	0.511400	0.512000	0.394100
H61	H6	0.414100	0.346300	0.125000
H71	H7	0.471800	0.477100	0.113100
H81	H8	0.567400	0.626500	0.380800
U131	U13	0.650960	0.021830	0.770950
U141	U14	0.347190	0.998250	0.725520
U151	U15	0.621440	0.261860	0.622710
U161	U16	0.376460	0.751650	0.877260
U171	U17	0.652200	0.994810	0.490590
U181	U18	0.651160	0.992450	0.988190
P131	P13	0.857000	0.967580	0.881510
P141	P14	0.225300	0.922090	0.871720
P151	P15	0.141300	0.041690	0.612040
P161	P16	0.506200	0.938950	0.871620
P171	P17	0.490800	0.076090	0.620760
P181	P18	0.773000	0.095180	0.625210
O491	O49	0.519000	0.025000	0.561900
F51	F5	0.539900	0.719700	0.859200
O501	O50	0.038300	0.000100	0.604400
O511	O51	0.621900	0.945800	0.872800
O521	O52	0.374000	0.067600	0.619900
O531	O53	0.798800	0.015000	0.831500
O541	O54	0.479200	0.980900	0.936600
O551	O55	0.199700	0.996900	0.664600
O561	O56	0.738600	0.027900	0.584600
O571	O57	0.804900	0.962400	0.948400
O581	O58	0.475600	0.983300	0.808100
O591	O59	0.520600	0.042400	0.689200
O601	O60	0.958300	0.011200	0.894200
O611	O61	0.745700	0.085000	0.698100
O621	O62	0.735600	0.168300	0.597300
O631	O63	0.121400	0.120500	0.634600
O641	O64	0.192000	0.038000	0.545000
O651	O65	0.251100	0.937700	0.798900
O661	O66	0.256600	0.988400	0.915000
O671	O67	0.880900	0.891800	0.853100
O681	O68	0.108300	0.919900	0.876100
F61	F6	0.457000	0.293800	0.633500
O691	O69	0.471300	0.860200	0.871100
O701	O70	0.523100	0.154200	0.610200
O711	O71	0.264900	0.848200	0.896400
O721	O72	0.890200	0.094800	0.620000
H91	H9	0.011400	0.988000	0.894100
H101	H10	0.914100	0.153700	0.625000
H111	H11	0.971800	0.022900	0.613100
H121	H12	0.067400	0.873500	0.880800
U191	U19	0.849040	0.521830	0.729050
U201	U20	0.152810	0.498250	0.774480
U211	U21	0.878560	0.761860	0.877290
U221	U22	0.123540	0.251650	0.622740
U231	U23	0.847800	0.494810	0.009410
U241	U24	0.848840	0.492450	0.511810
P191	P19	0.643000	0.467580	0.618490
P201	P20	0.274700	0.422090	0.628280
P211	P21	0.358700	0.541690	0.887960
P221	P22	0.993800	0.438950	0.628380
P231	P23	0.009200	0.576090	0.879240
P241	P24	0.727000	0.595180	0.874790
O731	O73	0.981000	0.525000	0.938100
F71	F7	0.960100	0.219700	0.640800
O741	O74	0.461700	0.500100	0.895600
O751	O75	0.878100	0.445800	0.627200
O761	O76	0.126000	0.567600	0.880100
O771	O77	0.701200	0.515000	0.668500
O781	O78	0.020800	0.480900	0.563400
O791	O79	0.300300	0.496900	0.835400
O801	O80	0.761400	0.527900	0.915400
O811	O81	0.695100	0.462400	0.551600
O821	O82	0.024400	0.483300	0.691900
O831	O83	0.979400	0.542400	0.810800
O841	O84	0.541700	0.511200	0.605800
O851	O85	0.754300	0.585000	0.801900
O861	O86	0.764400	0.668300	0.902700
O871	O87	0.378600	0.620500	0.865400
O881	O88	0.308000	0.538000	0.955000
O891	O89	0.248900	0.437700	0.701100
O901	O90	0.243400	0.488400	0.585000
O911	O91	0.619100	0.391800	0.646900
O921	O92	0.391700	0.419900	0.623900
F81	F8	0.043000	0.793800	0.866500
O931	O93	0.028700	0.360200	0.628900
O941	O94	0.976900	0.654200	0.889800
O951	O95	0.235100	0.348200	0.603600
O961	O96	0.609800	0.594800	0.880000
H131	H13	0.488600	0.488000	0.605900
H141	H14	0.585900	0.653700	0.875000
H151	H15	0.528200	0.522900	0.886900
H161	H16	0.432600	0.373500	0.619200
