data_AXAWUT_clean_PM
_symmetry_space_group_name_H-M	'P1'
_cell_length_a	11.310600
_cell_length_b	12.669800
_cell_length_c	14.739700
_cell_angle_alpha	90.000000
_cell_angle_beta	90.000000
_cell_angle_gamma	90.000000
_symmetry_Int_Tables_number 1

loop_
_symmetry_equiv_pos_as_xyz
'x,y,z'

loop_
_atom_site_label
_atom_site_type_symbol
_atom_site_fract_x
_atom_site_fract_y
_atom_site_fract_z
Ce11	Ce1	0.149400	0.885100	0.493000
O11	O1	0.354400	0.882700	0.437000
O21	O2	0.221700	0.067700	0.468000
O31	O3	0.536600	0.931400	0.402000
O41	O4	0.318100	0.211700	0.426000
C11	C1	0.428500	0.947800	0.404400
C21	C2	0.381800	0.049100	0.363100
H11	H1	0.448700	0.092300	0.345200
H21	H2	0.338200	0.031500	0.308500
C31	C3	0.302600	0.114000	0.424100
O51	O5	0.103000	0.913300	0.325000
O61	O6	0.985100	0.008300	0.408200
C41	C4	0.029800	0.986100	0.332200
H31	H3	0.066700	0.096500	0.235700
Ce21	Ce2	0.350600	0.614900	0.993000
O71	O7	0.145600	0.617300	0.937000
O81	O8	0.278300	0.432300	0.968000
O91	O9	0.963400	0.568600	0.902000
O101	O10	0.181900	0.288300	0.926000
C51	C5	0.071500	0.552200	0.904400
C61	C6	0.118200	0.450900	0.863100
H41	H4	0.051300	0.407700	0.845200
H51	H5	0.161800	0.468500	0.808500
C71	C7	0.197400	0.386000	0.924100
O111	O11	0.397000	0.586700	0.825000
O121	O12	0.514900	0.491700	0.908200
C81	C8	0.470200	0.513900	0.832200
H61	H6	0.433300	0.403500	0.735700
Ce31	Ce3	0.850600	0.885100	0.007000
O131	O13	0.645600	0.882700	0.063000
O141	O14	0.778300	0.067700	0.032000
O151	O15	0.463400	0.931400	0.098000
O161	O16	0.681900	0.211700	0.074000
C91	C9	0.571500	0.947800	0.095600
C101	C10	0.618200	0.049100	0.136900
H71	H7	0.551300	0.092300	0.154800
H81	H8	0.661800	0.031500	0.191500
C111	C11	0.697400	0.114000	0.075900
O171	O17	0.897000	0.913300	0.175000
O181	O18	0.014900	0.008300	0.091800
C121	C12	0.970200	0.986100	0.167800
H91	H9	0.933300	0.096500	0.264300
Ce41	Ce4	0.649400	0.614900	0.507000
O191	O19	0.854400	0.617300	0.563000
O201	O20	0.721700	0.432300	0.532000
O211	O21	0.036600	0.568600	0.598000
O221	O22	0.818100	0.288300	0.574000
C131	C13	0.928500	0.552200	0.595600
C141	C14	0.881800	0.450900	0.636900
H101	H10	0.948700	0.407700	0.654800
H111	H11	0.838200	0.468500	0.691500
C151	C15	0.802600	0.386000	0.575900
O231	O23	0.603000	0.586700	0.675000
O241	O24	0.485100	0.491700	0.591800
C161	C16	0.529800	0.513900	0.667800
H121	H12	0.566700	0.403500	0.764300
Ce51	Ce5	0.850600	0.114900	0.507000
O251	O25	0.645600	0.117300	0.563000
O261	O26	0.778300	0.932300	0.532000
O271	O27	0.463400	0.068600	0.598000
O281	O28	0.681900	0.788300	0.574000
C171	C17	0.571500	0.052200	0.595600
C181	C18	0.618200	0.950900	0.636900
H131	H13	0.551300	0.907700	0.654800
H141	H14	0.661800	0.968500	0.691500
C191	C19	0.697400	0.886000	0.575900
O291	O29	0.897000	0.086700	0.675000
O301	O30	0.014900	0.991700	0.591800
C201	C20	0.970200	0.013900	0.667800
H151	H15	0.933300	0.903500	0.764300
Ce61	Ce6	0.649400	0.385100	0.007000
O311	O31	0.854400	0.382700	0.063000
O321	O32	0.721700	0.567700	0.032000
O331	O33	0.036600	0.431400	0.098000
O341	O34	0.818100	0.711700	0.074000
C211	C21	0.928500	0.447800	0.095600
C221	C22	0.881800	0.549100	0.136900
H161	H16	0.948700	0.592300	0.154800
H171	H17	0.838200	0.531500	0.191500
C231	C23	0.802600	0.614000	0.075900
O351	O35	0.603000	0.413300	0.175000
O361	O36	0.485100	0.508300	0.091800
C241	C24	0.529800	0.486100	0.167800
H181	H18	0.566700	0.596500	0.264300
Ce71	Ce7	0.149400	0.114900	0.993000
O371	O37	0.354400	0.117300	0.937000
O381	O38	0.221700	0.932300	0.968000
O391	O39	0.536600	0.068600	0.902000
O401	O40	0.318100	0.788300	0.926000
C251	C25	0.428500	0.052200	0.904400
C261	C26	0.381800	0.950900	0.863100
H191	H19	0.448700	0.907700	0.845200
H201	H20	0.338200	0.968500	0.808500
C271	C27	0.302600	0.886000	0.924100
O411	O41	0.103000	0.086700	0.825000
O421	O42	0.985100	0.991700	0.908200
C281	C28	0.029800	0.013900	0.832200
H211	H21	0.066700	0.903500	0.735700
Ce81	Ce8	0.350600	0.385100	0.493000
O431	O43	0.145600	0.382700	0.437000
O441	O44	0.278300	0.567700	0.468000
O451	O45	0.963400	0.431400	0.402000
O461	O46	0.181900	0.711700	0.426000
C291	C29	0.071500	0.447800	0.404400
C301	C30	0.118200	0.549100	0.363100
H221	H22	0.051300	0.592300	0.345200
H231	H23	0.161800	0.531500	0.308500
C311	C31	0.197400	0.614000	0.424100
O471	O47	0.397000	0.413300	0.325000
O481	O48	0.514900	0.508300	0.408200
C321	C32	0.470200	0.486100	0.332200
H241	H24	0.433300	0.596500	0.235700
C331	C33	0.000000	0.051400	0.250000
C341	C34	0.500000	0.448600	0.750000
C351	C35	0.000000	0.948600	0.750000
C361	C36	0.500000	0.551400	0.250000
