data_AXINEA_clean_PM
_symmetry_space_group_name_H-M	'P1'
_cell_length_a	15.423700
_cell_length_b	25.428700
_cell_length_c	30.787000
_cell_angle_alpha	90.000000
_cell_angle_beta	90.000000
_cell_angle_gamma	90.000000
_symmetry_Int_Tables_number 1

loop_
_symmetry_equiv_pos_as_xyz
'x,y,z'

loop_
_atom_site_label
_atom_site_type_symbol
_atom_site_fract_x
_atom_site_fract_y
_atom_site_fract_z
O11	O1	0.380270	0.640800	0.689570
O21	O2	0.387540	0.706250	0.612310
N11	N1	0.382270	0.680440	0.717480
O31	O3	0.305680	0.827150	0.815610
C11	C1	0.378620	0.759420	0.778590
C21	C2	0.374220	0.801550	0.812880
O41	O4	0.440570	0.806830	0.835950
N21	N2	0.394090	0.741270	0.580990
C31	C3	0.333140	0.764040	0.740140
H11	H1	0.300000	0.793900	0.734800
C41	C4	0.337010	0.724160	0.709650
H21	H2	0.307800	0.727800	0.683400
C51	C5	0.364260	0.768560	0.509670
H31	H3	0.338700	0.761500	0.482900
C61	C6	0.358630	0.732000	0.541940
H41	H4	0.330000	0.700400	0.536900
C71	C7	0.429060	0.675440	0.753940
H51	H5	0.461800	0.645200	0.758500
C81	C8	0.428950	0.715020	0.784720
H61	H6	0.462800	0.711800	0.809600
C91	C9	0.446000	0.823500	0.555920
H71	H7	0.477700	0.854000	0.561200
C101	C10	0.406890	0.815810	0.515570
C111	C11	0.411540	0.855250	0.479290
H81	H8	0.411200	0.836600	0.451800
H91	H9	0.466100	0.874000	0.481300
C121	C12	0.437960	0.786340	0.587790
H101	H10	0.463300	0.792300	0.614700
O51	O5	0.380270	0.140800	0.189570
O61	O6	0.387540	0.206250	0.112310
N31	N3	0.382270	0.180440	0.217480
O71	O7	0.305680	0.327150	0.315610
C131	C13	0.378620	0.259420	0.278590
C141	C14	0.374220	0.301550	0.312880
O81	O8	0.440570	0.306830	0.335950
N41	N4	0.394090	0.241270	0.080990
C151	C15	0.333140	0.264040	0.240140
H111	H11	0.300000	0.293900	0.234800
C161	C16	0.337010	0.224160	0.209650
H121	H12	0.307800	0.227800	0.183400
C171	C17	0.364260	0.268560	0.009670
H131	H13	0.338700	0.261500	0.982900
C181	C18	0.358630	0.232000	0.041940
H141	H14	0.330000	0.200400	0.036900
C191	C19	0.429060	0.175440	0.253940
H151	H15	0.461800	0.145200	0.258500
C201	C20	0.428950	0.215020	0.284720
H161	H16	0.462800	0.211800	0.309600
C211	C21	0.446000	0.323500	0.055920
H171	H17	0.477700	0.354000	0.061200
C221	C22	0.406890	0.315810	0.015570
C231	C23	0.411540	0.355250	0.979290
H181	H18	0.411200	0.336600	0.951800
H191	H19	0.466100	0.374000	0.981300
C241	C24	0.437960	0.286340	0.087790
H201	H20	0.463300	0.292300	0.114700
O91	O9	0.880270	0.640800	0.189570
O101	O10	0.887540	0.706250	0.112310
N51	N5	0.882270	0.680440	0.217480
O111	O11	0.805680	0.827150	0.315610
C251	C25	0.878620	0.759420	0.278590
C261	C26	0.874220	0.801550	0.312880
O121	O12	0.940570	0.806830	0.335950
N61	N6	0.894090	0.741270	0.080990
C271	C27	0.833140	0.764040	0.240140
H211	H21	0.800000	0.793900	0.234800
C281	C28	0.837010	0.724160	0.209650
H221	H22	0.807800	0.727800	0.183400
C291	C29	0.864260	0.768560	0.009670
H231	H23	0.838700	0.761500	0.982900
C301	C30	0.858630	0.732000	0.041940
H241	H24	0.830000	0.700400	0.036900
C311	C31	0.929060	0.675440	0.253940
H251	H25	0.961800	0.645200	0.258500
C321	C32	0.928950	0.715020	0.284720
H261	H26	0.962800	0.711800	0.309600
C331	C33	0.946000	0.823500	0.055920
H271	H27	0.977700	0.854000	0.061200
C341	C34	0.906890	0.815810	0.015570
C351	C35	0.911540	0.855250	0.979290
H281	H28	0.911200	0.836600	0.951800
H291	H29	0.966100	0.874000	0.981300
C361	C36	0.937960	0.786340	0.087790
H301	H30	0.963300	0.792300	0.114700
O131	O13	0.880270	0.140800	0.689570
O141	O14	0.887540	0.206250	0.612310
N71	N7	0.882270	0.180440	0.717480
O151	O15	0.805680	0.327150	0.815610
C371	C37	0.878620	0.259420	0.778590
C381	C38	0.874220	0.301550	0.812880
O161	O16	0.940570	0.306830	0.835950
N81	N8	0.894090	0.241270	0.580990
C391	C39	0.833140	0.264040	0.740140
H311	H31	0.800000	0.293900	0.734800
C401	C40	0.837010	0.224160	0.709650
H321	H32	0.807800	0.227800	0.683400
C411	C41	0.864260	0.268560	0.509670
H331	H33	0.838700	0.261500	0.482900
C421	C42	0.858630	0.232000	0.541940
H341	H34	0.830000	0.200400	0.536900
C431	C43	0.929060	0.175440	0.753940
H351	H35	0.961800	0.145200	0.758500
C441	C44	0.928950	0.215020	0.784720
H361	H36	0.962800	0.211800	0.809600
C451	C45	0.946000	0.323500	0.555920
H371	H37	0.977700	0.354000	0.561200
C461	C46	0.906890	0.315810	0.515570
C471	C47	0.911540	0.355250	0.479290
H381	H38	0.911200	0.336600	0.451800
H391	H39	0.966100	0.374000	0.481300
C481	C48	0.937960	0.286340	0.587790
H401	H40	0.963300	0.292300	0.614700
O171	O17	0.369730	0.109200	0.689570
O181	O18	0.362460	0.043750	0.612310
N91	N9	0.367730	0.069560	0.717480
O191	O19	0.444320	0.922850	0.815610
C491	C49	0.371380	0.990580	0.778590
C501	C50	0.375780	0.948450	0.812880
O201	O20	0.309430	0.943170	0.835950
N101	N10	0.355910	0.008730	0.580990
C511	C51	0.416860	0.985960	0.740140
H411	H41	0.450000	0.956100	0.734800
C521	C52	0.412990	0.025840	0.709650
H421	H42	0.442200	0.022200	0.683400
C531	C53	0.385740	0.981440	0.509670
H431	H43	0.411300	0.988500	0.482900
C541	C54	0.391370	0.018000	0.541940
H441	H44	0.420000	0.049600	0.536900
C551	C55	0.320940	0.074560	0.753940
H451	H45	0.288200	0.104800	0.758500
C561	C56	0.321050	0.034980	0.784720
H461	H46	0.287200	0.038200	0.809600
C571	C57	0.304000	0.926500	0.555920
H471	H47	0.272300	0.896000	0.561200
C581	C58	0.343110	0.934190	0.515570
C591	C59	0.338460	0.894750	0.479290
H481	H48	0.338800	0.913400	0.451800
H491	H49	0.283900	0.876000	0.481300
C601	C60	0.312040	0.963660	0.587790
H501	H50	0.286700	0.957700	0.614700
O211	O21	0.369730	0.609200	0.189570
O221	O22	0.362460	0.543750	0.112310
N111	N11	0.367730	0.569560	0.217480
O231	O23	0.444320	0.422850	0.315610
C611	C61	0.371380	0.490580	0.278590
C621	C62	0.375780	0.448450	0.312880
O241	O24	0.309430	0.443170	0.335950
N121	N12	0.355910	0.508730	0.080990
C631	C63	0.416860	0.485960	0.240140
H511	H51	0.450000	0.456100	0.234800
C641	C64	0.412990	0.525840	0.209650
H521	H52	0.442200	0.522200	0.183400
C651	C65	0.385740	0.481440	0.009670
H531	H53	0.411300	0.488500	0.982900
C661	C66	0.391370	0.518000	0.041940
H541	H54	0.420000	0.549600	0.036900
C671	C67	0.320940	0.574560	0.253940
H551	H55	0.288200	0.604800	0.258500
C681	C68	0.321050	0.534980	0.284720
H561	H56	0.287200	0.538200	0.309600
C691	C69	0.304000	0.426500	0.055920
H571	H57	0.272300	0.396000	0.061200
C701	C70	0.343110	0.434190	0.015570
C711	C71	0.338460	0.394750	0.979290
H581	H58	0.338800	0.413400	0.951800
H591	H59	0.283900	0.376000	0.981300
C721	C72	0.312040	0.463660	0.087790
H601	H60	0.286700	0.457700	0.114700
O251	O25	0.869730	0.109200	0.189570
O261	O26	0.862460	0.043750	0.112310
N131	N13	0.867730	0.069560	0.217480
O271	O27	0.944320	0.922850	0.315610
C731	C73	0.871380	0.990580	0.278590
C741	C74	0.875780	0.948450	0.312880
O281	O28	0.809430	0.943170	0.335950
N141	N14	0.855910	0.008730	0.080990
C751	C75	0.916860	0.985960	0.240140
H611	H61	0.950000	0.956100	0.234800
C761	C76	0.912990	0.025840	0.209650
H621	H62	0.942200	0.022200	0.183400
C771	C77	0.885740	0.981440	0.009670
H631	H63	0.911300	0.988500	0.982900
C781	C78	0.891370	0.018000	0.041940
H641	H64	0.920000	0.049600	0.036900
C791	C79	0.820940	0.074560	0.253940
H651	H65	0.788200	0.104800	0.258500
C801	C80	0.821050	0.034980	0.284720
H661	H66	0.787200	0.038200	0.309600
C811	C81	0.804000	0.926500	0.055920
H671	H67	0.772300	0.896000	0.061200
C821	C82	0.843110	0.934190	0.015570
C831	C83	0.838460	0.894750	0.979290
H681	H68	0.838800	0.913400	0.951800
H691	H69	0.783900	0.876000	0.981300
C841	C84	0.812040	0.963660	0.087790
H701	H70	0.786700	0.957700	0.114700
O291	O29	0.869730	0.609200	0.689570
O301	O30	0.862460	0.543750	0.612310
N151	N15	0.867730	0.569560	0.717480
O311	O31	0.944320	0.422850	0.815610
C851	C85	0.871380	0.490580	0.778590
C861	C86	0.875780	0.448450	0.812880
O321	O32	0.809430	0.443170	0.835950
N161	N16	0.855910	0.508730	0.580990
C871	C87	0.916860	0.485960	0.740140
H711	H71	0.950000	0.456100	0.734800
C881	C88	0.912990	0.525840	0.709650
H721	H72	0.942200	0.522200	0.683400
C891	C89	0.885740	0.481440	0.509670
H731	H73	0.911300	0.488500	0.482900
C901	C90	0.891370	0.518000	0.541940
H741	H74	0.920000	0.549600	0.536900
C911	C91	0.820940	0.574560	0.753940
H751	H75	0.788200	0.604800	0.758500
C921	C92	0.821050	0.534980	0.784720
H761	H76	0.787200	0.538200	0.809600
C931	C93	0.804000	0.426500	0.555920
H771	H77	0.772300	0.396000	0.561200
C941	C94	0.843110	0.434190	0.515570
C951	C95	0.838460	0.394750	0.479290
H781	H78	0.838800	0.413400	0.451800
H791	H79	0.783900	0.376000	0.481300
C961	C96	0.812040	0.463660	0.587790
H801	H80	0.786700	0.457700	0.614700
O331	O33	0.369730	0.640800	0.060430
O341	O34	0.362460	0.706250	0.137690
N171	N17	0.367730	0.680440	0.032520
O351	O35	0.444320	0.827150	0.934390
C971	C97	0.371380	0.759420	0.971410
C981	C98	0.375780	0.801550	0.937120
O361	O36	0.309430	0.806830	0.914050
N181	N18	0.355910	0.741270	0.169010
C991	C99	0.416860	0.764040	0.009860
H811	H81	0.450000	0.793900	0.015200
C1001	C100	0.412990	0.724160	0.040350
H821	H82	0.442200	0.727800	0.066600
C1011	C101	0.385740	0.768560	0.240330
H831	H83	0.411300	0.761500	0.267100
C1021	C102	0.391370	0.732000	0.208060
H841	H84	0.420000	0.700400	0.213100
C1031	C103	0.320940	0.675440	0.996060
H851	H85	0.288200	0.645200	0.991500
C1041	C104	0.321050	0.715020	0.965280
H861	H86	0.287200	0.711800	0.940400
C1051	C105	0.304000	0.823500	0.194080
H871	H87	0.272300	0.854000	0.188800
C1061	C106	0.343110	0.815810	0.234430
C1071	C107	0.338460	0.855250	0.270710
H881	H88	0.338800	0.836600	0.298200
H891	H89	0.283900	0.874000	0.268700
C1081	C108	0.312040	0.786340	0.162210
H901	H90	0.286700	0.792300	0.135300
O371	O37	0.369730	0.140800	0.560430
O381	O38	0.362460	0.206250	0.637690
N191	N19	0.367730	0.180440	0.532520
O391	O39	0.444320	0.327150	0.434390
C1091	C109	0.371380	0.259420	0.471410
C1101	C110	0.375780	0.301550	0.437120
O401	O40	0.309430	0.306830	0.414050
N201	N20	0.355910	0.241270	0.669010
C1111	C111	0.416860	0.264040	0.509860
H911	H91	0.450000	0.293900	0.515200
C1121	C112	0.412990	0.224160	0.540350
H921	H92	0.442200	0.227800	0.566600
C1131	C113	0.385740	0.268560	0.740330
H931	H93	0.411300	0.261500	0.767100
C1141	C114	0.391370	0.232000	0.708060
H941	H94	0.420000	0.200400	0.713100
C1151	C115	0.320940	0.175440	0.496060
H951	H95	0.288200	0.145200	0.491500
C1161	C116	0.321050	0.215020	0.465280
H961	H96	0.287200	0.211800	0.440400
C1171	C117	0.304000	0.323500	0.694080
H971	H97	0.272300	0.354000	0.688800
C1181	C118	0.343110	0.315810	0.734430
C1191	C119	0.338460	0.355250	0.770710
H981	H98	0.338800	0.336600	0.798200
H991	H99	0.283900	0.374000	0.768700
C1201	C120	0.312040	0.286340	0.662210
H1001	H100	0.286700	0.292300	0.635300
O411	O41	0.869730	0.640800	0.560430
O421	O42	0.862460	0.706250	0.637690
N211	N21	0.867730	0.680440	0.532520
O431	O43	0.944320	0.827150	0.434390
C1211	C121	0.871380	0.759420	0.471410
C1221	C122	0.875780	0.801550	0.437120
O441	O44	0.809430	0.806830	0.414050
N221	N22	0.855910	0.741270	0.669010
C1231	C123	0.916860	0.764040	0.509860
H1011	H101	0.950000	0.793900	0.515200
C1241	C124	0.912990	0.724160	0.540350
H1021	H102	0.942200	0.727800	0.566600
C1251	C125	0.885740	0.768560	0.740330
H1031	H103	0.911300	0.761500	0.767100
C1261	C126	0.891370	0.732000	0.708060
H1041	H104	0.920000	0.700400	0.713100
C1271	C127	0.820940	0.675440	0.496060
H1051	H105	0.788200	0.645200	0.491500
C1281	C128	0.821050	0.715020	0.465280
H1061	H106	0.787200	0.711800	0.440400
C1291	C129	0.804000	0.823500	0.694080
H1071	H107	0.772300	0.854000	0.688800
C1301	C130	0.843110	0.815810	0.734430
C1311	C131	0.838460	0.855250	0.770710
H1081	H108	0.838800	0.836600	0.798200
H1091	H109	0.783900	0.874000	0.768700
C1321	C132	0.812040	0.786340	0.662210
H1101	H110	0.786700	0.792300	0.635300
O451	O45	0.869730	0.140800	0.060430
O461	O46	0.862460	0.206250	0.137690
N231	N23	0.867730	0.180440	0.032520
O471	O47	0.944320	0.327150	0.934390
C1331	C133	0.871380	0.259420	0.971410
C1341	C134	0.875780	0.301550	0.937120
O481	O48	0.809430	0.306830	0.914050
N241	N24	0.855910	0.241270	0.169010
C1351	C135	0.916860	0.264040	0.009860
H1111	H111	0.950000	0.293900	0.015200
C1361	C136	0.912990	0.224160	0.040350
H1121	H112	0.942200	0.227800	0.066600
C1371	C137	0.885740	0.268560	0.240330
H1131	H113	0.911300	0.261500	0.267100
C1381	C138	0.891370	0.232000	0.208060
H1141	H114	0.920000	0.200400	0.213100
C1391	C139	0.820940	0.175440	0.996060
H1151	H115	0.788200	0.145200	0.991500
C1401	C140	0.821050	0.215020	0.965280
H1161	H116	0.787200	0.211800	0.940400
C1411	C141	0.804000	0.323500	0.194080
H1171	H117	0.772300	0.354000	0.188800
C1421	C142	0.843110	0.315810	0.234430
C1431	C143	0.838460	0.355250	0.270710
H1181	H118	0.838800	0.336600	0.298200
H1191	H119	0.783900	0.374000	0.268700
C1441	C144	0.812040	0.286340	0.162210
H1201	H120	0.786700	0.292300	0.135300
O491	O49	0.380270	0.109200	0.060430
O501	O50	0.387540	0.043750	0.137690
N251	N25	0.382270	0.069560	0.032520
O511	O51	0.305680	0.922850	0.934390
C1451	C145	0.378620	0.990580	0.971410
C1461	C146	0.374220	0.948450	0.937120
O521	O52	0.440570	0.943170	0.914050
N261	N26	0.394090	0.008730	0.169010
C1471	C147	0.333140	0.985960	0.009860
H1211	H121	0.300000	0.956100	0.015200
C1481	C148	0.337010	0.025840	0.040350
H1221	H122	0.307800	0.022200	0.066600
C1491	C149	0.364260	0.981440	0.240330
H1231	H123	0.338700	0.988500	0.267100
C1501	C150	0.358630	0.018000	0.208060
H1241	H124	0.330000	0.049600	0.213100
C1511	C151	0.429060	0.074560	0.996060
H1251	H125	0.461800	0.104800	0.991500
C1521	C152	0.428950	0.034980	0.965280
H1261	H126	0.462800	0.038200	0.940400
C1531	C153	0.446000	0.926500	0.194080
H1271	H127	0.477700	0.896000	0.188800
C1541	C154	0.406890	0.934190	0.234430
C1551	C155	0.411540	0.894750	0.270710
H1281	H128	0.411200	0.913400	0.298200
H1291	H129	0.466100	0.876000	0.268700
C1561	C156	0.437960	0.963660	0.162210
H1301	H130	0.463300	0.957700	0.135300
O531	O53	0.380270	0.609200	0.560430
O541	O54	0.387540	0.543750	0.637690
N271	N27	0.382270	0.569560	0.532520
O551	O55	0.305680	0.422850	0.434390
C1571	C157	0.378620	0.490580	0.471410
C1581	C158	0.374220	0.448450	0.437120
O561	O56	0.440570	0.443170	0.414050
N281	N28	0.394090	0.508730	0.669010
C1591	C159	0.333140	0.485960	0.509860
H1311	H131	0.300000	0.456100	0.515200
C1601	C160	0.337010	0.525840	0.540350
H1321	H132	0.307800	0.522200	0.566600
C1611	C161	0.364260	0.481440	0.740330
H1331	H133	0.338700	0.488500	0.767100
C1621	C162	0.358630	0.518000	0.708060
H1341	H134	0.330000	0.549600	0.713100
C1631	C163	0.429060	0.574560	0.496060
H1351	H135	0.461800	0.604800	0.491500
C1641	C164	0.428950	0.534980	0.465280
H1361	H136	0.462800	0.538200	0.440400
C1651	C165	0.446000	0.426500	0.694080
H1371	H137	0.477700	0.396000	0.688800
C1661	C166	0.406890	0.434190	0.734430
C1671	C167	0.411540	0.394750	0.770710
H1381	H138	0.411200	0.413400	0.798200
H1391	H139	0.466100	0.376000	0.768700
C1681	C168	0.437960	0.463660	0.662210
H1401	H140	0.463300	0.457700	0.635300
O571	O57	0.880270	0.109200	0.560430
O581	O58	0.887540	0.043750	0.637690
N291	N29	0.882270	0.069560	0.532520
O591	O59	0.805680	0.922850	0.434390
C1691	C169	0.878620	0.990580	0.471410
C1701	C170	0.874220	0.948450	0.437120
O601	O60	0.940570	0.943170	0.414050
N301	N30	0.894090	0.008730	0.669010
C1711	C171	0.833140	0.985960	0.509860
H1411	H141	0.800000	0.956100	0.515200
C1721	C172	0.837010	0.025840	0.540350
H1421	H142	0.807800	0.022200	0.566600
C1731	C173	0.864260	0.981440	0.740330
H1431	H143	0.838700	0.988500	0.767100
C1741	C174	0.858630	0.018000	0.708060
H1441	H144	0.830000	0.049600	0.713100
C1751	C175	0.929060	0.074560	0.496060
H1451	H145	0.961800	0.104800	0.491500
C1761	C176	0.928950	0.034980	0.465280
H1461	H146	0.962800	0.038200	0.440400
C1771	C177	0.946000	0.926500	0.694080
H1471	H147	0.977700	0.896000	0.688800
C1781	C178	0.906890	0.934190	0.734430
C1791	C179	0.911540	0.894750	0.770710
H1481	H148	0.911200	0.913400	0.798200
H1491	H149	0.966100	0.876000	0.768700
C1801	C180	0.937960	0.963660	0.662210
H1501	H150	0.963300	0.957700	0.635300
O611	O61	0.880270	0.609200	0.060430
O621	O62	0.887540	0.543750	0.137690
N311	N31	0.882270	0.569560	0.032520
O631	O63	0.805680	0.422850	0.934390
C1811	C181	0.878620	0.490580	0.971410
C1821	C182	0.874220	0.448450	0.937120
O641	O64	0.940570	0.443170	0.914050
N321	N32	0.894090	0.508730	0.169010
C1831	C183	0.833140	0.485960	0.009860
H1511	H151	0.800000	0.456100	0.015200
C1841	C184	0.837010	0.525840	0.040350
H1521	H152	0.807800	0.522200	0.066600
C1851	C185	0.864260	0.481440	0.240330
H1531	H153	0.838700	0.488500	0.267100
C1861	C186	0.858630	0.518000	0.208060
H1541	H154	0.830000	0.549600	0.213100
C1871	C187	0.929060	0.574560	0.996060
H1551	H155	0.961800	0.604800	0.991500
C1881	C188	0.928950	0.534980	0.965280
H1561	H156	0.962800	0.538200	0.940400
C1891	C189	0.946000	0.426500	0.194080
H1571	H157	0.977700	0.396000	0.188800
C1901	C190	0.906890	0.434190	0.234430
C1911	C191	0.911540	0.394750	0.270710
H1581	H158	0.911200	0.413400	0.298200
H1591	H159	0.966100	0.376000	0.268700
C1921	C192	0.937960	0.463660	0.162210
H1601	H160	0.963300	0.457700	0.135300
O651	O65	0.619730	0.359200	0.310430
O661	O66	0.612460	0.293750	0.387690
N331	N33	0.617730	0.319560	0.282520
O671	O67	0.694320	0.172850	0.184390
C1931	C193	0.621380	0.240580	0.221410
C1941	C194	0.625780	0.198450	0.187120
O681	O68	0.559430	0.193170	0.164050
N341	N34	0.605910	0.258730	0.419010
C1951	C195	0.666860	0.235960	0.259860
H1611	H161	0.700000	0.206100	0.265200
C1961	C196	0.662990	0.275840	0.290350
H1621	H162	0.692200	0.272200	0.316600
C1971	C197	0.635740	0.231440	0.490330
H1631	H163	0.661300	0.238500	0.517100
C1981	C198	0.641370	0.268000	0.458060
H1641	H164	0.670000	0.299600	0.463100
C1991	C199	0.570940	0.324560	0.246060
H1651	H165	0.538200	0.354800	0.241500
C2001	C200	0.571050	0.284980	0.215280
H1661	H166	0.537200	0.288200	0.190400
C2011	C201	0.554000	0.176500	0.444080
H1671	H167	0.522300	0.146000	0.438800
C2021	C202	0.593110	0.184190	0.484430
C2031	C203	0.588460	0.144750	0.520710
H1681	H168	0.588800	0.163400	0.548200
H1691	H169	0.533900	0.126000	0.518700
C2041	C204	0.562040	0.213660	0.412210
H1701	H170	0.536700	0.207700	0.385300
O691	O69	0.619730	0.859200	0.810430
O701	O70	0.612460	0.793750	0.887690
N351	N35	0.617730	0.819560	0.782520
O711	O71	0.694320	0.672850	0.684390
C2051	C205	0.621380	0.740580	0.721410
C2061	C206	0.625780	0.698450	0.687120
O721	O72	0.559430	0.693170	0.664050
N361	N36	0.605910	0.758730	0.919010
C2071	C207	0.666860	0.735960	0.759860
H1711	H171	0.700000	0.706100	0.765200
C2081	C208	0.662990	0.775840	0.790350
H1721	H172	0.692200	0.772200	0.816600
C2091	C209	0.635740	0.731440	0.990330
H1731	H173	0.661300	0.738500	0.017100
C2101	C210	0.641370	0.768000	0.958060
H1741	H174	0.670000	0.799600	0.963100
C2111	C211	0.570940	0.824560	0.746060
H1751	H175	0.538200	0.854800	0.741500
C2121	C212	0.571050	0.784980	0.715280
H1761	H176	0.537200	0.788200	0.690400
C2131	C213	0.554000	0.676500	0.944080
H1771	H177	0.522300	0.646000	0.938800
C2141	C214	0.593110	0.684190	0.984430
C2151	C215	0.588460	0.644750	0.020710
H1781	H178	0.588800	0.663400	0.048200
H1791	H179	0.533900	0.626000	0.018700
C2161	C216	0.562040	0.713660	0.912210
H1801	H180	0.536700	0.707700	0.885300
O731	O73	0.119730	0.359200	0.810430
O741	O74	0.112460	0.293750	0.887690
N371	N37	0.117730	0.319560	0.782520
O751	O75	0.194320	0.172850	0.684390
C2171	C217	0.121380	0.240580	0.721410
C2181	C218	0.125780	0.198450	0.687120
O761	O76	0.059430	0.193170	0.664050
N381	N38	0.105910	0.258730	0.919010
C2191	C219	0.166860	0.235960	0.759860
H1811	H181	0.200000	0.206100	0.765200
C2201	C220	0.162990	0.275840	0.790350
H1821	H182	0.192200	0.272200	0.816600
C2211	C221	0.135740	0.231440	0.990330
H1831	H183	0.161300	0.238500	0.017100
C2221	C222	0.141370	0.268000	0.958060
H1841	H184	0.170000	0.299600	0.963100
C2231	C223	0.070940	0.324560	0.746060
H1851	H185	0.038200	0.354800	0.741500
C2241	C224	0.071050	0.284980	0.715280
H1861	H186	0.037200	0.288200	0.690400
C2251	C225	0.054000	0.176500	0.944080
H1871	H187	0.022300	0.146000	0.938800
C2261	C226	0.093110	0.184190	0.984430
C2271	C227	0.088460	0.144750	0.020710
H1881	H188	0.088800	0.163400	0.048200
H1891	H189	0.033900	0.126000	0.018700
C2281	C228	0.062040	0.213660	0.912210
H1901	H190	0.036700	0.207700	0.885300
O771	O77	0.119730	0.859200	0.310430
O781	O78	0.112460	0.793750	0.387690
N391	N39	0.117730	0.819560	0.282520
O791	O79	0.194320	0.672850	0.184390
C2291	C229	0.121380	0.740580	0.221410
C2301	C230	0.125780	0.698450	0.187120
O801	O80	0.059430	0.693170	0.164050
N401	N40	0.105910	0.758730	0.419010
C2311	C231	0.166860	0.735960	0.259860
H1911	H191	0.200000	0.706100	0.265200
C2321	C232	0.162990	0.775840	0.290350
H1921	H192	0.192200	0.772200	0.316600
C2331	C233	0.135740	0.731440	0.490330
H1931	H193	0.161300	0.738500	0.517100
C2341	C234	0.141370	0.768000	0.458060
H1941	H194	0.170000	0.799600	0.463100
C2351	C235	0.070940	0.824560	0.246060
H1951	H195	0.038200	0.854800	0.241500
C2361	C236	0.071050	0.784980	0.215280
H1961	H196	0.037200	0.788200	0.190400
C2371	C237	0.054000	0.676500	0.444080
H1971	H197	0.022300	0.646000	0.438800
C2381	C238	0.093110	0.684190	0.484430
C2391	C239	0.088460	0.644750	0.520710
H1981	H198	0.088800	0.663400	0.548200
H1991	H199	0.033900	0.626000	0.518700
C2401	C240	0.062040	0.713660	0.412210
H2001	H200	0.036700	0.707700	0.385300
O811	O81	0.630270	0.890800	0.310430
O821	O82	0.637540	0.956250	0.387690
N411	N41	0.632270	0.930440	0.282520
O831	O83	0.555680	0.077150	0.184390
C2411	C241	0.628620	0.009420	0.221410
C2421	C242	0.624220	0.051550	0.187120
O841	O84	0.690570	0.056830	0.164050
N421	N42	0.644090	0.991270	0.419010
C2431	C243	0.583140	0.014040	0.259860
H2011	H201	0.550000	0.043900	0.265200
C2441	C244	0.587010	0.974160	0.290350
H2021	H202	0.557800	0.977800	0.316600
C2451	C245	0.614260	0.018560	0.490330
H2031	H203	0.588700	0.011500	0.517100
C2461	C246	0.608630	0.982000	0.458060
H2041	H204	0.580000	0.950400	0.463100
C2471	C247	0.679060	0.925440	0.246060
H2051	H205	0.711800	0.895200	0.241500
C2481	C248	0.678950	0.965020	0.215280
H2061	H206	0.712800	0.961800	0.190400
C2491	C249	0.696000	0.073500	0.444080
H2071	H207	0.727700	0.104000	0.438800
C2501	C250	0.656890	0.065810	0.484430
C2511	C251	0.661540	0.105250	0.520710
H2081	H208	0.661200	0.086600	0.548200
H2091	H209	0.716100	0.124000	0.518700
C2521	C252	0.687960	0.036340	0.412210
H2101	H210	0.713300	0.042300	0.385300
O851	O85	0.630270	0.390800	0.810430
O861	O86	0.637540	0.456250	0.887690
N431	N43	0.632270	0.430440	0.782520
O871	O87	0.555680	0.577150	0.684390
C2531	C253	0.628620	0.509420	0.721410
C2541	C254	0.624220	0.551550	0.687120
O881	O88	0.690570	0.556830	0.664050
N441	N44	0.644090	0.491270	0.919010
C2551	C255	0.583140	0.514040	0.759860
H2111	H211	0.550000	0.543900	0.765200
C2561	C256	0.587010	0.474160	0.790350
H2121	H212	0.557800	0.477800	0.816600
C2571	C257	0.614260	0.518560	0.990330
H2131	H213	0.588700	0.511500	0.017100
C2581	C258	0.608630	0.482000	0.958060
H2141	H214	0.580000	0.450400	0.963100
C2591	C259	0.679060	0.425440	0.746060
H2151	H215	0.711800	0.395200	0.741500
C2601	C260	0.678950	0.465020	0.715280
H2161	H216	0.712800	0.461800	0.690400
C2611	C261	0.696000	0.573500	0.944080
H2171	H217	0.727700	0.604000	0.938800
C2621	C262	0.656890	0.565810	0.984430
C2631	C263	0.661540	0.605250	0.020710
H2181	H218	0.661200	0.586600	0.048200
H2191	H219	0.716100	0.624000	0.018700
C2641	C264	0.687960	0.536340	0.912210
H2201	H220	0.713300	0.542300	0.885300
O891	O89	0.130270	0.890800	0.810430
O901	O90	0.137540	0.956250	0.887690
N451	N45	0.132270	0.930440	0.782520
O911	O91	0.055680	0.077150	0.684390
C2651	C265	0.128620	0.009420	0.721410
C2661	C266	0.124220	0.051550	0.687120
O921	O92	0.190570	0.056830	0.664050
N461	N46	0.144090	0.991270	0.919010
C2671	C267	0.083140	0.014040	0.759860
H2211	H221	0.050000	0.043900	0.765200
C2681	C268	0.087010	0.974160	0.790350
H2221	H222	0.057800	0.977800	0.816600
C2691	C269	0.114260	0.018560	0.990330
H2231	H223	0.088700	0.011500	0.017100
C2701	C270	0.108630	0.982000	0.958060
H2241	H224	0.080000	0.950400	0.963100
C2711	C271	0.179060	0.925440	0.746060
H2251	H225	0.211800	0.895200	0.741500
C2721	C272	0.178950	0.965020	0.715280
H2261	H226	0.212800	0.961800	0.690400
C2731	C273	0.196000	0.073500	0.944080
H2271	H227	0.227700	0.104000	0.938800
C2741	C274	0.156890	0.065810	0.984430
C2751	C275	0.161540	0.105250	0.020710
H2281	H228	0.161200	0.086600	0.048200
H2291	H229	0.216100	0.124000	0.018700
C2761	C276	0.187960	0.036340	0.912210
H2301	H230	0.213300	0.042300	0.885300
O931	O93	0.130270	0.390800	0.310430
O941	O94	0.137540	0.456250	0.387690
N471	N47	0.132270	0.430440	0.282520
O951	O95	0.055680	0.577150	0.184390
C2771	C277	0.128620	0.509420	0.221410
C2781	C278	0.124220	0.551550	0.187120
O961	O96	0.190570	0.556830	0.164050
N481	N48	0.144090	0.491270	0.419010
C2791	C279	0.083140	0.514040	0.259860
H2311	H231	0.050000	0.543900	0.265200
C2801	C280	0.087010	0.474160	0.290350
H2321	H232	0.057800	0.477800	0.316600
C2811	C281	0.114260	0.518560	0.490330
H2331	H233	0.088700	0.511500	0.517100
C2821	C282	0.108630	0.482000	0.458060
H2341	H234	0.080000	0.450400	0.463100
C2831	C283	0.179060	0.425440	0.246060
H2351	H235	0.211800	0.395200	0.241500
C2841	C284	0.178950	0.465020	0.215280
H2361	H236	0.212800	0.461800	0.190400
C2851	C285	0.196000	0.573500	0.444080
H2371	H237	0.227700	0.604000	0.438800
C2861	C286	0.156890	0.565810	0.484430
C2871	C287	0.161540	0.605250	0.520710
H2381	H238	0.161200	0.586600	0.548200
H2391	H239	0.216100	0.624000	0.518700
C2881	C288	0.187960	0.536340	0.412210
H2401	H240	0.213300	0.542300	0.385300
O971	O97	0.630270	0.359200	0.939570
O981	O98	0.637540	0.293750	0.862310
N491	N49	0.632270	0.319560	0.967480
O991	O99	0.555680	0.172850	0.065610
C2891	C289	0.628620	0.240580	0.028590
C2901	C290	0.624220	0.198450	0.062880
O1001	O100	0.690570	0.193170	0.085950
N501	N50	0.644090	0.258730	0.830990
C2911	C291	0.583140	0.235960	0.990140
H2411	H241	0.550000	0.206100	0.984800
C2921	C292	0.587010	0.275840	0.959650
H2421	H242	0.557800	0.272200	0.933400
C2931	C293	0.614260	0.231440	0.759670
H2431	H243	0.588700	0.238500	0.732900
C2941	C294	0.608630	0.268000	0.791940
H2441	H244	0.580000	0.299600	0.786900
C2951	C295	0.679060	0.324560	0.003940
H2451	H245	0.711800	0.354800	0.008500
C2961	C296	0.678950	0.284980	0.034720
H2461	H246	0.712800	0.288200	0.059600
C2971	C297	0.696000	0.176500	0.805920
H2471	H247	0.727700	0.146000	0.811200
C2981	C298	0.656890	0.184190	0.765570
C2991	C299	0.661540	0.144750	0.729290
H2481	H248	0.661200	0.163400	0.701800
H2491	H249	0.716100	0.126000	0.731300
C3001	C300	0.687960	0.213660	0.837790
H2501	H250	0.713300	0.207700	0.864700
O1011	O101	0.630270	0.859200	0.439570
O1021	O102	0.637540	0.793750	0.362310
N511	N51	0.632270	0.819560	0.467480
O1031	O103	0.555680	0.672850	0.565610
C3011	C301	0.628620	0.740580	0.528590
C3021	C302	0.624220	0.698450	0.562880
O1041	O104	0.690570	0.693170	0.585950
N521	N52	0.644090	0.758730	0.330990
C3031	C303	0.583140	0.735960	0.490140
H2511	H251	0.550000	0.706100	0.484800
C3041	C304	0.587010	0.775840	0.459650
H2521	H252	0.557800	0.772200	0.433400
C3051	C305	0.614260	0.731440	0.259670
H2531	H253	0.588700	0.738500	0.232900
C3061	C306	0.608630	0.768000	0.291940
H2541	H254	0.580000	0.799600	0.286900
C3071	C307	0.679060	0.824560	0.503940
H2551	H255	0.711800	0.854800	0.508500
C3081	C308	0.678950	0.784980	0.534720
H2561	H256	0.712800	0.788200	0.559600
C3091	C309	0.696000	0.676500	0.305920
H2571	H257	0.727700	0.646000	0.311200
C3101	C310	0.656890	0.684190	0.265570
C3111	C311	0.661540	0.644750	0.229290
H2581	H258	0.661200	0.663400	0.201800
H2591	H259	0.716100	0.626000	0.231300
C3121	C312	0.687960	0.713660	0.337790
H2601	H260	0.713300	0.707700	0.364700
O1051	O105	0.130270	0.359200	0.439570
O1061	O106	0.137540	0.293750	0.362310
N531	N53	0.132270	0.319560	0.467480
O1071	O107	0.055680	0.172850	0.565610
C3131	C313	0.128620	0.240580	0.528590
C3141	C314	0.124220	0.198450	0.562880
O1081	O108	0.190570	0.193170	0.585950
N541	N54	0.144090	0.258730	0.330990
C3151	C315	0.083140	0.235960	0.490140
H2611	H261	0.050000	0.206100	0.484800
C3161	C316	0.087010	0.275840	0.459650
H2621	H262	0.057800	0.272200	0.433400
C3171	C317	0.114260	0.231440	0.259670
H2631	H263	0.088700	0.238500	0.232900
C3181	C318	0.108630	0.268000	0.291940
H2641	H264	0.080000	0.299600	0.286900
C3191	C319	0.179060	0.324560	0.503940
H2651	H265	0.211800	0.354800	0.508500
C3201	C320	0.178950	0.284980	0.534720
H2661	H266	0.212800	0.288200	0.559600
C3211	C321	0.196000	0.176500	0.305920
H2671	H267	0.227700	0.146000	0.311200
C3221	C322	0.156890	0.184190	0.265570
C3231	C323	0.161540	0.144750	0.229290
H2681	H268	0.161200	0.163400	0.201800
H2691	H269	0.216100	0.126000	0.231300
C3241	C324	0.187960	0.213660	0.337790
H2701	H270	0.213300	0.207700	0.364700
O1091	O109	0.130270	0.859200	0.939570
O1101	O110	0.137540	0.793750	0.862310
N551	N55	0.132270	0.819560	0.967480
O1111	O111	0.055680	0.672850	0.065610
C3251	C325	0.128620	0.740580	0.028590
C3261	C326	0.124220	0.698450	0.062880
O1121	O112	0.190570	0.693170	0.085950
N561	N56	0.144090	0.758730	0.830990
C3271	C327	0.083140	0.735960	0.990140
H2711	H271	0.050000	0.706100	0.984800
C3281	C328	0.087010	0.775840	0.959650
H2721	H272	0.057800	0.772200	0.933400
C3291	C329	0.114260	0.731440	0.759670
H2731	H273	0.088700	0.738500	0.732900
C3301	C330	0.108630	0.768000	0.791940
H2741	H274	0.080000	0.799600	0.786900
C3311	C331	0.179060	0.824560	0.003940
H2751	H275	0.211800	0.854800	0.008500
C3321	C332	0.178950	0.784980	0.034720
H2761	H276	0.212800	0.788200	0.059600
C3331	C333	0.196000	0.676500	0.805920
H2771	H277	0.227700	0.646000	0.811200
C3341	C334	0.156890	0.684190	0.765570
C3351	C335	0.161540	0.644750	0.729290
H2781	H278	0.161200	0.663400	0.701800
H2791	H279	0.216100	0.626000	0.731300
C3361	C336	0.187960	0.713660	0.837790
H2801	H280	0.213300	0.707700	0.864700
O1131	O113	0.619730	0.890800	0.939570
O1141	O114	0.612460	0.956250	0.862310
N571	N57	0.617730	0.930440	0.967480
O1151	O115	0.694320	0.077150	0.065610
C3371	C337	0.621380	0.009420	0.028590
C3381	C338	0.625780	0.051550	0.062880
O1161	O116	0.559430	0.056830	0.085950
N581	N58	0.605910	0.991270	0.830990
C3391	C339	0.666860	0.014040	0.990140
H2811	H281	0.700000	0.043900	0.984800
C3401	C340	0.662990	0.974160	0.959650
H2821	H282	0.692200	0.977800	0.933400
C3411	C341	0.635740	0.018560	0.759670
H2831	H283	0.661300	0.011500	0.732900
C3421	C342	0.641370	0.982000	0.791940
H2841	H284	0.670000	0.950400	0.786900
C3431	C343	0.570940	0.925440	0.003940
H2851	H285	0.538200	0.895200	0.008500
C3441	C344	0.571050	0.965020	0.034720
H2861	H286	0.537200	0.961800	0.059600
C3451	C345	0.554000	0.073500	0.805920
H2871	H287	0.522300	0.104000	0.811200
C3461	C346	0.593110	0.065810	0.765570
C3471	C347	0.588460	0.105250	0.729290
H2881	H288	0.588800	0.086600	0.701800
H2891	H289	0.533900	0.124000	0.731300
C3481	C348	0.562040	0.036340	0.837790
H2901	H290	0.536700	0.042300	0.864700
O1171	O117	0.619730	0.390800	0.439570
O1181	O118	0.612460	0.456250	0.362310
N591	N59	0.617730	0.430440	0.467480
O1191	O119	0.694320	0.577150	0.565610
C3491	C349	0.621380	0.509420	0.528590
C3501	C350	0.625780	0.551550	0.562880
O1201	O120	0.559430	0.556830	0.585950
N601	N60	0.605910	0.491270	0.330990
C3511	C351	0.666860	0.514040	0.490140
H2911	H291	0.700000	0.543900	0.484800
C3521	C352	0.662990	0.474160	0.459650
H2921	H292	0.692200	0.477800	0.433400
C3531	C353	0.635740	0.518560	0.259670
H2931	H293	0.661300	0.511500	0.232900
C3541	C354	0.641370	0.482000	0.291940
H2941	H294	0.670000	0.450400	0.286900
C3551	C355	0.570940	0.425440	0.503940
H2951	H295	0.538200	0.395200	0.508500
C3561	C356	0.571050	0.465020	0.534720
H2961	H296	0.537200	0.461800	0.559600
C3571	C357	0.554000	0.573500	0.305920
H2971	H297	0.522300	0.604000	0.311200
C3581	C358	0.593110	0.565810	0.265570
C3591	C359	0.588460	0.605250	0.229290
H2981	H298	0.588800	0.586600	0.201800
H2991	H299	0.533900	0.624000	0.231300
C3601	C360	0.562040	0.536340	0.337790
H3001	H300	0.536700	0.542300	0.364700
O1211	O121	0.119730	0.890800	0.439570
O1221	O122	0.112460	0.956250	0.362310
N611	N61	0.117730	0.930440	0.467480
O1231	O123	0.194320	0.077150	0.565610
C3611	C361	0.121380	0.009420	0.528590
C3621	C362	0.125780	0.051550	0.562880
O1241	O124	0.059430	0.056830	0.585950
N621	N62	0.105910	0.991270	0.330990
C3631	C363	0.166860	0.014040	0.490140
H3011	H301	0.200000	0.043900	0.484800
C3641	C364	0.162990	0.974160	0.459650
H3021	H302	0.192200	0.977800	0.433400
C3651	C365	0.135740	0.018560	0.259670
H3031	H303	0.161300	0.011500	0.232900
C3661	C366	0.141370	0.982000	0.291940
H3041	H304	0.170000	0.950400	0.286900
C3671	C367	0.070940	0.925440	0.503940
H3051	H305	0.038200	0.895200	0.508500
C3681	C368	0.071050	0.965020	0.534720
H3061	H306	0.037200	0.961800	0.559600
C3691	C369	0.054000	0.073500	0.305920
H3071	H307	0.022300	0.104000	0.311200
C3701	C370	0.093110	0.065810	0.265570
C3711	C371	0.088460	0.105250	0.229290
H3081	H308	0.088800	0.086600	0.201800
H3091	H309	0.033900	0.124000	0.231300
C3721	C372	0.062040	0.036340	0.337790
H3101	H310	0.036700	0.042300	0.364700
O1251	O125	0.119730	0.390800	0.939570
O1261	O126	0.112460	0.456250	0.862310
N631	N63	0.117730	0.430440	0.967480
O1271	O127	0.194320	0.577150	0.065610
C3731	C373	0.121380	0.509420	0.028590
C3741	C374	0.125780	0.551550	0.062880
O1281	O128	0.059430	0.556830	0.085950
N641	N64	0.105910	0.491270	0.830990
C3751	C375	0.166860	0.514040	0.990140
H3111	H311	0.200000	0.543900	0.984800
C3761	C376	0.162990	0.474160	0.959650
H3121	H312	0.192200	0.477800	0.933400
C3771	C377	0.135740	0.518560	0.759670
H3131	H313	0.161300	0.511500	0.732900
C3781	C378	0.141370	0.482000	0.791940
H3141	H314	0.170000	0.450400	0.786900
C3791	C379	0.070940	0.425440	0.003940
H3151	H315	0.038200	0.395200	0.008500
C3801	C380	0.071050	0.465020	0.034720
H3161	H316	0.037200	0.461800	0.059600
C3811	C381	0.054000	0.573500	0.805920
H3171	H317	0.022300	0.604000	0.811200
C3821	C382	0.093110	0.565810	0.765570
C3831	C383	0.088460	0.605250	0.729290
H3181	H318	0.088800	0.586600	0.701800
H3191	H319	0.033900	0.624000	0.731300
C3841	C384	0.062040	0.536340	0.837790
H3201	H320	0.036700	0.542300	0.864700
La11	La1	0.474660	0.625000	0.625000
La21	La2	0.974660	0.625000	0.125000
La31	La3	0.275340	0.125000	0.625000
La41	La4	0.775340	0.125000	0.125000
La51	La5	0.775340	0.625000	0.625000
La61	La6	0.275340	0.625000	0.125000
La71	La7	0.474660	0.125000	0.125000
La81	La8	0.974660	0.125000	0.625000
La91	La9	0.525340	0.375000	0.375000
La101	La10	0.025340	0.375000	0.875000
La111	La11	0.724660	0.875000	0.375000
La121	La12	0.224660	0.875000	0.875000
La131	La13	0.724660	0.375000	0.875000
La141	La14	0.224660	0.375000	0.375000
La151	La15	0.525340	0.875000	0.875000
La161	La16	0.025340	0.875000	0.375000
