data_AXINAX01_clean_PM
_symmetry_space_group_name_H-M	'P1'
_cell_length_a	28.935200
_cell_length_b	28.935200
_cell_length_c	33.184000
_cell_angle_alpha	86.151100
_cell_angle_beta	86.151100
_cell_angle_gamma	76.693700
_symmetry_Int_Tables_number 1

loop_
_symmetry_equiv_pos_as_xyz
'x,y,z'

loop_
_atom_site_label
_atom_site_type_symbol
_atom_site_fract_x
_atom_site_fract_y
_atom_site_fract_z
Co11	Co1	0.240410	0.173960	0.855640
Co21	Co2	0.728100	0.793970	0.407450
Co31	Co3	0.244960	0.054200	0.869080
Co41	Co4	0.258320	0.711630	0.146610
Co51	Co5	0.696740	0.688790	0.393170
Co61	Co6	0.826040	0.759590	0.644360
Co71	Co7	0.206030	0.271900	0.092550
Co81	Co8	0.945800	0.755040	0.630920
Co91	Co9	0.288370	0.741680	0.353390
Co101	Co10	0.311210	0.303260	0.106830
Co111	Co11	0.759590	0.826040	0.144360
Co121	Co12	0.271900	0.206030	0.592550
Co131	Co13	0.755040	0.945800	0.130920
Co141	Co14	0.741680	0.288370	0.853390
Co151	Co15	0.303260	0.311210	0.606830
Co161	Co16	0.173960	0.240410	0.355640
Co171	Co17	0.793970	0.728100	0.907450
Co181	Co18	0.054200	0.244960	0.369080
Co191	Co19	0.711630	0.258320	0.646610
Co201	Co20	0.688790	0.696740	0.893170
Co211	Co21	0.269410	0.730590	0.250000
Co221	Co22	0.730590	0.269410	0.750000
H11	H1	0.202100	0.856900	0.116500
H21	H2	0.253300	0.880300	0.222100
H31	H3	0.235900	0.962300	0.204200
H41	H4	0.184900	0.937700	0.100100
H51	H5	0.211300	0.005900	0.079400
H61	H6	0.167300	0.139700	0.114900
H71	H7	0.176900	0.030900	0.197300
H81	H8	0.187500	0.173100	0.171800
H91	H9	0.110000	0.087600	0.225700
H101	H10	0.169500	0.222100	0.225000
H111	H11	0.092300	0.134900	0.280100
H121	H12	0.178800	0.042800	0.022200
H131	H13	0.190300	0.068700	0.954800
H141	H14	0.218200	0.153200	0.061900
H151	H15	0.229200	0.181400	0.994900
H161	H16	0.104700	0.698300	0.193500
H171	H17	0.051500	0.668300	0.238800
H181	H18	0.210700	0.644300	0.266200
H191	H19	0.158900	0.607300	0.308100
H201	H20	0.113500	0.544700	0.305900
H211	H21	0.013000	0.666000	0.307900
H221	H22	0.133500	0.477300	0.352000
H231	H23	0.000700	0.471700	0.333100
H241	H24	0.154500	0.395700	0.360500
H251	H25	0.021500	0.389700	0.341100
H261	H26	0.986500	0.545100	0.362200
H271	H27	0.911100	0.578700	0.348300
H281	H28	0.954500	0.700300	0.354300
H291	H29	0.879100	0.738300	0.372700
H301	H30	0.835300	0.617900	0.368300
H311	H31	0.395000	0.751600	0.116100
H321	H32	0.472500	0.760100	0.109400
H331	H33	0.493800	0.710800	0.224700
H341	H34	0.555800	0.729800	0.103500
H351	H35	0.611200	0.688600	0.064300
H361	H36	0.692500	0.771900	0.096700
H371	H37	0.737700	0.757500	0.036300
H381	H38	0.652600	0.677800	0.001400
H391	H39	0.541200	0.762600	0.219400
H401	H40	0.666900	0.752100	0.157400
H411	H41	0.670700	0.811300	0.207800
H421	H42	0.702500	0.823100	0.266300
H431	H43	0.627800	0.741200	0.328400
H441	H44	0.594000	0.728800	0.271400
H451	H45	0.415500	0.703900	0.232200
H461	H46	0.143100	0.797900	0.383500
H471	H47	0.119700	0.746700	0.277900
H481	H48	0.037700	0.764100	0.295800
H491	H49	0.062300	0.815100	0.399900
H501	H50	0.994100	0.788700	0.420600
H511	H51	0.860300	0.832700	0.385100
H521	H52	0.969100	0.823100	0.302700
H531	H53	0.826900	0.812500	0.328200
H541	H54	0.912400	0.890000	0.274300
H551	H55	0.777900	0.830500	0.275000
H561	H56	0.865100	0.907700	0.219900
H571	H57	0.957200	0.821200	0.477800
H581	H58	0.931300	0.809700	0.545200
H591	H59	0.846800	0.781800	0.438100
H601	H60	0.818600	0.770800	0.505100
H611	H61	0.301700	0.895300	0.306500
H621	H62	0.331700	0.948500	0.261200
H631	H63	0.355700	0.789300	0.233800
H641	H64	0.392700	0.841100	0.191900
H651	H65	0.455300	0.886500	0.194100
H661	H66	0.334000	0.987000	0.192100
H671	H67	0.522700	0.866500	0.148000
H681	H68	0.528300	0.999300	0.166900
H691	H69	0.604300	0.845500	0.139500
H701	H70	0.610300	0.978500	0.158900
H711	H71	0.454900	0.013500	0.137800
H721	H72	0.421300	0.088900	0.151700
H731	H73	0.299700	0.045500	0.145700
H741	H74	0.261700	0.120900	0.127300
H751	H75	0.382100	0.164700	0.131700
H761	H76	0.248400	0.605000	0.383900
H771	H77	0.239900	0.527500	0.390600
H781	H78	0.289200	0.506200	0.275300
H791	H79	0.270200	0.444200	0.396500
H801	H80	0.311400	0.388800	0.435700
H811	H81	0.228100	0.307500	0.403300
H821	H82	0.242500	0.262300	0.463700
H831	H83	0.322200	0.347400	0.498600
H841	H84	0.237400	0.458800	0.280600
H851	H85	0.247900	0.333100	0.342600
H861	H86	0.188700	0.329300	0.292200
H871	H87	0.176900	0.297500	0.233700
H881	H88	0.258800	0.372200	0.171600
H891	H89	0.271200	0.406000	0.228600
H901	H90	0.296100	0.584500	0.267800
H911	H91	0.797900	0.143100	0.883500
H921	H92	0.746700	0.119700	0.777900
H931	H93	0.764100	0.037700	0.795800
H941	H94	0.815100	0.062300	0.899900
H951	H95	0.788700	0.994100	0.920600
H961	H96	0.832700	0.860300	0.885100
H971	H97	0.823100	0.969100	0.802700
H981	H98	0.812500	0.826900	0.828200
H991	H99	0.890000	0.912400	0.774300
H1001	H100	0.830500	0.777900	0.775000
H1011	H101	0.907700	0.865100	0.719900
H1021	H102	0.821200	0.957200	0.977800
H1031	H103	0.809700	0.931300	0.045200
H1041	H104	0.781800	0.846800	0.938100
H1051	H105	0.770800	0.818600	0.005100
H1061	H106	0.895300	0.301700	0.806500
H1071	H107	0.948500	0.331700	0.761200
H1081	H108	0.789300	0.355700	0.733800
H1091	H109	0.841100	0.392700	0.691900
H1101	H110	0.886500	0.455300	0.694100
H1111	H111	0.987000	0.334000	0.692100
H1121	H112	0.866500	0.522700	0.648000
H1131	H113	0.999300	0.528300	0.666900
H1141	H114	0.845500	0.604300	0.639500
H1151	H115	0.978500	0.610300	0.658900
H1161	H116	0.013500	0.454900	0.637800
H1171	H117	0.088900	0.421300	0.651700
H1181	H118	0.045500	0.299700	0.645700
H1191	H119	0.120900	0.261700	0.627300
H1201	H120	0.164700	0.382100	0.631700
H1211	H121	0.605000	0.248400	0.883900
H1221	H122	0.527500	0.239900	0.890600
H1231	H123	0.506200	0.289200	0.775300
H1241	H124	0.444200	0.270200	0.896500
H1251	H125	0.388800	0.311400	0.935700
H1261	H126	0.307500	0.228100	0.903300
H1271	H127	0.262300	0.242500	0.963700
H1281	H128	0.347400	0.322200	0.998600
H1291	H129	0.458800	0.237400	0.780600
H1301	H130	0.333100	0.247900	0.842600
H1311	H131	0.329300	0.188700	0.792200
H1321	H132	0.297500	0.176900	0.733700
H1331	H133	0.372200	0.258800	0.671600
H1341	H134	0.406000	0.271200	0.728600
H1351	H135	0.584500	0.296100	0.767800
H1361	H136	0.856900	0.202100	0.616500
H1371	H137	0.880300	0.253300	0.722100
H1381	H138	0.962300	0.235900	0.704200
H1391	H139	0.937700	0.184900	0.600100
H1401	H140	0.005900	0.211300	0.579400
H1411	H141	0.139700	0.167300	0.614900
H1421	H142	0.030900	0.176900	0.697300
H1431	H143	0.173100	0.187500	0.671800
H1441	H144	0.087600	0.110000	0.725700
H1451	H145	0.222100	0.169500	0.725000
H1461	H146	0.134900	0.092300	0.780100
H1471	H147	0.042800	0.178800	0.522200
H1481	H148	0.068700	0.190300	0.454800
H1491	H149	0.153200	0.218200	0.561900
H1501	H150	0.181400	0.229200	0.494900
H1511	H151	0.698300	0.104700	0.693500
H1521	H152	0.668300	0.051500	0.738800
H1531	H153	0.644300	0.210700	0.766200
H1541	H154	0.607300	0.158900	0.808100
H1551	H155	0.544700	0.113500	0.805900
H1561	H156	0.666000	0.013000	0.807900
H1571	H157	0.477300	0.133500	0.852000
H1581	H158	0.471700	0.000700	0.833100
H1591	H159	0.395700	0.154500	0.860500
H1601	H160	0.389700	0.021500	0.841100
H1611	H161	0.545100	0.986500	0.862200
H1621	H162	0.578700	0.911100	0.848300
H1631	H163	0.700300	0.954500	0.854300
H1641	H164	0.738300	0.879100	0.872700
H1651	H165	0.617900	0.835300	0.868300
H1661	H166	0.751600	0.395000	0.616100
H1671	H167	0.760100	0.472500	0.609400
H1681	H168	0.710800	0.493800	0.724700
H1691	H169	0.729800	0.555800	0.603500
H1701	H170	0.688600	0.611200	0.564300
H1711	H171	0.771900	0.692500	0.596700
H1721	H172	0.757500	0.737700	0.536300
H1731	H173	0.677800	0.652600	0.501400
H1741	H174	0.762600	0.541200	0.719400
H1751	H175	0.752100	0.666900	0.657400
H1761	H176	0.811300	0.670700	0.707800
H1771	H177	0.823100	0.702500	0.766300
H1781	H178	0.741200	0.627800	0.828400
H1791	H179	0.728800	0.594000	0.771400
H1801	H180	0.703900	0.415500	0.732200
C11	C1	0.238890	0.808230	0.182170
C21	C2	0.701040	0.716920	0.014490
C31	C3	0.208470	0.878010	0.134270
C41	C4	0.726710	0.709070	0.971750
C51	C5	0.228350	0.861090	0.171530
C61	C6	0.239420	0.891880	0.197860
C71	C7	0.229000	0.941200	0.186820
C81	C8	0.198540	0.926040	0.124440
C91	C9	0.209110	0.958330	0.151390
C101	C10	0.196250	0.010330	0.140670
C111	C11	0.201160	0.027100	0.099690
C121	C12	0.190230	0.077010	0.090310
C131	C13	0.174580	0.107080	0.121000
C141	C14	0.169270	0.090230	0.161660
C151	C15	0.180210	0.042290	0.170620
C161	C16	0.153630	0.124690	0.194080
C171	C17	0.168860	0.164960	0.193870
C181	C18	0.122830	0.114190	0.226220
C191	C19	0.157720	0.194700	0.225570
C201	C20	0.111600	0.143000	0.258490
C211	C21	0.128370	0.183430	0.259070
C221	C22	0.119930	0.213130	0.294530
C231	C23	0.197700	0.095120	0.048830
C241	C24	0.189420	0.070680	0.016610
C251	C25	0.196240	0.085660	0.975930
C261	C26	0.212580	0.136040	0.040780
C271	C27	0.212790	0.128570	0.968870
C281	C28	0.219640	0.152920	0.999990
C291	C29	0.222790	0.144250	0.925610
C301	C30	0.197900	0.691120	0.197300
C311	C31	0.162560	0.674260	0.226460
C321	C32	0.115320	0.681180	0.217110
C331	C33	0.083720	0.661980	0.243620
C341	C34	0.179140	0.648040	0.259980
C351	C35	0.147640	0.626360	0.285570
C361	C36	0.101070	0.633390	0.277140
C371	C37	0.067340	0.609020	0.302680
C381	C38	0.082630	0.560650	0.313170
C391	C39	0.051100	0.536020	0.334860
C401	C40	0.022480	0.633540	0.314470
C411	C41	0.110610	0.459810	0.349900
C421	C42	0.031730	0.456270	0.338580
C431	C43	0.066120	0.482800	0.342050
C441	C44	0.123380	0.410700	0.354920
C451	C45	0.044170	0.407330	0.343390
C461	C46	0.990670	0.609450	0.336710
C471	C47	0.006790	0.560970	0.346780
C481	C48	0.942690	0.635070	0.349390
C491	C49	0.905090	0.610690	0.353630
C501	C50	0.930820	0.683160	0.357020
C511	C51	0.885620	0.705920	0.368400
C521	C52	0.849140	0.681760	0.373780
C531	C53	0.859460	0.634400	0.365680
C541	C54	0.799290	0.706590	0.386320
C551	C55	0.397910	0.723610	0.174040
C561	C56	0.347480	0.717360	0.179100
C571	C57	0.414640	0.742920	0.137690
C581	C58	0.461090	0.748970	0.134150
C591	C59	0.473780	0.719600	0.203320
C601	C60	0.490590	0.739230	0.165660
C611	C61	0.540580	0.744420	0.162840
C621	C62	0.568800	0.736940	0.126520
C631	C63	0.615700	0.740320	0.125090
C641	C64	0.646340	0.731340	0.086460
C651	C65	0.636320	0.703400	0.058260
C661	C66	0.684740	0.752480	0.078250
C671	C67	0.711580	0.743860	0.041670
C681	C68	0.661300	0.695540	0.020720
C691	C69	0.560210	0.756110	0.195820
C701	C70	0.635080	0.750540	0.158850
C711	C71	0.608490	0.758730	0.195580
C721	C72	0.628180	0.769060	0.232310
C731	C73	0.661540	0.797060	0.232070
C741	C74	0.680870	0.803790	0.267020
C751	C75	0.668970	0.782370	0.303420
C761	C76	0.636440	0.755240	0.303870
C771	C77	0.615940	0.747800	0.269920
C781	C78	0.427430	0.714030	0.207260
C791	C79	0.104000	0.330440	0.355410
C801	C80	0.090840	0.384280	0.351690
C811	C81	0.692560	0.787340	0.340130
C821	C82	0.191770	0.761110	0.317830
C831	C83	0.283080	0.298960	0.485510
C841	C84	0.121990	0.791530	0.365730
C851	C85	0.290930	0.273290	0.528250
C861	C86	0.138910	0.771650	0.328470
C871	C87	0.108120	0.760580	0.302140
C881	C88	0.058800	0.771000	0.313180
C891	C89	0.073960	0.801460	0.375560
C901	C90	0.041670	0.790890	0.348610
C911	C91	0.989670	0.803750	0.359330
C921	C92	0.972900	0.798840	0.400310
C931	C93	0.922990	0.809770	0.409690
C941	C94	0.892920	0.825420	0.379000
C951	C95	0.909770	0.830730	0.338340
C961	C96	0.957710	0.819790	0.329380
C971	C97	0.875310	0.846370	0.305920
C981	C98	0.835040	0.831140	0.306130
C991	C99	0.885810	0.877170	0.273780
C1001	C100	0.805300	0.842280	0.274430
C1011	C101	0.857000	0.888400	0.241510
C1021	C102	0.816570	0.871630	0.240930
C1031	C103	0.786870	0.880070	0.205470
C1041	C104	0.904880	0.802300	0.451170
C1051	C105	0.929320	0.810580	0.483390
C1061	C106	0.914340	0.803760	0.524070
C1071	C107	0.863960	0.787420	0.459220
C1081	C108	0.871430	0.787210	0.531130
C1091	C109	0.847080	0.780360	0.500010
C1101	C110	0.855750	0.777210	0.574390
C1111	C111	0.308880	0.802100	0.302700
C1121	C112	0.325740	0.837440	0.273540
C1131	C113	0.318820	0.884680	0.282890
C1141	C114	0.338020	0.916280	0.256380
C1151	C115	0.351960	0.820860	0.240020
C1161	C116	0.373640	0.852360	0.214430
C1171	C117	0.366610	0.898930	0.222860
C1181	C118	0.390980	0.932660	0.197320
C1191	C119	0.439350	0.917370	0.186830
C1201	C120	0.463980	0.948900	0.165140
C1211	C121	0.366460	0.977520	0.185530
C1221	C122	0.540190	0.889390	0.150100
C1231	C123	0.543730	0.968270	0.161420
C1241	C124	0.517200	0.933880	0.157950
C1251	C125	0.589300	0.876620	0.145080
C1261	C126	0.592670	0.955830	0.156610
C1271	C127	0.390550	0.009330	0.163290
C1281	C128	0.439030	0.993210	0.153220
C1291	C129	0.364930	0.057310	0.150610
C1301	C130	0.389310	0.094910	0.146370
C1311	C131	0.316840	0.069180	0.142980
C1321	C132	0.294080	0.114380	0.131600
C1331	C133	0.318240	0.150860	0.126220
C1341	C134	0.365600	0.140540	0.134320
C1351	C135	0.293410	0.200710	0.113680
C1361	C136	0.276390	0.602090	0.325960
C1371	C137	0.282640	0.652520	0.320900
C1381	C138	0.257080	0.585360	0.362310
C1391	C139	0.251030	0.538910	0.365850
C1401	C140	0.280400	0.526220	0.296680
C1411	C141	0.260770	0.509410	0.334340
C1421	C142	0.255580	0.459420	0.337160
C1431	C143	0.263060	0.431200	0.373480
C1441	C144	0.259680	0.384300	0.374910
C1451	C145	0.268660	0.353660	0.413540
C1461	C146	0.296600	0.363680	0.441740
C1471	C147	0.247520	0.315260	0.421750
C1481	C148	0.256140	0.288420	0.458330
C1491	C149	0.304460	0.338700	0.479280
C1501	C150	0.243890	0.439790	0.304180
C1511	C151	0.249460	0.364920	0.341150
C1521	C152	0.241270	0.391510	0.304420
C1531	C153	0.230940	0.371820	0.267690
C1541	C154	0.202940	0.338460	0.267930
C1551	C155	0.196210	0.319130	0.232980
C1561	C156	0.217630	0.331030	0.196580
C1571	C157	0.244760	0.363560	0.196130
C1581	C158	0.252200	0.384060	0.230080
C1591	C159	0.285970	0.572570	0.292740
C1601	C160	0.669560	0.896000	0.144590
C1611	C161	0.615720	0.909160	0.148310
C1621	C162	0.212660	0.307440	0.159870
C1631	C163	0.761110	0.191770	0.817830
C1641	C164	0.298960	0.283080	0.985510
C1651	C165	0.791530	0.121990	0.865730
C1661	C166	0.273290	0.290930	0.028250
C1671	C167	0.771650	0.138910	0.828470
C1681	C168	0.760580	0.108120	0.802140
C1691	C169	0.771000	0.058800	0.813180
C1701	C170	0.801460	0.073960	0.875560
C1711	C171	0.790890	0.041670	0.848610
C1721	C172	0.803750	0.989670	0.859330
C1731	C173	0.798840	0.972900	0.900310
C1741	C174	0.809770	0.922990	0.909690
C1751	C175	0.825420	0.892920	0.879000
C1761	C176	0.830730	0.909770	0.838340
C1771	C177	0.819790	0.957710	0.829380
C1781	C178	0.846370	0.875310	0.805920
C1791	C179	0.831140	0.835040	0.806130
C1801	C180	0.877170	0.885810	0.773780
C1811	C181	0.842280	0.805300	0.774430
C1821	C182	0.888400	0.857000	0.741510
C1831	C183	0.871630	0.816570	0.740930
C1841	C184	0.880070	0.786870	0.705470
C1851	C185	0.802300	0.904880	0.951170
C1861	C186	0.810580	0.929320	0.983390
C1871	C187	0.803760	0.914340	0.024070
C1881	C188	0.787420	0.863960	0.959220
C1891	C189	0.787210	0.871430	0.031130
C1901	C190	0.780360	0.847080	0.000010
C1911	C191	0.777210	0.855750	0.074390
C1921	C192	0.802100	0.308880	0.802700
C1931	C193	0.837440	0.325740	0.773540
C1941	C194	0.884680	0.318820	0.782890
C1951	C195	0.916280	0.338020	0.756380
C1961	C196	0.820860	0.351960	0.740020
C1971	C197	0.852360	0.373640	0.714430
C1981	C198	0.898930	0.366610	0.722860
C1991	C199	0.932660	0.390980	0.697320
C2001	C200	0.917370	0.439350	0.686830
C2011	C201	0.948900	0.463980	0.665140
C2021	C202	0.977520	0.366460	0.685530
C2031	C203	0.889390	0.540190	0.650100
C2041	C204	0.968270	0.543730	0.661420
C2051	C205	0.933880	0.517200	0.657950
C2061	C206	0.876620	0.589300	0.645080
C2071	C207	0.955830	0.592670	0.656610
C2081	C208	0.009330	0.390550	0.663290
C2091	C209	0.993210	0.439030	0.653220
C2101	C210	0.057310	0.364930	0.650610
C2111	C211	0.094910	0.389310	0.646370
C2121	C212	0.069180	0.316840	0.642980
C2131	C213	0.114380	0.294080	0.631600
C2141	C214	0.150860	0.318240	0.626220
C2151	C215	0.140540	0.365600	0.634320
C2161	C216	0.200710	0.293410	0.613680
C2171	C217	0.602090	0.276390	0.825960
C2181	C218	0.652520	0.282640	0.820900
C2191	C219	0.585360	0.257080	0.862310
C2201	C220	0.538910	0.251030	0.865850
C2211	C221	0.526220	0.280400	0.796680
C2221	C222	0.509410	0.260770	0.834340
C2231	C223	0.459420	0.255580	0.837160
C2241	C224	0.431200	0.263060	0.873480
C2251	C225	0.384300	0.259680	0.874910
C2261	C226	0.353660	0.268660	0.913540
C2271	C227	0.363680	0.296600	0.941740
C2281	C228	0.315260	0.247520	0.921750
C2291	C229	0.288420	0.256140	0.958330
C2301	C230	0.338700	0.304460	0.979280
C2311	C231	0.439790	0.243890	0.804180
C2321	C232	0.364920	0.249460	0.841150
C2331	C233	0.391510	0.241270	0.804420
C2341	C234	0.371820	0.230940	0.767690
C2351	C235	0.338460	0.202940	0.767930
C2361	C236	0.319130	0.196210	0.732980
C2371	C237	0.331030	0.217630	0.696580
C2381	C238	0.363560	0.244760	0.696130
C2391	C239	0.384060	0.252200	0.730080
C2401	C240	0.572570	0.285970	0.792740
C2411	C241	0.896000	0.669560	0.644590
C2421	C242	0.909160	0.615720	0.648310
C2431	C243	0.307440	0.212660	0.659870
C2441	C244	0.808230	0.238890	0.682170
C2451	C245	0.716920	0.701040	0.514490
C2461	C246	0.878010	0.208470	0.634270
C2471	C247	0.709070	0.726710	0.471750
C2481	C248	0.861090	0.228350	0.671530
C2491	C249	0.891880	0.239420	0.697860
C2501	C250	0.941200	0.229000	0.686820
C2511	C251	0.926040	0.198540	0.624440
C2521	C252	0.958330	0.209110	0.651390
C2531	C253	0.010330	0.196250	0.640670
C2541	C254	0.027100	0.201160	0.599690
C2551	C255	0.077010	0.190230	0.590310
C2561	C256	0.107080	0.174580	0.621000
C2571	C257	0.090230	0.169270	0.661660
C2581	C258	0.042290	0.180210	0.670620
C2591	C259	0.124690	0.153630	0.694080
C2601	C260	0.164960	0.168860	0.693870
C2611	C261	0.114190	0.122830	0.726220
C2621	C262	0.194700	0.157720	0.725570
C2631	C263	0.143000	0.111600	0.758490
C2641	C264	0.183430	0.128370	0.759070
C2651	C265	0.213130	0.119930	0.794530
C2661	C266	0.095120	0.197700	0.548830
C2671	C267	0.070680	0.189420	0.516610
C2681	C268	0.085660	0.196240	0.475930
C2691	C269	0.136040	0.212580	0.540780
C2701	C270	0.128570	0.212790	0.468870
C2711	C271	0.152920	0.219640	0.499990
C2721	C272	0.144250	0.222790	0.425610
C2731	C273	0.691120	0.197900	0.697300
C2741	C274	0.674260	0.162560	0.726460
C2751	C275	0.681180	0.115320	0.717110
C2761	C276	0.661980	0.083720	0.743620
C2771	C277	0.648040	0.179140	0.759980
C2781	C278	0.626360	0.147640	0.785570
C2791	C279	0.633390	0.101070	0.777140
C2801	C280	0.609020	0.067340	0.802680
C2811	C281	0.560650	0.082630	0.813170
C2821	C282	0.536020	0.051100	0.834860
C2831	C283	0.633540	0.022480	0.814470
C2841	C284	0.459810	0.110610	0.849900
C2851	C285	0.456270	0.031730	0.838580
C2861	C286	0.482800	0.066120	0.842050
C2871	C287	0.410700	0.123380	0.854920
C2881	C288	0.407330	0.044170	0.843390
C2891	C289	0.609450	0.990670	0.836710
C2901	C290	0.560970	0.006790	0.846780
C2911	C291	0.635070	0.942690	0.849390
C2921	C292	0.610690	0.905090	0.853630
C2931	C293	0.683160	0.930820	0.857020
C2941	C294	0.705920	0.885620	0.868400
C2951	C295	0.681760	0.849140	0.873780
C2961	C296	0.634400	0.859460	0.865680
C2971	C297	0.706590	0.799290	0.886320
C2981	C298	0.723610	0.397910	0.674040
C2991	C299	0.717360	0.347480	0.679100
C3001	C300	0.742920	0.414640	0.637690
C3011	C301	0.748970	0.461090	0.634150
C3021	C302	0.719600	0.473780	0.703320
C3031	C303	0.739230	0.490590	0.665660
C3041	C304	0.744420	0.540580	0.662840
C3051	C305	0.736940	0.568800	0.626520
C3061	C306	0.740320	0.615700	0.625090
C3071	C307	0.731340	0.646340	0.586460
C3081	C308	0.703400	0.636320	0.558260
C3091	C309	0.752480	0.684740	0.578250
C3101	C310	0.743860	0.711580	0.541670
C3111	C311	0.695540	0.661300	0.520720
C3121	C312	0.756110	0.560210	0.695820
C3131	C313	0.750540	0.635080	0.658850
C3141	C314	0.758730	0.608490	0.695580
C3151	C315	0.769060	0.628180	0.732310
C3161	C316	0.797060	0.661540	0.732070
C3171	C317	0.803790	0.680870	0.767020
C3181	C318	0.782370	0.668970	0.803420
C3191	C319	0.755240	0.636440	0.803870
C3201	C320	0.747800	0.615940	0.769920
C3211	C321	0.714030	0.427430	0.707260
C3221	C322	0.330440	0.104000	0.855410
C3231	C323	0.384280	0.090840	0.851690
C3241	C324	0.787340	0.692560	0.840130
O11	O1	0.233710	0.782990	0.154490
O21	O2	0.252590	0.794130	0.217050
O31	O3	0.326160	0.718840	0.148170
O41	O4	0.332700	0.710500	0.215690
O51	O5	0.238150	0.694310	0.208630
O61	O6	0.187720	0.700200	0.160700
O71	O7	0.769860	0.681980	0.394090
O81	O8	0.790850	0.751030	0.388810
O91	O9	0.231690	0.185090	0.919240
O101	O10	0.220470	0.120170	0.896770
O111	O11	0.084400	0.209180	0.319250
O121	O12	0.147750	0.239450	0.300060
O131	O13	0.146940	0.310900	0.360060
O141	O14	0.070650	0.310090	0.354050
O151	O15	0.715990	0.818690	0.342760
O161	O16	0.714290	0.682530	0.948850
O171	O17	0.760090	0.731170	0.964350
O181	O18	0.687680	0.759400	0.372270
O191	O19	0.217010	0.766290	0.345510
O201	O20	0.205870	0.747410	0.282950
O211	O21	0.281160	0.673840	0.351830
O221	O22	0.289500	0.667300	0.284310
O231	O23	0.305690	0.761850	0.291370
O241	O24	0.299800	0.812280	0.339300
O251	O25	0.318020	0.230140	0.105910
O261	O26	0.248970	0.209150	0.111190
O271	O27	0.814910	0.768310	0.580760
O281	O28	0.879830	0.779530	0.603230
O291	O29	0.790820	0.915600	0.180750
O301	O30	0.760550	0.852250	0.199940
O311	O31	0.689100	0.853060	0.139940
O321	O32	0.689910	0.929350	0.145950
O331	O33	0.181310	0.284010	0.157240
O341	O34	0.317470	0.285710	0.551150
O351	O35	0.268830	0.239910	0.535650
O361	O36	0.240600	0.312320	0.127730
O371	O37	0.766290	0.217010	0.845510
O381	O38	0.747410	0.205870	0.782950
O391	O39	0.673840	0.281160	0.851830
O401	O40	0.667300	0.289500	0.784310
O411	O41	0.761850	0.305690	0.791370
O421	O42	0.812280	0.299800	0.839300
O431	O43	0.230140	0.318020	0.605910
O441	O44	0.209150	0.248970	0.611190
O451	O45	0.768310	0.814910	0.080760
O461	O46	0.779530	0.879830	0.103230
O471	O47	0.915600	0.790820	0.680750
O481	O48	0.852250	0.760550	0.699940
O491	O49	0.853060	0.689100	0.639940
O501	O50	0.929350	0.689910	0.645950
O511	O51	0.284010	0.181310	0.657240
O521	O52	0.285710	0.317470	0.051150
O531	O53	0.239910	0.268830	0.035650
O541	O54	0.312320	0.240600	0.627730
O551	O55	0.782990	0.233710	0.654490
O561	O56	0.794130	0.252590	0.717050
O571	O57	0.718840	0.326160	0.648170
O581	O58	0.710500	0.332700	0.715690
O591	O59	0.694310	0.238150	0.708630
O601	O60	0.700200	0.187720	0.660700
O611	O61	0.681980	0.769860	0.894090
O621	O62	0.751030	0.790850	0.888810
O631	O63	0.185090	0.231690	0.419240
O641	O64	0.120170	0.220470	0.396770
O651	O65	0.209180	0.084400	0.819250
O661	O66	0.239450	0.147750	0.800060
O671	O67	0.310900	0.146940	0.860060
O681	O68	0.310090	0.070650	0.854050
O691	O69	0.818690	0.715990	0.842760
O701	O70	0.682530	0.714290	0.448850
O711	O71	0.731170	0.760090	0.464350
O721	O72	0.759400	0.687680	0.872270
