data_AXIPEE02_clean_PM
_symmetry_space_group_name_H-M	'P1'
_cell_length_a	43.107600
_cell_length_b	14.631600
_cell_length_c	32.321000
_cell_angle_alpha	90.000000
_cell_angle_beta	109.490000
_cell_angle_gamma	90.000000
_symmetry_Int_Tables_number 1

loop_
_symmetry_equiv_pos_as_xyz
'x,y,z'

loop_
_atom_site_label
_atom_site_type_symbol
_atom_site_fract_x
_atom_site_fract_y
_atom_site_fract_z
C11	C1	0.047600	0.886300	0.042100
C21	C2	0.953600	0.882000	0.057100
C31	C3	0.952300	0.578900	0.052900
C41	C4	0.053500	0.584500	0.050600
C51	C5	0.116800	0.384900	0.055300
C61	C6	0.211400	0.381600	0.039500
C71	C7	0.217000	0.088300	0.048700
C81	C8	0.115500	0.077200	0.051100
C91	C9	0.004500	0.738200	0.143700
H11	H1	0.981300	0.735100	0.131300
C101	C10	0.055000	0.739100	0.135100
H21	H2	0.067900	0.735300	0.116400
C111	C11	0.018600	0.745300	0.189200
H31	H3	0.005200	0.744700	0.207300
C121	C12	0.070900	0.747600	0.179500
H41	H4	0.094300	0.749800	0.191000
C131	C13	0.052400	0.753100	0.207600
C141	C14	0.068800	0.764900	0.255500
C151	C15	0.098300	0.814500	0.271900
H51	H5	0.108100	0.841700	0.252700
C161	C16	0.112300	0.822500	0.316200
H61	H6	0.132200	0.855700	0.328900
C171	C17	0.096500	0.780500	0.342500
C181	C18	0.111500	0.781200	0.390900
C191	C19	0.109500	0.705400	0.414800
H71	H7	0.097200	0.653800	0.400500
C201	C20	0.128700	0.855200	0.414000
H81	H8	0.130500	0.909400	0.398900
C211	C21	0.125400	0.704000	0.460100
H91	H9	0.124200	0.649900	0.475700
C221	C22	0.143300	0.850300	0.459400
H101	H10	0.154500	0.902500	0.474700
C231	C23	0.168800	0.238100	0.142100
H111	H11	0.145500	0.232200	0.130000
C241	C24	0.219100	0.240600	0.133200
H121	H12	0.231900	0.236500	0.114300
C251	C25	0.183000	0.247200	0.187200
H131	H13	0.169700	0.248500	0.205400
C261	C26	0.235500	0.249500	0.177200
H141	H14	0.258800	0.252200	0.188300
C271	C27	0.217100	0.254500	0.205500
C281	C28	0.234200	0.266800	0.253500
C291	C29	0.263600	0.312900	0.269400
H151	H15	0.273500	0.338000	0.249800
C301	C30	0.278200	0.321900	0.313400
H161	H16	0.298600	0.353100	0.325700
C311	C31	0.261700	0.282700	0.340200
C321	C32	0.276900	0.284000	0.388500
C331	C33	0.272400	0.211800	0.412900
H171	H17	0.258200	0.162800	0.399100
C341	C34	0.296100	0.355500	0.411300
H181	H18	0.299100	0.408400	0.396000
C351	C35	0.288500	0.210600	0.457600
H191	H19	0.285500	0.158600	0.473400
C361	C36	0.310900	0.349700	0.455900
H201	H20	0.323900	0.399800	0.470800
N11	N1	0.030100	0.829500	0.044100
N21	N2	0.970030	0.824300	0.055300
N31	N3	0.971420	0.633400	0.054900
N41	N4	0.033910	0.638400	0.048900
N51	N5	0.133530	0.325600	0.053600
N61	N6	0.193450	0.328300	0.041700
N71	N7	0.197030	0.140200	0.046700
N81	N8	0.134600	0.132600	0.053700
N91	N9	0.022240	0.735800	0.117000
N101	N10	0.054200	0.729800	0.282000
N111	N11	0.068600	0.736200	0.326100
N121	N12	0.142180	0.774200	0.482300
N131	N13	0.186160	0.237100	0.114700
N141	N14	0.219000	0.233400	0.279800
N151	N15	0.233300	0.240300	0.323800
N161	N16	0.307900	0.276600	0.480100
Fe11	Fe1	0.001110	0.730910	0.050900
Fe21	Fe2	0.164550	0.231310	0.048740
Au11	Au1	0.081170	0.982470	0.044530
Au21	Au2	0.085850	0.487080	0.052570
Au31	Au3	0.246390	0.477700	0.043470
C371	C37	0.547600	0.386300	0.042100
C381	C38	0.453600	0.382000	0.057100
C391	C39	0.452300	0.078900	0.052900
C401	C40	0.553500	0.084500	0.050600
C411	C41	0.616800	0.884900	0.055300
C421	C42	0.711400	0.881600	0.039500
C431	C43	0.717000	0.588300	0.048700
C441	C44	0.615500	0.577200	0.051100
C451	C45	0.504500	0.238200	0.143700
H211	H21	0.481300	0.235100	0.131300
C461	C46	0.555000	0.239100	0.135100
H221	H22	0.567900	0.235300	0.116400
C471	C47	0.518600	0.245300	0.189200
H231	H23	0.505200	0.244700	0.207300
C481	C48	0.570900	0.247600	0.179500
H241	H24	0.594300	0.249800	0.191000
C491	C49	0.552400	0.253100	0.207600
C501	C50	0.568800	0.264900	0.255500
C511	C51	0.598300	0.314500	0.271900
H251	H25	0.608100	0.341700	0.252700
C521	C52	0.612300	0.322500	0.316200
H261	H26	0.632200	0.355700	0.328900
C531	C53	0.596500	0.280500	0.342500
C541	C54	0.611500	0.281200	0.390900
C551	C55	0.609500	0.205400	0.414800
H271	H27	0.597200	0.153800	0.400500
C561	C56	0.628700	0.355200	0.414000
H281	H28	0.630500	0.409400	0.398900
C571	C57	0.625400	0.204000	0.460100
H291	H29	0.624200	0.149900	0.475700
C581	C58	0.643300	0.350300	0.459400
H301	H30	0.654500	0.402500	0.474700
C591	C59	0.668800	0.738100	0.142100
H311	H31	0.645500	0.732200	0.130000
C601	C60	0.719100	0.740600	0.133200
H321	H32	0.731900	0.736500	0.114300
C611	C61	0.683000	0.747200	0.187200
H331	H33	0.669700	0.748500	0.205400
C621	C62	0.735500	0.749500	0.177200
H341	H34	0.758800	0.752200	0.188300
C631	C63	0.717100	0.754500	0.205500
C641	C64	0.734200	0.766800	0.253500
C651	C65	0.763600	0.812900	0.269400
H351	H35	0.773500	0.838000	0.249800
C661	C66	0.778200	0.821900	0.313400
H361	H36	0.798600	0.853100	0.325700
C671	C67	0.761700	0.782700	0.340200
C681	C68	0.776900	0.784000	0.388500
C691	C69	0.772400	0.711800	0.412900
H371	H37	0.758200	0.662800	0.399100
C701	C70	0.796100	0.855500	0.411300
H381	H38	0.799100	0.908400	0.396000
C711	C71	0.788500	0.710600	0.457600
H391	H39	0.785500	0.658600	0.473400
C721	C72	0.810900	0.849700	0.455900
H401	H40	0.823900	0.899800	0.470800
N171	N17	0.530100	0.329500	0.044100
N181	N18	0.470030	0.324300	0.055300
N191	N19	0.471420	0.133400	0.054900
N201	N20	0.533910	0.138400	0.048900
N211	N21	0.633530	0.825600	0.053600
N221	N22	0.693450	0.828300	0.041700
N231	N23	0.697030	0.640200	0.046700
N241	N24	0.634600	0.632600	0.053700
N251	N25	0.522240	0.235800	0.117000
N261	N26	0.554200	0.229800	0.282000
N271	N27	0.568600	0.236200	0.326100
N281	N28	0.642180	0.274200	0.482300
N291	N29	0.686160	0.737100	0.114700
N301	N30	0.719000	0.733400	0.279800
N311	N31	0.733300	0.740300	0.323800
N321	N32	0.807900	0.776600	0.480100
Fe31	Fe3	0.501110	0.230910	0.050900
Fe41	Fe4	0.664550	0.731310	0.048740
Au41	Au4	0.581170	0.482470	0.044530
Au51	Au5	0.585850	0.987080	0.052570
Au61	Au6	0.746390	0.977700	0.043470
C731	C73	0.888700	0.921300	0.549100
C741	C74	0.882800	0.606900	0.541000
C751	C75	0.782200	0.607000	0.556300
C761	C76	0.780600	0.931900	0.552100
C771	C77	0.888800	0.761400	0.637700
H411	H41	0.901700	0.766600	0.619000
C781	C78	0.839000	0.759300	0.647100
H421	H42	0.815600	0.762100	0.634900
C791	C79	0.904800	0.751600	0.681800
H431	H43	0.928100	0.749300	0.693100
C801	C80	0.852800	0.750700	0.692000
H441	H44	0.839300	0.748600	0.710000
C811	C81	0.886600	0.745200	0.710100
C821	C82	0.903800	0.731800	0.757800
C831	C83	0.932900	0.683200	0.773800
H451	H45	0.942600	0.656100	0.754400
C841	C84	0.947300	0.675000	0.818000
H461	H46	0.967100	0.641400	0.830200
C851	C85	0.932000	0.717500	0.845000
C861	C86	0.947100	0.717800	0.893400
C871	C87	0.964300	0.643400	0.916100
H471	H47	0.965900	0.588900	0.901000
C881	C88	0.945700	0.795600	0.917400
H481	H48	0.933600	0.847600	0.903300
C891	C89	0.979000	0.649000	0.961000
H491	H49	0.989900	0.596400	0.976200
C901	C90	0.962500	0.795700	0.962200
H501	H50	0.962100	0.850500	0.977800
N331	N33	0.868100	0.866500	0.547600
N341	N34	0.863800	0.664600	0.541300
N351	N35	0.799800	0.668500	0.556100
N361	N36	0.800900	0.875800	0.555700
N371	N37	0.856180	0.764000	0.619600
N381	N38	0.889100	0.768700	0.784500
N391	N39	0.903800	0.761300	0.828400
N401	N40	0.978800	0.725800	0.984800
Fe51	Fe5	0.832760	0.769140	0.549850
Au71	Au7	0.921140	0.015810	0.553070
Au81	Au8	0.916720	0.515680	0.544560
Au91	Au9	0.750910	0.508880	0.552230
C911	C91	0.388700	0.421300	0.549100
C921	C92	0.382800	0.106900	0.541000
C931	C93	0.282200	0.107000	0.556300
C941	C94	0.280600	0.431900	0.552100
C951	C95	0.388800	0.261400	0.637700
H511	H51	0.401700	0.266600	0.619000
C961	C96	0.339000	0.259300	0.647100
H521	H52	0.315600	0.262100	0.634900
C971	C97	0.404800	0.251600	0.681800
H531	H53	0.428100	0.249300	0.693100
C981	C98	0.352800	0.250700	0.692000
H541	H54	0.339300	0.248600	0.710000
C991	C99	0.386600	0.245200	0.710100
C1001	C100	0.403800	0.231800	0.757800
C1011	C101	0.432900	0.183200	0.773800
H551	H55	0.442600	0.156100	0.754400
C1021	C102	0.447300	0.175000	0.818000
H561	H56	0.467100	0.141400	0.830200
C1031	C103	0.432000	0.217500	0.845000
C1041	C104	0.447100	0.217800	0.893400
C1051	C105	0.464300	0.143400	0.916100
H571	H57	0.465900	0.088900	0.901000
C1061	C106	0.445700	0.295600	0.917400
H581	H58	0.433600	0.347600	0.903300
C1071	C107	0.479000	0.149000	0.961000
H591	H59	0.489900	0.096400	0.976200
C1081	C108	0.462500	0.295700	0.962200
H601	H60	0.462100	0.350500	0.977800
N411	N41	0.368100	0.366500	0.547600
N421	N42	0.363800	0.164600	0.541300
N431	N43	0.299800	0.168500	0.556100
N441	N44	0.300900	0.375800	0.555700
N451	N45	0.356180	0.264000	0.619600
N461	N46	0.389100	0.268700	0.784500
N471	N47	0.403800	0.261300	0.828400
N481	N48	0.478800	0.225800	0.984800
Fe61	Fe6	0.332760	0.269140	0.549850
Au101	Au10	0.421140	0.515810	0.553070
Au111	Au11	0.416720	0.015680	0.544570
Au121	Au12	0.250910	0.008880	0.552230
C1091	C109	0.888700	0.078700	0.049100
C1101	C110	0.882800	0.393100	0.041000
C1111	C111	0.782200	0.393000	0.056300
C1121	C112	0.780600	0.068100	0.052100
C1131	C113	0.888800	0.238600	0.137700
H611	H61	0.901700	0.233400	0.119000
C1141	C114	0.839000	0.240700	0.147100
H621	H62	0.815600	0.237900	0.134900
C1151	C115	0.904800	0.248400	0.181800
H631	H63	0.928100	0.250700	0.193100
C1161	C116	0.852800	0.249300	0.192000
H641	H64	0.839300	0.251400	0.210000
C1171	C117	0.886600	0.254800	0.210100
C1181	C118	0.903800	0.268200	0.257800
C1191	C119	0.932900	0.316800	0.273800
H651	H65	0.942600	0.343900	0.254400
C1201	C120	0.947300	0.325000	0.318000
H661	H66	0.967100	0.358600	0.330200
C1211	C121	0.932000	0.282500	0.345000
C1221	C122	0.947100	0.282200	0.393400
C1231	C123	0.964300	0.356600	0.416100
H671	H67	0.965900	0.411100	0.401000
C1241	C124	0.945700	0.204400	0.417400
H681	H68	0.933600	0.152400	0.403300
C1251	C125	0.979000	0.351000	0.461000
H691	H69	0.989900	0.403600	0.476200
C1261	C126	0.962500	0.204300	0.462200
H701	H70	0.962100	0.149500	0.477800
N491	N49	0.868100	0.133500	0.047600
N501	N50	0.863800	0.335400	0.041300
N511	N51	0.799800	0.331500	0.056100
N521	N52	0.800900	0.124200	0.055700
N531	N53	0.856180	0.236000	0.119600
N541	N54	0.889100	0.231300	0.284500
N551	N55	0.903800	0.238700	0.328400
N561	N56	0.978800	0.274200	0.484800
Fe71	Fe7	0.832760	0.230860	0.049850
Au131	Au13	0.921140	0.984190	0.053070
Au141	Au14	0.916720	0.484320	0.044560
Au151	Au15	0.750910	0.491120	0.052230
C1271	C127	0.388700	0.578700	0.049100
C1281	C128	0.382800	0.893100	0.041000
C1291	C129	0.282200	0.893000	0.056300
C1301	C130	0.280600	0.568100	0.052100
C1311	C131	0.388800	0.738600	0.137700
H711	H71	0.401700	0.733400	0.119000
C1321	C132	0.339000	0.740700	0.147100
H721	H72	0.315600	0.737900	0.134900
C1331	C133	0.404800	0.748400	0.181800
H731	H73	0.428100	0.750700	0.193100
C1341	C134	0.352800	0.749300	0.192000
H741	H74	0.339300	0.751400	0.210000
C1351	C135	0.386600	0.754800	0.210100
C1361	C136	0.403800	0.768200	0.257800
C1371	C137	0.432900	0.816800	0.273800
H751	H75	0.442600	0.843900	0.254400
C1381	C138	0.447300	0.825000	0.318000
H761	H76	0.467100	0.858600	0.330200
C1391	C139	0.432000	0.782500	0.345000
C1401	C140	0.447100	0.782200	0.393400
C1411	C141	0.464300	0.856600	0.416100
H771	H77	0.465900	0.911100	0.401000
C1421	C142	0.445700	0.704400	0.417400
H781	H78	0.433600	0.652400	0.403300
C1431	C143	0.479000	0.851000	0.461000
H791	H79	0.489900	0.903600	0.476200
C1441	C144	0.462500	0.704300	0.462200
H801	H80	0.462100	0.649500	0.477800
N571	N57	0.368100	0.633500	0.047600
N581	N58	0.363800	0.835400	0.041300
N591	N59	0.299800	0.831500	0.056100
N601	N60	0.300900	0.624200	0.055700
N611	N61	0.356180	0.736000	0.119600
N621	N62	0.389100	0.731300	0.284500
N631	N63	0.403800	0.738700	0.328400
N641	N64	0.478800	0.774200	0.484800
Fe81	Fe8	0.332760	0.730860	0.049850
Au161	Au16	0.421140	0.484190	0.053070
Au171	Au17	0.416720	0.984320	0.044570
Au181	Au18	0.250910	0.991120	0.052230
C1451	C145	0.047600	0.113700	0.542100
C1461	C146	0.953600	0.118000	0.557100
C1471	C147	0.952300	0.421100	0.552900
C1481	C148	0.053500	0.415500	0.550600
C1491	C149	0.116800	0.615100	0.555300
C1501	C150	0.211400	0.618400	0.539500
C1511	C151	0.217000	0.911700	0.548700
C1521	C152	0.115500	0.922800	0.551100
C1531	C153	0.004500	0.261800	0.643700
H811	H81	0.981300	0.264900	0.631300
C1541	C154	0.055000	0.260900	0.635100
H821	H82	0.067900	0.264700	0.616400
C1551	C155	0.018600	0.254700	0.689200
H831	H83	0.005200	0.255300	0.707300
C1561	C156	0.070900	0.252400	0.679500
H841	H84	0.094300	0.250200	0.691000
C1571	C157	0.052400	0.246900	0.707600
C1581	C158	0.068800	0.235100	0.755500
C1591	C159	0.098300	0.185500	0.771900
H851	H85	0.108100	0.158300	0.752700
C1601	C160	0.112300	0.177500	0.816200
H861	H86	0.132200	0.144300	0.828900
C1611	C161	0.096500	0.219500	0.842500
C1621	C162	0.111500	0.218800	0.890900
C1631	C163	0.109500	0.294600	0.914800
H871	H87	0.097200	0.346200	0.900500
C1641	C164	0.128700	0.144800	0.914000
H881	H88	0.130500	0.090600	0.898900
C1651	C165	0.125400	0.296000	0.960100
H891	H89	0.124200	0.350100	0.975700
C1661	C166	0.143300	0.149700	0.959400
H901	H90	0.154500	0.097500	0.974700
C1671	C167	0.168800	0.761900	0.642100
H911	H91	0.145500	0.767800	0.630000
C1681	C168	0.219100	0.759400	0.633200
H921	H92	0.231900	0.763500	0.614300
C1691	C169	0.183000	0.752800	0.687200
H931	H93	0.169700	0.751500	0.705400
C1701	C170	0.235500	0.750500	0.677200
H941	H94	0.258800	0.747800	0.688300
C1711	C171	0.217100	0.745500	0.705500
C1721	C172	0.234200	0.733200	0.753500
C1731	C173	0.263600	0.687100	0.769400
H951	H95	0.273500	0.662000	0.749800
C1741	C174	0.278200	0.678100	0.813400
H961	H96	0.298600	0.646900	0.825700
C1751	C175	0.261700	0.717300	0.840200
C1761	C176	0.276900	0.716000	0.888500
C1771	C177	0.272400	0.788200	0.912900
H971	H97	0.258200	0.837200	0.899100
C1781	C178	0.296100	0.644500	0.911300
H981	H98	0.299100	0.591600	0.896000
C1791	C179	0.288500	0.789400	0.957600
H991	H99	0.285500	0.841400	0.973400
C1801	C180	0.310900	0.650300	0.955900
H1001	H100	0.323900	0.600200	0.970800
N651	N65	0.030100	0.170500	0.544100
N661	N66	0.970030	0.175700	0.555300
N671	N67	0.971420	0.366600	0.554900
N681	N68	0.033910	0.361600	0.548900
N691	N69	0.133530	0.674400	0.553600
N701	N70	0.193450	0.671700	0.541700
N711	N71	0.197030	0.859800	0.546700
N721	N72	0.134600	0.867400	0.553700
N731	N73	0.022240	0.264200	0.617000
N741	N74	0.054200	0.270200	0.782000
N751	N75	0.068600	0.263800	0.826100
N761	N76	0.142180	0.225800	0.982300
N771	N77	0.186160	0.762900	0.614700
N781	N78	0.219000	0.766600	0.779800
N791	N79	0.233300	0.759700	0.823800
N801	N80	0.307900	0.723400	0.980100
Fe91	Fe9	0.001110	0.269090	0.550900
Fe101	Fe10	0.164550	0.768690	0.548740
Au191	Au19	0.081170	0.017530	0.544530
Au201	Au20	0.085850	0.512920	0.552580
Au211	Au21	0.246390	0.522300	0.543470
C1811	C181	0.547600	0.613700	0.542100
C1821	C182	0.453600	0.618000	0.557100
C1831	C183	0.452300	0.921100	0.552900
C1841	C184	0.553500	0.915500	0.550600
C1851	C185	0.616800	0.115100	0.555300
C1861	C186	0.711400	0.118400	0.539500
C1871	C187	0.717000	0.411700	0.548700
C1881	C188	0.615500	0.422800	0.551100
C1891	C189	0.504500	0.761800	0.643700
H1011	H101	0.481300	0.764900	0.631300
C1901	C190	0.555000	0.760900	0.635100
H1021	H102	0.567900	0.764700	0.616400
C1911	C191	0.518600	0.754700	0.689200
H1031	H103	0.505200	0.755300	0.707300
C1921	C192	0.570900	0.752400	0.679500
H1041	H104	0.594300	0.750200	0.691000
C1931	C193	0.552400	0.746900	0.707600
C1941	C194	0.568800	0.735100	0.755500
C1951	C195	0.598300	0.685500	0.771900
H1051	H105	0.608100	0.658300	0.752700
C1961	C196	0.612300	0.677500	0.816200
H1061	H106	0.632200	0.644300	0.828900
C1971	C197	0.596500	0.719500	0.842500
C1981	C198	0.611500	0.718800	0.890900
C1991	C199	0.609500	0.794600	0.914800
H1071	H107	0.597200	0.846200	0.900500
C2001	C200	0.628700	0.644800	0.914000
H1081	H108	0.630500	0.590600	0.898900
C2011	C201	0.625400	0.796000	0.960100
H1091	H109	0.624200	0.850100	0.975700
C2021	C202	0.643300	0.649700	0.959400
H1101	H110	0.654500	0.597500	0.974700
C2031	C203	0.668800	0.261900	0.642100
H1111	H111	0.645500	0.267800	0.630000
C2041	C204	0.719100	0.259400	0.633200
H1121	H112	0.731900	0.263500	0.614300
C2051	C205	0.683000	0.252800	0.687200
H1131	H113	0.669700	0.251500	0.705400
C2061	C206	0.735500	0.250500	0.677200
H1141	H114	0.758800	0.247800	0.688300
C2071	C207	0.717100	0.245500	0.705500
C2081	C208	0.734200	0.233200	0.753500
C2091	C209	0.763600	0.187100	0.769400
H1151	H115	0.773500	0.162000	0.749800
C2101	C210	0.778200	0.178100	0.813400
H1161	H116	0.798600	0.146900	0.825700
C2111	C211	0.761700	0.217300	0.840200
C2121	C212	0.776900	0.216000	0.888500
C2131	C213	0.772400	0.288200	0.912900
H1171	H117	0.758200	0.337200	0.899100
C2141	C214	0.796100	0.144500	0.911300
H1181	H118	0.799100	0.091600	0.896000
C2151	C215	0.788500	0.289400	0.957600
H1191	H119	0.785500	0.341400	0.973400
C2161	C216	0.810900	0.150300	0.955900
H1201	H120	0.823900	0.100200	0.970800
N811	N81	0.530100	0.670500	0.544100
N821	N82	0.470030	0.675700	0.555300
N831	N83	0.471420	0.866600	0.554900
N841	N84	0.533910	0.861600	0.548900
N851	N85	0.633530	0.174400	0.553600
N861	N86	0.693450	0.171700	0.541700
N871	N87	0.697030	0.359800	0.546700
N881	N88	0.634600	0.367400	0.553700
N891	N89	0.522240	0.764200	0.617000
N901	N90	0.554200	0.770200	0.782000
N911	N91	0.568600	0.763800	0.826100
N921	N92	0.642180	0.725800	0.982300
N931	N93	0.686160	0.262900	0.614700
N941	N94	0.719000	0.266600	0.779800
N951	N95	0.733300	0.259700	0.823800
N961	N96	0.807900	0.223400	0.980100
Fe111	Fe11	0.501110	0.769090	0.550900
Fe121	Fe12	0.664550	0.268690	0.548740
Au221	Au22	0.581170	0.517530	0.544530
Au231	Au23	0.585850	0.012920	0.552580
Au241	Au24	0.746390	0.022300	0.543470
C2171	C217	0.111300	0.921300	0.950900
C2181	C218	0.117200	0.606900	0.959000
C2191	C219	0.217800	0.607000	0.943700
C2201	C220	0.219400	0.931900	0.947900
C2211	C221	0.111200	0.761400	0.862300
H1211	H121	0.098300	0.766600	0.881000
C2221	C222	0.161000	0.759300	0.852900
H1221	H122	0.184400	0.762100	0.865100
C2231	C223	0.095200	0.751600	0.818200
H1231	H123	0.071900	0.749300	0.806900
C2241	C224	0.147200	0.750700	0.808000
H1241	H124	0.160700	0.748600	0.790000
C2251	C225	0.113400	0.745200	0.789900
C2261	C226	0.096200	0.731800	0.742200
C2271	C227	0.067100	0.683200	0.726200
H1251	H125	0.057400	0.656100	0.745600
C2281	C228	0.052700	0.675000	0.682000
H1261	H126	0.032900	0.641400	0.669800
C2291	C229	0.068000	0.717500	0.655000
C2301	C230	0.052900	0.717800	0.606600
C2311	C231	0.035700	0.643400	0.583900
H1271	H127	0.034100	0.588900	0.599000
C2321	C232	0.054300	0.795600	0.582600
H1281	H128	0.066400	0.847600	0.596700
C2331	C233	0.021000	0.649000	0.539000
H1291	H129	0.010100	0.596400	0.523800
C2341	C234	0.037500	0.795700	0.537800
H1301	H130	0.037900	0.850500	0.522200
N971	N97	0.131900	0.866500	0.952400
N981	N98	0.136200	0.664600	0.958700
N991	N99	0.200200	0.668500	0.943900
N1001	N100	0.199100	0.875800	0.944300
N1011	N101	0.143820	0.764000	0.880400
N1021	N102	0.110900	0.768700	0.715500
N1031	N103	0.096200	0.761300	0.671600
N1041	N104	0.021200	0.725800	0.515200
Fe131	Fe13	0.167240	0.769140	0.950150
Au251	Au25	0.078860	0.015810	0.946930
Au261	Au26	0.083280	0.515680	0.955440
Au271	Au27	0.249090	0.508880	0.947770
C2351	C235	0.611300	0.421300	0.950900
C2361	C236	0.617200	0.106900	0.959000
C2371	C237	0.717800	0.107000	0.943700
C2381	C238	0.719400	0.431900	0.947900
C2391	C239	0.611200	0.261400	0.862300
H1311	H131	0.598300	0.266600	0.881000
C2401	C240	0.661000	0.259300	0.852900
H1321	H132	0.684400	0.262100	0.865100
C2411	C241	0.595200	0.251600	0.818200
H1331	H133	0.571900	0.249300	0.806900
C2421	C242	0.647200	0.250700	0.808000
H1341	H134	0.660700	0.248600	0.790000
C2431	C243	0.613400	0.245200	0.789900
C2441	C244	0.596200	0.231800	0.742200
C2451	C245	0.567100	0.183200	0.726200
H1351	H135	0.557400	0.156100	0.745600
C2461	C246	0.552700	0.175000	0.682000
H1361	H136	0.532900	0.141400	0.669800
C2471	C247	0.568000	0.217500	0.655000
C2481	C248	0.552900	0.217800	0.606600
C2491	C249	0.535700	0.143400	0.583900
H1371	H137	0.534100	0.088900	0.599000
C2501	C250	0.554300	0.295600	0.582600
H1381	H138	0.566400	0.347600	0.596700
C2511	C251	0.521000	0.149000	0.539000
H1391	H139	0.510100	0.096400	0.523800
C2521	C252	0.537500	0.295700	0.537800
H1401	H140	0.537900	0.350500	0.522200
N1051	N105	0.631900	0.366500	0.952400
N1061	N106	0.636200	0.164600	0.958700
N1071	N107	0.700200	0.168500	0.943900
N1081	N108	0.699100	0.375800	0.944300
N1091	N109	0.643820	0.264000	0.880400
N1101	N110	0.610900	0.268700	0.715500
N1111	N111	0.596200	0.261300	0.671600
N1121	N112	0.521200	0.225800	0.515200
Fe141	Fe14	0.667240	0.269140	0.950150
Au281	Au28	0.578860	0.515810	0.946930
Au291	Au29	0.583280	0.015680	0.955430
Au301	Au30	0.749090	0.008880	0.947770
C2531	C253	0.952400	0.886300	0.457900
C2541	C254	0.046400	0.882000	0.442900
C2551	C255	0.047700	0.578900	0.447100
C2561	C256	0.946500	0.584500	0.449400
C2571	C257	0.883200	0.384900	0.444700
C2581	C258	0.788600	0.381600	0.460500
C2591	C259	0.783000	0.088300	0.451300
C2601	C260	0.884500	0.077200	0.448900
C2611	C261	0.995500	0.738200	0.356300
H1411	H141	0.018700	0.735100	0.368700
C2621	C262	0.945000	0.739100	0.364900
H1421	H142	0.932100	0.735300	0.383600
C2631	C263	0.981400	0.745300	0.310800
H1431	H143	0.994800	0.744700	0.292700
C2641	C264	0.929100	0.747600	0.320500
H1441	H144	0.905700	0.749800	0.309000
C2651	C265	0.947600	0.753100	0.292400
C2661	C266	0.931200	0.764900	0.244500
C2671	C267	0.901700	0.814500	0.228100
H1451	H145	0.891900	0.841700	0.247300
C2681	C268	0.887700	0.822500	0.183800
H1461	H146	0.867800	0.855700	0.171100
C2691	C269	0.903500	0.780500	0.157500
C2701	C270	0.888500	0.781200	0.109100
C2711	C271	0.890500	0.705400	0.085200
H1471	H147	0.902800	0.653800	0.099500
C2721	C272	0.871300	0.855200	0.086000
H1481	H148	0.869500	0.909400	0.101100
C2731	C273	0.874600	0.704000	0.039900
H1491	H149	0.875800	0.649900	0.024300
C2741	C274	0.856700	0.850300	0.040600
H1501	H150	0.845500	0.902500	0.025300
C2751	C275	0.831200	0.238100	0.357900
H1511	H151	0.854500	0.232200	0.370000
C2761	C276	0.780900	0.240600	0.366800
H1521	H152	0.768100	0.236500	0.385700
C2771	C277	0.817000	0.247200	0.312800
H1531	H153	0.830300	0.248500	0.294600
C2781	C278	0.764500	0.249500	0.322800
H1541	H154	0.741200	0.252200	0.311700
C2791	C279	0.782900	0.254500	0.294500
C2801	C280	0.765800	0.266800	0.246500
C2811	C281	0.736400	0.312900	0.230600
H1551	H155	0.726500	0.338000	0.250200
C2821	C282	0.721800	0.321900	0.186600
H1561	H156	0.701400	0.353100	0.174300
C2831	C283	0.738300	0.282700	0.159800
C2841	C284	0.723100	0.284000	0.111500
C2851	C285	0.727600	0.211800	0.087100
H1571	H157	0.741800	0.162800	0.100900
C2861	C286	0.703900	0.355500	0.088700
H1581	H158	0.700900	0.408400	0.104000
C2871	C287	0.711500	0.210600	0.042400
H1591	H159	0.714500	0.158600	0.026600
C2881	C288	0.689100	0.349700	0.044100
H1601	H160	0.676100	0.399800	0.029200
N1131	N113	0.969900	0.829500	0.455900
N1141	N114	0.029970	0.824300	0.444700
N1151	N115	0.028580	0.633400	0.445100
N1161	N116	0.966090	0.638400	0.451100
N1171	N117	0.866470	0.325600	0.446400
N1181	N118	0.806550	0.328300	0.458300
N1191	N119	0.802970	0.140200	0.453300
N1201	N120	0.865400	0.132600	0.446300
N1211	N121	0.977760	0.735800	0.383000
N1221	N122	0.945800	0.729800	0.218000
N1231	N123	0.931400	0.736200	0.173900
N1241	N124	0.857820	0.774200	0.017700
N1251	N125	0.813840	0.237100	0.385300
N1261	N126	0.781000	0.233400	0.220200
N1271	N127	0.766700	0.240300	0.176200
N1281	N128	0.692100	0.276600	0.019900
Fe151	Fe15	0.998890	0.730910	0.449100
Fe161	Fe16	0.835450	0.231310	0.451260
Au311	Au31	0.918830	0.982470	0.455470
Au321	Au32	0.914150	0.487080	0.447420
Au331	Au33	0.753610	0.477700	0.456530
C2891	C289	0.452400	0.386300	0.457900
C2901	C290	0.546400	0.382000	0.442900
C2911	C291	0.547700	0.078900	0.447100
C2921	C292	0.446500	0.084500	0.449400
C2931	C293	0.383200	0.884900	0.444700
C2941	C294	0.288600	0.881600	0.460500
C2951	C295	0.283000	0.588300	0.451300
C2961	C296	0.384500	0.577200	0.448900
C2971	C297	0.495500	0.238200	0.356300
H1611	H161	0.518700	0.235100	0.368700
C2981	C298	0.445000	0.239100	0.364900
H1621	H162	0.432100	0.235300	0.383600
C2991	C299	0.481400	0.245300	0.310800
H1631	H163	0.494800	0.244700	0.292700
C3001	C300	0.429100	0.247600	0.320500
H1641	H164	0.405700	0.249800	0.309000
C3011	C301	0.447600	0.253100	0.292400
C3021	C302	0.431200	0.264900	0.244500
C3031	C303	0.401700	0.314500	0.228100
H1651	H165	0.391900	0.341700	0.247300
C3041	C304	0.387700	0.322500	0.183800
H1661	H166	0.367800	0.355700	0.171100
C3051	C305	0.403500	0.280500	0.157500
C3061	C306	0.388500	0.281200	0.109100
C3071	C307	0.390500	0.205400	0.085200
H1671	H167	0.402800	0.153800	0.099500
C3081	C308	0.371300	0.355200	0.086000
H1681	H168	0.369500	0.409400	0.101100
C3091	C309	0.374600	0.204000	0.039900
H1691	H169	0.375800	0.149900	0.024300
C3101	C310	0.356700	0.350300	0.040600
H1701	H170	0.345500	0.402500	0.025300
C3111	C311	0.331200	0.738100	0.357900
H1711	H171	0.354500	0.732200	0.370000
C3121	C312	0.280900	0.740600	0.366800
H1721	H172	0.268100	0.736500	0.385700
C3131	C313	0.317000	0.747200	0.312800
H1731	H173	0.330300	0.748500	0.294600
C3141	C314	0.264500	0.749500	0.322800
H1741	H174	0.241200	0.752200	0.311700
C3151	C315	0.282900	0.754500	0.294500
C3161	C316	0.265800	0.766800	0.246500
C3171	C317	0.236400	0.812900	0.230600
H1751	H175	0.226500	0.838000	0.250200
C3181	C318	0.221800	0.821900	0.186600
H1761	H176	0.201400	0.853100	0.174300
C3191	C319	0.238300	0.782700	0.159800
C3201	C320	0.223100	0.784000	0.111500
C3211	C321	0.227600	0.711800	0.087100
H1771	H177	0.241800	0.662800	0.100900
C3221	C322	0.203900	0.855500	0.088700
H1781	H178	0.200900	0.908400	0.104000
C3231	C323	0.211500	0.710600	0.042400
H1791	H179	0.214500	0.658600	0.026600
C3241	C324	0.189100	0.849700	0.044100
H1801	H180	0.176100	0.899800	0.029200
N1291	N129	0.469900	0.329500	0.455900
N1301	N130	0.529970	0.324300	0.444700
N1311	N131	0.528580	0.133400	0.445100
N1321	N132	0.466090	0.138400	0.451100
N1331	N133	0.366470	0.825600	0.446400
N1341	N134	0.306550	0.828300	0.458300
N1351	N135	0.302970	0.640200	0.453300
N1361	N136	0.365400	0.632600	0.446300
N1371	N137	0.477760	0.235800	0.383000
N1381	N138	0.445800	0.229800	0.218000
N1391	N139	0.431400	0.236200	0.173900
N1401	N140	0.357820	0.274200	0.017700
N1411	N141	0.313840	0.737100	0.385300
N1421	N142	0.281000	0.733400	0.220200
N1431	N143	0.266700	0.740300	0.176200
N1441	N144	0.192100	0.776600	0.019900
Fe171	Fe17	0.498890	0.230910	0.449100
Fe181	Fe18	0.335450	0.731310	0.451260
Au341	Au34	0.418830	0.482470	0.455470
Au351	Au35	0.414150	0.987080	0.447430
Au361	Au36	0.253610	0.977700	0.456530
C3251	C325	0.952400	0.113700	0.957900
C3261	C326	0.046400	0.118000	0.942900
C3271	C327	0.047700	0.421100	0.947100
C3281	C328	0.946500	0.415500	0.949400
C3291	C329	0.883200	0.615100	0.944700
C3301	C330	0.788600	0.618400	0.960500
C3311	C331	0.783000	0.911700	0.951300
C3321	C332	0.884500	0.922800	0.948900
C3331	C333	0.995500	0.261800	0.856300
H1811	H181	0.018700	0.264900	0.868700
C3341	C334	0.945000	0.260900	0.864900
H1821	H182	0.932100	0.264700	0.883600
C3351	C335	0.981400	0.254700	0.810800
H1831	H183	0.994800	0.255300	0.792700
C3361	C336	0.929100	0.252400	0.820500
H1841	H184	0.905700	0.250200	0.809000
C3371	C337	0.947600	0.246900	0.792400
C3381	C338	0.931200	0.235100	0.744500
C3391	C339	0.901700	0.185500	0.728100
H1851	H185	0.891900	0.158300	0.747300
C3401	C340	0.887700	0.177500	0.683800
H1861	H186	0.867800	0.144300	0.671100
C3411	C341	0.903500	0.219500	0.657500
C3421	C342	0.888500	0.218800	0.609100
C3431	C343	0.890500	0.294600	0.585200
H1871	H187	0.902800	0.346200	0.599500
C3441	C344	0.871300	0.144800	0.586000
H1881	H188	0.869500	0.090600	0.601100
C3451	C345	0.874600	0.296000	0.539900
H1891	H189	0.875800	0.350100	0.524300
C3461	C346	0.856700	0.149700	0.540600
H1901	H190	0.845500	0.097500	0.525300
C3471	C347	0.831200	0.761900	0.857900
H1911	H191	0.854500	0.767800	0.870000
C3481	C348	0.780900	0.759400	0.866800
H1921	H192	0.768100	0.763500	0.885700
C3491	C349	0.817000	0.752800	0.812800
H1931	H193	0.830300	0.751500	0.794600
C3501	C350	0.764500	0.750500	0.822800
H1941	H194	0.741200	0.747800	0.811700
C3511	C351	0.782900	0.745500	0.794500
C3521	C352	0.765800	0.733200	0.746500
C3531	C353	0.736400	0.687100	0.730600
H1951	H195	0.726500	0.662000	0.750200
C3541	C354	0.721800	0.678100	0.686600
H1961	H196	0.701400	0.646900	0.674300
C3551	C355	0.738300	0.717300	0.659800
C3561	C356	0.723100	0.716000	0.611500
C3571	C357	0.727600	0.788200	0.587100
H1971	H197	0.741800	0.837200	0.600900
C3581	C358	0.703900	0.644500	0.588700
H1981	H198	0.700900	0.591600	0.604000
C3591	C359	0.711500	0.789400	0.542400
H1991	H199	0.714500	0.841400	0.526600
C3601	C360	0.689100	0.650300	0.544100
H2001	H200	0.676100	0.600200	0.529200
N1451	N145	0.969900	0.170500	0.955900
N1461	N146	0.029970	0.175700	0.944700
N1471	N147	0.028580	0.366600	0.945100
N1481	N148	0.966090	0.361600	0.951100
N1491	N149	0.866470	0.674400	0.946400
N1501	N150	0.806550	0.671700	0.958300
N1511	N151	0.802970	0.859800	0.953300
N1521	N152	0.865400	0.867400	0.946300
N1531	N153	0.977760	0.264200	0.883000
N1541	N154	0.945800	0.270200	0.718000
N1551	N155	0.931400	0.263800	0.673900
N1561	N156	0.857820	0.225800	0.517700
N1571	N157	0.813840	0.762900	0.885300
N1581	N158	0.781000	0.766600	0.720200
N1591	N159	0.766700	0.759700	0.676200
N1601	N160	0.692100	0.723400	0.519900
Fe191	Fe19	0.998890	0.269090	0.949100
Fe201	Fe20	0.835450	0.768690	0.951260
Au371	Au37	0.918830	0.017530	0.955470
Au381	Au38	0.914150	0.512920	0.947420
Au391	Au39	0.753610	0.522300	0.956530
C3611	C361	0.452400	0.613700	0.957900
C3621	C362	0.546400	0.618000	0.942900
C3631	C363	0.547700	0.921100	0.947100
C3641	C364	0.446500	0.915500	0.949400
C3651	C365	0.383200	0.115100	0.944700
C3661	C366	0.288600	0.118400	0.960500
C3671	C367	0.283000	0.411700	0.951300
C3681	C368	0.384500	0.422800	0.948900
C3691	C369	0.495500	0.761800	0.856300
H2011	H201	0.518700	0.764900	0.868700
C3701	C370	0.445000	0.760900	0.864900
H2021	H202	0.432100	0.764700	0.883600
C3711	C371	0.481400	0.754700	0.810800
H2031	H203	0.494800	0.755300	0.792700
C3721	C372	0.429100	0.752400	0.820500
H2041	H204	0.405700	0.750200	0.809000
C3731	C373	0.447600	0.746900	0.792400
C3741	C374	0.431200	0.735100	0.744500
C3751	C375	0.401700	0.685500	0.728100
H2051	H205	0.391900	0.658300	0.747300
C3761	C376	0.387700	0.677500	0.683800
H2061	H206	0.367800	0.644300	0.671100
C3771	C377	0.403500	0.719500	0.657500
C3781	C378	0.388500	0.718800	0.609100
C3791	C379	0.390500	0.794600	0.585200
H2071	H207	0.402800	0.846200	0.599500
C3801	C380	0.371300	0.644800	0.586000
H2081	H208	0.369500	0.590600	0.601100
C3811	C381	0.374600	0.796000	0.539900
H2091	H209	0.375800	0.850100	0.524300
C3821	C382	0.356700	0.649700	0.540600
H2101	H210	0.345500	0.597500	0.525300
C3831	C383	0.331200	0.261900	0.857900
H2111	H211	0.354500	0.267800	0.870000
C3841	C384	0.280900	0.259400	0.866800
H2121	H212	0.268100	0.263500	0.885700
C3851	C385	0.317000	0.252800	0.812800
H2131	H213	0.330300	0.251500	0.794600
C3861	C386	0.264500	0.250500	0.822800
H2141	H214	0.241200	0.247800	0.811700
C3871	C387	0.282900	0.245500	0.794500
C3881	C388	0.265800	0.233200	0.746500
C3891	C389	0.236400	0.187100	0.730600
H2151	H215	0.226500	0.162000	0.750200
C3901	C390	0.221800	0.178100	0.686600
H2161	H216	0.201400	0.146900	0.674300
C3911	C391	0.238300	0.217300	0.659800
C3921	C392	0.223100	0.216000	0.611500
C3931	C393	0.227600	0.288200	0.587100
H2171	H217	0.241800	0.337200	0.600900
C3941	C394	0.203900	0.144500	0.588700
H2181	H218	0.200900	0.091600	0.604000
C3951	C395	0.211500	0.289400	0.542400
H2191	H219	0.214500	0.341400	0.526600
C3961	C396	0.189100	0.150300	0.544100
H2201	H220	0.176100	0.100200	0.529200
N1611	N161	0.469900	0.670500	0.955900
N1621	N162	0.529970	0.675700	0.944700
N1631	N163	0.528580	0.866600	0.945100
N1641	N164	0.466090	0.861600	0.951100
N1651	N165	0.366470	0.174400	0.946400
N1661	N166	0.306550	0.171700	0.958300
N1671	N167	0.302970	0.359800	0.953300
N1681	N168	0.365400	0.367400	0.946300
N1691	N169	0.477760	0.764200	0.883000
N1701	N170	0.445800	0.770200	0.718000
N1711	N171	0.431400	0.763800	0.673900
N1721	N172	0.357820	0.725800	0.517700
N1731	N173	0.313840	0.262900	0.885300
N1741	N174	0.281000	0.266600	0.720200
N1751	N175	0.266700	0.259700	0.676200
N1761	N176	0.192100	0.223400	0.519900
Fe211	Fe21	0.498890	0.769090	0.949100
Fe221	Fe22	0.335450	0.268690	0.951260
Au401	Au40	0.418830	0.517530	0.955470
Au411	Au41	0.414150	0.012920	0.947430
Au421	Au42	0.253610	0.022300	0.956530
C3971	C397	0.111300	0.078700	0.450900
C3981	C398	0.117200	0.393100	0.459000
C3991	C399	0.217800	0.393000	0.443700
C4001	C400	0.219400	0.068100	0.447900
C4011	C401	0.111200	0.238600	0.362300
H2211	H221	0.098300	0.233400	0.381000
C4021	C402	0.161000	0.240700	0.352900
H2221	H222	0.184400	0.237900	0.365100
C4031	C403	0.095200	0.248400	0.318200
H2231	H223	0.071900	0.250700	0.306900
C4041	C404	0.147200	0.249300	0.308000
H2241	H224	0.160700	0.251400	0.290000
C4051	C405	0.113400	0.254800	0.289900
C4061	C406	0.096200	0.268200	0.242200
C4071	C407	0.067100	0.316800	0.226200
H2251	H225	0.057400	0.343900	0.245600
C4081	C408	0.052700	0.325000	0.182000
H2261	H226	0.032900	0.358600	0.169800
C4091	C409	0.068000	0.282500	0.155000
C4101	C410	0.052900	0.282200	0.106600
C4111	C411	0.035700	0.356600	0.083900
H2271	H227	0.034100	0.411100	0.099000
C4121	C412	0.054300	0.204400	0.082600
H2281	H228	0.066400	0.152400	0.096700
C4131	C413	0.021000	0.351000	0.039000
H2291	H229	0.010100	0.403600	0.023800
C4141	C414	0.037500	0.204300	0.037800
H2301	H230	0.037900	0.149500	0.022200
N1771	N177	0.131900	0.133500	0.452400
N1781	N178	0.136200	0.335400	0.458700
N1791	N179	0.200200	0.331500	0.443900
N1801	N180	0.199100	0.124200	0.444300
N1811	N181	0.143820	0.236000	0.380400
N1821	N182	0.110900	0.231300	0.215500
N1831	N183	0.096200	0.238700	0.171600
N1841	N184	0.021200	0.274200	0.015200
Fe231	Fe23	0.167240	0.230860	0.450150
Au431	Au43	0.078860	0.984190	0.446930
Au441	Au44	0.083280	0.484320	0.455430
Au451	Au45	0.249090	0.491120	0.447770
C4151	C415	0.611300	0.578700	0.450900
C4161	C416	0.617200	0.893100	0.459000
C4171	C417	0.717800	0.893000	0.443700
C4181	C418	0.719400	0.568100	0.447900
C4191	C419	0.611200	0.738600	0.362300
H2311	H231	0.598300	0.733400	0.381000
C4201	C420	0.661000	0.740700	0.352900
H2321	H232	0.684400	0.737900	0.365100
C4211	C421	0.595200	0.748400	0.318200
H2331	H233	0.571900	0.750700	0.306900
C4221	C422	0.647200	0.749300	0.308000
H2341	H234	0.660700	0.751400	0.290000
C4231	C423	0.613400	0.754800	0.289900
C4241	C424	0.596200	0.768200	0.242200
C4251	C425	0.567100	0.816800	0.226200
H2351	H235	0.557400	0.843900	0.245600
C4261	C426	0.552700	0.825000	0.182000
H2361	H236	0.532900	0.858600	0.169800
C4271	C427	0.568000	0.782500	0.155000
C4281	C428	0.552900	0.782200	0.106600
C4291	C429	0.535700	0.856600	0.083900
H2371	H237	0.534100	0.911100	0.099000
C4301	C430	0.554300	0.704400	0.082600
H2381	H238	0.566400	0.652400	0.096700
C4311	C431	0.521000	0.851000	0.039000
H2391	H239	0.510100	0.903600	0.023800
C4321	C432	0.537500	0.704300	0.037800
H2401	H240	0.537900	0.649500	0.022200
N1851	N185	0.631900	0.633500	0.452400
N1861	N186	0.636200	0.835400	0.458700
N1871	N187	0.700200	0.831500	0.443900
N1881	N188	0.699100	0.624200	0.444300
N1891	N189	0.643820	0.736000	0.380400
N1901	N190	0.610900	0.731300	0.215500
N1911	N191	0.596200	0.738700	0.171600
N1921	N192	0.521200	0.774200	0.015200
Fe241	Fe24	0.667240	0.730860	0.450150
Au461	Au46	0.578860	0.484190	0.446930
Au471	Au47	0.583280	0.984320	0.455430
Au481	Au48	0.749090	0.991120	0.447770
