data_AXUBOL_clean_PM
_symmetry_space_group_name_H-M	'P1'
_cell_length_a	18.769800
_cell_length_b	18.769800
_cell_length_c	18.769800
_cell_angle_alpha	109.471000
_cell_angle_beta	109.471000
_cell_angle_gamma	109.471000
_symmetry_Int_Tables_number 1

loop_
_symmetry_equiv_pos_as_xyz
'x,y,z'

loop_
_atom_site_label
_atom_site_type_symbol
_atom_site_fract_x
_atom_site_fract_y
_atom_site_fract_z
Ni11	Ni1	0.535240	0.648250	0.648250
Ni21	Ni2	0.000000	0.886990	0.351750
Ni31	Ni3	0.000000	0.351750	0.886990
Ni41	Ni4	0.464760	0.113010	0.113010
Ni51	Ni5	0.886990	0.000000	0.351750
Ni61	Ni6	0.113010	0.464760	0.113010
Ni71	Ni7	0.648250	0.535240	0.648250
Ni81	Ni8	0.351750	0.000000	0.886990
Ni91	Ni9	0.886990	0.351750	0.000000
Ni101	Ni10	0.648250	0.648250	0.535240
Ni111	Ni11	0.113010	0.113010	0.464760
Ni121	Ni12	0.351750	0.886990	0.000000
H11	H1	0.628400	0.922700	0.758300
H21	H2	0.304500	0.436200	0.597300
H31	H3	0.180900	0.307300	0.546800
H41	H4	0.164400	0.870100	0.241700
H51	H5	0.838900	0.707200	0.402700
H61	H6	0.760500	0.634100	0.453200
H71	H7	0.835600	0.077300	0.705700
H81	H8	0.161100	0.563800	0.868300
H91	H9	0.239500	0.692700	0.873600
H101	H10	0.371600	0.129900	0.294300
H111	H11	0.695500	0.292800	0.131700
H121	H12	0.819100	0.365900	0.126400
H131	H13	0.705700	0.835600	0.077300
H141	H14	0.868300	0.161100	0.563800
H151	H15	0.873600	0.239500	0.692700
H161	H16	0.294300	0.371600	0.129900
H171	H17	0.131700	0.695500	0.292800
H181	H18	0.126400	0.819100	0.365900
H191	H19	0.758300	0.628400	0.922700
H201	H20	0.597300	0.304500	0.436200
H211	H21	0.546800	0.180900	0.307300
H221	H22	0.241700	0.164400	0.870100
H231	H23	0.402700	0.838900	0.707200
H241	H24	0.453200	0.760500	0.634100
H251	H25	0.870100	0.241700	0.164400
H261	H26	0.707200	0.402700	0.838900
H271	H27	0.634100	0.453200	0.760500
H281	H28	0.922700	0.758300	0.628400
H291	H29	0.436200	0.597300	0.304500
H301	H30	0.307300	0.546800	0.180900
H311	H31	0.129900	0.294300	0.371600
H321	H32	0.292800	0.131700	0.695500
H331	H33	0.365900	0.126400	0.819100
H341	H34	0.077300	0.705700	0.835600
H351	H35	0.563800	0.868300	0.161100
H361	H36	0.692700	0.873600	0.239500
H371	H37	0.870100	0.164400	0.241700
H381	H38	0.707200	0.838900	0.402700
H391	H39	0.634100	0.760500	0.453200
H401	H40	0.922700	0.628400	0.758300
H411	H41	0.436200	0.304500	0.597300
H421	H42	0.307300	0.180900	0.546800
H431	H43	0.129900	0.371600	0.294300
H441	H44	0.292800	0.695500	0.131700
H451	H45	0.365900	0.819100	0.126400
H461	H46	0.077300	0.835600	0.705700
H471	H47	0.563800	0.161100	0.868300
H481	H48	0.692700	0.239500	0.873600
H491	H49	0.628400	0.758300	0.922700
H501	H50	0.304500	0.597300	0.436200
H511	H51	0.180900	0.546800	0.307300
H521	H52	0.164400	0.241700	0.870100
H531	H53	0.838900	0.402700	0.707200
H541	H54	0.760500	0.453200	0.634100
H551	H55	0.835600	0.705700	0.077300
H561	H56	0.161100	0.868300	0.563800
H571	H57	0.239500	0.873600	0.692700
H581	H58	0.371600	0.294300	0.129900
H591	H59	0.695500	0.131700	0.292800
H601	H60	0.819100	0.126400	0.365900
H611	H61	0.705700	0.077300	0.835600
H621	H62	0.868300	0.563800	0.161100
H631	H63	0.873600	0.692700	0.239500
H641	H64	0.294300	0.129900	0.371600
H651	H65	0.131700	0.292800	0.695500
H661	H66	0.126400	0.365900	0.819100
H671	H67	0.758300	0.922700	0.628400
H681	H68	0.597300	0.436200	0.304500
H691	H69	0.546800	0.307300	0.180900
H701	H70	0.241700	0.870100	0.164400
H711	H71	0.402700	0.707200	0.838900
H721	H72	0.453200	0.634100	0.760500
H731	H73	0.554000	0.554000	0.554000
H741	H74	0.000000	0.000000	0.446000
H751	H75	0.000000	0.446000	0.000000
H761	H76	0.446000	0.000000	0.000000
C11	C1	0.677100	0.953700	0.754200
C21	C2	0.306800	0.383900	0.585100
C31	C3	0.233300	0.306400	0.555300
C41	C4	0.199500	0.922900	0.245800
C51	C5	0.798800	0.721700	0.414900
C61	C6	0.751100	0.678000	0.444700
C71	C7	0.800500	0.046300	0.723400
C81	C8	0.201200	0.616100	0.922900
C91	C9	0.248900	0.693600	0.926900
C101	C10	0.322900	0.077100	0.276600
C111	C11	0.693200	0.278300	0.077100
C121	C12	0.766700	0.322000	0.073100
C131	C13	0.723400	0.800500	0.046300
C141	C14	0.922900	0.201200	0.616100
C151	C15	0.926900	0.248900	0.693600
C161	C16	0.276600	0.322900	0.077100
C171	C17	0.077100	0.693200	0.278300
C181	C18	0.073100	0.766700	0.322000
C191	C19	0.754200	0.677100	0.953700
C201	C20	0.585100	0.306800	0.383900
C211	C21	0.555300	0.233300	0.306400
C221	C22	0.245800	0.199500	0.922900
C231	C23	0.414900	0.798800	0.721700
C241	C24	0.444700	0.751100	0.678000
C251	C25	0.922900	0.245800	0.199500
C261	C26	0.721700	0.414900	0.798800
C271	C27	0.678000	0.444700	0.751100
C281	C28	0.953700	0.754200	0.677100
C291	C29	0.383900	0.585100	0.306800
C301	C30	0.306400	0.555300	0.233300
C311	C31	0.077100	0.276600	0.322900
C321	C32	0.278300	0.077100	0.693200
C331	C33	0.322000	0.073100	0.766700
C341	C34	0.046300	0.723400	0.800500
C351	C35	0.616100	0.922900	0.201200
C361	C36	0.693600	0.926900	0.248900
C371	C37	0.922900	0.199500	0.245800
C381	C38	0.721700	0.798800	0.414900
C391	C39	0.678000	0.751100	0.444700
C401	C40	0.953700	0.677100	0.754200
C411	C41	0.383900	0.306800	0.585100
C421	C42	0.306400	0.233300	0.555300
C431	C43	0.077100	0.322900	0.276600
C441	C44	0.278300	0.693200	0.077100
C451	C45	0.322000	0.766700	0.073100
C461	C46	0.046300	0.800500	0.723400
C471	C47	0.616100	0.201200	0.922900
C481	C48	0.693600	0.248900	0.926900
C491	C49	0.677100	0.754200	0.953700
C501	C50	0.306800	0.585100	0.383900
C511	C51	0.233300	0.555300	0.306400
C521	C52	0.199500	0.245800	0.922900
C531	C53	0.798800	0.414900	0.721700
C541	C54	0.751100	0.444700	0.678000
C551	C55	0.800500	0.723400	0.046300
C561	C56	0.201200	0.922900	0.616100
C571	C57	0.248900	0.926900	0.693600
C581	C58	0.322900	0.276600	0.077100
C591	C59	0.693200	0.077100	0.278300
C601	C60	0.766700	0.073100	0.322000
C611	C61	0.723400	0.046300	0.800500
C621	C62	0.922900	0.616100	0.201200
C631	C63	0.926900	0.693600	0.248900
C641	C64	0.276600	0.077100	0.322900
C651	C65	0.077100	0.278300	0.693200
C661	C66	0.073100	0.322000	0.766700
C671	C67	0.754200	0.953700	0.677100
C681	C68	0.585100	0.383900	0.306800
C691	C69	0.555300	0.306400	0.233300
C701	C70	0.245800	0.922900	0.199500
C711	C71	0.414900	0.721700	0.798800
C721	C72	0.444700	0.678000	0.751100
C731	C73	0.461100	0.461100	0.615400
C741	C74	0.383200	0.383200	0.596600
C751	C75	0.845700	0.845700	0.384600
C761	C76	0.786600	0.786600	0.403400
C771	C77	0.154300	0.538900	0.000000
C781	C78	0.213400	0.616800	0.000000
C791	C79	0.538900	0.154300	0.000000
C801	C80	0.616800	0.213400	0.000000
C811	C81	0.000000	0.154300	0.538900
C821	C82	0.000000	0.213400	0.616800
C831	C83	0.000000	0.538900	0.154300
C841	C84	0.000000	0.616800	0.213400
C851	C85	0.615400	0.461100	0.461100
C861	C86	0.596600	0.383200	0.383200
C871	C87	0.384600	0.845700	0.845700
C881	C88	0.403400	0.786600	0.786600
C891	C89	0.845700	0.384600	0.845700
C901	C90	0.786600	0.403400	0.786600
C911	C91	0.461100	0.615400	0.461100
C921	C92	0.383200	0.596600	0.383200
C931	C93	0.154300	0.000000	0.538900
C941	C94	0.213400	0.000000	0.616800
C951	C95	0.538900	0.000000	0.154300
C961	C96	0.616800	0.000000	0.213400
C971	C97	0.660900	0.811000	0.660900
C981	C98	0.702800	0.908400	0.702800
C991	C99	0.150100	0.000000	0.339100
C1001	C100	0.205600	0.000000	0.297200
C1011	C101	0.849900	0.189000	0.849900
C1021	C102	0.794400	0.091600	0.794400
C1031	C103	0.339100	0.000000	0.150100
C1041	C104	0.297200	0.000000	0.205600
C1051	C105	0.849900	0.849900	0.189000
C1061	C106	0.794400	0.794400	0.091600
C1071	C107	0.150100	0.339100	0.000000
C1081	C108	0.205600	0.297200	0.000000
C1091	C109	0.660900	0.660900	0.811000
C1101	C110	0.702800	0.702800	0.908400
C1111	C111	0.339100	0.150100	0.000000
C1121	C112	0.297200	0.205600	0.000000
C1131	C113	0.000000	0.339100	0.150100
C1141	C114	0.000000	0.297200	0.205600
C1151	C115	0.811000	0.660900	0.660900
C1161	C116	0.908400	0.702800	0.702800
C1171	C117	0.000000	0.150100	0.339100
C1181	C118	0.000000	0.205600	0.297200
C1191	C119	0.189000	0.849900	0.849900
C1201	C120	0.091600	0.794400	0.794400
N11	N1	0.232100	0.232100	0.538400
N21	N2	0.693700	0.693700	0.461600
N31	N3	0.306300	0.767900	0.000000
N41	N4	0.767900	0.306300	0.000000
N51	N5	0.000000	0.306300	0.767900
N61	N6	0.000000	0.767900	0.306300
N71	N7	0.538400	0.232100	0.232100
N81	N8	0.461600	0.693700	0.693700
N91	N9	0.693700	0.461600	0.693700
N101	N10	0.232100	0.538400	0.232100
N111	N11	0.306300	0.000000	0.767900
N121	N12	0.767900	0.000000	0.306300
O11	O1	0.609200	0.775050	0.681450
O21	O2	0.451920	0.525430	0.620510
O31	O3	0.093600	0.927750	0.318550
O41	O4	0.904920	0.831410	0.379490
O51	O5	0.906400	0.224950	0.834150
O61	O6	0.095080	0.474570	0.926490
O71	O7	0.390800	0.072250	0.165850
O81	O8	0.548080	0.168590	0.073510
O91	O9	0.834150	0.906400	0.224950
O101	O10	0.926490	0.095080	0.474570
O111	O11	0.165850	0.390800	0.072250
O121	O12	0.073510	0.548080	0.168590
O131	O13	0.681450	0.609200	0.775050
O141	O14	0.620510	0.451920	0.525430
O151	O15	0.318550	0.093600	0.927750
O161	O16	0.379490	0.904920	0.831410
O171	O17	0.927750	0.318550	0.093600
O181	O18	0.831410	0.379490	0.904920
O191	O19	0.775050	0.681450	0.609200
O201	O20	0.525430	0.620510	0.451920
O211	O21	0.072250	0.165850	0.390800
O221	O22	0.168590	0.073510	0.548080
O231	O23	0.224950	0.834150	0.906400
O241	O24	0.474570	0.926490	0.095080
O251	O25	0.927750	0.093600	0.318550
O261	O26	0.831410	0.904920	0.379490
O271	O27	0.775050	0.609200	0.681450
O281	O28	0.525430	0.451920	0.620510
O291	O29	0.072250	0.390800	0.165850
O301	O30	0.168590	0.548080	0.073510
O311	O31	0.224950	0.906400	0.834150
O321	O32	0.474570	0.095080	0.926490
O331	O33	0.609200	0.681450	0.775050
O341	O34	0.451920	0.620510	0.525430
O351	O35	0.093600	0.318550	0.927750
O361	O36	0.904920	0.379490	0.831410
O371	O37	0.906400	0.834150	0.224950
O381	O38	0.095080	0.926490	0.474570
O391	O39	0.390800	0.165850	0.072250
O401	O40	0.548080	0.073510	0.168590
O411	O41	0.834150	0.224950	0.906400
O421	O42	0.926490	0.474570	0.095080
O431	O43	0.165850	0.072250	0.390800
O441	O44	0.073510	0.168590	0.548080
O451	O45	0.681450	0.775050	0.609200
O461	O46	0.620510	0.525430	0.451920
O471	O47	0.318550	0.927750	0.093600
O481	O48	0.379490	0.831410	0.904920
O491	O49	0.607200	0.607200	0.607200
O501	O50	0.000000	0.000000	0.392800
O511	O51	0.000000	0.392800	0.000000
O521	O52	0.392800	0.000000	0.000000
