data_AYOQEM_clean_PM
_symmetry_space_group_name_H-M	'P1'
_cell_length_a	45.848700
_cell_length_b	45.848700
_cell_length_c	45.848700
_cell_angle_alpha	33.465000
_cell_angle_beta	33.465000
_cell_angle_gamma	33.465000
_symmetry_Int_Tables_number 1

loop_
_symmetry_equiv_pos_as_xyz
'x,y,z'

loop_
_atom_site_label
_atom_site_type_symbol
_atom_site_fract_x
_atom_site_fract_y
_atom_site_fract_z
Cu11	Cu1	0.686530	0.248860	0.156440
O11	O1	0.609100	0.272500	0.221300
Cu21	Cu2	0.708650	0.142650	0.245050
O21	O2	0.656900	0.223700	0.167600
O31	O3	0.720400	0.256900	0.158100
O41	O4	0.766900	0.209800	0.105900
C11	C1	0.594800	0.235400	0.275700
O51	O5	0.626800	0.180400	0.296800
O61	O6	0.786200	0.120600	0.181400
O71	O7	0.679100	0.132900	0.239900
O81	O8	0.734000	0.169700	0.237100
C21	C2	0.657600	0.173600	0.206300
C31	C3	0.737200	0.216500	0.196300
C41	C4	0.801000	0.155600	0.126400
C51	C5	0.533400	0.258800	0.317900
C61	C6	0.631900	0.164100	0.208000
C71	C7	0.766300	0.227800	0.189600
C81	C8	0.861400	0.133400	0.085300
H11	H1	0.519700	0.232200	0.357700
C91	C9	0.497500	0.315500	0.301800
C101	C10	0.612200	0.201800	0.172200
H21	H2	0.630000	0.128400	0.237000
H31	H3	0.770000	0.262700	0.158400
C111	C11	0.785700	0.191300	0.225100
C121	C12	0.902100	0.078300	0.100800
H41	H4	0.872500	0.159700	0.045000
H51	H5	0.513800	0.340600	0.262100
C131	C13	0.433900	0.345200	0.338500
H61	H6	0.617900	0.235400	0.141300
C141	C14	0.581400	0.198300	0.174000
H71	H7	0.780100	0.157500	0.256400
C151	C15	0.815800	0.196200	0.222300
H81	H8	0.889500	0.052600	0.141200
C161	C16	0.966400	0.052100	0.060900
C171	C17	0.401100	0.404500	0.311500
C181	C18	0.569300	0.151500	0.216600
C191	C19	0.564000	0.243500	0.130800
C201	C20	0.828900	0.243200	0.177500
C211	C21	0.834600	0.150500	0.265900
C221	C22	0.992300	0.086900	0.000200
H91	H9	0.419600	0.426200	0.270700
H101	H10	0.581300	0.120400	0.245900
C231	C23	0.540900	0.148200	0.218500
C241	C24	0.533000	0.244800	0.130300
H111	H11	0.573400	0.274500	0.100700
C251	C25	0.857500	0.245800	0.176800
H121	H12	0.818300	0.273400	0.147500
C261	C26	0.864200	0.150800	0.265600
H131	H13	0.826400	0.118600	0.296200
H141	H14	0.969100	0.127400	0.982700
C271	C27	0.527500	0.098300	0.266600
C281	C28	0.522300	0.194000	0.176400
C291	C29	0.510700	0.294200	0.087200
C301	C30	0.869400	0.298000	0.128500
C311	C31	0.875800	0.199800	0.220300
C321	C32	0.885500	0.100300	0.310600
C331	C33	0.538800	0.052500	0.310300
H151	H15	0.506900	0.100800	0.264400
H161	H16	0.502500	0.192500	0.177300
C341	C34	0.520100	0.340200	0.042100
H171	H17	0.487400	0.292400	0.092900
C351	C35	0.888100	0.310700	0.125500
H181	H18	0.862200	0.323900	0.097300
H191	H19	0.895400	0.201400	0.219600
H201	H20	0.872800	0.071700	0.341500
C361	C36	0.918500	0.091500	0.312200
H211	H21	0.561600	0.047500	0.312000
C371	C37	0.520100	0.005200	0.359500
H221	H22	0.544500	0.341800	0.035100
C381	C38	0.494000	0.392100	0.999200
H231	H23	0.889600	0.288800	0.159000
C391	C39	0.908100	0.357900	0.072600
C401	C40	0.938600	0.039300	0.359000
H241	H24	0.931500	0.119800	0.281900
O91	O9	0.492200	0.009400	0.356800
O101	O10	0.531300	0.967000	0.402800
O111	O11	0.464900	0.386700	0.007900
O121	O12	0.508400	0.432400	0.960000
O131	O13	0.935200	0.356700	0.073600
O141	O14	0.894300	0.395200	0.032600
O151	O15	0.924200	0.999000	0.398200
O161	O16	0.972600	0.037700	0.352400
Cu31	Cu3	0.455900	0.955570	0.425350
Cu41	Cu4	0.506950	0.904750	0.474520
Cu51	Cu5	0.156440	0.686530	0.248860
O171	O17	0.221300	0.609100	0.272500
Cu61	Cu6	0.245050	0.708650	0.142650
O181	O18	0.167600	0.656900	0.223700
O191	O19	0.158100	0.720400	0.256900
O201	O20	0.105900	0.766900	0.209800
C411	C41	0.275700	0.594800	0.235400
O211	O21	0.296800	0.626800	0.180400
O221	O22	0.181400	0.786200	0.120600
O231	O23	0.239900	0.679100	0.132900
O241	O24	0.237100	0.734000	0.169700
C421	C42	0.206300	0.657600	0.173600
C431	C43	0.196300	0.737200	0.216500
C441	C44	0.126400	0.801000	0.155600
C451	C45	0.317900	0.533400	0.258800
C461	C46	0.208000	0.631900	0.164100
C471	C47	0.189600	0.766300	0.227800
C481	C48	0.085300	0.861400	0.133400
H251	H25	0.357700	0.519700	0.232200
C491	C49	0.301800	0.497500	0.315500
C501	C50	0.172200	0.612200	0.201800
H261	H26	0.237000	0.630000	0.128400
H271	H27	0.158400	0.770000	0.262700
C511	C51	0.225100	0.785700	0.191300
C521	C52	0.100800	0.902100	0.078300
H281	H28	0.045000	0.872500	0.159700
H291	H29	0.262100	0.513800	0.340600
C531	C53	0.338500	0.433900	0.345200
H301	H30	0.141300	0.617900	0.235400
C541	C54	0.174000	0.581400	0.198300
H311	H31	0.256400	0.780100	0.157500
C551	C55	0.222300	0.815800	0.196200
H321	H32	0.141200	0.889500	0.052600
C561	C56	0.060900	0.966400	0.052100
C571	C57	0.311500	0.401100	0.404500
C581	C58	0.216600	0.569300	0.151500
C591	C59	0.130800	0.564000	0.243500
C601	C60	0.177500	0.828900	0.243200
C611	C61	0.265900	0.834600	0.150500
C621	C62	0.000200	0.992300	0.086900
H331	H33	0.270700	0.419600	0.426200
H341	H34	0.245900	0.581300	0.120400
C631	C63	0.218500	0.540900	0.148200
C641	C64	0.130300	0.533000	0.244800
H351	H35	0.100700	0.573400	0.274500
C651	C65	0.176800	0.857500	0.245800
H361	H36	0.147500	0.818300	0.273400
C661	C66	0.265600	0.864200	0.150800
H371	H37	0.296200	0.826400	0.118600
H381	H38	0.982700	0.969100	0.127400
C671	C67	0.266600	0.527500	0.098300
C681	C68	0.176400	0.522300	0.194000
C691	C69	0.087200	0.510700	0.294200
C701	C70	0.128500	0.869400	0.298000
C711	C71	0.220300	0.875800	0.199800
C721	C72	0.310600	0.885500	0.100300
C731	C73	0.310300	0.538800	0.052500
H391	H39	0.264400	0.506900	0.100800
H401	H40	0.177300	0.502500	0.192500
C741	C74	0.042100	0.520100	0.340200
H411	H41	0.092900	0.487400	0.292400
C751	C75	0.125500	0.888100	0.310700
H421	H42	0.097300	0.862200	0.323900
H431	H43	0.219600	0.895400	0.201400
H441	H44	0.341500	0.872800	0.071700
C761	C76	0.312200	0.918500	0.091500
H451	H45	0.312000	0.561600	0.047500
C771	C77	0.359500	0.520100	0.005200
H461	H46	0.035100	0.544500	0.341800
C781	C78	0.999200	0.494000	0.392100
H471	H47	0.159000	0.889600	0.288800
C791	C79	0.072600	0.908100	0.357900
C801	C80	0.359000	0.938600	0.039300
H481	H48	0.281900	0.931500	0.119800
O251	O25	0.356800	0.492200	0.009400
O261	O26	0.402800	0.531300	0.967000
O271	O27	0.007900	0.464900	0.386700
O281	O28	0.960000	0.508400	0.432400
O291	O29	0.073600	0.935200	0.356700
O301	O30	0.032600	0.894300	0.395200
O311	O31	0.398200	0.924200	0.999000
O321	O32	0.352400	0.972600	0.037700
Cu71	Cu7	0.425350	0.455900	0.955570
Cu81	Cu8	0.474520	0.506950	0.904750
Cu91	Cu9	0.248860	0.156440	0.686530
O331	O33	0.272500	0.221300	0.609100
Cu101	Cu10	0.142650	0.245050	0.708650
O341	O34	0.223700	0.167600	0.656900
O351	O35	0.256900	0.158100	0.720400
O361	O36	0.209800	0.105900	0.766900
C811	C81	0.235400	0.275700	0.594800
O371	O37	0.180400	0.296800	0.626800
O381	O38	0.120600	0.181400	0.786200
O391	O39	0.132900	0.239900	0.679100
O401	O40	0.169700	0.237100	0.734000
C821	C82	0.173600	0.206300	0.657600
C831	C83	0.216500	0.196300	0.737200
C841	C84	0.155600	0.126400	0.801000
C851	C85	0.258800	0.317900	0.533400
C861	C86	0.164100	0.208000	0.631900
C871	C87	0.227800	0.189600	0.766300
C881	C88	0.133400	0.085300	0.861400
H491	H49	0.232200	0.357700	0.519700
C891	C89	0.315500	0.301800	0.497500
C901	C90	0.201800	0.172200	0.612200
H501	H50	0.128400	0.237000	0.630000
H511	H51	0.262700	0.158400	0.770000
C911	C91	0.191300	0.225100	0.785700
C921	C92	0.078300	0.100800	0.902100
H521	H52	0.159700	0.045000	0.872500
H531	H53	0.340600	0.262100	0.513800
C931	C93	0.345200	0.338500	0.433900
H541	H54	0.235400	0.141300	0.617900
C941	C94	0.198300	0.174000	0.581400
H551	H55	0.157500	0.256400	0.780100
C951	C95	0.196200	0.222300	0.815800
H561	H56	0.052600	0.141200	0.889500
C961	C96	0.052100	0.060900	0.966400
C971	C97	0.404500	0.311500	0.401100
C981	C98	0.151500	0.216600	0.569300
C991	C99	0.243500	0.130800	0.564000
C1001	C100	0.243200	0.177500	0.828900
C1011	C101	0.150500	0.265900	0.834600
C1021	C102	0.086900	0.000200	0.992300
H571	H57	0.426200	0.270700	0.419600
H581	H58	0.120400	0.245900	0.581300
C1031	C103	0.148200	0.218500	0.540900
C1041	C104	0.244800	0.130300	0.533000
H591	H59	0.274500	0.100700	0.573400
C1051	C105	0.245800	0.176800	0.857500
H601	H60	0.273400	0.147500	0.818300
C1061	C106	0.150800	0.265600	0.864200
H611	H61	0.118600	0.296200	0.826400
H621	H62	0.127400	0.982700	0.969100
C1071	C107	0.098300	0.266600	0.527500
C1081	C108	0.194000	0.176400	0.522300
C1091	C109	0.294200	0.087200	0.510700
C1101	C110	0.298000	0.128500	0.869400
C1111	C111	0.199800	0.220300	0.875800
C1121	C112	0.100300	0.310600	0.885500
C1131	C113	0.052500	0.310300	0.538800
H631	H63	0.100800	0.264400	0.506900
H641	H64	0.192500	0.177300	0.502500
C1141	C114	0.340200	0.042100	0.520100
H651	H65	0.292400	0.092900	0.487400
C1151	C115	0.310700	0.125500	0.888100
H661	H66	0.323900	0.097300	0.862200
H671	H67	0.201400	0.219600	0.895400
H681	H68	0.071700	0.341500	0.872800
C1161	C116	0.091500	0.312200	0.918500
H691	H69	0.047500	0.312000	0.561600
C1171	C117	0.005200	0.359500	0.520100
H701	H70	0.341800	0.035100	0.544500
C1181	C118	0.392100	0.999200	0.494000
H711	H71	0.288800	0.159000	0.889600
C1191	C119	0.357900	0.072600	0.908100
C1201	C120	0.039300	0.359000	0.938600
H721	H72	0.119800	0.281900	0.931500
O411	O41	0.009400	0.356800	0.492200
O421	O42	0.967000	0.402800	0.531300
O431	O43	0.386700	0.007900	0.464900
O441	O44	0.432400	0.960000	0.508400
O451	O45	0.356700	0.073600	0.935200
O461	O46	0.395200	0.032600	0.894300
O471	O47	0.999000	0.398200	0.924200
O481	O48	0.037700	0.352400	0.972600
Cu111	Cu11	0.955570	0.425350	0.455900
Cu121	Cu12	0.904750	0.474520	0.506950
Cu131	Cu13	0.748860	0.186530	0.656440
O491	O49	0.772500	0.109100	0.721300
Cu141	Cu14	0.642650	0.208650	0.745050
O501	O50	0.723700	0.156900	0.667600
O511	O51	0.756900	0.220400	0.658100
O521	O52	0.709800	0.266900	0.605900
C1211	C121	0.735400	0.094800	0.775700
O531	O53	0.680400	0.126800	0.796800
O541	O54	0.620600	0.286200	0.681400
O551	O55	0.632900	0.179100	0.739900
O561	O56	0.669700	0.234000	0.737100
C1221	C122	0.673600	0.157600	0.706300
C1231	C123	0.716500	0.237200	0.696300
C1241	C124	0.655600	0.301000	0.626400
C1251	C125	0.758800	0.033400	0.817900
C1261	C126	0.664100	0.131900	0.708000
C1271	C127	0.727800	0.266300	0.689600
C1281	C128	0.633400	0.361400	0.585300
H731	H73	0.732200	0.019700	0.857700
C1291	C129	0.815500	0.997500	0.801800
C1301	C130	0.701800	0.112200	0.672200
H741	H74	0.628400	0.130000	0.737000
H751	H75	0.762700	0.270000	0.658400
C1311	C131	0.691300	0.285700	0.725100
C1321	C132	0.578300	0.402100	0.600800
H761	H76	0.659700	0.372500	0.545000
H771	H77	0.840600	0.013800	0.762100
C1331	C133	0.845200	0.933900	0.838500
H781	H78	0.735400	0.117900	0.641300
C1341	C134	0.698300	0.081400	0.674000
H791	H79	0.657500	0.280100	0.756400
C1351	C135	0.696200	0.315800	0.722300
H801	H80	0.552600	0.389500	0.641200
C1361	C136	0.552100	0.466400	0.560900
C1371	C137	0.904500	0.901100	0.811500
C1381	C138	0.651500	0.069300	0.716600
C1391	C139	0.743500	0.064000	0.630800
C1401	C140	0.743200	0.328900	0.677500
C1411	C141	0.650500	0.334600	0.765900
C1421	C142	0.586900	0.492300	0.500200
H811	H81	0.926200	0.919600	0.770700
H821	H82	0.620400	0.081300	0.745900
C1431	C143	0.648200	0.040900	0.718500
C1441	C144	0.744800	0.033000	0.630300
H831	H83	0.774500	0.073400	0.600700
C1451	C145	0.745800	0.357500	0.676800
H841	H84	0.773400	0.318300	0.647500
C1461	C146	0.650800	0.364200	0.765600
H851	H85	0.618600	0.326400	0.796200
H861	H86	0.627400	0.469100	0.482700
C1471	C147	0.598300	0.027500	0.766600
C1481	C148	0.694000	0.022300	0.676400
C1491	C149	0.794200	0.010700	0.587200
C1501	C150	0.798000	0.369400	0.628500
C1511	C151	0.699800	0.375800	0.720300
C1521	C152	0.600300	0.385500	0.810600
C1531	C153	0.552500	0.038800	0.810300
H871	H87	0.600800	0.006900	0.764400
H881	H88	0.692500	0.002500	0.677300
C1541	C154	0.840200	0.020100	0.542100
H891	H89	0.792400	0.987400	0.592900
C1551	C155	0.810700	0.388100	0.625500
H901	H90	0.823900	0.362200	0.597300
H911	H91	0.701400	0.395400	0.719600
H921	H92	0.571700	0.372800	0.841500
C1561	C156	0.591500	0.418500	0.812200
H931	H93	0.547500	0.061600	0.812000
C1571	C157	0.505200	0.020100	0.859500
H941	H94	0.841800	0.044500	0.535100
C1581	C158	0.892100	0.994000	0.499200
H951	H95	0.788800	0.389600	0.659000
C1591	C159	0.857900	0.408100	0.572600
C1601	C160	0.539300	0.438600	0.859000
H961	H96	0.619800	0.431500	0.781900
O571	O57	0.509400	0.992200	0.856800
O581	O58	0.467000	0.031300	0.902800
O591	O59	0.886700	0.964900	0.507900
O601	O60	0.932400	0.008400	0.460000
O611	O61	0.856700	0.435200	0.573600
O621	O62	0.895200	0.394300	0.532600
O631	O63	0.499000	0.424200	0.898200
O641	O64	0.537700	0.472600	0.852400
Cu151	Cu15	0.455570	0.955900	0.925350
Cu161	Cu16	0.404750	0.006950	0.974520
Cu171	Cu17	0.186530	0.656440	0.748860
O651	O65	0.109100	0.721300	0.772500
Cu181	Cu18	0.208650	0.745050	0.642650
O661	O66	0.156900	0.667600	0.723700
O671	O67	0.220400	0.658100	0.756900
O681	O68	0.266900	0.605900	0.709800
C1611	C161	0.094800	0.775700	0.735400
O691	O69	0.126800	0.796800	0.680400
O701	O70	0.286200	0.681400	0.620600
O711	O71	0.179100	0.739900	0.632900
O721	O72	0.234000	0.737100	0.669700
C1621	C162	0.157600	0.706300	0.673600
C1631	C163	0.237200	0.696300	0.716500
C1641	C164	0.301000	0.626400	0.655600
C1651	C165	0.033400	0.817900	0.758800
C1661	C166	0.131900	0.708000	0.664100
C1671	C167	0.266300	0.689600	0.727800
C1681	C168	0.361400	0.585300	0.633400
H971	H97	0.019700	0.857700	0.732200
C1691	C169	0.997500	0.801800	0.815500
C1701	C170	0.112200	0.672200	0.701800
H981	H98	0.130000	0.737000	0.628400
H991	H99	0.270000	0.658400	0.762700
C1711	C171	0.285700	0.725100	0.691300
C1721	C172	0.402100	0.600800	0.578300
H1001	H100	0.372500	0.545000	0.659700
H1011	H101	0.013800	0.762100	0.840600
C1731	C173	0.933900	0.838500	0.845200
H1021	H102	0.117900	0.641300	0.735400
C1741	C174	0.081400	0.674000	0.698300
H1031	H103	0.280100	0.756400	0.657500
C1751	C175	0.315800	0.722300	0.696200
H1041	H104	0.389500	0.641200	0.552600
C1761	C176	0.466400	0.560900	0.552100
C1771	C177	0.901100	0.811500	0.904500
C1781	C178	0.069300	0.716600	0.651500
C1791	C179	0.064000	0.630800	0.743500
C1801	C180	0.328900	0.677500	0.743200
C1811	C181	0.334600	0.765900	0.650500
C1821	C182	0.492300	0.500200	0.586900
H1051	H105	0.919600	0.770700	0.926200
H1061	H106	0.081300	0.745900	0.620400
C1831	C183	0.040900	0.718500	0.648200
C1841	C184	0.033000	0.630300	0.744800
H1071	H107	0.073400	0.600700	0.774500
C1851	C185	0.357500	0.676800	0.745800
H1081	H108	0.318300	0.647500	0.773400
C1861	C186	0.364200	0.765600	0.650800
H1091	H109	0.326400	0.796200	0.618600
H1101	H110	0.469100	0.482700	0.627400
C1871	C187	0.027500	0.766600	0.598300
C1881	C188	0.022300	0.676400	0.694000
C1891	C189	0.010700	0.587200	0.794200
C1901	C190	0.369400	0.628500	0.798000
C1911	C191	0.375800	0.720300	0.699800
C1921	C192	0.385500	0.810600	0.600300
C1931	C193	0.038800	0.810300	0.552500
H1111	H111	0.006900	0.764400	0.600800
H1121	H112	0.002500	0.677300	0.692500
C1941	C194	0.020100	0.542100	0.840200
H1131	H113	0.987400	0.592900	0.792400
C1951	C195	0.388100	0.625500	0.810700
H1141	H114	0.362200	0.597300	0.823900
H1151	H115	0.395400	0.719600	0.701400
H1161	H116	0.372800	0.841500	0.571700
C1961	C196	0.418500	0.812200	0.591500
H1171	H117	0.061600	0.812000	0.547500
C1971	C197	0.020100	0.859500	0.505200
H1181	H118	0.044500	0.535100	0.841800
C1981	C198	0.994000	0.499200	0.892100
H1191	H119	0.389600	0.659000	0.788800
C1991	C199	0.408100	0.572600	0.857900
C2001	C200	0.438600	0.859000	0.539300
H1201	H120	0.431500	0.781900	0.619800
O731	O73	0.992200	0.856800	0.509400
O741	O74	0.031300	0.902800	0.467000
O751	O75	0.964900	0.507900	0.886700
O761	O76	0.008400	0.460000	0.932400
O771	O77	0.435200	0.573600	0.856700
O781	O78	0.394300	0.532600	0.895200
O791	O79	0.424200	0.898200	0.499000
O801	O80	0.472600	0.852400	0.537700
Cu191	Cu19	0.955900	0.925350	0.455570
Cu201	Cu20	0.006950	0.974520	0.404750
Cu211	Cu21	0.656440	0.748860	0.186530
O811	O81	0.721300	0.772500	0.109100
Cu221	Cu22	0.745050	0.642650	0.208650
O821	O82	0.667600	0.723700	0.156900
O831	O83	0.658100	0.756900	0.220400
O841	O84	0.605900	0.709800	0.266900
C2011	C201	0.775700	0.735400	0.094800
O851	O85	0.796800	0.680400	0.126800
O861	O86	0.681400	0.620600	0.286200
O871	O87	0.739900	0.632900	0.179100
O881	O88	0.737100	0.669700	0.234000
C2021	C202	0.706300	0.673600	0.157600
C2031	C203	0.696300	0.716500	0.237200
C2041	C204	0.626400	0.655600	0.301000
C2051	C205	0.817900	0.758800	0.033400
C2061	C206	0.708000	0.664100	0.131900
C2071	C207	0.689600	0.727800	0.266300
C2081	C208	0.585300	0.633400	0.361400
H1211	H121	0.857700	0.732200	0.019700
C2091	C209	0.801800	0.815500	0.997500
C2101	C210	0.672200	0.701800	0.112200
H1221	H122	0.737000	0.628400	0.130000
H1231	H123	0.658400	0.762700	0.270000
C2111	C211	0.725100	0.691300	0.285700
C2121	C212	0.600800	0.578300	0.402100
H1241	H124	0.545000	0.659700	0.372500
H1251	H125	0.762100	0.840600	0.013800
C2131	C213	0.838500	0.845200	0.933900
H1261	H126	0.641300	0.735400	0.117900
C2141	C214	0.674000	0.698300	0.081400
H1271	H127	0.756400	0.657500	0.280100
C2151	C215	0.722300	0.696200	0.315800
H1281	H128	0.641200	0.552600	0.389500
C2161	C216	0.560900	0.552100	0.466400
C2171	C217	0.811500	0.904500	0.901100
C2181	C218	0.716600	0.651500	0.069300
C2191	C219	0.630800	0.743500	0.064000
C2201	C220	0.677500	0.743200	0.328900
C2211	C221	0.765900	0.650500	0.334600
C2221	C222	0.500200	0.586900	0.492300
H1291	H129	0.770700	0.926200	0.919600
H1301	H130	0.745900	0.620400	0.081300
C2231	C223	0.718500	0.648200	0.040900
C2241	C224	0.630300	0.744800	0.033000
H1311	H131	0.600700	0.774500	0.073400
C2251	C225	0.676800	0.745800	0.357500
H1321	H132	0.647500	0.773400	0.318300
C2261	C226	0.765600	0.650800	0.364200
H1331	H133	0.796200	0.618600	0.326400
H1341	H134	0.482700	0.627400	0.469100
C2271	C227	0.766600	0.598300	0.027500
C2281	C228	0.676400	0.694000	0.022300
C2291	C229	0.587200	0.794200	0.010700
C2301	C230	0.628500	0.798000	0.369400
C2311	C231	0.720300	0.699800	0.375800
C2321	C232	0.810600	0.600300	0.385500
C2331	C233	0.810300	0.552500	0.038800
H1351	H135	0.764400	0.600800	0.006900
H1361	H136	0.677300	0.692500	0.002500
C2341	C234	0.542100	0.840200	0.020100
H1371	H137	0.592900	0.792400	0.987400
C2351	C235	0.625500	0.810700	0.388100
H1381	H138	0.597300	0.823900	0.362200
H1391	H139	0.719600	0.701400	0.395400
H1401	H140	0.841500	0.571700	0.372800
C2361	C236	0.812200	0.591500	0.418500
H1411	H141	0.812000	0.547500	0.061600
C2371	C237	0.859500	0.505200	0.020100
H1421	H142	0.535100	0.841800	0.044500
C2381	C238	0.499200	0.892100	0.994000
H1431	H143	0.659000	0.788800	0.389600
C2391	C239	0.572600	0.857900	0.408100
C2401	C240	0.859000	0.539300	0.438600
H1441	H144	0.781900	0.619800	0.431500
O891	O89	0.856800	0.509400	0.992200
O901	O90	0.902800	0.467000	0.031300
O911	O91	0.507900	0.886700	0.964900
O921	O92	0.460000	0.932400	0.008400
O931	O93	0.573600	0.856700	0.435200
O941	O94	0.532600	0.895200	0.394300
O951	O95	0.898200	0.499000	0.424200
O961	O96	0.852400	0.537700	0.472600
Cu231	Cu23	0.925350	0.455570	0.955900
Cu241	Cu24	0.974520	0.404750	0.006950
Cu251	Cu25	0.251140	0.813470	0.343560
O971	O97	0.227500	0.890900	0.278700
Cu261	Cu26	0.357350	0.791350	0.254950
O981	O98	0.276300	0.843100	0.332400
O991	O99	0.243100	0.779600	0.341900
O1001	O100	0.290200	0.733100	0.394100
C2411	C241	0.264600	0.905200	0.224300
O1011	O101	0.319600	0.873200	0.203200
O1021	O102	0.379400	0.713800	0.318600
O1031	O103	0.367100	0.820900	0.260100
O1041	O104	0.330300	0.766000	0.262900
C2421	C242	0.326400	0.842400	0.293700
C2431	C243	0.283500	0.762800	0.303700
C2441	C244	0.344400	0.699000	0.373600
C2451	C245	0.241200	0.966600	0.182100
C2461	C246	0.335900	0.868100	0.292000
C2471	C247	0.272200	0.733700	0.310400
C2481	C248	0.366600	0.638600	0.414700
H1451	H145	0.267800	0.980300	0.142300
C2491	C249	0.184500	0.002500	0.198200
C2501	C250	0.298200	0.887800	0.327800
H1461	H146	0.371600	0.870000	0.263000
H1471	H147	0.237300	0.730000	0.341600
C2511	C251	0.308700	0.714300	0.274900
C2521	C252	0.421700	0.597900	0.399200
H1481	H148	0.340300	0.627500	0.455000
H1491	H149	0.159400	0.986200	0.237900
C2531	C253	0.154800	0.066100	0.161500
H1501	H150	0.264600	0.882100	0.358700
C2541	C254	0.301700	0.918600	0.326000
H1511	H151	0.342500	0.719900	0.243600
C2551	C255	0.303800	0.684200	0.277700
H1521	H152	0.447400	0.610500	0.358800
C2561	C256	0.447900	0.533600	0.439100
C2571	C257	0.095500	0.098900	0.188500
C2581	C258	0.348500	0.930700	0.283400
C2591	C259	0.256500	0.936000	0.369200
C2601	C260	0.256800	0.671100	0.322500
C2611	C261	0.349500	0.665400	0.234100
C2621	C262	0.413100	0.507700	0.499800
H1531	H153	0.073800	0.080400	0.229300
H1541	H154	0.379600	0.918700	0.254100
C2631	C263	0.351800	0.959100	0.281500
C2641	C264	0.255200	0.967000	0.369700
H1551	H155	0.225500	0.926600	0.399300
C2651	C265	0.254200	0.642500	0.323200
H1561	H156	0.226600	0.681700	0.352500
C2661	C266	0.349200	0.635800	0.234400
H1571	H157	0.381400	0.673600	0.203800
H1581	H158	0.372600	0.530900	0.517300
C2671	C267	0.401700	0.972500	0.233400
C2681	C268	0.306000	0.977700	0.323600
C2691	C269	0.205800	0.989300	0.412800
C2701	C270	0.202000	0.630600	0.371500
C2711	C271	0.300200	0.624200	0.279700
C2721	C272	0.399700	0.614500	0.189400
C2731	C273	0.447500	0.961200	0.189700
H1591	H159	0.399200	0.993100	0.235600
H1601	H160	0.307500	0.997500	0.322700
C2741	C274	0.159800	0.979900	0.457900
H1611	H161	0.207600	0.012600	0.407100
C2751	C275	0.189300	0.611900	0.374500
H1621	H162	0.176100	0.637800	0.402700
H1631	H163	0.298600	0.604600	0.280400
H1641	H164	0.428300	0.627200	0.158500
C2761	C276	0.408500	0.581500	0.187800
H1651	H165	0.452500	0.938400	0.188000
C2771	C277	0.494800	0.979900	0.140500
H1661	H166	0.158200	0.955500	0.464900
C2781	C278	0.107900	0.006000	0.500800
H1671	H167	0.211200	0.610400	0.341000
C2791	C279	0.142100	0.591900	0.427400
C2801	C280	0.460700	0.561400	0.141000
H1681	H168	0.380200	0.568500	0.218100
O1051	O105	0.490600	0.007800	0.143200
O1061	O106	0.533000	0.968700	0.097200
O1071	O107	0.113300	0.035100	0.492100
O1081	O108	0.067600	0.991600	0.540000
O1091	O109	0.143300	0.564800	0.426400
O1101	O110	0.104800	0.605700	0.467400
O1111	O111	0.501000	0.575800	0.101800
O1121	O112	0.462300	0.527400	0.147600
Cu271	Cu27	0.544430	0.044100	0.074650
Cu281	Cu28	0.595250	0.993050	0.025480
Cu291	Cu29	0.813470	0.343560	0.251140
O1131	O113	0.890900	0.278700	0.227500
Cu301	Cu30	0.791350	0.254950	0.357350
O1141	O114	0.843100	0.332400	0.276300
O1151	O115	0.779600	0.341900	0.243100
O1161	O116	0.733100	0.394100	0.290200
C2811	C281	0.905200	0.224300	0.264600
O1171	O117	0.873200	0.203200	0.319600
O1181	O118	0.713800	0.318600	0.379400
O1191	O119	0.820900	0.260100	0.367100
O1201	O120	0.766000	0.262900	0.330300
C2821	C282	0.842400	0.293700	0.326400
C2831	C283	0.762800	0.303700	0.283500
C2841	C284	0.699000	0.373600	0.344400
C2851	C285	0.966600	0.182100	0.241200
C2861	C286	0.868100	0.292000	0.335900
C2871	C287	0.733700	0.310400	0.272200
C2881	C288	0.638600	0.414700	0.366600
H1691	H169	0.980300	0.142300	0.267800
C2891	C289	0.002500	0.198200	0.184500
C2901	C290	0.887800	0.327800	0.298200
H1701	H170	0.870000	0.263000	0.371600
H1711	H171	0.730000	0.341600	0.237300
C2911	C291	0.714300	0.274900	0.308700
C2921	C292	0.597900	0.399200	0.421700
H1721	H172	0.627500	0.455000	0.340300
H1731	H173	0.986200	0.237900	0.159400
C2931	C293	0.066100	0.161500	0.154800
H1741	H174	0.882100	0.358700	0.264600
C2941	C294	0.918600	0.326000	0.301700
H1751	H175	0.719900	0.243600	0.342500
C2951	C295	0.684200	0.277700	0.303800
H1761	H176	0.610500	0.358800	0.447400
C2961	C296	0.533600	0.439100	0.447900
C2971	C297	0.098900	0.188500	0.095500
C2981	C298	0.930700	0.283400	0.348500
C2991	C299	0.936000	0.369200	0.256500
C3001	C300	0.671100	0.322500	0.256800
C3011	C301	0.665400	0.234100	0.349500
C3021	C302	0.507700	0.499800	0.413100
H1771	H177	0.080400	0.229300	0.073800
H1781	H178	0.918700	0.254100	0.379600
C3031	C303	0.959100	0.281500	0.351800
C3041	C304	0.967000	0.369700	0.255200
H1791	H179	0.926600	0.399300	0.225500
C3051	C305	0.642500	0.323200	0.254200
H1801	H180	0.681700	0.352500	0.226600
C3061	C306	0.635800	0.234400	0.349200
H1811	H181	0.673600	0.203800	0.381400
H1821	H182	0.530900	0.517300	0.372600
C3071	C307	0.972500	0.233400	0.401700
C3081	C308	0.977700	0.323600	0.306000
C3091	C309	0.989300	0.412800	0.205800
C3101	C310	0.630600	0.371500	0.202000
C3111	C311	0.624200	0.279700	0.300200
C3121	C312	0.614500	0.189400	0.399700
C3131	C313	0.961200	0.189700	0.447500
H1831	H183	0.993100	0.235600	0.399200
H1841	H184	0.997500	0.322700	0.307500
C3141	C314	0.979900	0.457900	0.159800
H1851	H185	0.012600	0.407100	0.207600
C3151	C315	0.611900	0.374500	0.189300
H1861	H186	0.637800	0.402700	0.176100
H1871	H187	0.604600	0.280400	0.298600
H1881	H188	0.627200	0.158500	0.428300
C3161	C316	0.581500	0.187800	0.408500
H1891	H189	0.938400	0.188000	0.452500
C3171	C317	0.979900	0.140500	0.494800
H1901	H190	0.955500	0.464900	0.158200
C3181	C318	0.006000	0.500800	0.107900
H1911	H191	0.610400	0.341000	0.211200
C3191	C319	0.591900	0.427400	0.142100
C3201	C320	0.561400	0.141000	0.460700
H1921	H192	0.568500	0.218100	0.380200
O1211	O121	0.007800	0.143200	0.490600
O1221	O122	0.968700	0.097200	0.533000
O1231	O123	0.035100	0.492100	0.113300
O1241	O124	0.991600	0.540000	0.067600
O1251	O125	0.564800	0.426400	0.143300
O1261	O126	0.605700	0.467400	0.104800
O1271	O127	0.575800	0.101800	0.501000
O1281	O128	0.527400	0.147600	0.462300
Cu311	Cu31	0.044100	0.074650	0.544430
Cu321	Cu32	0.993050	0.025480	0.595250
Cu331	Cu33	0.343560	0.251140	0.813470
O1291	O129	0.278700	0.227500	0.890900
Cu341	Cu34	0.254950	0.357350	0.791350
O1301	O130	0.332400	0.276300	0.843100
O1311	O131	0.341900	0.243100	0.779600
O1321	O132	0.394100	0.290200	0.733100
C3211	C321	0.224300	0.264600	0.905200
O1331	O133	0.203200	0.319600	0.873200
O1341	O134	0.318600	0.379400	0.713800
O1351	O135	0.260100	0.367100	0.820900
O1361	O136	0.262900	0.330300	0.766000
C3221	C322	0.293700	0.326400	0.842400
C3231	C323	0.303700	0.283500	0.762800
C3241	C324	0.373600	0.344400	0.699000
C3251	C325	0.182100	0.241200	0.966600
C3261	C326	0.292000	0.335900	0.868100
C3271	C327	0.310400	0.272200	0.733700
C3281	C328	0.414700	0.366600	0.638600
H1931	H193	0.142300	0.267800	0.980300
C3291	C329	0.198200	0.184500	0.002500
C3301	C330	0.327800	0.298200	0.887800
H1941	H194	0.263000	0.371600	0.870000
H1951	H195	0.341600	0.237300	0.730000
C3311	C331	0.274900	0.308700	0.714300
C3321	C332	0.399200	0.421700	0.597900
H1961	H196	0.455000	0.340300	0.627500
H1971	H197	0.237900	0.159400	0.986200
C3331	C333	0.161500	0.154800	0.066100
H1981	H198	0.358700	0.264600	0.882100
C3341	C334	0.326000	0.301700	0.918600
H1991	H199	0.243600	0.342500	0.719900
C3351	C335	0.277700	0.303800	0.684200
H2001	H200	0.358800	0.447400	0.610500
C3361	C336	0.439100	0.447900	0.533600
C3371	C337	0.188500	0.095500	0.098900
C3381	C338	0.283400	0.348500	0.930700
C3391	C339	0.369200	0.256500	0.936000
C3401	C340	0.322500	0.256800	0.671100
C3411	C341	0.234100	0.349500	0.665400
C3421	C342	0.499800	0.413100	0.507700
H2011	H201	0.229300	0.073800	0.080400
H2021	H202	0.254100	0.379600	0.918700
C3431	C343	0.281500	0.351800	0.959100
C3441	C344	0.369700	0.255200	0.967000
H2031	H203	0.399300	0.225500	0.926600
C3451	C345	0.323200	0.254200	0.642500
H2041	H204	0.352500	0.226600	0.681700
C3461	C346	0.234400	0.349200	0.635800
H2051	H205	0.203800	0.381400	0.673600
H2061	H206	0.517300	0.372600	0.530900
C3471	C347	0.233400	0.401700	0.972500
C3481	C348	0.323600	0.306000	0.977700
C3491	C349	0.412800	0.205800	0.989300
C3501	C350	0.371500	0.202000	0.630600
C3511	C351	0.279700	0.300200	0.624200
C3521	C352	0.189400	0.399700	0.614500
C3531	C353	0.189700	0.447500	0.961200
H2071	H207	0.235600	0.399200	0.993100
H2081	H208	0.322700	0.307500	0.997500
C3541	C354	0.457900	0.159800	0.979900
H2091	H209	0.407100	0.207600	0.012600
C3551	C355	0.374500	0.189300	0.611900
H2101	H210	0.402700	0.176100	0.637800
H2111	H211	0.280400	0.298600	0.604600
H2121	H212	0.158500	0.428300	0.627200
C3561	C356	0.187800	0.408500	0.581500
H2131	H213	0.188000	0.452500	0.938400
C3571	C357	0.140500	0.494800	0.979900
H2141	H214	0.464900	0.158200	0.955500
C3581	C358	0.500800	0.107900	0.006000
H2151	H215	0.341000	0.211200	0.610400
C3591	C359	0.427400	0.142100	0.591900
C3601	C360	0.141000	0.460700	0.561400
H2161	H216	0.218100	0.380200	0.568500
O1371	O137	0.143200	0.490600	0.007800
O1381	O138	0.097200	0.533000	0.968700
O1391	O139	0.492100	0.113300	0.035100
O1401	O140	0.540000	0.067600	0.991600
O1411	O141	0.426400	0.143300	0.564800
O1421	O142	0.467400	0.104800	0.605700
O1431	O143	0.101800	0.501000	0.575800
O1441	O144	0.147600	0.462300	0.527400
Cu351	Cu35	0.074650	0.544430	0.044100
Cu361	Cu36	0.025480	0.595250	0.993050
Cu371	Cu37	0.313470	0.751140	0.843560
O1451	O145	0.390900	0.727500	0.778700
Cu381	Cu38	0.291350	0.857350	0.754950
O1461	O146	0.343100	0.776300	0.832400
O1471	O147	0.279600	0.743100	0.841900
O1481	O148	0.233100	0.790200	0.894100
C3611	C361	0.405200	0.764600	0.724300
O1491	O149	0.373200	0.819600	0.703200
O1501	O150	0.213800	0.879400	0.818600
O1511	O151	0.320900	0.867100	0.760100
O1521	O152	0.266000	0.830300	0.762900
C3621	C362	0.342400	0.826400	0.793700
C3631	C363	0.262800	0.783500	0.803700
C3641	C364	0.199000	0.844400	0.873600
C3651	C365	0.466600	0.741200	0.682100
C3661	C366	0.368100	0.835900	0.792000
C3671	C367	0.233700	0.772200	0.810400
C3681	C368	0.138600	0.866600	0.914700
H2171	H217	0.480300	0.767800	0.642300
C3691	C369	0.502500	0.684500	0.698200
C3701	C370	0.387800	0.798200	0.827800
H2181	H218	0.370000	0.871600	0.763000
H2191	H219	0.230000	0.737300	0.841600
C3711	C371	0.214300	0.808700	0.774900
C3721	C372	0.097900	0.921700	0.899200
H2201	H220	0.127500	0.840300	0.955000
H2211	H221	0.486200	0.659400	0.737900
C3731	C373	0.566100	0.654800	0.661500
H2221	H222	0.382100	0.764600	0.858700
C3741	C374	0.418600	0.801700	0.826000
H2231	H223	0.219900	0.842500	0.743600
C3751	C375	0.184200	0.803800	0.777700
H2241	H224	0.110500	0.947400	0.858800
C3761	C376	0.033600	0.947900	0.939100
C3771	C377	0.598900	0.595500	0.688500
C3781	C378	0.430700	0.848500	0.783400
C3791	C379	0.436000	0.756500	0.869200
C3801	C380	0.171100	0.756800	0.822500
C3811	C381	0.165400	0.849500	0.734100
C3821	C382	0.007700	0.913100	0.999800
H2251	H225	0.580400	0.573800	0.729300
H2261	H226	0.418700	0.879600	0.754100
C3831	C383	0.459100	0.851800	0.781500
C3841	C384	0.467000	0.755200	0.869700
H2271	H227	0.426600	0.725500	0.899300
C3851	C385	0.142500	0.754200	0.823200
H2281	H228	0.181700	0.726600	0.852500
C3861	C386	0.135800	0.849200	0.734400
H2291	H229	0.173600	0.881400	0.703800
H2301	H230	0.030900	0.872600	0.017300
C3871	C387	0.472500	0.901700	0.733400
C3881	C388	0.477700	0.806000	0.823600
C3891	C389	0.489300	0.705800	0.912800
C3901	C390	0.130600	0.702000	0.871500
C3911	C391	0.124200	0.800200	0.779700
C3921	C392	0.114500	0.899700	0.689400
C3931	C393	0.461200	0.947500	0.689700
H2311	H231	0.493100	0.899200	0.735600
H2321	H232	0.497500	0.807500	0.822700
C3941	C394	0.479900	0.659800	0.957900
H2331	H233	0.512600	0.707600	0.907100
C3951	C395	0.111900	0.689300	0.874500
H2341	H234	0.137800	0.676100	0.902700
H2351	H235	0.104600	0.798600	0.780400
H2361	H236	0.127200	0.928300	0.658500
C3961	C396	0.081500	0.908500	0.687800
H2371	H237	0.438400	0.952500	0.688000
C3971	C397	0.479900	0.994800	0.640500
H2381	H238	0.455500	0.658200	0.964900
C3981	C398	0.506000	0.607900	0.000800
H2391	H239	0.110400	0.711200	0.841000
C3991	C399	0.091900	0.642100	0.927400
C4001	C400	0.061400	0.960700	0.641000
H2401	H240	0.068500	0.880200	0.718100
O1531	O153	0.507800	0.990600	0.643200
O1541	O154	0.468700	0.033000	0.597200
O1551	O155	0.535100	0.613300	0.992100
O1561	O156	0.491600	0.567600	0.040000
O1571	O157	0.064800	0.643300	0.926400
O1581	O158	0.105700	0.604800	0.967400
O1591	O159	0.075800	0.001000	0.601800
O1601	O160	0.027400	0.962300	0.647600
Cu391	Cu39	0.544100	0.044430	0.574650
Cu401	Cu40	0.493050	0.095250	0.525480
Cu411	Cu41	0.843560	0.313470	0.751140
O1611	O161	0.778700	0.390900	0.727500
Cu421	Cu42	0.754950	0.291350	0.857350
O1621	O162	0.832400	0.343100	0.776300
O1631	O163	0.841900	0.279600	0.743100
O1641	O164	0.894100	0.233100	0.790200
C4011	C401	0.724300	0.405200	0.764600
O1651	O165	0.703200	0.373200	0.819600
O1661	O166	0.818600	0.213800	0.879400
O1671	O167	0.760100	0.320900	0.867100
O1681	O168	0.762900	0.266000	0.830300
C4021	C402	0.793700	0.342400	0.826400
C4031	C403	0.803700	0.262800	0.783500
C4041	C404	0.873600	0.199000	0.844400
C4051	C405	0.682100	0.466600	0.741200
C4061	C406	0.792000	0.368100	0.835900
C4071	C407	0.810400	0.233700	0.772200
C4081	C408	0.914700	0.138600	0.866600
H2411	H241	0.642300	0.480300	0.767800
C4091	C409	0.698200	0.502500	0.684500
C4101	C410	0.827800	0.387800	0.798200
H2421	H242	0.763000	0.370000	0.871600
H2431	H243	0.841600	0.230000	0.737300
C4111	C411	0.774900	0.214300	0.808700
C4121	C412	0.899200	0.097900	0.921700
H2441	H244	0.955000	0.127500	0.840300
H2451	H245	0.737900	0.486200	0.659400
C4131	C413	0.661500	0.566100	0.654800
H2461	H246	0.858700	0.382100	0.764600
C4141	C414	0.826000	0.418600	0.801700
H2471	H247	0.743600	0.219900	0.842500
C4151	C415	0.777700	0.184200	0.803800
H2481	H248	0.858800	0.110500	0.947400
C4161	C416	0.939100	0.033600	0.947900
C4171	C417	0.688500	0.598900	0.595500
C4181	C418	0.783400	0.430700	0.848500
C4191	C419	0.869200	0.436000	0.756500
C4201	C420	0.822500	0.171100	0.756800
C4211	C421	0.734100	0.165400	0.849500
C4221	C422	0.999800	0.007700	0.913100
H2491	H249	0.729300	0.580400	0.573800
H2501	H250	0.754100	0.418700	0.879600
C4231	C423	0.781500	0.459100	0.851800
C4241	C424	0.869700	0.467000	0.755200
H2511	H251	0.899300	0.426600	0.725500
C4251	C425	0.823200	0.142500	0.754200
H2521	H252	0.852500	0.181700	0.726600
C4261	C426	0.734400	0.135800	0.849200
H2531	H253	0.703800	0.173600	0.881400
H2541	H254	0.017300	0.030900	0.872600
C4271	C427	0.733400	0.472500	0.901700
C4281	C428	0.823600	0.477700	0.806000
C4291	C429	0.912800	0.489300	0.705800
C4301	C430	0.871500	0.130600	0.702000
C4311	C431	0.779700	0.124200	0.800200
C4321	C432	0.689400	0.114500	0.899700
C4331	C433	0.689700	0.461200	0.947500
H2551	H255	0.735600	0.493100	0.899200
H2561	H256	0.822700	0.497500	0.807500
C4341	C434	0.957900	0.479900	0.659800
H2571	H257	0.907100	0.512600	0.707600
C4351	C435	0.874500	0.111900	0.689300
H2581	H258	0.902700	0.137800	0.676100
H2591	H259	0.780400	0.104600	0.798600
H2601	H260	0.658500	0.127200	0.928300
C4361	C436	0.687800	0.081500	0.908500
H2611	H261	0.688000	0.438400	0.952500
C4371	C437	0.640500	0.479900	0.994800
H2621	H262	0.964900	0.455500	0.658200
C4381	C438	0.000800	0.506000	0.607900
H2631	H263	0.841000	0.110400	0.711200
C4391	C439	0.927400	0.091900	0.642100
C4401	C440	0.641000	0.061400	0.960700
H2641	H264	0.718100	0.068500	0.880200
O1691	O169	0.643200	0.507800	0.990600
O1701	O170	0.597200	0.468700	0.033000
O1711	O171	0.992100	0.535100	0.613300
O1721	O172	0.040000	0.491600	0.567600
O1731	O173	0.926400	0.064800	0.643300
O1741	O174	0.967400	0.105700	0.604800
O1751	O175	0.601800	0.075800	0.001000
O1761	O176	0.647600	0.027400	0.962300
Cu431	Cu43	0.574650	0.544100	0.044430
Cu441	Cu44	0.525480	0.493050	0.095250
Cu451	Cu45	0.751140	0.843560	0.313470
O1771	O177	0.727500	0.778700	0.390900
Cu461	Cu46	0.857350	0.754950	0.291350
O1781	O178	0.776300	0.832400	0.343100
O1791	O179	0.743100	0.841900	0.279600
O1801	O180	0.790200	0.894100	0.233100
C4411	C441	0.764600	0.724300	0.405200
O1811	O181	0.819600	0.703200	0.373200
O1821	O182	0.879400	0.818600	0.213800
O1831	O183	0.867100	0.760100	0.320900
O1841	O184	0.830300	0.762900	0.266000
C4421	C442	0.826400	0.793700	0.342400
C4431	C443	0.783500	0.803700	0.262800
C4441	C444	0.844400	0.873600	0.199000
C4451	C445	0.741200	0.682100	0.466600
C4461	C446	0.835900	0.792000	0.368100
C4471	C447	0.772200	0.810400	0.233700
C4481	C448	0.866600	0.914700	0.138600
H2651	H265	0.767800	0.642300	0.480300
C4491	C449	0.684500	0.698200	0.502500
C4501	C450	0.798200	0.827800	0.387800
H2661	H266	0.871600	0.763000	0.370000
H2671	H267	0.737300	0.841600	0.230000
C4511	C451	0.808700	0.774900	0.214300
C4521	C452	0.921700	0.899200	0.097900
H2681	H268	0.840300	0.955000	0.127500
H2691	H269	0.659400	0.737900	0.486200
C4531	C453	0.654800	0.661500	0.566100
H2701	H270	0.764600	0.858700	0.382100
C4541	C454	0.801700	0.826000	0.418600
H2711	H271	0.842500	0.743600	0.219900
C4551	C455	0.803800	0.777700	0.184200
H2721	H272	0.947400	0.858800	0.110500
C4561	C456	0.947900	0.939100	0.033600
C4571	C457	0.595500	0.688500	0.598900
C4581	C458	0.848500	0.783400	0.430700
C4591	C459	0.756500	0.869200	0.436000
C4601	C460	0.756800	0.822500	0.171100
C4611	C461	0.849500	0.734100	0.165400
C4621	C462	0.913100	0.999800	0.007700
H2731	H273	0.573800	0.729300	0.580400
H2741	H274	0.879600	0.754100	0.418700
C4631	C463	0.851800	0.781500	0.459100
C4641	C464	0.755200	0.869700	0.467000
H2751	H275	0.725500	0.899300	0.426600
C4651	C465	0.754200	0.823200	0.142500
H2761	H276	0.726600	0.852500	0.181700
C4661	C466	0.849200	0.734400	0.135800
H2771	H277	0.881400	0.703800	0.173600
H2781	H278	0.872600	0.017300	0.030900
C4671	C467	0.901700	0.733400	0.472500
C4681	C468	0.806000	0.823600	0.477700
C4691	C469	0.705800	0.912800	0.489300
C4701	C470	0.702000	0.871500	0.130600
C4711	C471	0.800200	0.779700	0.124200
C4721	C472	0.899700	0.689400	0.114500
C4731	C473	0.947500	0.689700	0.461200
H2791	H279	0.899200	0.735600	0.493100
H2801	H280	0.807500	0.822700	0.497500
C4741	C474	0.659800	0.957900	0.479900
H2811	H281	0.707600	0.907100	0.512600
C4751	C475	0.689300	0.874500	0.111900
H2821	H282	0.676100	0.902700	0.137800
H2831	H283	0.798600	0.780400	0.104600
H2841	H284	0.928300	0.658500	0.127200
C4761	C476	0.908500	0.687800	0.081500
H2851	H285	0.952500	0.688000	0.438400
C4771	C477	0.994800	0.640500	0.479900
H2861	H286	0.658200	0.964900	0.455500
C4781	C478	0.607900	0.000800	0.506000
H2871	H287	0.711200	0.841000	0.110400
C4791	C479	0.642100	0.927400	0.091900
C4801	C480	0.960700	0.641000	0.061400
H2881	H288	0.880200	0.718100	0.068500
O1851	O185	0.990600	0.643200	0.507800
O1861	O186	0.033000	0.597200	0.468700
O1871	O187	0.613300	0.992100	0.535100
O1881	O188	0.567600	0.040000	0.491600
O1891	O189	0.643300	0.926400	0.064800
O1901	O190	0.604800	0.967400	0.105700
O1911	O191	0.001000	0.601800	0.075800
O1921	O192	0.962300	0.647600	0.027400
Cu471	Cu47	0.044430	0.574650	0.544100
Cu481	Cu48	0.095250	0.525480	0.493050
