data_AYOYEU_clean_PM
_symmetry_space_group_name_H-M	'P1'
_cell_length_a	12.497000
_cell_length_b	12.564600
_cell_length_c	15.169700
_cell_angle_alpha	75.523000
_cell_angle_beta	77.748000
_cell_angle_gamma	85.439000
_symmetry_Int_Tables_number 1

loop_
_symmetry_equiv_pos_as_xyz
'x,y,z'

loop_
_atom_site_label
_atom_site_type_symbol
_atom_site_fract_x
_atom_site_fract_y
_atom_site_fract_z
C11	C1	0.546000	0.527200	0.784300
C21	C2	0.566000	0.530300	0.876900
H11	H1	0.631500	0.557700	0.880500
C31	C3	0.492600	0.494900	0.954900
H21	H2	0.429700	0.462600	0.951600
C41	C4	0.442400	0.772800	0.615800
H31	H3	0.516700	0.783500	0.609500
C51	C5	0.370300	0.863400	0.616300
C61	C6	0.259700	0.846600	0.624200
H41	H4	0.209300	0.905300	0.623200
C71	C7	0.225700	0.742200	0.633400
H51	H5	0.152000	0.729400	0.639200
C81	C8	0.302300	0.656500	0.633900
H61	H6	0.278500	0.586000	0.641400
C91	C9	0.409000	0.974000	0.610800
C101	C10	0.634900	0.086200	0.637100
C111	C11	0.714300	0.990300	0.650200
H71	H7	0.782400	0.014600	0.656900
H81	H8	0.684700	0.935800	0.704900
H91	H9	0.726600	0.959100	0.597100
C121	C12	0.739900	0.403200	0.621600
H101	H10	0.763300	0.473300	0.616400
C131	C13	0.782600	0.212800	0.631700
H111	H11	0.832900	0.154000	0.634600
C141	C14	0.673200	0.196100	0.633800
C151	C15	0.601900	0.287600	0.631300
H121	H12	0.528300	0.277500	0.634000
C161	C16	0.883400	0.226100	0.125500
H131	H13	0.953300	0.249300	0.122000
C171	C17	0.797300	0.302400	0.128100
H141	H14	0.809100	0.375200	0.126100
C181	C18	0.693200	0.267500	0.133800
H151	H15	0.633800	0.317000	0.136500
C191	C19	0.677100	0.158400	0.135400
C201	C20	0.769700	0.087900	0.132600
H161	H16	0.760500	0.014700	0.134300
C211	C21	0.566900	0.119200	0.138900
C221	C22	0.469700	0.194000	0.157200
H171	H17	0.493500	0.260900	0.165600
H181	H18	0.433400	0.210400	0.105300
H191	H19	0.419900	0.158600	0.212300
C231	C23	0.453900	0.894800	0.113700
C241	C24	0.551000	0.820200	0.093800
H201	H20	0.526900	0.753400	0.085500
H211	H21	0.599900	0.856000	0.038300
H221	H22	0.588400	0.803500	0.145000
C251	C25	0.252600	0.928200	0.117200
H231	H23	0.262900	0.001700	0.114000
C261	C26	0.343700	0.857100	0.116900
C271	C27	0.327200	0.747500	0.119300
H241	H24	0.385900	0.697100	0.118300
C281	C28	0.223000	0.714800	0.123300
H251	H25	0.210800	0.642300	0.124500
C291	C29	0.136600	0.791300	0.125400
H261	H26	0.066500	0.768300	0.129300
C301	C30	0.181500	0.235900	0.892100
H271	H27	0.217100	0.284000	0.913200
C311	C31	0.191400	0.247200	0.801300
H281	H28	0.148400	0.203800	0.782100
C321	C32	0.264400	0.322400	0.729800
H291	H29	0.305800	0.369300	0.747000
C331	C33	0.273300	0.325500	0.640500
H301	H30	0.225500	0.284800	0.623700
C341	C34	0.357000	0.391800	0.565800
C351	C35	0.335600	0.071700	0.585800
H311	H31	0.269100	0.048200	0.575200
H321	H32	0.318700	0.108500	0.635600
H331	H33	0.371800	0.121300	0.530300
C361	C36	0.986600	0.977100	0.301300
C371	C37	0.970500	0.949900	0.404400
H341	H34	0.934400	0.886000	0.438300
C381	C38	0.005500	0.012900	0.450100
H351	H35	0.039200	0.077900	0.415800
C391	C39	0.114200	0.147300	0.960800
N11	N1	0.409600	0.671200	0.624100
N21	N2	0.633400	0.389500	0.625000
N31	N3	0.150500	0.897400	0.121900
N41	N4	0.871200	0.120500	0.127800
N51	N5	0.536100	0.082200	0.626100
N61	N6	0.504700	0.976100	0.629400
N71	N7	0.457700	0.990500	0.128200
N81	N8	0.563800	0.022400	0.124600
O11	O1	0.609000	0.583200	0.713500
O21	O2	0.470100	0.473600	0.776400
O31	O3	0.411600	0.457800	0.586100
O41	O4	0.367200	0.377400	0.485300
O51	O5	0.042300	0.057800	0.251300
O61	O6	0.945000	0.915000	0.264600
O71	O7	0.112400	0.137700	0.046100
O81	O8	0.062400	0.085300	0.933600
Co11	Co1	0.523940	0.531480	0.623350
Co21	Co2	0.011250	0.009650	0.126170
C401	C40	0.816300	0.316900	0.625400
H361	H36	0.889200	0.328900	0.623700
C411	C41	0.454000	0.472800	0.215700
C421	C42	0.434000	0.469700	0.123100
H371	H37	0.368500	0.442300	0.119500
C431	C43	0.507400	0.505100	0.045100
H381	H38	0.570300	0.537400	0.048400
C441	C44	0.557600	0.227200	0.384200
H391	H39	0.483300	0.216500	0.390500
C451	C45	0.629700	0.136600	0.383700
C461	C46	0.740300	0.153400	0.375800
H401	H40	0.790700	0.094700	0.376800
C471	C47	0.774300	0.257800	0.366600
H411	H41	0.848000	0.270600	0.360800
C481	C48	0.697700	0.343500	0.366100
H421	H42	0.721500	0.414000	0.358600
C491	C49	0.591000	0.026000	0.389200
C501	C50	0.365100	0.913800	0.362900
C511	C51	0.285700	0.009700	0.349800
H431	H43	0.217600	0.985400	0.343100
H441	H44	0.315300	0.064200	0.295100
H451	H45	0.273400	0.040900	0.402900
C521	C52	0.260100	0.596800	0.378400
H461	H46	0.236700	0.526700	0.383600
C531	C53	0.217400	0.787200	0.368300
H471	H47	0.167100	0.846000	0.365400
C541	C54	0.326800	0.803900	0.366200
C551	C55	0.398100	0.712400	0.368700
H481	H48	0.471700	0.722500	0.366000
C561	C56	0.116600	0.773900	0.874500
H491	H49	0.046700	0.750700	0.878000
C571	C57	0.202700	0.697600	0.871900
H501	H50	0.190900	0.624800	0.873900
C581	C58	0.306800	0.732500	0.866200
H511	H51	0.366200	0.683000	0.863500
C591	C59	0.322900	0.841600	0.864600
C601	C60	0.230300	0.912100	0.867400
H521	H52	0.239500	0.985300	0.865700
C611	C61	0.433100	0.880800	0.861100
C621	C62	0.530300	0.806000	0.842800
H531	H53	0.506500	0.739100	0.834400
H541	H54	0.566600	0.789600	0.894700
H551	H55	0.580100	0.841400	0.787700
C631	C63	0.546100	0.105200	0.886300
C641	C64	0.449000	0.179800	0.906200
H561	H56	0.473100	0.246600	0.914500
H571	H57	0.400100	0.144000	0.961700
H581	H58	0.411600	0.196500	0.855000
C651	C65	0.747400	0.071800	0.882800
H591	H59	0.737100	0.998300	0.886000
C661	C66	0.656300	0.142900	0.883100
C671	C67	0.672800	0.252500	0.880700
H601	H60	0.614100	0.302900	0.881700
C681	C68	0.777000	0.285200	0.876700
H611	H61	0.789200	0.357700	0.875500
C691	C69	0.863400	0.208700	0.874600
H621	H62	0.933500	0.231700	0.870700
C701	C70	0.818500	0.764100	0.107900
H631	H63	0.782900	0.716000	0.086800
C711	C71	0.808600	0.752800	0.198700
H641	H64	0.851600	0.796200	0.217900
C721	C72	0.735600	0.677600	0.270200
H651	H65	0.694200	0.630700	0.253000
C731	C73	0.726700	0.674500	0.359500
H661	H66	0.774500	0.715200	0.376300
C741	C74	0.643000	0.608200	0.434200
C751	C75	0.664400	0.928300	0.414200
H671	H67	0.730900	0.951800	0.424800
H681	H68	0.681300	0.891500	0.364400
H691	H69	0.628200	0.878700	0.469700
C761	C76	0.013400	0.022900	0.698700
C771	C77	0.029500	0.050100	0.595600
H701	H70	0.065600	0.114000	0.561700
C781	C78	0.994500	0.987100	0.549900
H711	H71	0.960800	0.922100	0.584200
C791	C79	0.885800	0.852700	0.039200
N91	N9	0.590400	0.328800	0.375900
N101	N10	0.366600	0.610500	0.375000
N111	N11	0.849500	0.102600	0.878100
N121	N12	0.128800	0.879500	0.872200
N131	N13	0.463900	0.917800	0.373900
N141	N14	0.495300	0.023900	0.370600
N151	N15	0.542300	0.009500	0.871800
N161	N16	0.436200	0.977600	0.875400
O91	O9	0.391000	0.416800	0.286500
O101	O10	0.529900	0.526400	0.223600
O111	O11	0.588400	0.542200	0.413900
O121	O12	0.632800	0.622600	0.514700
O131	O13	0.957700	0.942200	0.748700
O141	O14	0.055000	0.085000	0.735400
O151	O15	0.887600	0.862300	0.953900
O161	O16	0.937600	0.914700	0.066400
Co31	Co3	0.476060	0.468520	0.376650
Co41	Co4	0.988750	0.990350	0.873830
C801	C80	0.183700	0.683100	0.374600
H721	H72	0.110800	0.671100	0.376300
