data_AYOYOE_clean_PM
_symmetry_space_group_name_H-M	'P1'
_cell_length_a	10.052400
_cell_length_b	12.507600
_cell_length_c	19.208300
_cell_angle_alpha	90.337000
_cell_angle_beta	103.343000
_cell_angle_gamma	99.926000
_symmetry_Int_Tables_number 1

loop_
_symmetry_equiv_pos_as_xyz
'x,y,z'

loop_
_atom_site_label
_atom_site_type_symbol
_atom_site_fract_x
_atom_site_fract_y
_atom_site_fract_z
Ni11	Ni1	0.264040	0.221510	0.321370
Ni21	Ni2	0.342510	0.308880	0.147920
N11	N1	0.267000	0.775500	0.314100
O11	O1	0.102200	0.100790	0.263170
O21	O2	0.227800	0.212110	0.207150
O31	O3	0.764200	0.769290	0.948830
O41	O4	0.460300	0.390040	0.244040
O51	O5	0.422000	0.349220	0.352140
O61	O6	0.783100	0.840700	0.587240
O71	O7	0.835800	0.865970	0.482040
N21	N2	0.119600	0.327900	0.317030
N31	N3	0.239100	0.661100	0.312300
C11	C1	0.131100	0.129400	0.205640
N41	N4	0.480300	0.198900	0.153780
N51	N5	0.196400	0.413800	0.135140
C21	C2	0.673100	0.659400	0.431470
H11	H1	0.721900	0.698000	0.401200
C31	C3	0.586400	0.555300	0.404650
H21	H2	0.540000	0.515700	0.435500
C41	C4	0.988400	0.289100	0.317900
H31	H3	0.961000	0.214500	0.319900
C51	C5	0.891900	0.355100	0.315900
H41	H4	0.800900	0.325200	0.316500
C61	C6	0.930100	0.465600	0.313000
H51	H5	0.865700	0.511200	0.311700
C71	C7	0.064900	0.507300	0.312100
C81	C8	0.155700	0.435200	0.314000
H61	H6	0.247100	0.463200	0.313100
C91	C9	0.115700	0.625100	0.312300
H71	H7	0.054700	0.673100	0.312400
C101	C10	0.753800	0.741200	0.008650
C111	C11	0.477100	0.409000	0.309390
C121	C12	0.569400	0.513300	0.339230
H81	H8	0.619100	0.552000	0.309400
C131	C13	0.235600	0.521200	0.139400
H91	H9	0.329900	0.550300	0.152800
C141	C14	0.140500	0.591800	0.124500
C151	C15	0.002000	0.548800	0.106700
H101	H10	0.936300	0.594100	0.097900
C161	C16	0.960600	0.437400	0.101800
H111	H11	0.866900	0.406300	0.089300
C171	C17	0.061100	0.373400	0.115800
H121	H12	0.033200	0.298300	0.111500
C181	C18	0.189500	0.710800	0.128100
H131	H13	0.127500	0.757500	0.129800
N61	N6	0.312200	0.748900	0.128800
N71	N7	0.338500	0.863300	0.132500
C191	C19	0.464400	0.899500	0.135300
H141	H14	0.524100	0.851100	0.132900
C201	C20	0.519400	0.017200	0.142400
C211	C21	0.660000	0.055100	0.150700
H151	H15	0.720600	0.006900	0.150000
C221	C22	0.708400	0.164200	0.160000
H161	H16	0.802500	0.191200	0.165300
C231	C23	0.617200	0.234500	0.161600
H171	H17	0.651500	0.308700	0.168200
C241	C24	0.434200	0.092800	0.143700
H181	H18	0.339300	0.067800	0.137200
C251	C25	0.059400	0.069900	0.136980
H191	H19	0.070700	0.099900	0.094100
C261	C26	0.979700	0.974600	0.136170
H201	H20	0.969200	0.947700	0.180000
C271	C27	0.906100	0.907900	0.071430
H211	H21	0.913700	0.934700	0.027200
C281	C28	0.830300	0.812500	0.072870
H221	H22	0.823500	0.786900	0.117500
O81	O8	0.689300	0.651600	0.021030
N81	N8	0.404100	0.112200	0.325200
C291	C29	0.539500	0.146900	0.328890
H231	H23	0.572200	0.221300	0.330500
C301	C30	0.631900	0.077700	0.330400
H241	H24	0.725100	0.105300	0.333200
C311	C31	0.585900	0.967600	0.327800
H251	H25	0.647600	0.919600	0.329400
C321	C32	0.446800	0.929300	0.322600
C331	C33	0.358800	0.004400	0.322350
H261	H26	0.265300	0.978900	0.320100
C341	C34	0.392700	0.812100	0.317600
H271	H27	0.453200	0.763800	0.317000
C351	C35	0.775100	0.809900	0.523170
C361	C36	0.686900	0.702700	0.496760
H281	H28	0.639000	0.664000	0.527400
N91	N9	0.140400	0.890600	0.494090
C371	C37	0.100900	0.783400	0.495900
H291	H29	0.009100	0.756900	0.497000
C381	C38	0.188700	0.709400	0.496200
C391	C39	0.324000	0.747800	0.494100
H301	H30	0.385800	0.700300	0.494500
C401	C40	0.366500	0.858200	0.491300
H311	H31	0.457400	0.886500	0.489400
C411	C41	0.272500	0.925700	0.491200
H321	H32	0.302200	0.999900	0.489000
C421	C42	0.137600	0.592900	0.496800
H331	H33	0.197100	0.544200	0.494900
N101	N10	0.014000	0.557500	0.499700
Ni31	Ni3	0.735960	0.778490	0.678630
Ni41	Ni4	0.657490	0.691120	0.852080
N111	N11	0.733000	0.224500	0.685900
O91	O9	0.897800	0.899210	0.736830
O101	O10	0.772200	0.787890	0.792850
O111	O11	0.235800	0.230710	0.051170
O121	O12	0.539700	0.609960	0.755960
O131	O13	0.578000	0.650780	0.647860
O141	O14	0.216900	0.159300	0.412760
O151	O15	0.164200	0.134030	0.517960
N121	N12	0.880400	0.672100	0.682970
N131	N13	0.760900	0.338900	0.687700
C431	C43	0.868900	0.870600	0.794360
N141	N14	0.519700	0.801100	0.846220
N151	N15	0.803600	0.586200	0.864860
C441	C44	0.326900	0.340600	0.568530
H341	H34	0.278100	0.302000	0.598800
C451	C45	0.413600	0.444700	0.595350
H351	H35	0.460000	0.484300	0.564500
C461	C46	0.011600	0.710900	0.682100
H361	H36	0.039000	0.785500	0.680100
C471	C47	0.108100	0.644900	0.684100
H371	H37	0.199100	0.674800	0.683500
C481	C48	0.069900	0.534400	0.687000
H381	H38	0.134300	0.488800	0.688300
C491	C49	0.935100	0.492700	0.687900
C501	C50	0.844300	0.564800	0.686000
H391	H39	0.752900	0.536800	0.686900
C511	C51	0.884300	0.374900	0.687700
H401	H40	0.945300	0.326900	0.687600
C521	C52	0.246200	0.258800	0.991350
C531	C53	0.522900	0.591000	0.690610
C541	C54	0.430600	0.486700	0.660770
H411	H41	0.380900	0.448000	0.690600
C551	C55	0.764400	0.478800	0.860600
H421	H42	0.670100	0.449700	0.847200
C561	C56	0.859500	0.408200	0.875500
C571	C57	0.998000	0.451200	0.893300
H431	H43	0.063700	0.405900	0.902100
C581	C58	0.039400	0.562600	0.898200
H441	H44	0.133100	0.593700	0.910700
C591	C59	0.938900	0.626600	0.884200
H451	H45	0.966800	0.701700	0.888500
C601	C60	0.810500	0.289200	0.871900
H461	H46	0.872500	0.242500	0.870200
N161	N16	0.687800	0.251100	0.871200
N171	N17	0.661500	0.136700	0.867500
C611	C61	0.535600	0.100500	0.864700
H471	H47	0.475900	0.148900	0.867100
C621	C62	0.480600	0.982800	0.857600
C631	C63	0.340000	0.944900	0.849300
H481	H48	0.279400	0.993100	0.850000
C641	C64	0.291600	0.835800	0.840000
H491	H49	0.197500	0.808800	0.834700
C651	C65	0.382800	0.765500	0.838400
H501	H50	0.348500	0.691300	0.831800
C661	C66	0.565800	0.907200	0.856300
H511	H51	0.660700	0.932200	0.862800
C671	C67	0.940600	0.930100	0.863020
H521	H52	0.929300	0.900100	0.905900
C681	C68	0.020300	0.025400	0.863830
H531	H53	0.030800	0.052300	0.820000
C691	C69	0.093900	0.092100	0.928570
H541	H54	0.086300	0.065300	0.972800
C701	C70	0.169700	0.187500	0.927130
H551	H55	0.176500	0.213100	0.882500
O161	O16	0.310700	0.348400	0.978970
N181	N18	0.595900	0.887800	0.674800
C711	C71	0.460500	0.853100	0.671110
H561	H56	0.427800	0.778700	0.669500
C721	C72	0.368100	0.922300	0.669600
H571	H57	0.274900	0.894700	0.666800
C731	C73	0.414100	0.032400	0.672200
H581	H58	0.352400	0.080400	0.670600
C741	C74	0.553200	0.070700	0.677400
C751	C75	0.641200	0.995600	0.677650
H591	H59	0.734700	0.021100	0.679900
C761	C76	0.607300	0.187900	0.682400
H601	H60	0.546800	0.236200	0.683000
C771	C77	0.224900	0.190100	0.476830
C781	C78	0.313100	0.297300	0.503240
H611	H61	0.361000	0.336000	0.472600
N191	N19	0.859600	0.109400	0.505910
C791	C79	0.899100	0.216600	0.504100
H621	H62	0.990900	0.243100	0.503000
C801	C80	0.811300	0.290600	0.503800
C811	C81	0.676000	0.252200	0.505900
H631	H63	0.614200	0.299700	0.505500
C821	C82	0.633500	0.141800	0.508700
H641	H64	0.542600	0.113500	0.510600
C831	C83	0.727500	0.074300	0.508800
H651	H65	0.697800	0.000100	0.511000
C841	C84	0.862400	0.407100	0.503200
H661	H66	0.802900	0.455800	0.505100
N201	N20	0.986000	0.442500	0.500300
Ni51	Ni5	0.000000	0.000000	0.500000
