data_AYUPOZ_clean_PM
_symmetry_space_group_name_H-M	'P1'
_cell_length_a	10.872200
_cell_length_b	10.872200
_cell_length_c	8.909800
_cell_angle_alpha	90.000000
_cell_angle_beta	90.000000
_cell_angle_gamma	90.000000
_symmetry_Int_Tables_number 1

loop_
_symmetry_equiv_pos_as_xyz
'x,y,z'

loop_
_atom_site_label
_atom_site_type_symbol
_atom_site_fract_x
_atom_site_fract_y
_atom_site_fract_z
Ni11	Ni1	0.100310	0.897260	0.099350
Ni21	Ni2	0.442910	0.615270	0.921920
F11	F1	0.098100	0.083100	0.122900
F21	F2	0.095100	0.914800	0.327400
F31	F3	0.405100	0.434500	0.950500
F41	F4	0.440500	0.619900	0.149800
S11	S1	0.160340	0.607550	0.032000
O11	O1	0.105700	0.708300	0.121200
O21	O2	0.261300	0.659100	0.938500
O31	O3	0.207100	0.512600	0.136300
O41	O4	0.066000	0.554000	0.935300
Ni31	Ni3	0.899690	0.102740	0.599350
Ni41	Ni4	0.557090	0.384730	0.421920
F51	F5	0.901900	0.916900	0.622900
F61	F6	0.904900	0.085200	0.827400
F71	F7	0.594900	0.565500	0.450500
F81	F8	0.559500	0.380100	0.649800
S21	S2	0.839660	0.392450	0.532000
O51	O5	0.894300	0.291700	0.621200
O61	O6	0.738700	0.340900	0.438500
O71	O7	0.792900	0.487400	0.636300
O81	O8	0.934000	0.446000	0.435300
Ni51	Ni5	0.102740	0.100310	0.349350
Ni61	Ni6	0.384730	0.442910	0.171920
F91	F9	0.916900	0.098100	0.372900
F101	F10	0.085200	0.095100	0.577400
F111	F11	0.565500	0.405100	0.200500
F121	F12	0.380100	0.440500	0.399800
S31	S3	0.392450	0.160340	0.282000
O91	O9	0.291700	0.105700	0.371200
O101	O10	0.340900	0.261300	0.188500
O111	O11	0.487400	0.207100	0.386300
O121	O12	0.446000	0.066000	0.185300
Ni71	Ni7	0.897260	0.899690	0.849350
Ni81	Ni8	0.615270	0.557090	0.671920
F131	F13	0.083100	0.901900	0.872900
F141	F14	0.914800	0.904900	0.077400
F151	F15	0.434500	0.594900	0.700500
F161	F16	0.619900	0.559500	0.899800
S41	S4	0.607550	0.839660	0.782000
O131	O13	0.708300	0.894300	0.871200
O141	O14	0.659100	0.738700	0.688500
O151	O15	0.512600	0.792900	0.886300
O161	O16	0.554000	0.934000	0.685300
