data_AYUWUM_clean_PM
_symmetry_space_group_name_H-M	'P1'
_cell_length_a	9.998000
_cell_length_b	16.216000
_cell_length_c	16.663000
_cell_angle_alpha	94.899000
_cell_angle_beta	102.410000
_cell_angle_gamma	96.101000
_symmetry_Int_Tables_number 1

loop_
_symmetry_equiv_pos_as_xyz
'x,y,z'

loop_
_atom_site_label
_atom_site_type_symbol
_atom_site_fract_x
_atom_site_fract_y
_atom_site_fract_z
Na11	Na1	0.110600	0.946200	0.452500
Na21	Na2	0.472700	0.104000	0.541800
Na31	Na3	0.252000	0.156100	0.863200
Na41	Na4	0.889400	0.053800	0.547500
Na51	Na5	0.527300	0.896000	0.458200
Na61	Na6	0.748000	0.843900	0.136800
H11	H1	0.717000	0.501600	0.156700
H21	H2	0.344200	0.585500	0.153200
H31	H3	0.941500	0.246100	0.233900
H41	H4	0.118400	0.483400	0.205800
H51	H5	0.288700	0.948900	0.117100
H61	H6	0.959900	0.042200	0.182500
H71	H7	0.504200	0.043300	0.170900
H81	H8	0.713300	0.287400	0.208100
H91	H9	0.936100	0.507600	0.281400
H101	H10	0.838900	0.438500	0.306800
H111	H11	0.954200	0.502300	0.387300
H121	H12	0.165800	0.492000	0.413800
H131	H13	0.249200	0.427900	0.380900
H141	H14	0.206600	0.501000	0.330900
H151	H15	0.921300	0.313100	0.359300
H161	H16	0.026200	0.376200	0.440500
H171	H17	0.076900	0.302300	0.378500
H181	H18	0.843800	0.257300	0.905000
H191	H19	0.879100	0.357600	0.938400
H201	H20	0.126200	0.334100	0.811700
H211	H21	0.262100	0.352700	0.980700
H221	H22	0.070400	0.187500	0.985700
H231	H23	0.481300	0.260600	0.958900
H241	H24	0.894700	0.881800	0.547900
H251	H25	0.036700	0.913900	0.611900
H261	H26	0.290000	0.002100	0.602900
H271	H27	0.223300	0.066100	0.585700
H281	H28	0.357300	0.005200	0.375300
H291	H29	0.471000	0.049100	0.373900
H301	H30	0.262600	0.802700	0.447000
H311	H31	0.293800	0.820700	0.530200
H321	H32	0.283000	0.498400	0.843300
H331	H33	0.655800	0.414500	0.846800
H341	H34	0.058500	0.753900	0.766100
H351	H35	0.881600	0.516600	0.794200
H361	H36	0.711300	0.051100	0.882900
H371	H37	0.040100	0.957800	0.817500
H381	H38	0.495800	0.956700	0.829100
H391	H39	0.286700	0.712600	0.791900
H401	H40	0.063900	0.492400	0.718600
H411	H41	0.161100	0.561500	0.693200
H421	H42	0.045800	0.497700	0.612700
H431	H43	0.834200	0.508000	0.586200
H441	H44	0.750800	0.572100	0.619100
H451	H45	0.793400	0.499000	0.669100
H461	H46	0.078700	0.686900	0.640700
H471	H47	0.973800	0.623800	0.559500
H481	H48	0.923100	0.697700	0.621500
H491	H49	0.156200	0.742700	0.095000
H501	H50	0.120900	0.642400	0.061600
H511	H51	0.873800	0.665900	0.188300
H521	H52	0.737900	0.647300	0.019300
H531	H53	0.929600	0.812500	0.014300
H541	H54	0.518700	0.739400	0.041100
H551	H55	0.105300	0.118200	0.452100
H561	H56	0.963300	0.086100	0.388100
H571	H57	0.710000	0.997900	0.397100
H581	H58	0.776700	0.933900	0.414300
H591	H59	0.642700	0.994800	0.624700
H601	H60	0.529000	0.950900	0.626100
H611	H61	0.737400	0.197300	0.553000
H621	H62	0.706200	0.179300	0.469800
C11	C1	0.406100	0.416400	0.057900
C21	C2	0.549100	0.425200	0.088000
C31	C3	0.616100	0.496400	0.140400
C41	C4	0.539600	0.557700	0.163000
C51	C5	0.398000	0.548800	0.134600
C61	C6	0.330300	0.478600	0.081300
C71	C7	0.030000	0.319600	0.070100
C81	C8	0.982700	0.265100	0.121200
C91	C9	0.990800	0.292600	0.203900
C101	C10	0.039900	0.375600	0.235900
C111	C11	0.085600	0.428700	0.183500
C121	C12	0.084200	0.401400	0.102100
C131	C13	0.126900	0.094900	0.045600
C141	C14	0.222500	0.037700	0.057900
C151	C15	0.214800	0.979800	0.114600
C161	C16	0.115800	0.981100	0.160700
C171	C17	0.023300	0.039900	0.151400
C181	C18	0.028300	0.096400	0.094600
C191	C19	0.512000	0.194400	0.037600
C201	C20	0.475300	0.118600	0.066300
C211	C21	0.532500	0.104600	0.146800
C221	C22	0.622600	0.166700	0.199400
C231	C23	0.654700	0.243700	0.172700
C241	C24	0.599900	0.257400	0.091800
C251	C25	0.920300	0.308800	0.926300
C261	C26	0.972000	0.329300	0.851300
C271	C27	0.040700	0.410000	0.324600
C281	C28	0.929600	0.467900	0.320800
C291	C29	0.178000	0.461800	0.366300
C301	C30	0.012000	0.342400	0.378100
C311	C31	0.593900	0.583600	0.942100
C321	C32	0.450900	0.574800	0.912000
C331	C33	0.383900	0.503600	0.859600
C341	C34	0.460400	0.442300	0.837000
C351	C35	0.602000	0.451200	0.865400
C361	C36	0.669700	0.521400	0.918700
C371	C37	0.970000	0.680400	0.929900
C381	C38	0.017300	0.734900	0.878800
C391	C39	0.009200	0.707400	0.796100
C401	C40	0.960100	0.624400	0.764100
C411	C41	0.914400	0.571300	0.816500
C421	C42	0.915800	0.598600	0.897900
C431	C43	0.873100	0.905100	0.954400
C441	C44	0.777500	0.962300	0.942100
C451	C45	0.785200	0.020200	0.885400
C461	C46	0.884200	0.018900	0.839300
C471	C47	0.976700	0.960100	0.848600
C481	C48	0.971700	0.903600	0.905400
C491	C49	0.488000	0.805600	0.962400
C501	C50	0.524700	0.881400	0.933700
C511	C51	0.467500	0.895400	0.853200
C521	C52	0.377400	0.833300	0.800600
C531	C53	0.345300	0.756300	0.827300
C541	C54	0.400100	0.742600	0.908200
C551	C55	0.079700	0.691200	0.073700
C561	C56	0.028000	0.670700	0.148700
C571	C57	0.959300	0.590000	0.675400
C581	C58	0.070400	0.532100	0.679200
C591	C59	0.822000	0.538200	0.633700
C601	C60	0.988000	0.657600	0.621900
S11	S1	0.150800	0.470490	0.037550
S21	S2	0.896700	0.163520	0.076650
S31	S3	0.353900	0.038060	0.000840
S41	S4	0.653100	0.352810	0.054190
S51	S5	0.109000	0.908790	0.234850
S61	S6	0.703000	0.146300	0.300270
S71	S7	0.623300	0.650320	0.226910
S81	S8	0.849200	0.529510	0.962450
S91	S9	0.103300	0.836480	0.923350
S101	S10	0.646100	0.961940	0.999160
S111	S11	0.346900	0.647190	0.945810
S121	S12	0.891000	0.091210	0.765150
S131	S13	0.297000	0.853700	0.699730
S141	S14	0.376700	0.349680	0.773090
O11	O1	0.346300	0.347600	0.006800
O21	O2	0.031900	0.291000	0.989900
O31	O3	0.137600	0.148000	0.988500
O41	O4	0.461900	0.202500	0.956900
O51	O5	0.898100	0.354200	0.793600
O61	O6	0.101500	0.317400	0.855500
O71	O7	0.963800	0.875600	0.221500
O81	O8	0.160200	0.955500	0.316500
O91	O9	0.194700	0.846300	0.216900
O101	O10	0.625200	0.068300	0.313400
O111	O11	0.689000	0.215700	0.356400
O121	O12	0.844400	0.135600	0.298300
O131	O13	0.766200	0.634700	0.257200
O141	O14	0.550800	0.661500	0.292200
O151	O15	0.615200	0.717000	0.174400
O161	O16	0.975800	0.918200	0.562200
O171	O17	0.264900	0.031700	0.564300
O181	O18	0.430200	0.022900	0.407300
O191	O19	0.292200	0.848000	0.479900
O201	O20	0.653700	0.652400	0.993200
O211	O21	0.968100	0.709000	0.010100
O221	O22	0.862400	0.852000	0.011500
O231	O23	0.538100	0.797500	0.043100
O241	O24	0.101900	0.645800	0.206400
O251	O25	0.898500	0.682600	0.144500
O261	O26	0.036200	0.124400	0.778500
O271	O27	0.839800	0.044500	0.683500
O281	O28	0.805300	0.153700	0.783100
O291	O29	0.374800	0.931700	0.686600
O301	O30	0.311000	0.784300	0.643600
O311	O31	0.155600	0.864400	0.701700
O321	O32	0.233800	0.365300	0.742800
O331	O33	0.449200	0.338500	0.707800
O341	O34	0.384800	0.283000	0.825600
O351	O35	0.024200	0.081800	0.437800
O361	O36	0.735100	0.968300	0.435700
O371	O37	0.569800	0.977100	0.592700
O381	O38	0.707800	0.152000	0.520100
