data_AZAWAZ_clean_PM
_symmetry_space_group_name_H-M	'P1'
_cell_length_a	5.585000
_cell_length_b	11.359000
_cell_length_c	14.624000
_cell_angle_alpha	98.030000
_cell_angle_beta	99.000000
_cell_angle_gamma	103.860000
_symmetry_Int_Tables_number 1

loop_
_symmetry_equiv_pos_as_xyz
'x,y,z'

loop_
_atom_site_label
_atom_site_type_symbol
_atom_site_fract_x
_atom_site_fract_y
_atom_site_fract_z
U11	U1	0.261000	0.201180	0.425090
U21	U2	0.459600	0.244860	0.076820
Na11	Na1	0.882000	0.252200	0.865700
O11	O1	0.067000	0.339000	0.346000
O21	O2	0.709000	0.119000	0.159000
O31	O3	0.233000	0.035000	0.094900
O41	O4	0.636000	0.207000	0.994800
O51	O5	0.713000	0.458000	0.080600
O61	O6	0.990000	0.103000	0.280000
O71	O7	0.800000	0.357000	0.222800
O81	O8	0.907000	0.871000	0.047800
O91	O9	0.511000	0.146000	0.556800
O101	O10	0.737000	0.635000	0.029000
O111	O11	0.689000	0.006000	0.609300
C11	C1	0.046000	0.975000	0.042000
C21	C2	0.913000	0.299000	0.271000
C31	C3	0.861000	0.162000	0.233000
C41	C4	0.623000	0.527000	0.031000
C51	C5	0.558000	0.043000	0.546000
U31	U3	0.739000	0.798820	0.574910
U41	U4	0.540400	0.755140	0.923180
Na21	Na2	0.118000	0.747800	0.134300
O121	O12	0.933000	0.661000	0.654000
O131	O13	0.291000	0.881000	0.841000
O141	O14	0.767000	0.965000	0.905100
O151	O15	0.364000	0.793000	0.005200
O161	O16	0.287000	0.542000	0.919400
O171	O17	0.010000	0.897000	0.720000
O181	O18	0.200000	0.643000	0.777200
O191	O19	0.093000	0.129000	0.952200
O201	O20	0.489000	0.854000	0.443200
O211	O21	0.263000	0.365000	0.971000
O221	O22	0.311000	0.994000	0.390700
C61	C6	0.954000	0.025000	0.958000
C71	C7	0.087000	0.701000	0.729000
C81	C8	0.139000	0.838000	0.767000
C91	C9	0.377000	0.473000	0.969000
C101	C10	0.442000	0.957000	0.454000
