data_AZILEA_clean_PM
_symmetry_space_group_name_H-M	'P1'
_cell_length_a	10.158800
_cell_length_b	12.791900
_cell_length_c	23.005500
_cell_angle_alpha	104.316000
_cell_angle_beta	90.000000
_cell_angle_gamma	113.396000
_symmetry_Int_Tables_number 1

loop_
_symmetry_equiv_pos_as_xyz
'x,y,z'

loop_
_atom_site_label
_atom_site_type_symbol
_atom_site_fract_x
_atom_site_fract_y
_atom_site_fract_z
Pr11	Pr1	0.022750	0.636580	0.725640
Pr21	Pr2	0.145880	0.834500	0.600340
Pr31	Pr3	0.615900	0.609580	0.696960
Pr41	Pr4	0.558840	0.871960	0.640420
Pr51	Pr5	0.613830	0.636580	0.225640
Pr61	Pr6	0.688620	0.834500	0.100340
Pr71	Pr7	0.993680	0.609580	0.196960
Pr81	Pr8	0.313120	0.871960	0.140420
P11	P1	0.882400	0.860200	0.713760
P21	P2	0.291300	0.616000	0.620560
P31	P3	0.816700	0.555200	0.601140
P41	P4	0.340600	0.910600	0.729130
P51	P5	0.977800	0.860200	0.213760
P61	P6	0.324700	0.616000	0.120560
P71	P7	0.738500	0.555200	0.101140
P81	P8	0.570000	0.910600	0.229130
H11	H1	0.200200	0.373200	0.836700
H21	H2	0.954100	0.148200	0.871400
H31	H3	0.915000	0.329800	0.848000
H41	H4	0.162500	0.118400	0.742000
H51	H5	0.137200	0.298200	0.712900
H61	H6	0.020000	0.093200	0.502900
H71	H7	0.992700	0.327400	0.576800
H81	H8	0.045200	0.182600	0.626600
H91	H9	0.263400	0.319400	0.467200
H101	H10	0.311400	0.160600	0.507400
H111	H11	0.682900	0.379600	0.332400
H121	H12	0.836200	0.314200	0.432900
H131	H13	0.969900	0.441400	0.359700
H141	H14	0.598800	0.453600	0.470500
H151	H15	0.698300	0.594400	0.398300
H161	H16	0.562100	0.090800	0.987800
H171	H17	0.264800	0.963600	0.981200
H181	H18	0.308300	0.105800	0.906700
H191	H19	0.615000	0.050800	0.852800
H201	H20	0.573100	0.882000	0.917900
H211	H21	0.173000	0.373200	0.336700
H221	H22	0.194100	0.148200	0.371400
H231	H23	0.414800	0.329800	0.348000
H241	H24	0.955900	0.118400	0.242000
H251	H25	0.161000	0.298200	0.212900
H261	H26	0.073200	0.093200	0.002900
H271	H27	0.334700	0.327400	0.076800
H281	H28	0.137400	0.182600	0.126600
H291	H29	0.056000	0.319400	0.967200
H301	H30	0.849200	0.160600	0.007400
H311	H31	0.696700	0.379600	0.832400
H321	H32	0.478000	0.314200	0.932900
H331	H33	0.471500	0.441400	0.859700
H341	H34	0.854800	0.453600	0.970500
H351	H35	0.896100	0.594400	0.898300
H361	H36	0.528700	0.090800	0.487800
H371	H37	0.698800	0.963600	0.481200
H381	H38	0.797500	0.105800	0.406700
H391	H39	0.435800	0.050800	0.352800
H401	H40	0.308900	0.882000	0.417900
C11	C1	0.948600	0.985800	0.782400
C21	C2	0.118900	0.360600	0.808900
C31	C3	0.964600	0.174000	0.836500
C41	C4	0.980800	0.297600	0.834900
C51	C5	0.099100	0.154000	0.753300
C61	C6	0.122300	0.276200	0.748800
C71	C7	0.138100	0.481000	0.801800
C81	C8	0.237500	0.499000	0.550100
C91	C9	0.097900	0.122400	0.535700
C101	C10	0.070900	0.306800	0.576200
C111	C11	0.065500	0.200400	0.589900
C121	C12	0.246800	0.300800	0.503900
C131	C13	0.238600	0.187600	0.513900
C141	C14	0.103100	0.014600	0.555000
C151	C15	0.785900	0.430000	0.533400
C161	C16	0.764600	0.456000	0.349300
C171	C17	0.843100	0.387200	0.429500
C181	C18	0.882800	0.430600	0.375700
C191	C19	0.686500	0.478400	0.454400
C201	C20	0.712300	0.527800	0.400400
C211	C21	0.807600	0.516800	0.297400
C221	C22	0.377000	0.026800	0.799400
C231	C23	0.496000	0.007000	0.975900
C241	C24	0.343200	0.995800	0.960600
C251	C25	0.337100	0.045200	0.906200
C261	C26	0.536200	0.005800	0.869600
C271	C27	0.544600	0.943800	0.921000
C281	C28	0.502200	0.951600	0.028600
C291	C29	0.037200	0.985800	0.282400
C301	C30	0.241700	0.360600	0.308900
C311	C31	0.209400	0.174000	0.336500
C321	C32	0.316800	0.297600	0.334900
C331	C33	0.054900	0.154000	0.253300
C341	C34	0.153900	0.276200	0.248800
C351	C35	0.342900	0.481000	0.301800
C361	C36	0.261500	0.499000	0.050100
C371	C37	0.024500	0.122400	0.035700
C381	C38	0.235900	0.306800	0.076200
C391	C39	0.134900	0.200400	0.089900
C401	C40	0.054000	0.300800	0.003900
C411	C41	0.949000	0.187600	0.013900
C421	C42	0.911500	0.014600	0.055000
C431	C43	0.644100	0.430000	0.033400
C441	C44	0.691400	0.456000	0.849300
C451	C45	0.544100	0.387200	0.929500
C461	C46	0.547800	0.430600	0.875700
C471	C47	0.791900	0.478400	0.954400
C481	C48	0.815500	0.527800	0.900400
C491	C49	0.709200	0.516800	0.797400
C501	C50	0.649800	0.026800	0.299400
C511	C51	0.511000	0.007000	0.475900
C521	C52	0.652600	0.995800	0.460600
C531	C53	0.708100	0.045200	0.406200
C541	C54	0.469600	0.005800	0.369600
C551	C55	0.399200	0.943800	0.421000
C561	C56	0.449400	0.951600	0.528600
N11	N1	0.967500	0.101600	0.776900
N21	N2	0.225300	0.384000	0.560300
N31	N3	0.815400	0.474800	0.477800
N41	N4	0.384100	0.981000	0.852900
N51	N5	0.134100	0.101600	0.276900
N61	N6	0.158700	0.384000	0.060300
N71	N7	0.659400	0.474800	0.977800
N81	N8	0.596900	0.981000	0.352900
O11	O1	0.876800	0.750000	0.731000
O21	O2	0.721400	0.832000	0.696900
O31	O3	0.447600	0.646200	0.641900
O41	O4	0.444500	0.853600	0.733900
O51	O5	0.297500	0.728600	0.601300
O61	O6	0.191100	0.583000	0.667800
O71	O7	0.974100	0.647400	0.609800
O81	O8	0.794800	0.502000	0.655800
O91	O9	0.706200	0.609000	0.598300
O101	O10	0.377500	0.966600	0.675200
O111	O11	0.741700	0.570400	0.288300
O121	O12	0.018900	0.906200	0.527900
O131	O13	0.424300	0.972800	0.069900
O141	O14	0.972500	0.892400	0.663600
O151	O15	0.183100	0.831000	0.719200
O161	O16	0.191200	0.037800	0.599900
O171	O17	0.579900	0.899800	0.028600
O181	O18	0.243200	0.573600	0.832800
O191	O19	0.902600	0.498000	0.268100
O201	O20	0.046600	0.478600	0.764300
O211	O21	0.873200	0.750000	0.231000
O221	O22	0.110600	0.832000	0.196900
O231	O23	0.198600	0.646200	0.141900
O241	O24	0.409100	0.853600	0.233900
O251	O25	0.431100	0.728600	0.101300
O261	O26	0.391900	0.583000	0.167800
O271	O27	0.673300	0.647400	0.109800
O281	O28	0.707200	0.502000	0.155800
O291	O29	0.902800	0.609000	0.098300
O301	O30	0.589100	0.966600	0.175200
O311	O31	0.828700	0.570400	0.788300
O321	O32	0.887300	0.906200	0.027900
O331	O33	0.548500	0.972800	0.569900
O341	O34	0.919900	0.892400	0.163600
O351	O35	0.647900	0.831000	0.219200
O361	O36	0.846600	0.037800	0.099900
O371	O37	0.319900	0.899800	0.528600
O381	O38	0.330400	0.573600	0.332800
O391	O39	0.595400	0.498000	0.768100
O401	O40	0.432000	0.478600	0.264300
