data_AZIMIH_clean_PM
_symmetry_space_group_name_H-M	'P1'
_cell_length_a	19.587000
_cell_length_b	19.160000
_cell_length_c	17.000000
_cell_angle_alpha	90.000000
_cell_angle_beta	93.290000
_cell_angle_gamma	90.000000
_symmetry_Int_Tables_number 1

loop_
_symmetry_equiv_pos_as_xyz
'x,y,z'

loop_
_atom_site_label
_atom_site_type_symbol
_atom_site_fract_x
_atom_site_fract_y
_atom_site_fract_z
Zn11	Zn1	0.260440	0.740750	0.254030
Zn21	Zn2	0.093720	0.650920	0.164880
O11	O1	0.064600	0.959700	0.177900
O21	O2	0.057900	0.845700	0.195700
O31	O3	0.207300	0.808200	0.187400
O41	O4	0.163500	0.717600	0.121500
O51	O5	0.177100	0.789200	0.825500
O61	O6	0.207300	0.900700	0.822200
O71	O7	0.051500	0.933700	0.816800
O81	O8	0.082400	0.026800	0.884900
O91	O9	0.211300	0.673200	0.315900
O101	O10	0.100600	0.658500	0.280000
O111	O11	0.066400	0.516200	0.322200
O121	O12	0.974400	0.572600	0.354700
O131	O13	0.135300	0.556900	0.684600
O141	O14	0.029400	0.596200	0.667400
O151	O15	0.267600	0.678700	0.610700
O161	O16	0.176900	0.711600	0.670400
C11	C1	0.103000	0.886100	0.079300
C21	C2	0.145900	0.829800	0.067100
C31	C3	0.168100	0.818000	0.991800
H11	H1	0.196800	0.780400	0.983300
C41	C4	0.148400	0.861100	0.929800
C51	C5	0.105400	0.917600	0.942000
C61	C6	0.083400	0.929500	0.016800
H21	H2	0.054900	0.967300	0.025300
C71	C7	0.073500	0.896300	0.157900
C81	C8	0.173100	0.782500	0.131000
C91	C9	0.180100	0.849700	0.852500
C101	C10	0.078500	0.963700	0.875800
C111	C11	0.135800	0.638900	0.411100
C121	C12	0.080000	0.597400	0.425100
C131	C13	0.064200	0.584900	0.502200
H31	H3	0.025800	0.558400	0.511800
C141	C14	0.104000	0.611100	0.565100
C151	C15	0.160700	0.650900	0.550700
C161	C16	0.174900	0.665700	0.473300
H41	H4	0.211800	0.694400	0.463500
C171	C17	0.151300	0.658100	0.329100
C181	C18	0.037300	0.561400	0.361900
C191	C19	0.088800	0.587400	0.646600
C201	C20	0.206200	0.681500	0.616300
Zn31	Zn3	0.760440	0.240750	0.254030
Zn41	Zn4	0.593720	0.150920	0.164880
O171	O17	0.564600	0.459700	0.177900
O181	O18	0.557900	0.345700	0.195700
O191	O19	0.707300	0.308200	0.187400
O201	O20	0.663500	0.217600	0.121500
O211	O21	0.677100	0.289200	0.825500
O221	O22	0.707300	0.400700	0.822200
O231	O23	0.551500	0.433700	0.816800
O241	O24	0.582400	0.526800	0.884900
O251	O25	0.711300	0.173200	0.315900
O261	O26	0.600600	0.158500	0.280000
O271	O27	0.566400	0.016200	0.322200
O281	O28	0.474400	0.072600	0.354700
O291	O29	0.635300	0.056900	0.684600
O301	O30	0.529400	0.096200	0.667400
O311	O31	0.767600	0.178700	0.610700
O321	O32	0.676900	0.211600	0.670400
C211	C21	0.603000	0.386100	0.079300
C221	C22	0.645900	0.329800	0.067100
C231	C23	0.668100	0.318000	0.991800
H51	H5	0.696800	0.280400	0.983300
C241	C24	0.648400	0.361100	0.929800
C251	C25	0.605400	0.417600	0.942000
C261	C26	0.583400	0.429500	0.016800
H61	H6	0.554900	0.467300	0.025300
C271	C27	0.573500	0.396300	0.157900
C281	C28	0.673100	0.282500	0.131000
C291	C29	0.680100	0.349700	0.852500
C301	C30	0.578500	0.463700	0.875800
C311	C31	0.635800	0.138900	0.411100
C321	C32	0.580000	0.097400	0.425100
C331	C33	0.564200	0.084900	0.502200
H71	H7	0.525800	0.058400	0.511800
C341	C34	0.604000	0.111100	0.565100
C351	C35	0.660700	0.150900	0.550700
C361	C36	0.674900	0.165700	0.473300
H81	H8	0.711800	0.194400	0.463500
C371	C37	0.651300	0.158100	0.329100
C381	C38	0.537300	0.061400	0.361900
C391	C39	0.588800	0.087400	0.646600
C401	C40	0.706200	0.181500	0.616300
Zn51	Zn5	0.739560	0.740750	0.245970
Zn61	Zn6	0.906280	0.650920	0.335120
O331	O33	0.935400	0.959700	0.322100
O341	O34	0.942100	0.845700	0.304300
O351	O35	0.792700	0.808200	0.312600
O361	O36	0.836500	0.717600	0.378500
O371	O37	0.822900	0.789200	0.674500
O381	O38	0.792700	0.900700	0.677800
O391	O39	0.948500	0.933700	0.683200
O401	O40	0.917600	0.026800	0.615100
O411	O41	0.788700	0.673200	0.184100
O421	O42	0.899400	0.658500	0.220000
O431	O43	0.933600	0.516200	0.177800
O441	O44	0.025600	0.572600	0.145300
O451	O45	0.864700	0.556900	0.815400
O461	O46	0.970600	0.596200	0.832600
O471	O47	0.732400	0.678700	0.889300
O481	O48	0.823100	0.711600	0.829600
C411	C41	0.897000	0.886100	0.420700
C421	C42	0.854100	0.829800	0.432900
C431	C43	0.831900	0.818000	0.508200
H91	H9	0.803200	0.780400	0.516700
C441	C44	0.851600	0.861100	0.570200
C451	C45	0.894600	0.917600	0.558000
C461	C46	0.916600	0.929500	0.483200
H101	H10	0.945100	0.967300	0.474700
C471	C47	0.926500	0.896300	0.342100
C481	C48	0.826900	0.782500	0.369000
C491	C49	0.819900	0.849700	0.647500
C501	C50	0.921500	0.963700	0.624200
C511	C51	0.864200	0.638900	0.088900
C521	C52	0.920000	0.597400	0.074900
C531	C53	0.935800	0.584900	0.997800
H111	H11	0.974200	0.558400	0.988200
C541	C54	0.896000	0.611100	0.934900
C551	C55	0.839300	0.650900	0.949300
C561	C56	0.825100	0.665700	0.026700
H121	H12	0.788200	0.694400	0.036500
C571	C57	0.848700	0.658100	0.170900
C581	C58	0.962700	0.561400	0.138100
C591	C59	0.911200	0.587400	0.853400
C601	C60	0.793800	0.681500	0.883700
Zn71	Zn7	0.239560	0.240750	0.245970
Zn81	Zn8	0.406280	0.150920	0.335120
O491	O49	0.435400	0.459700	0.322100
O501	O50	0.442100	0.345700	0.304300
O511	O51	0.292700	0.308200	0.312600
O521	O52	0.336500	0.217600	0.378500
O531	O53	0.322900	0.289200	0.674500
O541	O54	0.292700	0.400700	0.677800
O551	O55	0.448500	0.433700	0.683200
O561	O56	0.417600	0.526800	0.615100
O571	O57	0.288700	0.173200	0.184100
O581	O58	0.399400	0.158500	0.220000
O591	O59	0.433600	0.016200	0.177800
O601	O60	0.525600	0.072600	0.145300
O611	O61	0.364700	0.056900	0.815400
O621	O62	0.470600	0.096200	0.832600
O631	O63	0.232400	0.178700	0.889300
O641	O64	0.323100	0.211600	0.829600
C611	C61	0.397000	0.386100	0.420700
C621	C62	0.354100	0.329800	0.432900
C631	C63	0.331900	0.318000	0.508200
H131	H13	0.303200	0.280400	0.516700
C641	C64	0.351600	0.361100	0.570200
C651	C65	0.394600	0.417600	0.558000
C661	C66	0.416600	0.429500	0.483200
H141	H14	0.445100	0.467300	0.474700
C671	C67	0.426500	0.396300	0.342100
C681	C68	0.326900	0.282500	0.369000
C691	C69	0.319900	0.349700	0.647500
C701	C70	0.421500	0.463700	0.624200
C711	C71	0.364200	0.138900	0.088900
C721	C72	0.420000	0.097400	0.074900
C731	C73	0.435800	0.084900	0.997800
H151	H15	0.474200	0.058400	0.988200
C741	C74	0.396000	0.111100	0.934900
C751	C75	0.339300	0.150900	0.949300
C761	C76	0.325100	0.165700	0.026700
H161	H16	0.288200	0.194400	0.036500
C771	C77	0.348700	0.158100	0.170900
C781	C78	0.462700	0.061400	0.138100
C791	C79	0.411200	0.087400	0.853400
C801	C80	0.293800	0.181500	0.883700
Zn91	Zn9	0.739560	0.259250	0.745970
Zn101	Zn10	0.906280	0.349080	0.835120
O651	O65	0.935400	0.040300	0.822100
O661	O66	0.942100	0.154300	0.804300
O671	O67	0.792700	0.191800	0.812600
O681	O68	0.836500	0.282400	0.878500
O691	O69	0.822900	0.210800	0.174500
O701	O70	0.792700	0.099300	0.177800
O711	O71	0.948500	0.066300	0.183200
O721	O72	0.917600	0.973200	0.115100
O731	O73	0.788700	0.326800	0.684100
O741	O74	0.899400	0.341500	0.720000
O751	O75	0.933600	0.483800	0.677800
O761	O76	0.025600	0.427400	0.645300
O771	O77	0.864700	0.443100	0.315400
O781	O78	0.970600	0.403800	0.332600
O791	O79	0.732400	0.321300	0.389300
O801	O80	0.823100	0.288400	0.329600
C811	C81	0.897000	0.113900	0.920700
C821	C82	0.854100	0.170200	0.932900
C831	C83	0.831900	0.182000	0.008200
H171	H17	0.803200	0.219600	0.016700
C841	C84	0.851600	0.138900	0.070200
C851	C85	0.894600	0.082400	0.058000
C861	C86	0.916600	0.070500	0.983200
H181	H18	0.945100	0.032700	0.974700
C871	C87	0.926500	0.103700	0.842100
C881	C88	0.826900	0.217500	0.869000
C891	C89	0.819900	0.150300	0.147500
C901	C90	0.921500	0.036300	0.124200
C911	C91	0.864200	0.361100	0.588900
C921	C92	0.920000	0.402600	0.574900
C931	C93	0.935800	0.415100	0.497800
H191	H19	0.974200	0.441600	0.488200
C941	C94	0.896000	0.388900	0.434900
C951	C95	0.839300	0.349100	0.449300
C961	C96	0.825100	0.334300	0.526700
H201	H20	0.788200	0.305600	0.536500
C971	C97	0.848700	0.341900	0.670900
C981	C98	0.962700	0.438600	0.638100
C991	C99	0.911200	0.412600	0.353400
C1001	C100	0.793800	0.318500	0.383700
Zn111	Zn11	0.239560	0.759250	0.745970
Zn121	Zn12	0.406280	0.849080	0.835120
O811	O81	0.435400	0.540300	0.822100
O821	O82	0.442100	0.654300	0.804300
O831	O83	0.292700	0.691800	0.812600
O841	O84	0.336500	0.782400	0.878500
O851	O85	0.322900	0.710800	0.174500
O861	O86	0.292700	0.599300	0.177800
O871	O87	0.448500	0.566300	0.183200
O881	O88	0.417600	0.473200	0.115100
O891	O89	0.288700	0.826800	0.684100
O901	O90	0.399400	0.841500	0.720000
O911	O91	0.433600	0.983800	0.677800
O921	O92	0.525600	0.927400	0.645300
O931	O93	0.364700	0.943100	0.315400
O941	O94	0.470600	0.903800	0.332600
O951	O95	0.232400	0.821300	0.389300
O961	O96	0.323100	0.788400	0.329600
C1011	C101	0.397000	0.613900	0.920700
C1021	C102	0.354100	0.670200	0.932900
C1031	C103	0.331900	0.682000	0.008200
H211	H21	0.303200	0.719600	0.016700
C1041	C104	0.351600	0.638900	0.070200
C1051	C105	0.394600	0.582400	0.058000
C1061	C106	0.416600	0.570500	0.983200
H221	H22	0.445100	0.532700	0.974700
C1071	C107	0.426500	0.603700	0.842100
C1081	C108	0.326900	0.717500	0.869000
C1091	C109	0.319900	0.650300	0.147500
C1101	C110	0.421500	0.536300	0.124200
C1111	C111	0.364200	0.861100	0.588900
C1121	C112	0.420000	0.902600	0.574900
C1131	C113	0.435800	0.915100	0.497800
H231	H23	0.474200	0.941600	0.488200
C1141	C114	0.396000	0.888900	0.434900
C1151	C115	0.339300	0.849100	0.449300
C1161	C116	0.325100	0.834300	0.526700
H241	H24	0.288200	0.805600	0.536500
C1171	C117	0.348700	0.841900	0.670900
C1181	C118	0.462700	0.938600	0.638100
C1191	C119	0.411200	0.912600	0.353400
C1201	C120	0.293800	0.818500	0.383700
Zn131	Zn13	0.260440	0.259250	0.754030
Zn141	Zn14	0.093720	0.349080	0.664880
O971	O97	0.064600	0.040300	0.677900
O981	O98	0.057900	0.154300	0.695700
O991	O99	0.207300	0.191800	0.687400
O1001	O100	0.163500	0.282400	0.621500
O1011	O101	0.177100	0.210800	0.325500
O1021	O102	0.207300	0.099300	0.322200
O1031	O103	0.051500	0.066300	0.316800
O1041	O104	0.082400	0.973200	0.384900
O1051	O105	0.211300	0.326800	0.815900
O1061	O106	0.100600	0.341500	0.780000
O1071	O107	0.066400	0.483800	0.822200
O1081	O108	0.974400	0.427400	0.854700
O1091	O109	0.135300	0.443100	0.184600
O1101	O110	0.029400	0.403800	0.167400
O1111	O111	0.267600	0.321300	0.110700
O1121	O112	0.176900	0.288400	0.170400
C1211	C121	0.103000	0.113900	0.579300
C1221	C122	0.145900	0.170200	0.567100
C1231	C123	0.168100	0.182000	0.491800
H251	H25	0.196800	0.219600	0.483300
C1241	C124	0.148400	0.138900	0.429800
C1251	C125	0.105400	0.082400	0.442000
C1261	C126	0.083400	0.070500	0.516800
H261	H26	0.054900	0.032700	0.525300
C1271	C127	0.073500	0.103700	0.657900
C1281	C128	0.173100	0.217500	0.631000
C1291	C129	0.180100	0.150300	0.352500
C1301	C130	0.078500	0.036300	0.375800
C1311	C131	0.135800	0.361100	0.911100
C1321	C132	0.080000	0.402600	0.925100
C1331	C133	0.064200	0.415100	0.002200
H271	H27	0.025800	0.441600	0.011800
C1341	C134	0.104000	0.388900	0.065100
C1351	C135	0.160700	0.349100	0.050700
C1361	C136	0.174900	0.334300	0.973300
H281	H28	0.211800	0.305600	0.963500
C1371	C137	0.151300	0.341900	0.829100
C1381	C138	0.037300	0.438600	0.861900
C1391	C139	0.088800	0.412600	0.146600
C1401	C140	0.206200	0.318500	0.116300
Zn151	Zn15	0.760440	0.759250	0.754030
Zn161	Zn16	0.593720	0.849080	0.664880
O1131	O113	0.564600	0.540300	0.677900
O1141	O114	0.557900	0.654300	0.695700
O1151	O115	0.707300	0.691800	0.687400
O1161	O116	0.663500	0.782400	0.621500
O1171	O117	0.677100	0.710800	0.325500
O1181	O118	0.707300	0.599300	0.322200
O1191	O119	0.551500	0.566300	0.316800
O1201	O120	0.582400	0.473200	0.384900
O1211	O121	0.711300	0.826800	0.815900
O1221	O122	0.600600	0.841500	0.780000
O1231	O123	0.566400	0.983800	0.822200
O1241	O124	0.474400	0.927400	0.854700
O1251	O125	0.635300	0.943100	0.184600
O1261	O126	0.529400	0.903800	0.167400
O1271	O127	0.767600	0.821300	0.110700
O1281	O128	0.676900	0.788400	0.170400
C1411	C141	0.603000	0.613900	0.579300
C1421	C142	0.645900	0.670200	0.567100
C1431	C143	0.668100	0.682000	0.491800
H291	H29	0.696800	0.719600	0.483300
C1441	C144	0.648400	0.638900	0.429800
C1451	C145	0.605400	0.582400	0.442000
C1461	C146	0.583400	0.570500	0.516800
H301	H30	0.554900	0.532700	0.525300
C1471	C147	0.573500	0.603700	0.657900
C1481	C148	0.673100	0.717500	0.631000
C1491	C149	0.680100	0.650300	0.352500
C1501	C150	0.578500	0.536300	0.375800
C1511	C151	0.635800	0.861100	0.911100
C1521	C152	0.580000	0.902600	0.925100
C1531	C153	0.564200	0.915100	0.002200
H311	H31	0.525800	0.941600	0.011800
C1541	C154	0.604000	0.888900	0.065100
C1551	C155	0.660700	0.849100	0.050700
C1561	C156	0.674900	0.834300	0.973300
H321	H32	0.711800	0.805600	0.963500
C1571	C157	0.651300	0.841900	0.829100
C1581	C158	0.537300	0.938600	0.861900
C1591	C159	0.588800	0.912600	0.146600
C1601	C160	0.706200	0.818500	0.116300
Zn171	Zn17	0.000000	0.995590	0.250000
Zn181	Zn18	0.000000	0.466070	0.250000
Zn191	Zn19	0.500000	0.495590	0.250000
Zn201	Zn20	0.500000	0.966070	0.250000
Zn211	Zn21	0.000000	0.004410	0.750000
Zn221	Zn22	0.000000	0.533930	0.750000
Zn231	Zn23	0.500000	0.504410	0.750000
Zn241	Zn24	0.500000	0.033930	0.750000
