data_AZIXUD_clean_PM
_symmetry_space_group_name_H-M	'P1'
_cell_length_a	11.256200
_cell_length_b	13.174400
_cell_length_c	20.396500
_cell_angle_alpha	90.000000
_cell_angle_beta	90.000000
_cell_angle_gamma	90.000000
_symmetry_Int_Tables_number 1

loop_
_symmetry_equiv_pos_as_xyz
'x,y,z'

loop_
_atom_site_label
_atom_site_type_symbol
_atom_site_fract_x
_atom_site_fract_y
_atom_site_fract_z
Zn11	Zn1	0.677180	0.978470	0.467750
Zn21	Zn2	0.889600	0.072050	0.359340
Zn31	Zn3	0.822820	0.021530	0.967750
Zn41	Zn4	0.610400	0.927950	0.859340
Zn51	Zn5	0.322820	0.478470	0.032250
Zn61	Zn6	0.110400	0.572050	0.140660
Zn71	Zn7	0.177180	0.521530	0.532250
Zn81	Zn8	0.389600	0.427950	0.640660
H11	H1	0.629300	0.294300	0.289900
H21	H2	0.548300	0.274400	0.483300
H31	H3	0.401400	0.497700	0.371000
H41	H4	0.359900	0.522800	0.259300
H51	H5	0.448900	0.554800	0.201800
H61	H6	0.667600	0.549600	0.214900
H71	H7	0.896100	0.778800	0.259100
H81	H8	0.562100	0.778200	0.335800
H91	H9	0.870700	0.705700	0.789900
H101	H10	0.951700	0.725600	0.983300
H111	H11	0.098600	0.502300	0.871000
H121	H12	0.140100	0.477200	0.759300
H131	H13	0.051100	0.445200	0.701800
H141	H14	0.832400	0.450400	0.714900
H151	H15	0.603900	0.221200	0.759100
H161	H16	0.937900	0.221800	0.835800
H171	H17	0.370700	0.794300	0.210100
H181	H18	0.451700	0.774400	0.016700
H191	H19	0.598600	0.997700	0.129000
H201	H20	0.640100	0.022800	0.240700
H211	H21	0.551100	0.054800	0.298200
H221	H22	0.332400	0.049600	0.285100
H231	H23	0.103900	0.278800	0.240900
H241	H24	0.437900	0.278200	0.164200
H251	H25	0.129300	0.205700	0.710100
H261	H26	0.048300	0.225600	0.516700
H271	H27	0.901400	0.002300	0.629000
H281	H28	0.859900	0.977200	0.740700
H291	H29	0.948900	0.945200	0.798200
H301	H30	0.167600	0.950400	0.785100
H311	H31	0.396100	0.721200	0.740900
H321	H32	0.062100	0.721800	0.664200
C11	C1	0.514200	0.403700	0.321560
C21	C2	0.587700	0.319000	0.327110
C31	C3	0.599800	0.270500	0.387450
C41	C4	0.540300	0.307600	0.442240
C51	C5	0.469200	0.393500	0.436690
C61	C6	0.453200	0.441100	0.375330
C71	C7	0.679800	0.179400	0.393950
C81	C8	0.412100	0.436500	0.497100
C91	C9	0.444300	0.536000	0.248730
C101	C10	0.597500	0.657000	0.275810
C111	C11	0.684200	0.611100	0.237470
C121	C12	0.796300	0.656500	0.232420
C131	C13	0.820500	0.747600	0.263960
C141	C14	0.733400	0.793200	0.302790
C151	C15	0.621400	0.747700	0.309090
C161	C16	0.892500	0.602200	0.193890
C171	C17	0.757500	0.889000	0.339720
C181	C18	0.985800	0.596300	0.821560
C191	C19	0.912300	0.681000	0.827110
C201	C20	0.900200	0.729500	0.887450
C211	C21	0.959700	0.692400	0.942240
C221	C22	0.030800	0.606500	0.936690
C231	C23	0.046800	0.558900	0.875330
C241	C24	0.820200	0.820600	0.893950
C251	C25	0.087900	0.563500	0.997100
C261	C26	0.055700	0.464000	0.748730
C271	C27	0.902500	0.343000	0.775810
C281	C28	0.815800	0.388900	0.737470
C291	C29	0.703700	0.343500	0.732420
C301	C30	0.679500	0.252400	0.763960
C311	C31	0.766600	0.206800	0.802790
C321	C32	0.878600	0.252300	0.809090
C331	C33	0.607500	0.397800	0.693890
C341	C34	0.742500	0.111000	0.839720
C351	C35	0.485800	0.903700	0.178440
C361	C36	0.412300	0.819000	0.172890
C371	C37	0.400200	0.770500	0.112550
C381	C38	0.459700	0.807600	0.057760
C391	C39	0.530800	0.893500	0.063310
C401	C40	0.546800	0.941100	0.124670
C411	C41	0.320200	0.679400	0.106050
C421	C42	0.587900	0.936500	0.002900
C431	C43	0.555700	0.036000	0.251270
C441	C44	0.402500	0.157000	0.224190
C451	C45	0.315800	0.111100	0.262530
C461	C46	0.203700	0.156500	0.267580
C471	C47	0.179500	0.247600	0.236040
C481	C48	0.266600	0.293200	0.197210
C491	C49	0.378600	0.247700	0.190910
C501	C50	0.107500	0.102200	0.306110
C511	C51	0.242500	0.389000	0.160280
C521	C52	0.014200	0.096300	0.678440
C531	C53	0.087700	0.181000	0.672890
C541	C54	0.099800	0.229500	0.612550
C551	C55	0.040300	0.192400	0.557760
C561	C56	0.969200	0.106500	0.563310
C571	C57	0.953200	0.058900	0.624670
C581	C58	0.179800	0.320600	0.606050
C591	C59	0.912100	0.063500	0.502900
C601	C60	0.944300	0.964000	0.751270
C611	C61	0.097500	0.843000	0.724190
C621	C62	0.184200	0.888900	0.762530
C631	C63	0.296300	0.843500	0.767580
C641	C64	0.320500	0.752400	0.736040
C651	C65	0.233400	0.706800	0.697210
C661	C66	0.121400	0.752300	0.690910
C671	C67	0.392500	0.897800	0.806110
C681	C68	0.257500	0.611000	0.660280
O11	O1	0.746900	0.158230	0.345780
O21	O2	0.675200	0.130950	0.447350
O31	O3	0.444120	0.399660	0.550880
O41	O4	0.337400	0.507900	0.489640
O51	O5	0.510780	0.445390	0.258980
O61	O6	0.484940	0.618400	0.287030
O71	O7	0.869990	0.522330	0.165260
O81	O8	0.995750	0.643560	0.195720
O91	O9	0.855010	0.933540	0.329000
O101	O10	0.677860	0.918800	0.378770
O111	O11	0.753100	0.841770	0.845780
O121	O12	0.824800	0.869050	0.947350
O131	O13	0.055880	0.600340	0.050880
O141	O14	0.162600	0.492100	0.989640
O151	O15	0.989220	0.554610	0.758980
O161	O16	0.015060	0.381600	0.787030
O171	O17	0.630010	0.477670	0.665260
O181	O18	0.504250	0.356440	0.695720
O191	O19	0.644990	0.066460	0.829000
O201	O20	0.822140	0.081200	0.878770
O211	O21	0.253100	0.658230	0.154220
O221	O22	0.324800	0.630950	0.052650
O231	O23	0.555880	0.899660	0.949120
O241	O24	0.662600	0.007900	0.010360
O251	O25	0.489220	0.945390	0.241020
O261	O26	0.515060	0.118400	0.212970
O271	O27	0.130010	0.022330	0.334740
O281	O28	0.004250	0.143560	0.304280
O291	O29	0.144990	0.433540	0.171000
O301	O30	0.322140	0.418800	0.121230
O311	O31	0.246900	0.341770	0.654220
O321	O32	0.175200	0.369050	0.552650
O331	O33	0.944120	0.100340	0.449120
O341	O34	0.837400	0.992100	0.510360
O351	O35	0.010780	0.054610	0.741020
O361	O36	0.984940	0.881600	0.712970
O371	O37	0.369990	0.977670	0.834740
O381	O38	0.495750	0.856440	0.804280
O391	O39	0.355010	0.566460	0.671000
O401	O40	0.177860	0.581200	0.621230
