data_AZOBUN_clean_PM
_symmetry_space_group_name_H-M	'P1'
_cell_length_a	10.145700
_cell_length_b	10.872800
_cell_length_c	13.755200
_cell_angle_alpha	79.123000
_cell_angle_beta	78.844000
_cell_angle_gamma	86.317000
_symmetry_Int_Tables_number 1

loop_
_symmetry_equiv_pos_as_xyz
'x,y,z'

loop_
_atom_site_label
_atom_site_type_symbol
_atom_site_fract_x
_atom_site_fract_y
_atom_site_fract_z
Gd11	Gd1	0.319270	0.922460	0.297110
Gd21	Gd2	0.680730	0.077540	0.702890
Co11	Co1	0.000000	0.500000	0.500000
H11	H1	0.326400	0.669200	0.154200
H21	H2	0.346100	0.329700	0.076500
H31	H3	0.282400	0.359500	0.368300
H41	H4	0.346400	0.773100	0.851100
H51	H5	0.353700	0.880500	0.691700
H61	H6	0.365300	0.574400	0.584800
H71	H7	0.355800	0.454600	0.742600
H81	H8	0.824500	0.911600	0.281400
H91	H9	0.695700	0.851500	0.036600
H101	H10	0.089300	0.842600	0.039700
H111	H11	0.018300	0.828900	0.715400
H121	H12	0.033000	0.746800	0.571400
H131	H13	0.013900	0.407700	0.723900
H141	H14	0.010500	0.477500	0.869900
H151	H15	0.376700	0.646100	0.982700
H161	H16	0.879600	0.839600	0.881700
H171	H17	0.673600	0.330800	0.845800
H181	H18	0.653900	0.670300	0.923500
H191	H19	0.717600	0.640500	0.631700
H201	H20	0.653600	0.226900	0.148900
H211	H21	0.646300	0.119500	0.308300
H221	H22	0.634700	0.425600	0.415200
H231	H23	0.644200	0.545400	0.257400
H241	H24	0.175500	0.088400	0.718600
H251	H25	0.304300	0.148500	0.963400
H261	H26	0.910700	0.157400	0.960300
H271	H27	0.981700	0.171100	0.284600
H281	H28	0.967000	0.253200	0.428600
H291	H29	0.986100	0.592300	0.276100
H301	H30	0.989500	0.522500	0.130100
H311	H31	0.623300	0.353900	0.017300
H321	H32	0.120400	0.160400	0.118300
C11	C1	0.297900	0.526700	0.273800
C21	C2	0.321100	0.582600	0.172300
C31	C3	0.336100	0.509300	0.098100
C41	C4	0.334700	0.379600	0.125700
C51	C5	0.316200	0.325100	0.226600
C61	C6	0.296500	0.397300	0.300700
C71	C7	0.313500	0.185700	0.253100
C81	C8	0.266700	0.606000	0.354600
C91	C9	0.334700	0.517000	0.919000
C101	C10	0.348000	0.600000	0.816900
C111	C11	0.349000	0.729800	0.798500
C121	C12	0.353800	0.793500	0.702300
C131	C13	0.360200	0.614600	0.639400
C141	C14	0.354900	0.541600	0.734300
C151	C15	0.974300	0.879300	0.168100
C161	C16	0.842300	0.894900	0.216100
C171	C17	0.738100	0.885900	0.167500
C181	C18	0.765800	0.857200	0.070000
C191	C19	0.896700	0.837500	0.023600
C201	C20	0.000800	0.851700	0.072000
C211	C21	0.091100	0.891000	0.216700
C221	C22	0.593800	0.901700	0.215400
C231	C23	0.006100	0.703600	0.908100
C241	C24	0.009100	0.660700	0.809800
C251	C25	0.017600	0.742800	0.718600
C261	C26	0.024800	0.692200	0.632900
C271	C27	0.015200	0.493500	0.722100
C281	C28	0.011500	0.534500	0.810200
C291	C29	0.702100	0.473300	0.726200
C301	C30	0.678900	0.417400	0.827700
C311	C31	0.663900	0.490700	0.901900
C321	C32	0.665300	0.620400	0.874300
C331	C33	0.683800	0.674900	0.773400
C341	C34	0.703500	0.602700	0.699300
C351	C35	0.686500	0.814300	0.746900
C361	C36	0.733300	0.394000	0.645400
C371	C37	0.665300	0.483000	0.081000
C381	C38	0.652000	0.400000	0.183100
C391	C39	0.651000	0.270200	0.201500
C401	C40	0.646200	0.206500	0.297700
C411	C41	0.639800	0.385400	0.360600
C421	C42	0.645100	0.458400	0.265700
C431	C43	0.025700	0.120700	0.831900
C441	C44	0.157700	0.105100	0.783900
C451	C45	0.261900	0.114100	0.832500
C461	C46	0.234200	0.142800	0.930000
C471	C47	0.103300	0.162500	0.976400
C481	C48	0.999200	0.148300	0.928000
C491	C49	0.908900	0.109000	0.783300
C501	C50	0.406200	0.098300	0.784600
C511	C51	0.993900	0.296400	0.091900
C521	C52	0.990900	0.339300	0.190200
C531	C53	0.982400	0.257200	0.281400
C541	C54	0.975200	0.307800	0.367100
C551	C55	0.984800	0.506500	0.277900
C561	C56	0.988500	0.465500	0.189800
N11	N1	0.352800	0.569400	0.996400
N21	N2	0.358500	0.738800	0.622900
N31	N3	0.920600	0.800000	0.928000
N41	N4	0.020700	0.570100	0.632900
N51	N5	0.647200	0.430600	0.003600
N61	N6	0.641500	0.261200	0.377100
N71	N7	0.079400	0.200000	0.072000
N81	N8	0.979300	0.429900	0.367100
O11	O1	0.192300	0.563200	0.435600
O21	O2	0.318700	0.712300	0.335900
O31	O3	0.328600	0.129600	0.338400
O41	O4	0.293400	0.122700	0.189700
O51	O5	0.308900	0.408700	0.926200
O61	O6	0.073300	0.905400	0.308400
O71	O7	0.207500	0.885200	0.166500
O81	O8	0.560400	0.900600	0.308500
O91	O9	0.504600	0.914600	0.162200
O101	O10	0.075900	0.648800	0.966800
O111	O11	0.807700	0.436800	0.564400
O121	O12	0.681300	0.287700	0.664100
O131	O13	0.671400	0.870400	0.661600
O141	O14	0.706600	0.877300	0.810300
O151	O15	0.691100	0.591300	0.073800
O161	O16	0.926700	0.094600	0.691600
O171	O17	0.792500	0.114800	0.833500
O181	O18	0.439600	0.099400	0.691500
O191	O19	0.495400	0.085400	0.837800
O201	O20	0.924100	0.351200	0.033200
