data_BADHIA_clean_PM
_symmetry_space_group_name_H-M	'P1'
_cell_length_a	8.852400
_cell_length_b	20.700500
_cell_length_c	34.194000
_cell_angle_alpha	90.000000
_cell_angle_beta	90.000000
_cell_angle_gamma	90.000000
_symmetry_Int_Tables_number 1

loop_
_symmetry_equiv_pos_as_xyz
'x,y,z'

loop_
_atom_site_label
_atom_site_type_symbol
_atom_site_fract_x
_atom_site_fract_y
_atom_site_fract_z
O11	O1	0.739100	0.333250	0.679200
O21	O2	0.505500	0.457920	0.615000
O31	O3	0.504300	0.334360	0.657280
C11	C1	0.604600	0.320200	0.682370
C21	C2	0.548100	0.284100	0.717520
C31	C3	0.599600	0.230900	0.778110
H11	H1	0.668300	0.217900	0.797100
C41	C4	0.651500	0.265500	0.745670
H21	H2	0.753200	0.275800	0.743100
C51	C5	0.758400	0.591300	0.625510
H31	H3	0.849500	0.569000	0.626600
O41	O4	0.739100	0.833250	0.179200
O51	O5	0.505500	0.957920	0.115000
O61	O6	0.504300	0.834360	0.157280
C61	C6	0.604600	0.820200	0.182370
C71	C7	0.548100	0.784100	0.217520
C81	C8	0.599600	0.730900	0.278110
H41	H4	0.668300	0.717900	0.297100
C91	C9	0.651500	0.765500	0.245670
H51	H5	0.753200	0.775800	0.243100
C101	C10	0.758400	0.091300	0.125510
H61	H6	0.849500	0.069000	0.126600
O71	O7	0.239100	0.333250	0.179200
O81	O8	0.005500	0.457920	0.115000
O91	O9	0.004300	0.334360	0.157280
C111	C11	0.104600	0.320200	0.182370
C121	C12	0.048100	0.284100	0.217520
C131	C13	0.099600	0.230900	0.278110
H71	H7	0.168300	0.217900	0.297100
C141	C14	0.151500	0.265500	0.245670
H81	H8	0.253200	0.275800	0.243100
C151	C15	0.258400	0.591300	0.125510
H91	H9	0.349500	0.569000	0.126600
O101	O10	0.239100	0.833250	0.679200
O111	O11	0.005500	0.957920	0.615000
O121	O12	0.004300	0.834360	0.657280
C161	C16	0.104600	0.820200	0.682370
C171	C17	0.048100	0.784100	0.717520
C181	C18	0.099600	0.730900	0.778110
H101	H10	0.168300	0.717900	0.797100
C191	C19	0.151500	0.765500	0.745670
H111	H11	0.253200	0.775800	0.743100
C201	C20	0.258400	0.091300	0.625510
H121	H12	0.349500	0.069000	0.626600
O131	O13	0.010900	0.416750	0.679200
O141	O14	0.244500	0.292080	0.615000
O151	O15	0.245700	0.415640	0.657280
C211	C21	0.145400	0.429800	0.682370
C221	C22	0.201900	0.465900	0.717520
C231	C23	0.150400	0.519100	0.778110
H131	H13	0.081700	0.532100	0.797100
C241	C24	0.098500	0.484500	0.745670
H141	H14	0.996800	0.474200	0.743100
C251	C25	0.991600	0.158700	0.625510
H151	H15	0.900500	0.181000	0.626600
O161	O16	0.010900	0.916750	0.179200
O171	O17	0.244500	0.792080	0.115000
O181	O18	0.245700	0.915640	0.157280
C261	C26	0.145400	0.929800	0.182370
C271	C27	0.201900	0.965900	0.217520
C281	C28	0.150400	0.019100	0.278110
H161	H16	0.081700	0.032100	0.297100
C291	C29	0.098500	0.984500	0.245670
H171	H17	0.996800	0.974200	0.243100
C301	C30	0.991600	0.658700	0.125510
H181	H18	0.900500	0.681000	0.126600
O191	O19	0.510900	0.416750	0.179200
O201	O20	0.744500	0.292080	0.115000
O211	O21	0.745700	0.415640	0.157280
C311	C31	0.645400	0.429800	0.182370
C321	C32	0.701900	0.465900	0.217520
C331	C33	0.650400	0.519100	0.278110
H191	H19	0.581700	0.532100	0.297100
C341	C34	0.598500	0.484500	0.245670
H201	H20	0.496800	0.474200	0.243100
C351	C35	0.491600	0.158700	0.125510
H211	H21	0.400500	0.181000	0.126600
O221	O22	0.510900	0.916750	0.679200
O231	O23	0.744500	0.792080	0.615000
O241	O24	0.745700	0.915640	0.657280
C361	C36	0.645400	0.929800	0.682370
C371	C37	0.701900	0.965900	0.717520
C381	C38	0.650400	0.019100	0.778110
H221	H22	0.581700	0.032100	0.797100
C391	C39	0.598500	0.984500	0.745670
H231	H23	0.496800	0.974200	0.743100
C401	C40	0.491600	0.658700	0.625510
H241	H24	0.400500	0.681000	0.626600
O251	O25	0.010900	0.333250	0.070800
O261	O26	0.244500	0.457920	0.135000
O271	O27	0.245700	0.334360	0.092720
C411	C41	0.145400	0.320200	0.067630
C421	C42	0.201900	0.284100	0.032480
C431	C43	0.150400	0.230900	0.971890
H251	H25	0.081700	0.217900	0.952900
C441	C44	0.098500	0.265500	0.004330
H261	H26	0.996800	0.275800	0.006900
C451	C45	0.991600	0.591300	0.124490
H271	H27	0.900500	0.569000	0.123400
O281	O28	0.010900	0.833250	0.570800
O291	O29	0.244500	0.957920	0.635000
O301	O30	0.245700	0.834360	0.592720
C461	C46	0.145400	0.820200	0.567630
C471	C47	0.201900	0.784100	0.532480
C481	C48	0.150400	0.730900	0.471890
H281	H28	0.081700	0.717900	0.452900
C491	C49	0.098500	0.765500	0.504330
H291	H29	0.996800	0.775800	0.506900
C501	C50	0.991600	0.091300	0.624490
H301	H30	0.900500	0.069000	0.623400
O311	O31	0.510900	0.333250	0.570800
O321	O32	0.744500	0.457920	0.635000
O331	O33	0.745700	0.334360	0.592720
C511	C51	0.645400	0.320200	0.567630
C521	C52	0.701900	0.284100	0.532480
C531	C53	0.650400	0.230900	0.471890
H311	H31	0.581700	0.217900	0.452900
C541	C54	0.598500	0.265500	0.504330
H321	H32	0.496800	0.275800	0.506900
C551	C55	0.491600	0.591300	0.624490
H331	H33	0.400500	0.569000	0.623400
O341	O34	0.510900	0.833250	0.070800
O351	O35	0.744500	0.957920	0.135000
O361	O36	0.745700	0.834360	0.092720
C561	C56	0.645400	0.820200	0.067630
C571	C57	0.701900	0.784100	0.032480
C581	C58	0.650400	0.730900	0.971890
H341	H34	0.581700	0.717900	0.952900
C591	C59	0.598500	0.765500	0.004330
H351	H35	0.496800	0.775800	0.006900
C601	C60	0.491600	0.091300	0.124490
H361	H36	0.400500	0.069000	0.123400
O371	O37	0.739100	0.416750	0.070800
O381	O38	0.505500	0.292080	0.135000
O391	O39	0.504300	0.415640	0.092720
C611	C61	0.604600	0.429800	0.067630
C621	C62	0.548100	0.465900	0.032480
C631	C63	0.599600	0.519100	0.971890
H371	H37	0.668300	0.532100	0.952900
C641	C64	0.651500	0.484500	0.004330
H381	H38	0.753200	0.474200	0.006900
C651	C65	0.758400	0.158700	0.124490
H391	H39	0.849500	0.181000	0.123400
O401	O40	0.739100	0.916750	0.570800
O411	O41	0.505500	0.792080	0.635000
O421	O42	0.504300	0.915640	0.592720
C661	C66	0.604600	0.929800	0.567630
C671	C67	0.548100	0.965900	0.532480
C681	C68	0.599600	0.019100	0.471890
H401	H40	0.668300	0.032100	0.452900
C691	C69	0.651500	0.984500	0.504330
H411	H41	0.753200	0.974200	0.506900
C701	C70	0.758400	0.658700	0.624490
H421	H42	0.849500	0.681000	0.623400
O431	O43	0.239100	0.416750	0.570800
O441	O44	0.005500	0.292080	0.635000
O451	O45	0.004300	0.415640	0.592720
C711	C71	0.104600	0.429800	0.567630
C721	C72	0.048100	0.465900	0.532480
C731	C73	0.099600	0.519100	0.471890
H431	H43	0.168300	0.532100	0.452900
C741	C74	0.151500	0.484500	0.504330
H441	H44	0.253200	0.474200	0.506900
C751	C75	0.258400	0.158700	0.624490
H451	H45	0.349500	0.181000	0.623400
O461	O46	0.239100	0.916750	0.070800
O471	O47	0.005500	0.792080	0.135000
O481	O48	0.004300	0.915640	0.092720
C761	C76	0.104600	0.929800	0.067630
C771	C77	0.048100	0.965900	0.032480
C781	C78	0.099600	0.019100	0.971890
H461	H46	0.168300	0.032100	0.952900
C791	C79	0.151500	0.984500	0.004330
H471	H47	0.253200	0.974200	0.006900
C801	C80	0.258400	0.658700	0.124490
H481	H48	0.349500	0.681000	0.123400
O491	O49	0.260900	0.666750	0.320800
O501	O50	0.494500	0.542080	0.385000
O511	O51	0.495700	0.665640	0.342720
C811	C81	0.395400	0.679800	0.317630
C821	C82	0.451900	0.715900	0.282480
C831	C83	0.400400	0.769100	0.221890
H491	H49	0.331700	0.782100	0.202900
C841	C84	0.348500	0.734500	0.254330
H501	H50	0.246800	0.724200	0.256900
C851	C85	0.241600	0.408700	0.374490
H511	H51	0.150500	0.431000	0.373400
O521	O52	0.260900	0.166750	0.820800
O531	O53	0.494500	0.042080	0.885000
O541	O54	0.495700	0.165640	0.842720
C861	C86	0.395400	0.179800	0.817630
C871	C87	0.451900	0.215900	0.782480
C881	C88	0.400400	0.269100	0.721890
H521	H52	0.331700	0.282100	0.702900
C891	C89	0.348500	0.234500	0.754330
H531	H53	0.246800	0.224200	0.756900
C901	C90	0.241600	0.908700	0.874490
H541	H54	0.150500	0.931000	0.873400
O551	O55	0.760900	0.666750	0.820800
O561	O56	0.994500	0.542080	0.885000
O571	O57	0.995700	0.665640	0.842720
C911	C91	0.895400	0.679800	0.817630
C921	C92	0.951900	0.715900	0.782480
C931	C93	0.900400	0.769100	0.721890
H551	H55	0.831700	0.782100	0.702900
C941	C94	0.848500	0.734500	0.754330
H561	H56	0.746800	0.724200	0.756900
C951	C95	0.741600	0.408700	0.874490
H571	H57	0.650500	0.431000	0.873400
O581	O58	0.760900	0.166750	0.320800
O591	O59	0.994500	0.042080	0.385000
O601	O60	0.995700	0.165640	0.342720
C961	C96	0.895400	0.179800	0.317630
C971	C97	0.951900	0.215900	0.282480
C981	C98	0.900400	0.269100	0.221890
H581	H58	0.831700	0.282100	0.202900
C991	C99	0.848500	0.234500	0.254330
H591	H59	0.746800	0.224200	0.256900
C1001	C100	0.741600	0.908700	0.374490
H601	H60	0.650500	0.931000	0.373400
O611	O61	0.989100	0.583250	0.320800
O621	O62	0.755500	0.707920	0.385000
O631	O63	0.754300	0.584360	0.342720
C1011	C101	0.854600	0.570200	0.317630
C1021	C102	0.798100	0.534100	0.282480
C1031	C103	0.849600	0.480900	0.221890
H611	H61	0.918300	0.467900	0.202900
C1041	C104	0.901500	0.515500	0.254330
H621	H62	0.003200	0.525800	0.256900
C1051	C105	0.008400	0.841300	0.374490
H631	H63	0.099500	0.819000	0.373400
O641	O64	0.989100	0.083250	0.820800
O651	O65	0.755500	0.207920	0.885000
O661	O66	0.754300	0.084360	0.842720
C1061	C106	0.854600	0.070200	0.817630
C1071	C107	0.798100	0.034100	0.782480
C1081	C108	0.849600	0.980900	0.721890
H641	H64	0.918300	0.967900	0.702900
C1091	C109	0.901500	0.015500	0.754330
H651	H65	0.003200	0.025800	0.756900
C1101	C110	0.008400	0.341300	0.874490
H661	H66	0.099500	0.319000	0.873400
O671	O67	0.489100	0.583250	0.820800
O681	O68	0.255500	0.707920	0.885000
O691	O69	0.254300	0.584360	0.842720
C1111	C111	0.354600	0.570200	0.817630
C1121	C112	0.298100	0.534100	0.782480
C1131	C113	0.349600	0.480900	0.721890
H671	H67	0.418300	0.467900	0.702900
C1141	C114	0.401500	0.515500	0.754330
H681	H68	0.503200	0.525800	0.756900
C1151	C115	0.508400	0.841300	0.874490
H691	H69	0.599500	0.819000	0.873400
O701	O70	0.489100	0.083250	0.320800
O711	O71	0.255500	0.207920	0.385000
O721	O72	0.254300	0.084360	0.342720
C1161	C116	0.354600	0.070200	0.317630
C1171	C117	0.298100	0.034100	0.282480
C1181	C118	0.349600	0.980900	0.221890
H701	H70	0.418300	0.967900	0.202900
C1191	C119	0.401500	0.015500	0.254330
H711	H71	0.503200	0.025800	0.256900
C1201	C120	0.508400	0.341300	0.374490
H721	H72	0.599500	0.319000	0.373400
O731	O73	0.989100	0.666750	0.929200
O741	O74	0.755500	0.542080	0.865000
O751	O75	0.754300	0.665640	0.907280
C1211	C121	0.854600	0.679800	0.932370
C1221	C122	0.798100	0.715900	0.967520
C1231	C123	0.849600	0.769100	0.028110
H731	H73	0.918300	0.782100	0.047100
C1241	C124	0.901500	0.734500	0.995670
H741	H74	0.003200	0.724200	0.993100
C1251	C125	0.008400	0.408700	0.875510
H751	H75	0.099500	0.431000	0.876600
O761	O76	0.989100	0.166750	0.429200
O771	O77	0.755500	0.042080	0.365000
O781	O78	0.754300	0.165640	0.407280
C1261	C126	0.854600	0.179800	0.432370
C1271	C127	0.798100	0.215900	0.467520
C1281	C128	0.849600	0.269100	0.528110
H761	H76	0.918300	0.282100	0.547100
C1291	C129	0.901500	0.234500	0.495670
H771	H77	0.003200	0.224200	0.493100
C1301	C130	0.008400	0.908700	0.375510
H781	H78	0.099500	0.931000	0.376600
O791	O79	0.489100	0.666750	0.429200
O801	O80	0.255500	0.542080	0.365000
O811	O81	0.254300	0.665640	0.407280
C1311	C131	0.354600	0.679800	0.432370
C1321	C132	0.298100	0.715900	0.467520
C1331	C133	0.349600	0.769100	0.528110
H791	H79	0.418300	0.782100	0.547100
C1341	C134	0.401500	0.734500	0.495670
H801	H80	0.503200	0.724200	0.493100
C1351	C135	0.508400	0.408700	0.375510
H811	H81	0.599500	0.431000	0.376600
O821	O82	0.489100	0.166750	0.929200
O831	O83	0.255500	0.042080	0.865000
O841	O84	0.254300	0.165640	0.907280
C1361	C136	0.354600	0.179800	0.932370
C1371	C137	0.298100	0.215900	0.967520
C1381	C138	0.349600	0.269100	0.028110
H821	H82	0.418300	0.282100	0.047100
C1391	C139	0.401500	0.234500	0.995670
H831	H83	0.503200	0.224200	0.993100
C1401	C140	0.508400	0.908700	0.875510
H841	H84	0.599500	0.931000	0.876600
O851	O85	0.260900	0.583250	0.929200
O861	O86	0.494500	0.707920	0.865000
O871	O87	0.495700	0.584360	0.907280
C1411	C141	0.395400	0.570200	0.932370
C1421	C142	0.451900	0.534100	0.967520
C1431	C143	0.400400	0.480900	0.028110
H851	H85	0.331700	0.467900	0.047100
C1441	C144	0.348500	0.515500	0.995670
H861	H86	0.246800	0.525800	0.993100
C1451	C145	0.241600	0.841300	0.875510
H871	H87	0.150500	0.819000	0.876600
O881	O88	0.260900	0.083250	0.429200
O891	O89	0.494500	0.207920	0.365000
O901	O90	0.495700	0.084360	0.407280
C1461	C146	0.395400	0.070200	0.432370
C1471	C147	0.451900	0.034100	0.467520
C1481	C148	0.400400	0.980900	0.528110
H881	H88	0.331700	0.967900	0.547100
C1491	C149	0.348500	0.015500	0.495670
H891	H89	0.246800	0.025800	0.493100
C1501	C150	0.241600	0.341300	0.375510
H901	H90	0.150500	0.319000	0.376600
O911	O91	0.760900	0.583250	0.429200
O921	O92	0.994500	0.707920	0.365000
O931	O93	0.995700	0.584360	0.407280
C1511	C151	0.895400	0.570200	0.432370
C1521	C152	0.951900	0.534100	0.467520
C1531	C153	0.900400	0.480900	0.528110
H911	H91	0.831700	0.467900	0.547100
C1541	C154	0.848500	0.515500	0.495670
H921	H92	0.746800	0.525800	0.493100
C1551	C155	0.741600	0.841300	0.375510
H931	H93	0.650500	0.819000	0.376600
O941	O94	0.760900	0.083250	0.929200
O951	O95	0.994500	0.207920	0.865000
O961	O96	0.995700	0.084360	0.907280
C1561	C156	0.895400	0.070200	0.932370
C1571	C157	0.951900	0.034100	0.967520
C1581	C158	0.900400	0.980900	0.028110
H941	H94	0.831700	0.967900	0.047100
C1591	C159	0.848500	0.015500	0.995670
H951	H95	0.746800	0.025800	0.993100
C1601	C160	0.741600	0.341300	0.875510
H961	H96	0.650500	0.319000	0.876600
Sc11	Sc1	0.375000	0.375000	0.614110
Sc21	Sc2	0.375000	0.875000	0.114110
Sc31	Sc3	0.875000	0.375000	0.114110
Sc41	Sc4	0.875000	0.875000	0.614110
Sc51	Sc5	0.375000	0.375000	0.135890
Sc61	Sc6	0.375000	0.875000	0.635890
Sc71	Sc7	0.875000	0.375000	0.635890
Sc81	Sc8	0.875000	0.875000	0.135890
Sc91	Sc9	0.625000	0.625000	0.385890
Sc101	Sc10	0.625000	0.125000	0.885890
Sc111	Sc11	0.125000	0.625000	0.885890
Sc121	Sc12	0.125000	0.125000	0.385890
Sc131	Sc13	0.625000	0.625000	0.864110
Sc141	Sc14	0.625000	0.125000	0.364110
Sc151	Sc15	0.125000	0.625000	0.364110
Sc161	Sc16	0.125000	0.125000	0.864110
C1611	C161	0.625000	0.557900	0.625000
C1621	C162	0.625000	0.485800	0.625000
C1631	C163	0.625000	0.057900	0.125000
C1641	C164	0.625000	0.985800	0.125000
C1651	C165	0.125000	0.192100	0.625000
C1661	C166	0.125000	0.264200	0.625000
C1671	C167	0.125000	0.692100	0.125000
C1681	C168	0.125000	0.764200	0.125000
C1691	C169	0.625000	0.692100	0.625000
C1701	C170	0.625000	0.764200	0.625000
C1711	C171	0.125000	0.557900	0.125000
C1721	C172	0.125000	0.485800	0.125000
C1731	C173	0.125000	0.057900	0.625000
C1741	C174	0.125000	0.985800	0.625000
C1751	C175	0.625000	0.192100	0.125000
C1761	C176	0.625000	0.264200	0.125000
C1771	C177	0.375000	0.442100	0.375000
C1781	C178	0.375000	0.514200	0.375000
C1791	C179	0.375000	0.942100	0.875000
C1801	C180	0.375000	0.014200	0.875000
C1811	C181	0.875000	0.807900	0.375000
C1821	C182	0.875000	0.735800	0.375000
C1831	C183	0.875000	0.307900	0.875000
C1841	C184	0.875000	0.235800	0.875000
C1851	C185	0.875000	0.442100	0.875000
C1861	C186	0.875000	0.514200	0.875000
C1871	C187	0.875000	0.942100	0.375000
C1881	C188	0.875000	0.014200	0.375000
C1891	C189	0.375000	0.807900	0.875000
C1901	C190	0.375000	0.735800	0.875000
C1911	C191	0.375000	0.307900	0.375000
C1921	C192	0.375000	0.235800	0.375000
