data_BAEDTA01_clean_PM
_symmetry_space_group_name_H-M	'P1'
_cell_length_a	8.981300
_cell_length_b	19.712600
_cell_length_c	19.712600
_cell_angle_alpha	90.000000
_cell_angle_beta	90.000000
_cell_angle_gamma	90.000000
_symmetry_Int_Tables_number 1

loop_
_symmetry_equiv_pos_as_xyz
'x,y,z'

loop_
_atom_site_label
_atom_site_type_symbol
_atom_site_fract_x
_atom_site_fract_y
_atom_site_fract_z
Ba11	Ba1	0.772560	0.817130	0.645360
Ba21	Ba2	0.766300	0.691620	0.866470
Ba31	Ba3	0.772560	0.182870	0.354640
Ba41	Ba4	0.766300	0.308380	0.133530
Ba51	Ba5	0.772560	0.354640	0.817130
Ba61	Ba6	0.766300	0.133530	0.691620
Ba71	Ba7	0.772560	0.645360	0.182870
Ba81	Ba8	0.766300	0.866470	0.308380
Ba91	Ba9	0.272560	0.317130	0.854640
Ba101	Ba10	0.266300	0.191620	0.633530
Ba111	Ba11	0.272560	0.682870	0.145360
Ba121	Ba12	0.266300	0.808380	0.366470
Ba131	Ba13	0.272560	0.854640	0.682870
Ba141	Ba14	0.266300	0.633530	0.808380
Ba151	Ba15	0.272560	0.145360	0.317130
Ba161	Ba16	0.266300	0.366470	0.191620
H11	H1	0.667000	0.887000	0.001000
H21	H2	0.757000	0.826000	0.016000
H31	H3	0.478000	0.797000	0.027000
H41	H4	0.448000	0.742000	0.968000
H51	H5	0.445000	0.867000	0.917000
H61	H6	0.572000	0.871000	0.875000
H71	H7	0.899000	0.900000	0.966000
H81	H8	0.824000	0.890000	0.899000
H91	H9	0.102000	0.797000	0.846000
H101	H10	0.066000	0.870000	0.863000
H111	H11	0.002000	0.795000	0.017000
H121	H12	0.118000	0.823000	0.978000
H131	H13	0.667000	0.113000	0.999000
H141	H14	0.757000	0.174000	0.984000
H151	H15	0.478000	0.203000	0.973000
H161	H16	0.448000	0.258000	0.032000
H171	H17	0.445000	0.133000	0.083000
H181	H18	0.572000	0.129000	0.125000
H191	H19	0.899000	0.100000	0.034000
H201	H20	0.824000	0.110000	0.101000
H211	H21	0.102000	0.203000	0.154000
H221	H22	0.066000	0.130000	0.137000
H231	H23	0.002000	0.205000	0.983000
H241	H24	0.118000	0.177000	0.022000
H251	H25	0.667000	0.999000	0.887000
H261	H26	0.757000	0.984000	0.826000
H271	H27	0.478000	0.973000	0.797000
H281	H28	0.448000	0.032000	0.742000
H291	H29	0.445000	0.083000	0.867000
H301	H30	0.572000	0.125000	0.871000
H311	H31	0.899000	0.034000	0.900000
H321	H32	0.824000	0.101000	0.890000
H331	H33	0.102000	0.154000	0.797000
H341	H34	0.066000	0.137000	0.870000
H351	H35	0.002000	0.983000	0.795000
H361	H36	0.118000	0.022000	0.823000
H371	H37	0.667000	0.001000	0.113000
H381	H38	0.757000	0.016000	0.174000
H391	H39	0.478000	0.027000	0.203000
H401	H40	0.448000	0.968000	0.258000
H411	H41	0.445000	0.917000	0.133000
H421	H42	0.572000	0.875000	0.129000
H431	H43	0.899000	0.966000	0.100000
H441	H44	0.824000	0.899000	0.110000
H451	H45	0.102000	0.846000	0.203000
H461	H46	0.066000	0.863000	0.130000
H471	H47	0.002000	0.017000	0.205000
H481	H48	0.118000	0.978000	0.177000
H491	H49	0.167000	0.387000	0.499000
H501	H50	0.257000	0.326000	0.484000
H511	H51	0.978000	0.297000	0.473000
H521	H52	0.948000	0.242000	0.532000
H531	H53	0.945000	0.367000	0.583000
H541	H54	0.072000	0.371000	0.625000
H551	H55	0.399000	0.400000	0.534000
H561	H56	0.324000	0.390000	0.601000
H571	H57	0.602000	0.297000	0.654000
H581	H58	0.566000	0.370000	0.637000
H591	H59	0.502000	0.295000	0.483000
H601	H60	0.618000	0.323000	0.522000
H611	H61	0.167000	0.613000	0.501000
H621	H62	0.257000	0.674000	0.516000
H631	H63	0.978000	0.703000	0.527000
H641	H64	0.948000	0.758000	0.468000
H651	H65	0.945000	0.633000	0.417000
H661	H66	0.072000	0.629000	0.375000
H671	H67	0.399000	0.600000	0.466000
H681	H68	0.324000	0.610000	0.399000
H691	H69	0.602000	0.703000	0.346000
H701	H70	0.566000	0.630000	0.363000
H711	H71	0.502000	0.705000	0.517000
H721	H72	0.618000	0.677000	0.478000
H731	H73	0.167000	0.499000	0.613000
H741	H74	0.257000	0.484000	0.674000
H751	H75	0.978000	0.473000	0.703000
H761	H76	0.948000	0.532000	0.758000
H771	H77	0.945000	0.583000	0.633000
H781	H78	0.072000	0.625000	0.629000
H791	H79	0.399000	0.534000	0.600000
H801	H80	0.324000	0.601000	0.610000
H811	H81	0.602000	0.654000	0.703000
H821	H82	0.566000	0.637000	0.630000
H831	H83	0.502000	0.483000	0.705000
H841	H84	0.618000	0.522000	0.677000
H851	H85	0.167000	0.501000	0.387000
H861	H86	0.257000	0.516000	0.326000
H871	H87	0.978000	0.527000	0.297000
H881	H88	0.948000	0.468000	0.242000
H891	H89	0.945000	0.417000	0.367000
H901	H90	0.072000	0.375000	0.371000
H911	H91	0.399000	0.466000	0.400000
H921	H92	0.324000	0.399000	0.390000
H931	H93	0.602000	0.346000	0.297000
H941	H94	0.566000	0.363000	0.370000
H951	H95	0.502000	0.517000	0.295000
H961	H96	0.618000	0.478000	0.323000
C11	C1	0.713600	0.845800	0.981800
C21	C2	0.518600	0.764300	0.993900
C31	C3	0.604400	0.709700	0.032100
C41	C4	0.520100	0.838300	0.896700
C51	C5	0.442900	0.794500	0.844300
C61	C6	0.846700	0.866300	0.940100
C71	C7	0.025600	0.828500	0.858100
C81	C8	0.933100	0.830100	0.793000
C91	C9	0.037300	0.786800	0.973600
C101	C10	0.104500	0.715700	0.964600
C111	C11	0.713600	0.154200	0.018200
C121	C12	0.518600	0.235700	0.006100
C131	C13	0.604400	0.290300	0.967900
C141	C14	0.520100	0.161700	0.103300
C151	C15	0.442900	0.205500	0.155700
C161	C16	0.846700	0.133700	0.059900
C171	C17	0.025600	0.171500	0.141900
C181	C18	0.933100	0.169900	0.207000
C191	C19	0.037300	0.213200	0.026400
C201	C20	0.104500	0.284300	0.035400
C211	C21	0.713600	0.018200	0.845800
C221	C22	0.518600	0.006100	0.764300
C231	C23	0.604400	0.967900	0.709700
C241	C24	0.520100	0.103300	0.838300
C251	C25	0.442900	0.155700	0.794500
C261	C26	0.846700	0.059900	0.866300
C271	C27	0.025600	0.141900	0.828500
C281	C28	0.933100	0.207000	0.830100
C291	C29	0.037300	0.026400	0.786800
C301	C30	0.104500	0.035400	0.715700
C311	C31	0.713600	0.981800	0.154200
C321	C32	0.518600	0.993900	0.235700
C331	C33	0.604400	0.032100	0.290300
C341	C34	0.520100	0.896700	0.161700
C351	C35	0.442900	0.844300	0.205500
C361	C36	0.846700	0.940100	0.133700
C371	C37	0.025600	0.858100	0.171500
C381	C38	0.933100	0.793000	0.169900
C391	C39	0.037300	0.973600	0.213200
C401	C40	0.104500	0.964600	0.284300
C411	C41	0.213600	0.345800	0.518200
C421	C42	0.018600	0.264300	0.506100
C431	C43	0.104400	0.209700	0.467900
C441	C44	0.020100	0.338300	0.603300
C451	C45	0.942900	0.294500	0.655700
C461	C46	0.346700	0.366300	0.559900
C471	C47	0.525600	0.328500	0.641900
C481	C48	0.433100	0.330100	0.707000
C491	C49	0.537300	0.286800	0.526400
C501	C50	0.604500	0.215700	0.535400
C511	C51	0.213600	0.654200	0.481800
C521	C52	0.018600	0.735700	0.493900
C531	C53	0.104400	0.790300	0.532100
C541	C54	0.020100	0.661700	0.396700
C551	C55	0.942900	0.705500	0.344300
C561	C56	0.346700	0.633700	0.440100
C571	C57	0.525600	0.671500	0.358100
C581	C58	0.433100	0.669900	0.293000
C591	C59	0.537300	0.713200	0.473600
C601	C60	0.604500	0.784300	0.464600
C611	C61	0.213600	0.518200	0.654200
C621	C62	0.018600	0.506100	0.735700
C631	C63	0.104400	0.467900	0.790300
C641	C64	0.020100	0.603300	0.661700
C651	C65	0.942900	0.655700	0.705500
C661	C66	0.346700	0.559900	0.633700
C671	C67	0.525600	0.641900	0.671500
C681	C68	0.433100	0.707000	0.669900
C691	C69	0.537300	0.526400	0.713200
C701	C70	0.604500	0.535400	0.784300
C711	C71	0.213600	0.481800	0.345800
C721	C72	0.018600	0.493900	0.264300
C731	C73	0.104400	0.532100	0.209700
C741	C74	0.020100	0.396700	0.338300
C751	C75	0.942900	0.344300	0.294500
C761	C76	0.346700	0.440100	0.366300
C771	C77	0.525600	0.358100	0.328500
C781	C78	0.433100	0.293000	0.330100
C791	C79	0.537300	0.473600	0.286800
C801	C80	0.604500	0.464600	0.215700
N11	N1	0.610600	0.800500	0.945600
N21	N2	0.938600	0.809200	0.918800
N31	N3	0.610600	0.199500	0.054400
N41	N4	0.938600	0.190800	0.081200
N51	N5	0.610600	0.054400	0.800500
N61	N6	0.938600	0.081200	0.809200
N71	N7	0.610600	0.945600	0.199500
N81	N8	0.938600	0.918800	0.190800
N91	N9	0.110600	0.300500	0.554400
N101	N10	0.438600	0.309200	0.581200
N111	N11	0.110600	0.699500	0.445600
N121	N12	0.438600	0.690800	0.418800
N131	N13	0.110600	0.554400	0.699500
N141	N14	0.438600	0.581200	0.690800
N151	N15	0.110600	0.445600	0.300500
N161	N16	0.438600	0.418800	0.309200
O11	O1	0.714700	0.684400	0.002000
O21	O2	0.559700	0.692200	0.088900
O31	O3	0.476500	0.732900	0.840000
O41	O4	0.350000	0.824300	0.807900
O51	O5	0.800500	0.810550	0.793310
O61	O6	0.998900	0.851800	0.741510
O71	O7	0.188300	0.695600	0.010900
O81	O8	0.071400	0.683700	0.911700
O91	O9	0.714700	0.315600	0.998000
O101	O10	0.559700	0.307800	0.911100
O111	O11	0.476500	0.267100	0.160000
O121	O12	0.350000	0.175700	0.192100
O131	O13	0.800500	0.189450	0.206690
O141	O14	0.998900	0.148200	0.258490
O151	O15	0.188300	0.304400	0.989100
O161	O16	0.071400	0.316300	0.088300
O171	O17	0.714700	0.998000	0.684400
O181	O18	0.559700	0.911100	0.692200
O191	O19	0.476500	0.160000	0.732900
O201	O20	0.350000	0.192100	0.824300
O211	O21	0.800500	0.206690	0.810550
O221	O22	0.998900	0.258490	0.851800
O231	O23	0.188300	0.989100	0.695600
O241	O24	0.071400	0.088300	0.683700
O251	O25	0.714700	0.002000	0.315600
O261	O26	0.559700	0.088900	0.307800
O271	O27	0.476500	0.840000	0.267100
O281	O28	0.350000	0.807900	0.175700
O291	O29	0.800500	0.793310	0.189450
O301	O30	0.998900	0.741510	0.148200
O311	O31	0.188300	0.010900	0.304400
O321	O32	0.071400	0.911700	0.316300
O331	O33	0.214700	0.184400	0.498000
O341	O34	0.059700	0.192200	0.411100
O351	O35	0.976500	0.232900	0.660000
O361	O36	0.850000	0.324300	0.692100
O371	O37	0.300500	0.310550	0.706690
O381	O38	0.498900	0.351800	0.758490
O391	O39	0.688300	0.195600	0.489100
O401	O40	0.571400	0.183700	0.588300
O411	O41	0.214700	0.815600	0.502000
O421	O42	0.059700	0.807800	0.588900
O431	O43	0.976500	0.767100	0.340000
O441	O44	0.850000	0.675700	0.307900
O451	O45	0.300500	0.689450	0.293310
O461	O46	0.498900	0.648200	0.241510
O471	O47	0.688300	0.804400	0.510900
O481	O48	0.571400	0.816300	0.411700
O491	O49	0.214700	0.498000	0.815600
O501	O50	0.059700	0.411100	0.807800
O511	O51	0.976500	0.660000	0.767100
O521	O52	0.850000	0.692100	0.675700
O531	O53	0.300500	0.706690	0.689450
O541	O54	0.498900	0.758490	0.648200
O551	O55	0.688300	0.489100	0.804400
O561	O56	0.571400	0.588300	0.816300
O571	O57	0.214700	0.502000	0.184400
O581	O58	0.059700	0.588900	0.192200
O591	O59	0.976500	0.340000	0.232900
O601	O60	0.850000	0.307900	0.324300
O611	O61	0.300500	0.293310	0.310550
O621	O62	0.498900	0.241510	0.351800
O631	O63	0.688300	0.510900	0.195600
O641	O64	0.571400	0.411700	0.183700
