data_BAFKUR_clean_PM
_symmetry_space_group_name_H-M	'P1'
_cell_length_a	9.666000
_cell_length_b	11.358000
_cell_length_c	13.671000
_cell_angle_alpha	69.701000
_cell_angle_beta	70.792000
_cell_angle_gamma	81.668000
_symmetry_Int_Tables_number 1

loop_
_symmetry_equiv_pos_as_xyz
'x,y,z'

loop_
_atom_site_label
_atom_site_type_symbol
_atom_site_fract_x
_atom_site_fract_y
_atom_site_fract_z
O11	O1	0.300400	0.423920	0.618100
O21	O2	0.158700	0.116300	0.979960
N11	N1	0.958700	0.164400	0.877350
N21	N2	0.299000	0.922500	0.710500
N31	N3	0.748800	0.149300	0.562600
O31	O3	0.279500	0.287400	0.867480
C11	C1	0.065800	0.247400	0.837000
N41	N4	0.417800	0.458800	0.225510
C21	C2	0.074600	0.351400	0.743400
N51	N5	0.593700	0.312800	0.554050
C31	C3	0.178400	0.216900	0.898600
C41	C4	0.875700	0.073700	0.530600
N61	N6	0.426600	0.460200	0.384160
O41	O4	0.174700	0.540000	0.723300
C51	C5	0.400500	0.962100	0.603400
C61	C6	0.492500	0.494800	0.277700
H11	H1	0.579000	0.538400	0.243100
C71	C7	0.545800	0.222300	0.654800
H21	H2	0.461600	0.229700	0.710500
C81	C8	0.194900	0.446000	0.692600
C91	C9	0.296000	0.398800	0.303200
H31	H3	0.223800	0.364100	0.291500
N71	N7	0.145700	0.932400	0.868500
C101	C10	0.459500	0.480700	0.110500
C111	C11	0.639700	0.121400	0.660300
H41	H4	0.631700	0.047500	0.719000
C121	C12	0.302400	0.400600	0.400900
H51	H5	0.233600	0.366800	0.468400
C131	C13	0.228700	0.996100	0.771800
H61	H6	0.238000	0.082600	0.748300
C141	C14	0.255100	0.802200	0.772300
H71	H7	0.283800	0.730100	0.752000
C151	C15	0.966700	0.368200	0.692900
H81	H8	0.970300	0.435300	0.629300
C161	C16	0.715500	0.266100	0.501100
H91	H9	0.772000	0.307600	0.430500
C171	C17	0.162000	0.809800	0.868300
H101	H10	0.115300	0.742000	0.926100
C181	C18	0.853800	0.183400	0.828900
H111	H11	0.779000	0.126600	0.857800
C191	C19	0.854000	0.285400	0.736900
H121	H12	0.779200	0.298100	0.705100
C201	C20	0.915200	0.971300	0.607700
H131	H13	0.859100	0.951600	0.680700
C211	C21	0.482500	0.115500	0.426800
H141	H14	0.470300	0.193900	0.377700
C221	C22	0.382700	0.077700	0.530200
H151	H15	0.303500	0.130500	0.550200
C231	C23	0.647100	0.501400	0.940500
H161	H16	0.745700	0.502000	0.900300
C241	C24	0.606700	0.482400	0.052000
H171	H17	0.677700	0.471100	0.087000
C251	C25	0.038400	0.897300	0.577100
H181	H18	0.063200	0.827600	0.629700
O51	O5	0.699600	0.576080	0.381900
O61	O6	0.841300	0.883700	0.020040
N81	N8	0.041300	0.835600	0.122650
N91	N9	0.701000	0.077500	0.289500
N101	N10	0.251200	0.850700	0.437400
O71	O7	0.720500	0.712600	0.132520
C261	C26	0.934200	0.752600	0.163000
N111	N11	0.582200	0.541200	0.774490
C271	C27	0.925400	0.648600	0.256600
N121	N12	0.406300	0.687200	0.445950
C281	C28	0.821600	0.783100	0.101400
C291	C29	0.124300	0.926300	0.469400
N131	N13	0.573400	0.539800	0.615840
O81	O8	0.825300	0.460000	0.276700
C301	C30	0.599500	0.037900	0.396600
C311	C31	0.507500	0.505200	0.722300
H191	H19	0.421000	0.461600	0.756900
C321	C32	0.454200	0.777700	0.345200
H201	H20	0.538400	0.770300	0.289500
C331	C33	0.805100	0.554000	0.307400
C341	C34	0.704000	0.601200	0.696800
H211	H21	0.776200	0.635900	0.708500
N141	N14	0.854300	0.067600	0.131500
C351	C35	0.540500	0.519300	0.889500
C361	C36	0.360300	0.878600	0.339700
H221	H22	0.368300	0.952500	0.281000
C371	C37	0.697600	0.599400	0.599100
H231	H23	0.766400	0.633200	0.531600
C381	C38	0.771300	0.003900	0.228200
H241	H24	0.762000	0.917400	0.251700
C391	C39	0.744900	0.197800	0.227700
H251	H25	0.716200	0.269900	0.248000
C401	C40	0.033300	0.631800	0.307100
H261	H26	0.029700	0.564700	0.370700
C411	C41	0.284500	0.733900	0.498900
H271	H27	0.228000	0.692400	0.569500
C421	C42	0.838000	0.190200	0.131700
H281	H28	0.884700	0.258000	0.073900
C431	C43	0.146200	0.816600	0.171100
H291	H29	0.221000	0.873400	0.142200
C441	C44	0.146000	0.714600	0.263100
H301	H30	0.220800	0.701900	0.294900
C451	C45	0.084800	0.028700	0.392300
H311	H31	0.140900	0.048400	0.319300
C461	C46	0.517500	0.884500	0.573200
H321	H32	0.529700	0.806100	0.622300
C471	C47	0.617300	0.922300	0.469800
H331	H33	0.696500	0.869500	0.449800
C481	C48	0.352900	0.498600	0.059500
H341	H34	0.254300	0.498000	0.099700
C491	C49	0.393300	0.517600	0.948000
H351	H35	0.322300	0.528900	0.913000
C501	C50	0.961600	0.102700	0.422900
H361	H36	0.936800	0.172400	0.370300
Co11	Co1	0.500000	0.500000	0.500000
Co21	Co2	0.000000	0.000000	0.000000
