data_BAHGUN01_clean_PM
_symmetry_space_group_name_H-M	'P1'
_cell_length_a	4.957900
_cell_length_b	10.988100
_cell_length_c	12.781900
_cell_angle_alpha	91.559700
_cell_angle_beta	101.183000
_cell_angle_gamma	81.932200
_symmetry_Int_Tables_number 1

loop_
_symmetry_equiv_pos_as_xyz
'x,y,z'

loop_
_atom_site_label
_atom_site_type_symbol
_atom_site_fract_x
_atom_site_fract_y
_atom_site_fract_z
Cu11	Cu1	0.056480	0.783730	0.226540
Cu21	Cu2	0.829940	0.283730	0.773460
H11	H1	0.861400	0.520700	0.663000
H21	H2	0.644400	0.628500	0.511200
H31	H3	0.096800	0.383700	0.455400
H41	H4	0.327900	0.282500	0.610400
H51	H5	0.319500	0.092600	0.804200
H61	H6	0.584300	0.957900	0.931600
H71	H7	0.061900	0.078100	0.130000
H81	H8	0.825200	0.216100	0.000000
H91	H9	0.198400	0.020700	0.337000
H101	H10	0.133200	0.128500	0.488800
H111	H11	0.641400	0.883700	0.544600
H121	H12	0.717500	0.782500	0.389600
H131	H13	0.515300	0.592600	0.195800
H141	H14	0.652700	0.457900	0.068400
H151	H15	0.931900	0.578100	0.870000
H161	H16	0.825200	0.716100	0.000000
C11	C1	0.705360	0.492900	0.620320
C21	C2	0.576810	0.557900	0.529620
C31	C3	0.345560	0.517800	0.465520
C41	C4	0.252670	0.413100	0.496740
C51	C5	0.392390	0.352800	0.589380
C61	C6	0.190950	0.587900	0.365700
C71	C7	0.268790	0.090200	0.871180
C81	C8	0.427370	0.008500	0.946940
C91	C9	0.352470	0.001900	0.045940
C101	C10	0.120520	0.080400	0.064440
C111	C11	0.977400	0.161500	0.985600
C121	C12	0.518290	0.915600	0.132180
C131	C13	0.085040	0.992900	0.379680
C141	C14	0.047190	0.057900	0.470380
C151	C15	0.880040	0.017800	0.534480
C161	C16	0.755930	0.913100	0.503260
C171	C17	0.803010	0.852800	0.410620
C181	C18	0.825250	0.087900	0.634300
C191	C19	0.397610	0.590200	0.128820
C201	C20	0.480430	0.508500	0.053060
C211	C21	0.306530	0.501900	0.954060
C221	C22	0.056080	0.580400	0.935560
C231	C23	0.991800	0.661500	0.014400
C241	C24	0.386110	0.415600	0.867820
N11	N1	0.618090	0.391500	0.650580
N21	N2	0.045850	0.166100	0.889100
N31	N3	0.967510	0.891500	0.349420
N41	N4	0.156750	0.666100	0.110900
O11	O1	0.298520	0.678500	0.341240
O21	O2	0.970200	0.555100	0.317200
O31	O3	0.766890	0.878440	0.121380
O41	O4	0.408530	0.887720	0.206060
O51	O5	0.957280	0.178500	0.658760
O61	O6	0.653000	0.055100	0.682800
O71	O7	0.645510	0.378440	0.878620
O81	O8	0.202470	0.387720	0.793940
