data_BAKGAX_clean_PM
_symmetry_space_group_name_H-M	'P1'
_cell_length_a	7.324600
_cell_length_b	13.224000
_cell_length_c	22.766900
_cell_angle_alpha	90.000000
_cell_angle_beta	90.000000
_cell_angle_gamma	90.000000
_symmetry_Int_Tables_number 1

loop_
_symmetry_equiv_pos_as_xyz
'x,y,z'

loop_
_atom_site_label
_atom_site_type_symbol
_atom_site_fract_x
_atom_site_fract_y
_atom_site_fract_z
Co11	Co1	0.673120	0.882780	0.610610
Co21	Co2	0.826880	0.117220	0.110610
Co31	Co3	0.326880	0.382780	0.389390
Co41	Co4	0.173120	0.617220	0.889390
Co51	Co5	0.326880	0.117220	0.389390
Co61	Co6	0.173120	0.882780	0.889390
Co71	Co7	0.673120	0.617220	0.610610
Co81	Co8	0.826880	0.382780	0.110610
Co91	Co9	0.656430	0.750000	0.741460
Co101	Co10	0.843570	0.250000	0.241460
Co111	Co11	0.343570	0.250000	0.258540
Co121	Co12	0.156430	0.750000	0.758540
H11	H1	0.716600	0.403100	0.871900
H21	H2	0.783400	0.596900	0.371900
H31	H3	0.283400	0.903100	0.128100
H41	H4	0.216600	0.096900	0.628100
H51	H5	0.283400	0.596900	0.128100
H61	H6	0.216600	0.403100	0.628100
H71	H7	0.716600	0.096900	0.871900
H81	H8	0.783400	0.903100	0.371900
H91	H9	0.860300	0.750000	0.650500
H101	H10	0.639700	0.250000	0.150500
H111	H11	0.139700	0.250000	0.349500
H121	H12	0.360300	0.750000	0.849500
H131	H13	0.605000	0.250000	0.721600
H141	H14	0.895000	0.750000	0.221600
H151	H15	0.395000	0.750000	0.278400
H161	H16	0.105000	0.250000	0.778400
C11	C1	0.647400	0.437300	0.760130
C21	C2	0.658500	0.340800	0.791870
C31	C3	0.700600	0.340900	0.851690
C41	C4	0.852600	0.562700	0.260130
C51	C5	0.841500	0.659200	0.291870
C61	C6	0.799400	0.659100	0.351690
C71	C7	0.352600	0.937300	0.239870
C81	C8	0.341500	0.840800	0.208130
C91	C9	0.299400	0.840900	0.148310
C101	C10	0.147400	0.062700	0.739870
C111	C11	0.158500	0.159200	0.708130
C121	C12	0.200600	0.159100	0.648310
C131	C13	0.352600	0.562700	0.239870
C141	C14	0.341500	0.659200	0.208130
C151	C15	0.299400	0.659100	0.148310
C161	C16	0.147400	0.437300	0.739870
C171	C17	0.158500	0.340800	0.708130
C181	C18	0.200600	0.340900	0.648310
C191	C19	0.647400	0.062700	0.760130
C201	C20	0.658500	0.159200	0.791870
C211	C21	0.700600	0.159100	0.851690
C221	C22	0.852600	0.937300	0.260130
C231	C23	0.841500	0.840800	0.291870
C241	C24	0.799400	0.840900	0.351690
C251	C25	0.635900	0.250000	0.762150
C261	C26	0.719200	0.250000	0.881630
C271	C27	0.759100	0.250000	0.945220
C281	C28	0.864100	0.750000	0.262150
C291	C29	0.780800	0.750000	0.381630
C301	C30	0.740900	0.750000	0.445220
C311	C31	0.364100	0.750000	0.237850
C321	C32	0.280800	0.750000	0.118370
C331	C33	0.240900	0.750000	0.054780
C341	C34	0.135900	0.250000	0.737850
C351	C35	0.219200	0.250000	0.618370
C361	C36	0.259100	0.250000	0.554780
S11	S1	0.324130	0.750000	0.647920
S21	S2	0.175870	0.250000	0.147920
S31	S3	0.675870	0.250000	0.352080
S41	S4	0.824130	0.750000	0.852080
N11	N1	0.640700	0.593400	0.742440
N21	N2	0.655200	0.544600	0.691840
N31	N3	0.634100	0.527300	0.786570
N41	N4	0.659400	0.445000	0.701710
N51	N5	0.776900	0.333620	0.977290
N61	N6	0.805700	0.300000	0.031680
N71	N7	0.859300	0.406600	0.242440
N81	N8	0.844800	0.455400	0.191840
N91	N9	0.865900	0.472700	0.286570
N101	N10	0.840600	0.555000	0.201710
N111	N11	0.723100	0.666380	0.477290
N121	N12	0.694300	0.700000	0.531680
N131	N13	0.359300	0.093400	0.257560
N141	N14	0.344800	0.044600	0.308160
N151	N15	0.365900	0.027300	0.213430
N161	N16	0.340600	0.945000	0.298290
N171	N17	0.223100	0.833620	0.022710
N181	N18	0.194300	0.800000	0.968320
N191	N19	0.140700	0.906600	0.757560
N201	N20	0.155200	0.955400	0.808160
N211	N21	0.134100	0.972700	0.713430
N221	N22	0.159400	0.055000	0.798290
N231	N23	0.276900	0.166380	0.522710
N241	N24	0.305700	0.200000	0.468320
N251	N25	0.359300	0.406600	0.257560
N261	N26	0.344800	0.455400	0.308160
N271	N27	0.365900	0.472700	0.213430
N281	N28	0.340600	0.555000	0.298290
N291	N29	0.223100	0.666380	0.022710
N301	N30	0.194300	0.700000	0.968320
N311	N31	0.140700	0.593400	0.757560
N321	N32	0.155200	0.544600	0.808160
N331	N33	0.134100	0.527300	0.713430
N341	N34	0.159400	0.445000	0.798290
N351	N35	0.276900	0.333620	0.522710
N361	N36	0.305700	0.300000	0.468320
N371	N37	0.640700	0.906600	0.742440
N381	N38	0.655200	0.955400	0.691840
N391	N39	0.634100	0.972700	0.786570
N401	N40	0.659400	0.055000	0.701710
N411	N41	0.776900	0.166380	0.977290
N421	N42	0.805700	0.200000	0.031680
N431	N43	0.859300	0.093400	0.242440
N441	N44	0.844800	0.044600	0.191840
N451	N45	0.865900	0.027300	0.286570
N461	N46	0.840600	0.945000	0.201710
N471	N47	0.723100	0.833620	0.477290
N481	N48	0.694300	0.800000	0.531680
O11	O1	0.389300	0.840880	0.617470
O21	O2	0.110700	0.159120	0.117470
O31	O3	0.610700	0.340880	0.382530
O41	O4	0.889300	0.659120	0.882530
O51	O5	0.610700	0.159120	0.382530
O61	O6	0.889300	0.840880	0.882530
O71	O7	0.389300	0.659120	0.617470
O81	O8	0.110700	0.340880	0.117470
O91	O9	0.743900	0.750000	0.654640
O101	O10	0.395000	0.750000	0.710160
O111	O11	0.126400	0.750000	0.655610
O121	O12	0.756100	0.250000	0.154640
O131	O13	0.105000	0.250000	0.210160
O141	O14	0.373600	0.250000	0.155610
O151	O15	0.256100	0.250000	0.345360
O161	O16	0.605000	0.250000	0.289840
O171	O17	0.873600	0.250000	0.344390
O181	O18	0.243900	0.750000	0.845360
O191	O19	0.895000	0.750000	0.789840
O201	O20	0.626400	0.750000	0.844390
