data_BALMUW_clean_PM
_symmetry_space_group_name_H-M	'P1'
_cell_length_a	6.188000
_cell_length_b	8.733900
_cell_length_c	9.312000
_cell_angle_alpha	64.553000
_cell_angle_beta	84.640000
_cell_angle_gamma	84.139700
_symmetry_Int_Tables_number 1

loop_
_symmetry_equiv_pos_as_xyz
'x,y,z'

loop_
_atom_site_label
_atom_site_type_symbol
_atom_site_fract_x
_atom_site_fract_y
_atom_site_fract_z
Ba11	Ba1	0.721730	0.459670	0.709270
Ba21	Ba2	0.785720	0.863530	0.918790
Ba31	Ba3	0.278270	0.540330	0.290730
Ba41	Ba4	0.214280	0.136470	0.081210
C11	C1	0.178400	0.581800	0.827000
C21	C2	0.327000	0.681900	0.870900
C31	C3	0.133800	0.221600	0.680500
C41	C4	0.388800	0.216200	0.685900
C51	C5	0.821600	0.418200	0.173000
C61	C6	0.673000	0.318100	0.129100
C71	C7	0.866200	0.778400	0.319500
C81	C8	0.611200	0.783800	0.314100
O11	O1	0.980300	0.629300	0.813800
O21	O2	0.262300	0.453600	0.807600
O31	O3	0.243200	0.753100	0.958500
O41	O4	0.523400	0.687400	0.822000
O51	O5	0.027300	0.144500	0.812800
O61	O6	0.048400	0.314400	0.549500
O71	O7	0.476500	0.133200	0.816900
O81	O8	0.489200	0.306100	0.553600
O91	O9	0.019700	0.370700	0.186200
O101	O10	0.737700	0.546400	0.192400
O111	O11	0.756800	0.246900	0.041500
O121	O12	0.476600	0.312600	0.178000
O131	O13	0.972700	0.855500	0.187200
O141	O14	0.951600	0.685600	0.450500
O151	O15	0.523500	0.866800	0.183100
O161	O16	0.510800	0.693900	0.446400
