data_BAMKIM_clean_PM
_symmetry_space_group_name_H-M	'P1'
_cell_length_a	9.655200
_cell_length_b	17.195800
_cell_length_c	20.880400
_cell_angle_alpha	90.000000
_cell_angle_beta	94.231000
_cell_angle_gamma	90.000000
_symmetry_Int_Tables_number 1

loop_
_symmetry_equiv_pos_as_xyz
'x,y,z'

loop_
_atom_site_label
_atom_site_type_symbol
_atom_site_fract_x
_atom_site_fract_y
_atom_site_fract_z
Cu11	Cu1	0.299180	0.493410	0.523930
Cu21	Cu2	0.001040	0.521580	0.428250
O11	O1	0.312700	0.404300	0.581600
O21	O2	0.107200	0.402700	0.625530
O31	O3	0.049800	0.062600	0.833400
O41	O4	0.881000	0.067600	0.898600
O51	O5	0.123000	0.459800	0.485120
H11	H1	0.132000	0.411100	0.484000
N11	N1	0.277800	0.590200	0.468100
N21	N2	0.149900	0.603100	0.436500
N31	N3	0.284500	0.701500	0.418800
N41	N4	0.579900	0.932700	0.056600
N51	N5	0.455700	0.960100	0.077800
N61	N6	0.577600	0.912500	0.159200
C11	C1	0.355900	0.650500	0.456900
H21	H2	0.447500	0.656900	0.473100
C21	C2	0.156600	0.670800	0.408100
H31	H3	0.083500	0.694300	0.383900
C31	C3	0.332100	0.775100	0.392500
H41	H4	0.406000	0.796100	0.421500
H51	H5	0.255900	0.812000	0.390300
C41	C4	0.384700	0.766500	0.326300
C51	C5	0.351800	0.704400	0.285700
H61	H6	0.294700	0.664900	0.299000
C61	C6	0.402900	0.700600	0.225700
H71	H7	0.380000	0.658800	0.198700
C71	C7	0.488500	0.759300	0.205700
H81	H8	0.523500	0.756400	0.165500
C81	C8	0.521900	0.821900	0.245400
C91	C9	0.468600	0.826300	0.305400
H91	H9	0.488900	0.869000	0.331700
C101	C10	0.618700	0.885700	0.226400
H101	H10	0.614700	0.929100	0.255900
H111	H11	0.713400	0.866500	0.228800
C111	C11	0.649200	0.905300	0.107000
H121	H12	0.737300	0.883300	0.106900
C121	C12	0.457700	0.946900	0.139300
H131	H13	0.386800	0.959500	0.165300
C131	C13	0.226200	0.376700	0.617800
C141	C14	0.276700	0.306800	0.656600
H141	H14	0.356500	0.322300	0.684600
H151	H15	0.307900	0.267800	0.627300
C151	C15	0.171300	0.269800	0.697100
C161	C16	0.154900	0.297600	0.758800
H161	H16	0.207500	0.339600	0.774900
C171	C17	0.059800	0.262500	0.796000
H171	H17	0.051700	0.280800	0.837400
C181	C18	0.979200	0.203300	0.774800
C191	C19	0.995200	0.175500	0.714300
H181	H18	0.941000	0.133800	0.698900
C201	C20	0.091300	0.208400	0.675100
H191	H19	0.100600	0.188500	0.634200
C211	C21	0.879500	0.164300	0.817100
H201	H20	0.796700	0.149000	0.791100
H211	H21	0.852200	0.201200	0.849000
C221	C22	0.942600	0.092900	0.851100
Cu31	Cu3	0.700820	0.993410	0.976070
Cu41	Cu4	0.998960	0.021580	0.071750
O61	O6	0.687300	0.904300	0.918400
O71	O7	0.892800	0.902700	0.874470
O81	O8	0.950200	0.562600	0.666600
O91	O9	0.119000	0.567600	0.601400
O101	O10	0.877000	0.959800	0.014880
H221	H22	0.868000	0.911100	0.016000
N71	N7	0.722200	0.090200	0.031900
N81	N8	0.850100	0.103100	0.063500
N91	N9	0.715500	0.201500	0.081200
N101	N10	0.420100	0.432700	0.443400
N111	N11	0.544300	0.460100	0.422200
N121	N12	0.422400	0.412500	0.340800
C231	C23	0.644100	0.150500	0.043100
H231	H23	0.552500	0.156900	0.026900
C241	C24	0.843400	0.170800	0.091900
H241	H24	0.916500	0.194300	0.116100
C251	C25	0.667900	0.275100	0.107500
H251	H25	0.594000	0.296100	0.078500
H261	H26	0.744100	0.312000	0.109700
C261	C26	0.615300	0.266500	0.173700
C271	C27	0.648200	0.204400	0.214300
H271	H27	0.705300	0.164900	0.201000
C281	C28	0.597100	0.200600	0.274300
H281	H28	0.620000	0.158800	0.301300
C291	C29	0.511500	0.259300	0.294300
H291	H29	0.476500	0.256400	0.334500
C301	C30	0.478100	0.321900	0.254600
C311	C31	0.531400	0.326300	0.194600
H301	H30	0.511100	0.369000	0.168300
C321	C32	0.381300	0.385700	0.273600
H311	H31	0.385300	0.429100	0.244100
H321	H32	0.286600	0.366500	0.271200
C331	C33	0.350800	0.405300	0.393000
H331	H33	0.262700	0.383300	0.393100
C341	C34	0.542300	0.446900	0.360700
H341	H34	0.613200	0.459500	0.334700
C351	C35	0.773800	0.876700	0.882200
C361	C36	0.723300	0.806800	0.843400
H351	H35	0.643500	0.822300	0.815400
H361	H36	0.692100	0.767800	0.872700
C371	C37	0.828700	0.769800	0.802900
C381	C38	0.845100	0.797600	0.741200
H371	H37	0.792500	0.839600	0.725100
C391	C39	0.940200	0.762500	0.704000
H381	H38	0.948300	0.780800	0.662600
C401	C40	0.020800	0.703300	0.725200
C411	C41	0.004800	0.675500	0.785700
H391	H39	0.059000	0.633800	0.801100
C421	C42	0.908700	0.708400	0.824900
H401	H40	0.899400	0.688500	0.865800
C431	C43	0.120500	0.664300	0.682900
H411	H41	0.203300	0.649000	0.708900
H421	H42	0.147800	0.701200	0.651000
C441	C44	0.057400	0.592900	0.648900
Cu51	Cu5	0.700820	0.506590	0.476070
Cu61	Cu6	0.998960	0.478420	0.571750
O111	O11	0.687300	0.595700	0.418400
O121	O12	0.892800	0.597300	0.374470
O131	O13	0.950200	0.937400	0.166600
O141	O14	0.119000	0.932400	0.101400
O151	O15	0.877000	0.540200	0.514880
H431	H43	0.868000	0.588900	0.516000
N131	N13	0.722200	0.409800	0.531900
N141	N14	0.850100	0.396900	0.563500
N151	N15	0.715500	0.298500	0.581200
N161	N16	0.420100	0.067300	0.943400
N171	N17	0.544300	0.039900	0.922200
N181	N18	0.422400	0.087500	0.840800
C451	C45	0.644100	0.349500	0.543100
H441	H44	0.552500	0.343100	0.526900
C461	C46	0.843400	0.329200	0.591900
H451	H45	0.916500	0.305700	0.616100
C471	C47	0.667900	0.224900	0.607500
H461	H46	0.594000	0.203900	0.578500
H471	H47	0.744100	0.188000	0.609700
C481	C48	0.615300	0.233500	0.673700
C491	C49	0.648200	0.295600	0.714300
H481	H48	0.705300	0.335100	0.701000
C501	C50	0.597100	0.299400	0.774300
H491	H49	0.620000	0.341200	0.801300
C511	C51	0.511500	0.240700	0.794300
H501	H50	0.476500	0.243600	0.834500
C521	C52	0.478100	0.178100	0.754600
C531	C53	0.531400	0.173700	0.694600
H511	H51	0.511100	0.131000	0.668300
C541	C54	0.381300	0.114300	0.773600
H521	H52	0.385300	0.070900	0.744100
H531	H53	0.286600	0.133500	0.771200
C551	C55	0.350800	0.094700	0.893000
H541	H54	0.262700	0.116700	0.893100
C561	C56	0.542300	0.053100	0.860700
H551	H55	0.613200	0.040500	0.834700
C571	C57	0.773800	0.623300	0.382200
C581	C58	0.723300	0.693200	0.343400
H561	H56	0.643500	0.677700	0.315400
H571	H57	0.692100	0.732200	0.372700
C591	C59	0.828700	0.730200	0.302900
C601	C60	0.845100	0.702400	0.241200
H581	H58	0.792500	0.660400	0.225100
C611	C61	0.940200	0.737500	0.204000
H591	H59	0.948300	0.719200	0.162600
C621	C62	0.020800	0.796700	0.225200
C631	C63	0.004800	0.824500	0.285700
H601	H60	0.059000	0.866200	0.301100
C641	C64	0.908700	0.791600	0.324900
H611	H61	0.899400	0.811500	0.365800
C651	C65	0.120500	0.835700	0.182900
H621	H62	0.203300	0.851000	0.208900
H631	H63	0.147800	0.798800	0.151000
C661	C66	0.057400	0.907100	0.148900
Cu71	Cu7	0.299180	0.006590	0.023930
Cu81	Cu8	0.001040	0.978420	0.928250
O161	O16	0.312700	0.095700	0.081600
O171	O17	0.107200	0.097300	0.125530
O181	O18	0.049800	0.437400	0.333400
O191	O19	0.881000	0.432400	0.398600
O201	O20	0.123000	0.040200	0.985120
H641	H64	0.132000	0.088900	0.984000
N191	N19	0.277800	0.909800	0.968100
N201	N20	0.149900	0.896900	0.936500
N211	N21	0.284500	0.798500	0.918800
N221	N22	0.579900	0.567300	0.556600
N231	N23	0.455700	0.539900	0.577800
N241	N24	0.577600	0.587500	0.659200
C671	C67	0.355900	0.849500	0.956900
H651	H65	0.447500	0.843100	0.973100
C681	C68	0.156600	0.829200	0.908100
H661	H66	0.083500	0.805700	0.883900
C691	C69	0.332100	0.724900	0.892500
H671	H67	0.406000	0.703900	0.921500
H681	H68	0.255900	0.688000	0.890300
C701	C70	0.384700	0.733500	0.826300
C711	C71	0.351800	0.795600	0.785700
H691	H69	0.294700	0.835100	0.799000
C721	C72	0.402900	0.799400	0.725700
H701	H70	0.380000	0.841200	0.698700
C731	C73	0.488500	0.740700	0.705700
H711	H71	0.523500	0.743600	0.665500
C741	C74	0.521900	0.678100	0.745400
C751	C75	0.468600	0.673700	0.805400
H721	H72	0.488900	0.631000	0.831700
C761	C76	0.618700	0.614300	0.726400
H731	H73	0.614700	0.570900	0.755900
H741	H74	0.713400	0.633500	0.728800
C771	C77	0.649200	0.594700	0.607000
H751	H75	0.737300	0.616700	0.606900
C781	C78	0.457700	0.553100	0.639300
H761	H76	0.386800	0.540500	0.665300
C791	C79	0.226200	0.123300	0.117800
C801	C80	0.276700	0.193200	0.156600
H771	H77	0.356500	0.177700	0.184600
H781	H78	0.307900	0.232200	0.127300
C811	C81	0.171300	0.230200	0.197100
C821	C82	0.154900	0.202400	0.258800
H791	H79	0.207500	0.160400	0.274900
C831	C83	0.059800	0.237500	0.296000
H801	H80	0.051700	0.219200	0.337400
C841	C84	0.979200	0.296700	0.274800
C851	C85	0.995200	0.324500	0.214300
H811	H81	0.941000	0.366200	0.198900
C861	C86	0.091300	0.291600	0.175100
H821	H82	0.100600	0.311500	0.134200
C871	C87	0.879500	0.335700	0.317100
H831	H83	0.796700	0.351000	0.291100
H841	H84	0.852200	0.298800	0.349000
C881	C88	0.942600	0.407100	0.351100
