data_BAPDAA_clean_PM
_symmetry_space_group_name_H-M	'P1'
_cell_length_a	26.888000
_cell_length_b	26.888000
_cell_length_c	7.238500
_cell_angle_alpha	90.000000
_cell_angle_beta	90.000000
_cell_angle_gamma	120.000000
_symmetry_Int_Tables_number 1

loop_
_symmetry_equiv_pos_as_xyz
'x,y,z'

loop_
_atom_site_label
_atom_site_type_symbol
_atom_site_fract_x
_atom_site_fract_y
_atom_site_fract_z
Cd11	Cd1	0.724280	0.704560	0.802320
C11	C1	0.755400	0.681300	0.413800
C21	C2	0.793100	0.671800	0.279200
C31	C3	0.845300	0.679600	0.348500
H11	H1	0.852970	0.688270	0.473280
C41	C4	0.886000	0.675200	0.244500
O11	O1	0.708420	0.675700	0.359200
O21	O2	0.774400	0.697600	0.571900
O31	O3	0.934780	0.685500	0.328600
Cd21	Cd2	0.390950	0.037890	0.135650
C51	C5	0.422070	0.014630	0.747130
C61	C6	0.459770	0.005130	0.612530
C71	C7	0.511970	0.012930	0.681830
H21	H2	0.519640	0.021600	0.806610
C81	C8	0.552670	0.008530	0.577830
O41	O4	0.375090	0.009030	0.692530
O51	O5	0.441070	0.030930	0.905230
O61	O6	0.601450	0.018830	0.661930
Cd31	Cd3	0.057610	0.371230	0.468990
C91	C9	0.088730	0.347970	0.080470
C101	C10	0.126430	0.338470	0.945870
C111	C11	0.178630	0.346270	0.015170
H31	H3	0.186300	0.354940	0.139950
C121	C12	0.219330	0.341870	0.911170
O71	O7	0.041750	0.342370	0.025870
O81	O8	0.107730	0.364270	0.238570
O91	O9	0.268110	0.352170	0.995270
Cd41	Cd4	0.295440	0.019720	0.802320
C131	C13	0.318700	0.074100	0.413800
C141	C14	0.328200	0.121300	0.279200
C151	C15	0.320400	0.165700	0.348500
H41	H4	0.311730	0.164700	0.473280
C161	C16	0.324800	0.210800	0.244500
O101	O10	0.324300	0.032720	0.359200
O111	O11	0.302400	0.076800	0.571900
O121	O12	0.314500	0.249280	0.328600
Cd51	Cd5	0.962110	0.353050	0.135650
C171	C17	0.985370	0.407430	0.747130
C181	C18	0.994870	0.454630	0.612530
C191	C19	0.987070	0.499030	0.681830
H51	H5	0.978400	0.498030	0.806610
C201	C20	0.991470	0.544130	0.577830
O131	O13	0.990970	0.366050	0.692530
O141	O14	0.969070	0.410130	0.905230
O151	O15	0.981170	0.582610	0.661930
Cd61	Cd6	0.628770	0.686390	0.468990
C211	C21	0.652030	0.740770	0.080470
C221	C22	0.661530	0.787970	0.945870
C231	C23	0.653730	0.832370	0.015170
H61	H6	0.645060	0.831370	0.139950
C241	C24	0.658130	0.877470	0.911170
O161	O16	0.657630	0.699390	0.025870
O171	O17	0.635730	0.743470	0.238570
O181	O18	0.647830	0.915950	0.995270
Cd71	Cd7	0.980280	0.275720	0.802320
C251	C25	0.925900	0.244600	0.413800
C261	C26	0.878700	0.206900	0.279200
C271	C27	0.834300	0.154700	0.348500
H71	H7	0.835300	0.147030	0.473280
C281	C28	0.789200	0.114000	0.244500
O191	O19	0.967280	0.291580	0.359200
O201	O20	0.923200	0.225600	0.571900
O211	O21	0.750720	0.065220	0.328600
Cd81	Cd8	0.646950	0.609050	0.135650
C291	C29	0.592570	0.577930	0.747130
C301	C30	0.545370	0.540230	0.612530
C311	C31	0.500970	0.488030	0.681830
H81	H8	0.501970	0.480360	0.806610
C321	C32	0.455870	0.447330	0.577830
O221	O22	0.633950	0.624910	0.692530
O231	O23	0.589870	0.558930	0.905230
O241	O24	0.417390	0.398550	0.661930
Cd91	Cd9	0.313610	0.942390	0.468990
C331	C33	0.259230	0.911270	0.080470
C341	C34	0.212030	0.873570	0.945870
C351	C35	0.167630	0.821370	0.015170
H91	H9	0.168630	0.813700	0.139950
C361	C36	0.122530	0.780670	0.911170
O251	O25	0.300610	0.958250	0.025870
O261	O26	0.256530	0.892270	0.238570
O271	O27	0.084050	0.731890	0.995270
Cd101	Cd10	0.275720	0.295440	0.197680
C371	C37	0.244600	0.318700	0.586200
C381	C38	0.206900	0.328200	0.720800
C391	C39	0.154700	0.320400	0.651500
H101	H10	0.147030	0.311730	0.526720
C401	C40	0.114000	0.324800	0.755500
O281	O28	0.291580	0.324300	0.640800
O291	O29	0.225600	0.302400	0.428100
O301	O30	0.065220	0.314500	0.671400
Cd111	Cd11	0.942390	0.628770	0.531010
C411	C41	0.911270	0.652030	0.919530
C421	C42	0.873570	0.661530	0.054130
C431	C43	0.821370	0.653730	0.984830
H111	H11	0.813700	0.645060	0.860050
C441	C44	0.780670	0.658130	0.088830
O311	O31	0.958250	0.657630	0.974130
O321	O32	0.892270	0.635730	0.761430
O331	O33	0.731890	0.647830	0.004730
Cd121	Cd12	0.609050	0.962110	0.864350
C451	C45	0.577930	0.985370	0.252870
C461	C46	0.540230	0.994870	0.387470
C471	C47	0.488030	0.987070	0.318170
H121	H12	0.480360	0.978400	0.193390
C481	C48	0.447330	0.991470	0.422170
O341	O34	0.624910	0.990970	0.307470
O351	O35	0.558930	0.969070	0.094770
O361	O36	0.398550	0.981170	0.338070
Cd131	Cd13	0.704560	0.980280	0.197680
C491	C49	0.681300	0.925900	0.586200
C501	C50	0.671800	0.878700	0.720800
C511	C51	0.679600	0.834300	0.651500
H131	H13	0.688270	0.835300	0.526720
C521	C52	0.675200	0.789200	0.755500
O371	O37	0.675700	0.967280	0.640800
O381	O38	0.697600	0.923200	0.428100
O391	O39	0.685500	0.750720	0.671400
Cd141	Cd14	0.371230	0.313610	0.531010
C531	C53	0.347970	0.259230	0.919530
C541	C54	0.338470	0.212030	0.054130
C551	C55	0.346270	0.167630	0.984830
H141	H14	0.354940	0.168630	0.860050
C561	C56	0.341870	0.122530	0.088830
O401	O40	0.342370	0.300610	0.974130
O411	O41	0.364270	0.256530	0.761430
O421	O42	0.352170	0.084050	0.004730
Cd151	Cd15	0.037890	0.646950	0.864350
C571	C57	0.014630	0.592570	0.252870
C581	C58	0.005130	0.545370	0.387470
C591	C59	0.012930	0.500970	0.318170
H151	H15	0.021600	0.501970	0.193390
C601	C60	0.008530	0.455870	0.422170
O431	O43	0.009030	0.633950	0.307470
O441	O44	0.030930	0.589870	0.094770
O451	O45	0.018830	0.417390	0.338070
Cd161	Cd16	0.019720	0.724280	0.197680
C611	C61	0.074100	0.755400	0.586200
C621	C62	0.121300	0.793100	0.720800
C631	C63	0.165700	0.845300	0.651500
H161	H16	0.164700	0.852970	0.526720
C641	C64	0.210800	0.886000	0.755500
O461	O46	0.032720	0.708420	0.640800
O471	O47	0.076800	0.774400	0.428100
O481	O48	0.249280	0.934780	0.671400
Cd171	Cd17	0.686390	0.057610	0.531010
C651	C65	0.740770	0.088730	0.919530
C661	C66	0.787970	0.126430	0.054130
C671	C67	0.832370	0.178630	0.984830
H171	H17	0.831370	0.186300	0.860050
C681	C68	0.877470	0.219330	0.088830
O491	O49	0.699390	0.041750	0.974130
O501	O50	0.743470	0.107730	0.761430
O511	O51	0.915950	0.268110	0.004730
Cd181	Cd18	0.353050	0.390950	0.864350
C691	C69	0.407430	0.422070	0.252870
C701	C70	0.454630	0.459770	0.387470
C711	C71	0.499030	0.511970	0.318170
H181	H18	0.498030	0.519640	0.193390
C721	C72	0.544130	0.552670	0.422170
O521	O52	0.366050	0.375090	0.307470
O531	O53	0.410130	0.441070	0.094770
O541	O54	0.582610	0.601450	0.338070
