data_BAQWIC_clean_PM
_symmetry_space_group_name_H-M	'P1'
_cell_length_a	10.862500
_cell_length_b	14.480300
_cell_length_c	15.307700
_cell_angle_alpha	113.142000
_cell_angle_beta	90.457000
_cell_angle_gamma	107.818000
_symmetry_Int_Tables_number 1

loop_
_symmetry_equiv_pos_as_xyz
'x,y,z'

loop_
_atom_site_label
_atom_site_type_symbol
_atom_site_fract_x
_atom_site_fract_y
_atom_site_fract_z
Ag11	Ag1	0.546700	0.972260	0.610900
Ag21	Ag2	0.084300	0.577110	0.298750
Ag31	Ag3	0.978500	0.338270	0.047350
Ag41	Ag4	0.027200	0.123210	0.111880
Ag51	Ag5	0.802400	0.198250	0.771720
C11	C1	0.305200	0.760300	0.471500
C21	C2	0.312600	0.694000	0.523600
C31	C3	0.302900	0.588000	0.472500
H11	H1	0.293200	0.560200	0.405800
C41	C4	0.307000	0.522200	0.518000
H21	H2	0.301000	0.451500	0.483100
C51	C5	0.321000	0.567000	0.616000
H31	H3	0.322100	0.524200	0.648200
C61	C6	0.333000	0.673000	0.669100
H41	H4	0.343600	0.700700	0.735800
C71	C7	0.327800	0.734400	0.622700
H51	H5	0.334800	0.805200	0.658200
C81	C8	0.972900	0.281400	0.314600
C91	C9	0.960200	0.213400	0.365500
C101	C10	0.019100	0.254100	0.458300
H61	H6	0.070700	0.325500	0.489000
C111	C11	0.001000	0.188000	0.507200
H71	H7	0.041700	0.215400	0.570200
C121	C12	0.926000	0.082700	0.462800
H81	H8	0.912800	0.039400	0.495800
C131	C13	0.870000	0.041800	0.370000
H91	H9	0.820000	0.969800	0.339600
C141	C14	0.884500	0.106100	0.318100
H101	H10	0.845200	0.077600	0.254700
C151	C15	0.843300	0.013700	0.819200
C161	C16	0.778000	0.929900	0.724000
C171	C17	0.710100	0.827100	0.719000
H111	H11	0.706800	0.815200	0.774500
C181	C18	0.648600	0.744300	0.631000
H121	H12	0.606900	0.676000	0.627100
C191	C19	0.649300	0.763000	0.549400
H131	H13	0.604600	0.708300	0.491000
C201	C20	0.717300	0.864500	0.554700
H141	H14	0.719600	0.876500	0.499200
C211	C21	0.781400	0.947500	0.642000
H151	H15	0.826500	0.014900	0.645000
N11	N1	0.373400	0.864000	0.501900
N21	N2	0.342000	0.891200	0.434500
N31	N3	0.256400	0.808300	0.366600
N41	N4	0.231000	0.724400	0.388700
N51	N5	0.987900	0.386000	0.356500
N61	N6	0.988000	0.416700	0.283600
N71	N7	0.973200	0.334500	0.202600
N81	N8	0.964300	0.248600	0.220200
N91	N9	0.894300	0.999000	0.890200
N101	N10	0.936200	0.095000	0.964400
N111	N11	0.913000	0.166600	0.940500
N121	N12	0.855100	0.117500	0.848800
Ag61	Ag6	0.453300	0.027740	0.389100
Ag71	Ag7	0.915700	0.422890	0.701250
Ag81	Ag8	0.021500	0.661730	0.952650
Ag91	Ag9	0.972800	0.876790	0.888120
Ag101	Ag10	0.197600	0.801750	0.228280
C221	C22	0.694800	0.239700	0.528500
C231	C23	0.687400	0.306000	0.476400
C241	C24	0.697100	0.412000	0.527500
H161	H16	0.706800	0.439800	0.594200
C251	C25	0.693000	0.477800	0.482000
H171	H17	0.699000	0.548500	0.516900
C261	C26	0.679000	0.433000	0.384000
H181	H18	0.677900	0.475800	0.351800
C271	C27	0.667000	0.327000	0.330900
H191	H19	0.656400	0.299300	0.264200
C281	C28	0.672200	0.265600	0.377300
H201	H20	0.665200	0.194800	0.341800
C291	C29	0.027100	0.718600	0.685400
C301	C30	0.039800	0.786600	0.634500
C311	C31	0.980900	0.745900	0.541700
H211	H21	0.929300	0.674500	0.511000
C321	C32	0.999000	0.812000	0.492800
H221	H22	0.958300	0.784600	0.429800
C331	C33	0.074000	0.917300	0.537200
H231	H23	0.087200	0.960600	0.504200
C341	C34	0.130000	0.958200	0.630000
H241	H24	0.180000	0.030200	0.660400
C351	C35	0.115500	0.893900	0.681900
H251	H25	0.154800	0.922400	0.745300
C361	C36	0.156700	0.986300	0.180800
C371	C37	0.222000	0.070100	0.276000
C381	C38	0.289900	0.172900	0.281000
H261	H26	0.293200	0.184800	0.225500
C391	C39	0.351400	0.255700	0.369000
H271	H27	0.393100	0.324000	0.372900
C401	C40	0.350700	0.237000	0.450600
H281	H28	0.395400	0.291700	0.509000
C411	C41	0.282700	0.135500	0.445300
H291	H29	0.280400	0.123500	0.500800
C421	C42	0.218600	0.052500	0.358000
H301	H30	0.173500	0.985100	0.355000
N131	N13	0.626600	0.136000	0.498100
N141	N14	0.658000	0.108800	0.565500
N151	N15	0.743600	0.191700	0.633400
N161	N16	0.769000	0.275600	0.611300
N171	N17	0.012100	0.614000	0.643500
N181	N18	0.012000	0.583300	0.716400
N191	N19	0.026800	0.665500	0.797400
N201	N20	0.035700	0.751400	0.779800
N211	N21	0.105700	0.001000	0.109800
N221	N22	0.063800	0.905000	0.035600
N231	N23	0.087000	0.833400	0.059500
N241	N24	0.144900	0.882500	0.151200
Ag111	Ag11	0.000000	0.500000	0.500000
