data_BARZAW_clean_PM
_symmetry_space_group_name_H-M	'P1'
_cell_length_a	18.279100
_cell_length_b	18.491400
_cell_length_c	18.491400
_cell_angle_alpha	70.297400
_cell_angle_beta	70.761200
_cell_angle_gamma	109.239000
_symmetry_Int_Tables_number 1

loop_
_symmetry_equiv_pos_as_xyz
'x,y,z'

loop_
_atom_site_label
_atom_site_type_symbol
_atom_site_fract_x
_atom_site_fract_y
_atom_site_fract_z
Zn11	Zn1	0.440180	0.505910	0.074010
Zn21	Zn2	0.514190	0.074010	0.420080
Zn31	Zn3	0.934270	0.420080	0.505910
Zn41	Zn4	0.985810	0.420080	0.074010
Zn51	Zn5	0.565730	0.505910	0.420080
Zn61	Zn6	0.059820	0.074010	0.505910
Zn71	Zn7	0.559820	0.494090	0.925990
Zn81	Zn8	0.485810	0.925990	0.579920
Zn91	Zn9	0.065730	0.579920	0.494090
Zn101	Zn10	0.014190	0.579920	0.925990
Zn111	Zn11	0.434270	0.494090	0.579920
Zn121	Zn12	0.940180	0.925990	0.494090
H11	H1	0.504000	0.372000	0.279100
H21	H2	0.360200	0.225600	0.007000
H31	H3	0.419300	0.705900	0.304300
H41	H4	0.189900	0.599200	0.245900
H51	H5	0.161200	0.518000	0.176700
H61	H6	0.265900	0.480500	0.113400
H71	H7	0.516200	0.658300	0.245000
H81	H8	0.290000	0.671200	0.296300
H91	H9	0.486000	0.578600	0.175500
H101	H10	0.783100	0.279100	0.348900
H111	H11	0.367200	0.007000	0.767400
H121	H12	0.723600	0.304300	0.989800
H131	H13	0.435800	0.245900	0.154900
H141	H14	0.337900	0.176700	0.305300
H151	H15	0.379300	0.113400	0.406100
H161	H16	0.761200	0.245000	0.096700
H171	H17	0.586300	0.296300	0.032500
H181	H18	0.661500	0.175500	0.245900
H191	H19	0.132000	0.348900	0.372000
H201	H20	0.134600	0.767400	0.225600
H211	H21	0.713400	0.989800	0.705900
H221	H22	0.590700	0.154900	0.599200
H231	H23	0.643200	0.305300	0.518000
H241	H24	0.785400	0.406100	0.480500
H251	H25	0.857900	0.096700	0.658300
H261	H26	0.618800	0.032500	0.671200
H271	H27	0.907400	0.245900	0.578600
H281	H28	0.716900	0.348900	0.279100
H291	H29	0.132800	0.767400	0.007000
H301	H30	0.776400	0.989800	0.304300
H311	H31	0.064200	0.154900	0.245900
H321	H32	0.162100	0.305300	0.176700
H331	H33	0.120700	0.406100	0.113400
H341	H34	0.738800	0.096700	0.245000
H351	H35	0.913700	0.032500	0.296300
H361	H36	0.838500	0.245900	0.175500
H371	H37	0.368000	0.372000	0.348900
H381	H38	0.365400	0.225600	0.767400
H391	H39	0.786600	0.705900	0.989800
H401	H40	0.909300	0.599200	0.154900
H411	H41	0.856800	0.518000	0.305300
H421	H42	0.714600	0.480500	0.406100
H431	H43	0.642100	0.658300	0.096700
H441	H44	0.881200	0.671200	0.032500
H451	H45	0.592600	0.578600	0.245900
H461	H46	0.996000	0.279100	0.372000
H471	H47	0.139800	0.007000	0.225600
H481	H48	0.080700	0.304300	0.705900
H491	H49	0.310100	0.245900	0.599200
H501	H50	0.338800	0.176700	0.518000
H511	H51	0.234100	0.113400	0.480500
H521	H52	0.983800	0.245000	0.658300
H531	H53	0.210000	0.296300	0.671200
H541	H54	0.014000	0.175500	0.578600
H551	H55	0.496000	0.628000	0.720900
H561	H56	0.639800	0.774400	0.993000
H571	H57	0.580700	0.294100	0.695700
H581	H58	0.810100	0.400800	0.754100
H591	H59	0.838800	0.482000	0.823300
H601	H60	0.734100	0.519500	0.886600
H611	H61	0.483800	0.341700	0.755000
H621	H62	0.710000	0.328800	0.703700
H631	H63	0.514000	0.421400	0.824500
H641	H64	0.216900	0.720900	0.651100
H651	H65	0.632800	0.993000	0.232600
H661	H66	0.276400	0.695700	0.010200
H671	H67	0.564200	0.754100	0.845100
H681	H68	0.662100	0.823300	0.694700
H691	H69	0.620700	0.886600	0.593900
H701	H70	0.238800	0.755000	0.903300
H711	H71	0.413700	0.703700	0.967500
H721	H72	0.338500	0.824500	0.754100
H731	H73	0.868000	0.651100	0.628000
H741	H74	0.865400	0.232600	0.774400
H751	H75	0.286600	0.010200	0.294100
H761	H76	0.409300	0.845100	0.400800
H771	H77	0.356800	0.694700	0.482000
H781	H78	0.214600	0.593900	0.519500
H791	H79	0.142100	0.903300	0.341700
H801	H80	0.381200	0.967500	0.328800
H811	H81	0.092600	0.754100	0.421400
H821	H82	0.283100	0.651100	0.720900
H831	H83	0.867200	0.232600	0.993000
H841	H84	0.223600	0.010200	0.695700
H851	H85	0.935800	0.845100	0.754100
H861	H86	0.837900	0.694700	0.823300
H871	H87	0.879300	0.593900	0.886600
H881	H88	0.261200	0.903300	0.755000
H891	H89	0.086300	0.967500	0.703700
H901	H90	0.161500	0.754100	0.824500
H911	H91	0.632000	0.628000	0.651100
H921	H92	0.634600	0.774400	0.232600
H931	H93	0.213400	0.294100	0.010200
H941	H94	0.090700	0.400800	0.845100
H951	H95	0.143200	0.482000	0.694700
H961	H96	0.285400	0.519500	0.593900
H971	H97	0.357900	0.341700	0.903300
H981	H98	0.118800	0.328800	0.967500
H991	H99	0.407400	0.421400	0.754100
H1001	H100	0.004000	0.720900	0.628000
H1011	H101	0.860200	0.993000	0.774400
H1021	H102	0.919300	0.695700	0.294100
H1031	H103	0.689900	0.754100	0.400800
H1041	H104	0.661200	0.823300	0.482000
H1051	H105	0.765900	0.886600	0.519500
H1061	H106	0.016200	0.755000	0.341700
H1071	H107	0.790000	0.703700	0.328800
H1081	H108	0.986000	0.824500	0.421400
H1091	H109	0.726500	0.476500	0.047000
H1101	H110	0.571900	0.321900	0.356200
H1111	H111	0.773500	0.047000	0.476500
H1121	H112	0.928100	0.356200	0.321900
H1131	H113	0.250000	0.476500	0.476500
H1141	H114	0.250000	0.321900	0.321900
H1151	H115	0.273500	0.523500	0.953000
H1161	H116	0.428100	0.678100	0.643800
H1171	H117	0.226500	0.953000	0.523500
H1181	H118	0.071900	0.643800	0.678100
H1191	H119	0.750000	0.523500	0.523500
H1201	H120	0.750000	0.678100	0.678100
H1211	H121	0.250000	0.232050	0.232050
H1221	H122	0.250000	0.077600	0.077600
H1231	H123	0.482050	0.232050	0.535900
H1241	H124	0.327600	0.077600	0.844800
H1251	H125	0.017950	0.535900	0.232050
H1261	H126	0.172400	0.844800	0.077600
H1271	H127	0.750000	0.767950	0.767950
H1281	H128	0.750000	0.922400	0.922400
H1291	H129	0.517950	0.767950	0.464100
H1301	H130	0.672400	0.922400	0.155200
H1311	H131	0.982050	0.464100	0.767950
H1321	H132	0.827600	0.155200	0.922400
C11	C1	0.560980	0.451220	0.105630
C21	C2	0.607360	0.425880	0.155590
C31	C3	0.562520	0.382190	0.247560
C41	C4	0.380010	0.340100	0.068820
C51	C5	0.313350	0.244000	0.112070
C61	C6	0.314880	0.197280	0.066730
C71	C7	0.405520	0.672930	0.276280
C81	C8	0.231200	0.582140	0.221280
C91	C9	0.214500	0.535120	0.180110
C101	C10	0.277460	0.512370	0.142930
C111	C11	0.463710	0.644600	0.240210
C121	C12	0.309460	0.605540	0.227460
C131	C13	0.329680	0.653030	0.270840
C141	C14	0.369410	0.578760	0.190090
C151	C15	0.446410	0.597930	0.198550
C161	C16	0.666610	0.105630	0.443150
C171	C17	0.762950	0.155590	0.418530
C181	C18	0.810080	0.247560	0.370250
C191	C19	0.448830	0.068820	0.591080
C201	C20	0.425420	0.112070	0.643930
C211	C21	0.381610	0.066730	0.735990
C221	C22	0.681800	0.276280	0.050790
C231	C23	0.452480	0.221280	0.196580
C241	C24	0.394610	0.180110	0.284770
C251	C25	0.420390	0.142930	0.344700
C261	C26	0.703920	0.240210	0.115190
C271	C27	0.536920	0.227460	0.167000
C281	C28	0.600520	0.270840	0.076130
C291	C29	0.559500	0.190090	0.231150
C301	C30	0.644960	0.198550	0.203520
C311	C31	0.109760	0.443150	0.451220
C321	C32	0.181480	0.418530	0.425880
C331	C33	0.180330	0.370250	0.382190
C341	C34	0.039910	0.591080	0.340100
C351	C35	0.069350	0.643930	0.244000
C361	C36	0.117600	0.735990	0.197280
C371	C37	0.732590	0.050790	0.672930
C381	C38	0.649060	0.196580	0.582140
C391	C39	0.679380	0.284770	0.535120
C401	C40	0.765090	0.344700	0.512370
C411	C41	0.819110	0.115190	0.644600
C421	C42	0.703920	0.167000	0.605540
C431	C43	0.676650	0.076130	0.653030
C441	C44	0.790650	0.231150	0.578760
C451	C45	0.848480	0.203520	0.597930
C461	C46	0.833390	0.443150	0.105630
C471	C47	0.737050	0.418530	0.155590
C481	C48	0.689920	0.370250	0.247560
C491	C49	0.051170	0.591080	0.068820
C501	C50	0.074580	0.643930	0.112070
C511	C51	0.118390	0.735990	0.066730
C521	C52	0.818200	0.050790	0.276280
C531	C53	0.047520	0.196580	0.221280
C541	C54	0.105390	0.284770	0.180110
C551	C55	0.079610	0.344700	0.142930
C561	C56	0.796080	0.115190	0.240210
C571	C57	0.963080	0.167000	0.227460
C581	C58	0.899480	0.076130	0.270840
C591	C59	0.940500	0.231150	0.190090
C601	C60	0.855040	0.203520	0.198550
C611	C61	0.390240	0.451220	0.443150
C621	C62	0.318520	0.425880	0.418530
C631	C63	0.319670	0.382190	0.370250
C641	C64	0.460090	0.340100	0.591080
C651	C65	0.430650	0.244000	0.643930
C661	C66	0.382400	0.197280	0.735990
C671	C67	0.767410	0.672930	0.050790
C681	C68	0.850940	0.582140	0.196580
C691	C69	0.820620	0.535120	0.284770
C701	C70	0.734910	0.512370	0.344700
C711	C71	0.680890	0.644600	0.115190
C721	C72	0.796080	0.605540	0.167000
C731	C73	0.823350	0.653030	0.076130
C741	C74	0.709350	0.578760	0.231150
C751	C75	0.651520	0.597930	0.203520
C761	C76	0.939020	0.105630	0.451220
C771	C77	0.892640	0.155590	0.425880
C781	C78	0.937480	0.247560	0.382190
C791	C79	0.119990	0.068820	0.340100
C801	C80	0.186650	0.112070	0.244000
C811	C81	0.185120	0.066730	0.197280
C821	C82	0.094480	0.276280	0.672930
C831	C83	0.268800	0.221280	0.582140
C841	C84	0.285500	0.180110	0.535120
C851	C85	0.222540	0.142930	0.512370
C861	C86	0.036290	0.240210	0.644600
C871	C87	0.190540	0.227460	0.605540
C881	C88	0.170320	0.270840	0.653030
C891	C89	0.130590	0.190090	0.578760
C901	C90	0.053590	0.198550	0.597930
C911	C91	0.439020	0.548780	0.894370
C921	C92	0.392640	0.574120	0.844410
C931	C93	0.437480	0.617810	0.752440
C941	C94	0.619990	0.659900	0.931180
C951	C95	0.686650	0.756000	0.887930
C961	C96	0.685120	0.802720	0.933270
C971	C97	0.594480	0.327070	0.723720
C981	C98	0.768800	0.417860	0.778720
C991	C99	0.785500	0.464880	0.819890
C1001	C100	0.722540	0.487630	0.857070
C1011	C101	0.536290	0.355400	0.759790
C1021	C102	0.690540	0.394460	0.772540
C1031	C103	0.670320	0.346970	0.729160
C1041	C104	0.630590	0.421240	0.809910
C1051	C105	0.553590	0.402070	0.801450
C1061	C106	0.333390	0.894370	0.556850
C1071	C107	0.237050	0.844410	0.581470
C1081	C108	0.189920	0.752440	0.629750
C1091	C109	0.551170	0.931180	0.408920
C1101	C110	0.574580	0.887930	0.356070
C1111	C111	0.618390	0.933270	0.264010
C1121	C112	0.318200	0.723720	0.949210
C1131	C113	0.547520	0.778720	0.803420
C1141	C114	0.605390	0.819890	0.715230
C1151	C115	0.579610	0.857070	0.655300
C1161	C116	0.296080	0.759790	0.884810
C1171	C117	0.463080	0.772540	0.833000
C1181	C118	0.399480	0.729160	0.923870
C1191	C119	0.440500	0.809910	0.768850
C1201	C120	0.355040	0.801450	0.796480
C1211	C121	0.890240	0.556850	0.548780
C1221	C122	0.818520	0.581470	0.574120
C1231	C123	0.819670	0.629750	0.617810
C1241	C124	0.960090	0.408920	0.659900
C1251	C125	0.930650	0.356070	0.756000
C1261	C126	0.882400	0.264010	0.802720
C1271	C127	0.267410	0.949210	0.327070
C1281	C128	0.350940	0.803420	0.417860
C1291	C129	0.320620	0.715230	0.464880
C1301	C130	0.234910	0.655300	0.487630
C1311	C131	0.180890	0.884810	0.355400
C1321	C132	0.296080	0.833000	0.394460
C1331	C133	0.323350	0.923870	0.346970
C1341	C134	0.209350	0.768850	0.421240
C1351	C135	0.151520	0.796480	0.402070
C1361	C136	0.166610	0.556850	0.894370
C1371	C137	0.262950	0.581470	0.844410
C1381	C138	0.310080	0.629750	0.752440
C1391	C139	0.948830	0.408920	0.931180
C1401	C140	0.925420	0.356070	0.887930
C1411	C141	0.881610	0.264010	0.933270
C1421	C142	0.181800	0.949210	0.723720
C1431	C143	0.952480	0.803420	0.778720
C1441	C144	0.894610	0.715230	0.819890
C1451	C145	0.920390	0.655300	0.857070
C1461	C146	0.203920	0.884810	0.759790
C1471	C147	0.036920	0.833000	0.772540
C1481	C148	0.100520	0.923870	0.729160
C1491	C149	0.059500	0.768850	0.809910
C1501	C150	0.144960	0.796480	0.801450
C1511	C151	0.609760	0.548780	0.556850
C1521	C152	0.681480	0.574120	0.581470
C1531	C153	0.680330	0.617810	0.629750
C1541	C154	0.539910	0.659900	0.408920
C1551	C155	0.569350	0.756000	0.356070
C1561	C156	0.617600	0.802720	0.264010
C1571	C157	0.232590	0.327070	0.949210
C1581	C158	0.149060	0.417860	0.803420
C1591	C159	0.179380	0.464880	0.715230
C1601	C160	0.265090	0.487630	0.655300
C1611	C161	0.319110	0.355400	0.884810
C1621	C162	0.203920	0.394460	0.833000
C1631	C163	0.176650	0.346970	0.923870
C1641	C164	0.290650	0.421240	0.768850
C1651	C165	0.348480	0.402070	0.796480
C1661	C166	0.060980	0.894370	0.548780
C1671	C167	0.107360	0.844410	0.574120
C1681	C168	0.062520	0.752440	0.617810
C1691	C169	0.880010	0.931180	0.659900
C1701	C170	0.813350	0.887930	0.756000
C1711	C171	0.814880	0.933270	0.802720
C1721	C172	0.905520	0.723720	0.327070
C1731	C173	0.731200	0.778720	0.417860
C1741	C174	0.714500	0.819890	0.464880
C1751	C175	0.777460	0.857070	0.487630
C1761	C176	0.963710	0.759790	0.355400
C1771	C177	0.809460	0.772540	0.394460
C1781	C178	0.829680	0.729160	0.346970
C1791	C179	0.869410	0.809910	0.421240
C1801	C180	0.946410	0.801450	0.402070
C1811	C181	0.695130	0.445130	0.109740
C1821	C182	0.603330	0.353330	0.293340
C1831	C183	0.804870	0.109740	0.445130
C1841	C184	0.896670	0.293340	0.353330
C1851	C185	0.250000	0.445130	0.445130
C1861	C186	0.250000	0.353330	0.353330
C1871	C187	0.304870	0.554870	0.890260
C1881	C188	0.396670	0.646670	0.706660
C1891	C189	0.195130	0.890260	0.554870
C1901	C190	0.103330	0.706660	0.646670
C1911	C191	0.750000	0.554870	0.554870
C1921	C192	0.750000	0.646670	0.646670
C1931	C193	0.250000	0.200650	0.200650
C1941	C194	0.250000	0.109010	0.109010
C1951	C195	0.450650	0.200650	0.598700
C1961	C196	0.359010	0.109010	0.781980
C1971	C197	0.049350	0.598700	0.200650
C1981	C198	0.140990	0.781980	0.109010
C1991	C199	0.750000	0.799350	0.799350
C2001	C200	0.750000	0.890990	0.890990
C2011	C201	0.549350	0.799350	0.401300
C2021	C202	0.640990	0.890990	0.218020
C2031	C203	0.950650	0.401300	0.799350
C2041	C204	0.859010	0.218020	0.890990
N11	N1	0.352300	0.532920	0.146800
N21	N2	0.499100	0.146800	0.320280
N31	N3	0.819380	0.320280	0.532920
N41	N4	0.000900	0.320280	0.146800
N51	N5	0.680620	0.532920	0.320280
N61	N6	0.147700	0.146800	0.532920
N71	N7	0.647700	0.467080	0.853200
N81	N8	0.500900	0.853200	0.679720
N91	N9	0.180620	0.679720	0.467080
N101	N10	0.999100	0.679720	0.853200
N111	N11	0.319380	0.467080	0.679720
N121	N12	0.852300	0.853200	0.467080
O11	O1	0.496870	0.461050	0.143660
O21	O2	0.360980	0.379840	0.108680
O31	O3	0.589320	0.460290	0.029470
O41	O4	0.449880	0.372090	0.997490
O51	O5	0.640530	0.143660	0.395290
O61	O6	0.469660	0.108680	0.511480
O71	O7	0.618790	0.029470	0.510240
O81	O8	0.447370	0.997490	0.630420
O91	O9	0.035820	0.395290	0.461050
O101	O10	0.981140	0.511480	0.379840
O111	O11	0.129030	0.510240	0.460290
O121	O12	0.077790	0.630420	0.372090
O131	O13	0.859470	0.395290	0.143660
O141	O14	0.030340	0.511480	0.108680
O151	O15	0.881210	0.510240	0.029470
O161	O16	0.052630	0.630420	0.997490
O171	O17	0.464180	0.461050	0.395290
O181	O18	0.518860	0.379840	0.511480
O191	O19	0.370970	0.460290	0.510240
O201	O20	0.422210	0.372090	0.630420
O211	O21	0.003130	0.143660	0.461050
O221	O22	0.139020	0.108680	0.379840
O231	O23	0.910680	0.029470	0.460290
O241	O24	0.050120	0.997490	0.372090
O251	O25	0.503130	0.538950	0.856340
O261	O26	0.639020	0.620160	0.891320
O271	O27	0.410680	0.539710	0.970530
O281	O28	0.550120	0.627910	0.002510
O291	O29	0.359470	0.856340	0.604710
O301	O30	0.530340	0.891320	0.488520
O311	O31	0.381210	0.970530	0.489760
O321	O32	0.552630	0.002510	0.369580
O331	O33	0.964180	0.604710	0.538950
O341	O34	0.018860	0.488520	0.620160
O351	O35	0.870970	0.489760	0.539710
O361	O36	0.922210	0.369580	0.627910
O371	O37	0.140530	0.604710	0.856340
O381	O38	0.969660	0.488520	0.891320
O391	O39	0.118790	0.489760	0.970530
O401	O40	0.947370	0.369580	0.002510
O411	O41	0.535820	0.538950	0.604710
O421	O42	0.481140	0.620160	0.488520
O431	O43	0.629030	0.539710	0.489760
O441	O44	0.577790	0.627910	0.369580
O451	O45	0.996870	0.856340	0.538950
O461	O46	0.860980	0.891320	0.620160
O471	O47	0.089320	0.970530	0.539710
O481	O48	0.949880	0.002510	0.627910
