data_BARZOL_charged_PM
_symmetry_space_group_name_H-M	'P1'
_cell_length_a	18.797000
_cell_length_b	18.883000
_cell_length_c	31.934000
_cell_angle_alpha	90.000000
_cell_angle_beta	90.690000
_cell_angle_gamma	90.000000
_symmetry_Int_Tables_number 1

loop_
_symmetry_equiv_pos_as_xyz
'x,y,z'

loop_
_atom_site_label
_atom_site_type_symbol
_atom_site_fract_x
_atom_site_fract_y
_atom_site_fract_z
Ag11	Ag1	0.463840	0.175870	0.374960
Ag21	Ag2	0.964760	0.213290	0.475900
Ag31	Ag3	0.566810	0.282340	0.673700
Ag41	Ag4	0.796510	0.042700	0.295160
Ag51	Ag5	0.036160	0.675870	0.125040
Ag61	Ag6	0.535240	0.713290	0.024100
Ag71	Ag7	0.933190	0.782340	0.826300
Ag81	Ag8	0.703490	0.542700	0.204840
Ag91	Ag9	0.536160	0.824130	0.625040
Ag101	Ag10	0.035240	0.786710	0.524100
Ag111	Ag11	0.433190	0.717660	0.326300
Ag121	Ag12	0.203490	0.957300	0.704840
Ag131	Ag13	0.963840	0.324130	0.874960
Ag141	Ag14	0.464760	0.286710	0.975900
Ag151	Ag15	0.066810	0.217660	0.173700
Ag161	Ag16	0.296510	0.457300	0.795160
H11	H1	0.524100	0.355100	0.593500
H21	H2	0.524300	0.152500	0.613400
H31	H3	0.451700	0.007200	0.555200
H41	H4	0.520700	0.043300	0.573100
H51	H5	0.448300	0.052300	0.596300
H61	H6	0.496800	0.118600	0.467700
H71	H7	0.313700	0.100500	0.410800
H81	H8	0.154300	0.031600	0.502700
H91	H9	0.223700	0.986500	0.497700
H101	H10	0.219500	0.044200	0.532900
H111	H11	0.092700	0.107500	0.476200
H121	H12	0.094200	0.311100	0.454100
H131	H13	0.153800	0.397000	0.464500
H141	H14	0.221200	0.405400	0.493500
H151	H15	0.222100	0.434400	0.447500
H161	H16	0.315400	0.276200	0.392000
H171	H17	0.499800	0.303800	0.448300
H181	H18	0.499500	0.430800	0.552400
H191	H19	0.496500	0.445600	0.504100
H201	H20	0.427400	0.452600	0.530900
H211	H21	0.585800	0.285900	0.380300
H221	H22	0.604300	0.081900	0.385300
H231	H23	0.754900	0.967600	0.388600
H241	H24	0.687500	0.991200	0.413500
H251	H25	0.686600	0.993800	0.364500
H261	H26	0.826700	0.117700	0.451600
H271	H27	0.006500	0.122500	0.390000
H281	H28	0.968500	0.975600	0.321200
H291	H29	0.972800	0.003000	0.275000
H301	H30	0.037600	0.013400	0.305700
H311	H31	0.022700	0.101400	0.245000
H321	H32	0.005200	0.307800	0.240100
H331	H33	0.911700	0.425900	0.306800
H341	H34	0.969900	0.404900	0.274400
H351	H35	0.891000	0.379800	0.267700
H361	H36	0.990000	0.294600	0.386800
H371	H37	0.811900	0.292200	0.446700
H381	H38	0.635600	0.373300	0.371000
H391	H39	0.699700	0.420200	0.386100
H401	H40	0.699500	0.387400	0.341000
H411	H41	0.370800	0.380700	0.039400
H421	H42	0.394900	0.173200	0.028700
H431	H43	0.385700	0.085300	0.053800
H441	H44	0.393200	0.058300	0.100100
H451	H45	0.328300	0.034300	0.072300
H461	H46	0.185600	0.168300	0.106200
H471	H47	0.172000	0.111800	0.222500
H481	H48	0.293200	0.983900	0.229300
H491	H49	0.363600	0.003300	0.253500
H501	H50	0.290400	0.006500	0.276500
H511	H51	0.377800	0.089900	0.310800
H521	H52	0.388100	0.296100	0.321800
H531	H53	0.388900	0.383800	0.287700
H541	H54	0.395200	0.401100	0.239900
H551	H55	0.333100	0.433800	0.265900
H561	H56	0.189300	0.281900	0.239500
H571	H57	0.161400	0.340200	0.123000
H581	H58	0.290600	0.484200	0.118700
H591	H59	0.365800	0.453600	0.108100
H601	H60	0.309200	0.465300	0.072300
H611	H61	0.689700	0.914800	0.305700
H621	H62	0.870600	0.914100	0.247300
H631	H63	0.947200	0.856000	0.226800
H641	H64	0.978200	0.795200	0.255000
H651	H65	0.971800	0.784800	0.206400
H661	H66	0.798900	0.686300	0.197500
H671	H67	0.847300	0.517800	0.260500
H681	H68	0.036200	0.595900	0.285600
H691	H69	0.030600	0.616000	0.333100
H701	H70	0.042900	0.537000	0.320000
H711	H71	0.986700	0.502900	0.378000
H721	H72	0.804400	0.489800	0.436200
H731	H73	0.642500	0.590600	0.413900
H741	H74	0.691700	0.532200	0.433700
H751	H75	0.715400	0.611800	0.434600
H761	H76	0.697500	0.515500	0.304300
H771	H77	0.651200	0.691000	0.246600
H781	H78	0.625000	0.860700	0.338600
H791	H79	0.578500	0.792000	0.342100
H801	H80	0.647800	0.800100	0.369500
H811	H81	0.975900	0.855100	0.906500
H821	H82	0.975700	0.652500	0.886600
H831	H83	0.048300	0.507200	0.944800
H841	H84	0.979300	0.543300	0.926900
H851	H85	0.051700	0.552300	0.903700
H861	H86	0.003200	0.618600	0.032300
H871	H87	0.186300	0.600500	0.089200
H881	H88	0.345700	0.531600	0.997300
H891	H89	0.276300	0.486500	0.002300
H901	H90	0.280500	0.544200	0.967100
H911	H91	0.407300	0.607500	0.023800
H921	H92	0.405800	0.811100	0.045900
H931	H93	0.346200	0.897000	0.035500
H941	H94	0.278800	0.905400	0.006500
H951	H95	0.277900	0.934400	0.052500
H961	H96	0.184600	0.776200	0.108000
H971	H97	0.000200	0.803800	0.051700
H981	H98	0.000500	0.930800	0.947600
H991	H99	0.003500	0.945600	0.995900
H1001	H100	0.072600	0.952600	0.969100
H1011	H101	0.914200	0.785900	0.119700
H1021	H102	0.895700	0.581900	0.114700
H1031	H103	0.745100	0.467600	0.111400
H1041	H104	0.812500	0.491200	0.086500
H1051	H105	0.813400	0.493800	0.135500
H1061	H106	0.673300	0.617700	0.048400
H1071	H107	0.493500	0.622500	0.110000
H1081	H108	0.531500	0.475600	0.178800
H1091	H109	0.527200	0.503000	0.225000
H1101	H110	0.462400	0.513400	0.194300
H1111	H111	0.477300	0.601400	0.255000
H1121	H112	0.494800	0.807800	0.259900
H1131	H113	0.588300	0.925900	0.193200
H1141	H114	0.530100	0.904900	0.225600
H1151	H115	0.609000	0.879800	0.232300
H1161	H116	0.510000	0.794600	0.113200
H1171	H117	0.688100	0.792200	0.053300
H1181	H118	0.864400	0.873300	0.129000
H1191	H119	0.800300	0.920200	0.113900
H1201	H120	0.800500	0.887400	0.159000
H1211	H121	0.129200	0.880700	0.460600
H1221	H122	0.105100	0.673200	0.471300
H1231	H123	0.114300	0.585300	0.446200
H1241	H124	0.106800	0.558300	0.399900
H1251	H125	0.171700	0.534300	0.427700
H1261	H126	0.314400	0.668300	0.393800
H1271	H127	0.328000	0.611800	0.277500
H1281	H128	0.206800	0.483900	0.270700
H1291	H129	0.136400	0.503300	0.246500
H1301	H130	0.209600	0.506500	0.223500
H1311	H131	0.122200	0.589900	0.189200
H1321	H132	0.111900	0.796100	0.178200
H1331	H133	0.111100	0.883800	0.212300
H1341	H134	0.104800	0.901100	0.260100
H1351	H135	0.166900	0.933800	0.234100
H1361	H136	0.310700	0.781900	0.260500
H1371	H137	0.338600	0.840200	0.377000
H1381	H138	0.209400	0.984200	0.381300
H1391	H139	0.134200	0.953600	0.391900
H1401	H140	0.190800	0.965300	0.427700
H1411	H141	0.810300	0.414800	0.194300
H1421	H142	0.629400	0.414100	0.252700
H1431	H143	0.552800	0.356000	0.273200
H1441	H144	0.521800	0.295200	0.245000
H1451	H145	0.528200	0.284800	0.293600
H1461	H146	0.701100	0.186300	0.302500
H1471	H147	0.652700	0.017800	0.239500
H1481	H148	0.463800	0.095900	0.214400
H1491	H149	0.469400	0.116000	0.166900
H1501	H150	0.457100	0.037000	0.180000
H1511	H151	0.513300	0.002900	0.122000
H1521	H152	0.695600	0.989800	0.063800
H1531	H153	0.857500	0.090600	0.086100
H1541	H154	0.808300	0.032200	0.066300
H1551	H155	0.784600	0.111800	0.065400
H1561	H156	0.802500	0.015500	0.195700
H1571	H157	0.848800	0.191000	0.253400
H1581	H158	0.875000	0.360700	0.161400
H1591	H159	0.921500	0.292000	0.157900
H1601	H160	0.852200	0.300100	0.130500
H1611	H161	0.475900	0.644900	0.406500
H1621	H162	0.475700	0.847500	0.386600
H1631	H163	0.548300	0.992800	0.444800
H1641	H164	0.479300	0.956700	0.426900
H1651	H165	0.551700	0.947700	0.403700
H1661	H166	0.503200	0.881400	0.532300
H1671	H167	0.686300	0.899500	0.589200
H1681	H168	0.845700	0.968400	0.497300
H1691	H169	0.776300	0.013500	0.502300
H1701	H170	0.780500	0.955800	0.467100
H1711	H171	0.907300	0.892500	0.523800
H1721	H172	0.905800	0.688900	0.545900
H1731	H173	0.846200	0.603000	0.535500
H1741	H174	0.778800	0.594600	0.506500
H1751	H175	0.777900	0.565600	0.552500
H1761	H176	0.684600	0.723800	0.608000
H1771	H177	0.500200	0.696200	0.551700
H1781	H178	0.500500	0.569200	0.447600
H1791	H179	0.503500	0.554400	0.495900
H1801	H180	0.572600	0.547400	0.469100
H1811	H181	0.414200	0.714100	0.619700
H1821	H182	0.395700	0.918100	0.614700
H1831	H183	0.245100	0.032400	0.611400
H1841	H184	0.312500	0.008800	0.586500
H1851	H185	0.313400	0.006200	0.635500
H1861	H186	0.173300	0.882300	0.548400
H1871	H187	0.993500	0.877500	0.610000
H1881	H188	0.031500	0.024400	0.678800
H1891	H189	0.027200	0.997000	0.725000
H1901	H190	0.962400	0.986600	0.694300
H1911	H191	0.977300	0.898600	0.755000
H1921	H192	0.994800	0.692200	0.759900
H1931	H193	0.088300	0.574100	0.693200
H1941	H194	0.030100	0.595100	0.725600
H1951	H195	0.109000	0.620200	0.732300
H1961	H196	0.010000	0.705400	0.613200
H1971	H197	0.188100	0.707800	0.553300
H1981	H198	0.364400	0.626700	0.629000
H1991	H199	0.300300	0.579800	0.613900
H2001	H200	0.300500	0.612600	0.659000
H2011	H201	0.629200	0.619300	0.960600
H2021	H202	0.605100	0.826800	0.971300
H2031	H203	0.614300	0.914700	0.946200
H2041	H204	0.606800	0.941700	0.899900
H2051	H205	0.671700	0.965700	0.927700
H2061	H206	0.814400	0.831700	0.893800
H2071	H207	0.828000	0.888200	0.777500
H2081	H208	0.706800	0.016100	0.770700
H2091	H209	0.636400	0.996700	0.746500
H2101	H210	0.709600	0.993500	0.723500
H2111	H211	0.622200	0.910100	0.689200
H2121	H212	0.611900	0.703900	0.678200
H2131	H213	0.611100	0.616200	0.712300
H2141	H214	0.604800	0.598900	0.760100
H2151	H215	0.666900	0.566200	0.734100
H2161	H216	0.810700	0.718100	0.760500
H2171	H217	0.838600	0.659800	0.877000
H2181	H218	0.709400	0.515800	0.881300
H2191	H219	0.634200	0.546400	0.891900
H2201	H220	0.690800	0.534700	0.927700
H2211	H221	0.310300	0.085200	0.694300
H2221	H222	0.129400	0.085900	0.752700
H2231	H223	0.052800	0.144000	0.773200
H2241	H224	0.021800	0.204800	0.745000
H2251	H225	0.028200	0.215200	0.793600
H2261	H226	0.201100	0.313700	0.802500
H2271	H227	0.152700	0.482200	0.739500
H2281	H228	0.963800	0.404100	0.714400
H2291	H229	0.969400	0.384000	0.666900
H2301	H230	0.957100	0.463000	0.680000
H2311	H231	0.013300	0.497100	0.622000
H2321	H232	0.195600	0.510200	0.563800
H2331	H233	0.357500	0.409400	0.586100
H2341	H234	0.308300	0.467800	0.566300
H2351	H235	0.284600	0.388200	0.565400
H2361	H236	0.302500	0.484500	0.695700
H2371	H237	0.348800	0.309000	0.753400
H2381	H238	0.375000	0.139300	0.661400
H2391	H239	0.421500	0.208000	0.657900
H2401	H240	0.352200	0.199900	0.630500
H2411	H241	0.024100	0.144900	0.093500
H2421	H242	0.024300	0.347500	0.113400
H2431	H243	0.951700	0.492800	0.055200
H2441	H244	0.020700	0.456700	0.073100
H2451	H245	0.948300	0.447700	0.096300
H2461	H246	0.996800	0.381400	0.967700
H2471	H247	0.813700	0.399500	0.910800
H2481	H248	0.654300	0.468400	0.002700
H2491	H249	0.723700	0.513500	0.997700
H2501	H250	0.719500	0.455800	0.032900
H2511	H251	0.592700	0.392500	0.976200
H2521	H252	0.594200	0.188900	0.954100
H2531	H253	0.653800	0.103000	0.964500
H2541	H254	0.721200	0.094600	0.993500
H2551	H255	0.722100	0.065600	0.947500
H2561	H256	0.815400	0.223800	0.892000
H2571	H257	0.999800	0.196200	0.948300
H2581	H258	0.999500	0.069200	0.052400
H2591	H259	0.996500	0.054400	0.004100
H2601	H260	0.927400	0.047400	0.030900
H2611	H261	0.085800	0.214100	0.880300
H2621	H262	0.104300	0.418100	0.885300
H2631	H263	0.254900	0.532400	0.888600
H2641	H264	0.187500	0.508800	0.913500
H2651	H265	0.186600	0.506200	0.864500
H2661	H266	0.326700	0.382300	0.951600
H2671	H267	0.506500	0.377500	0.890000
H2681	H268	0.468500	0.524400	0.821200
H2691	H269	0.472800	0.497000	0.775000
H2701	H270	0.537600	0.486600	0.805700
H2711	H271	0.522700	0.398600	0.745000
H2721	H272	0.505200	0.192200	0.740100
H2731	H273	0.411700	0.074100	0.806800
H2741	H274	0.469900	0.095100	0.774400
H2751	H275	0.391000	0.120200	0.767700
H2761	H276	0.490000	0.205400	0.886800
H2771	H277	0.311900	0.207800	0.946700
H2781	H278	0.135600	0.126700	0.871000
H2791	H279	0.199700	0.079800	0.886100
H2801	H280	0.199500	0.112600	0.841000
H2811	H281	0.870800	0.119300	0.539400
H2821	H282	0.894900	0.326800	0.528700
H2831	H283	0.885700	0.414700	0.553800
H2841	H284	0.893200	0.441700	0.600100
H2851	H285	0.828300	0.465700	0.572300
H2861	H286	0.685600	0.331700	0.606200
H2871	H287	0.672000	0.388200	0.722500
H2881	H288	0.793200	0.516100	0.729300
H2891	H289	0.863600	0.496700	0.753500
H2901	H290	0.790400	0.493500	0.776500
H2911	H291	0.877800	0.410100	0.810800
H2921	H292	0.888100	0.203900	0.821800
H2931	H293	0.888900	0.116200	0.787700
H2941	H294	0.895200	0.098900	0.739900
H2951	H295	0.833100	0.066200	0.765900
H2961	H296	0.689300	0.218100	0.739500
H2971	H297	0.661400	0.159800	0.623000
H2981	H298	0.790600	0.015800	0.618700
H2991	H299	0.865800	0.046400	0.608100
H3001	H300	0.809200	0.034700	0.572300
H3011	H301	0.189700	0.585200	0.805700
H3021	H302	0.370600	0.585900	0.747300
H3031	H303	0.447200	0.644000	0.726800
H3041	H304	0.478200	0.704800	0.755000
H3051	H305	0.471800	0.715200	0.706400
H3061	H306	0.298900	0.813700	0.697500
H3071	H307	0.347300	0.982200	0.760500
H3081	H308	0.536200	0.904100	0.785600
H3091	H309	0.530600	0.884000	0.833100
H3101	H310	0.542900	0.963000	0.820000
H3111	H311	0.486700	0.997100	0.878000
H3121	H312	0.304400	0.010200	0.936200
H3131	H313	0.142500	0.909400	0.913900
H3141	H314	0.191700	0.967800	0.933700
H3151	H315	0.215400	0.888200	0.934600
H3161	H316	0.197500	0.984500	0.804300
H3171	H317	0.151200	0.809000	0.746600
H3181	H318	0.125000	0.639300	0.838600
H3191	H319	0.078500	0.708000	0.842100
H3201	H320	0.147800	0.699900	0.869500
C11	C1	0.475400	0.300000	0.545400
C21	C2	0.512400	0.309800	0.584400
C31	C3	0.513000	0.190400	0.596000
C41	C4	0.477800	0.178800	0.557400
C51	C5	0.470200	0.048100	0.569400
C61	C6	0.415300	0.104900	0.506600
C71	C7	0.447600	0.113700	0.468200
C81	C8	0.341400	0.103100	0.435100
C91	C9	0.309600	0.094100	0.472500
C101	C10	0.205300	0.032300	0.504700
C111	C11	0.191800	0.147000	0.467800
C121	C12	0.117600	0.148900	0.470800
C131	C13	0.118600	0.268800	0.458300
C141	C14	0.195600	0.268600	0.456500
C151	C15	0.204900	0.397300	0.465300
C161	C16	0.308800	0.322000	0.449800
C171	C17	0.342600	0.290800	0.414900
C181	C18	0.450400	0.306200	0.448200
C191	C19	0.413400	0.335700	0.483800
C201	C20	0.470900	0.426700	0.527400
C211	C21	0.687800	0.252000	0.386800
C221	C22	0.613500	0.245400	0.383200
C231	C23	0.625600	0.126400	0.386200
C241	C24	0.697900	0.130600	0.390000
C251	C25	0.715600	0.000100	0.389200
C261	C26	0.815000	0.086100	0.390000
C271	C27	0.852400	0.109500	0.427400
C281	C28	0.958200	0.112100	0.391200
C291	C29	0.921100	0.088400	0.353800
C301	C30	0.986600	0.012300	0.303500
C311	C31	0.975700	0.145200	0.295100
C321	C32	0.008800	0.144300	0.256600
C331	C33	0.998400	0.265200	0.254100
C341	C34	0.965600	0.263900	0.293000
C351	C35	0.927600	0.389500	0.288200
C361	C36	0.903000	0.316800	0.351200
C371	C37	0.940700	0.299000	0.387200
C381	C38	0.836300	0.297600	0.421800
C391	C39	0.799100	0.314800	0.386100
C401	C40	0.686100	0.379800	0.369600
C411	C41	0.318900	0.322200	0.085000
C421	C42	0.361500	0.334800	0.048400
C431	C43	0.375000	0.212100	0.042100
C441	C44	0.331900	0.202700	0.077200
C451	C45	0.360200	0.072700	0.078600
C461	C46	0.275900	0.128300	0.129500
C471	C47	0.205800	0.148500	0.130200
C481	C48	0.198700	0.117700	0.198400
C491	C49	0.267600	0.102200	0.200600
C501	C50	0.313900	0.014100	0.250400
C511	C51	0.329100	0.142100	0.260500
C521	C52	0.368700	0.134600	0.299700
C531	C53	0.374300	0.256500	0.306400
C541	C54	0.333900	0.263700	0.268400
C551	C55	0.362600	0.392800	0.262300
C561	C56	0.273900	0.332700	0.216300
C571	C57	0.205500	0.304000	0.215400
C581	C58	0.190400	0.336200	0.146600
C591	C59	0.259600	0.359700	0.145500
C601	C60	0.316000	0.452000	0.101100
C611	C61	0.724000	0.817100	0.290800
C621	C62	0.726100	0.890200	0.292700
C631	C63	0.831700	0.890000	0.258000
C641	C64	0.828100	0.815100	0.254800
C651	C65	0.950100	0.805700	0.230500
C661	C66	0.874600	0.702200	0.240400
C671	C67	0.826600	0.663500	0.217800
C681	C68	0.854600	0.565300	0.254000
C691	C69	0.905000	0.603800	0.277200
C701	C70	0.019700	0.580500	0.312500
C711	C71	0.904500	0.547500	0.346800
C721	C72	0.938300	0.512900	0.379100
C731	C73	0.831100	0.505800	0.413700
C741	C74	0.795700	0.545400	0.379000
C751	C75	0.690900	0.576200	0.418600
C761	C76	0.702300	0.600900	0.342600
C771	C77	0.691900	0.564400	0.304700
C781	C78	0.665400	0.666900	0.270700
C791	C79	0.677000	0.702700	0.307600
C801	C80	0.626200	0.810300	0.342800
C811	C81	0.024600	0.800000	0.954600
C821	C82	0.987600	0.809800	0.915600
C831	C83	0.987000	0.690400	0.904000
C841	C84	0.022200	0.678800	0.942600
C851	C85	0.029800	0.548100	0.930600
C861	C86	0.084700	0.604900	0.993400
C871	C87	0.052400	0.613700	0.031800
C881	C88	0.158600	0.603100	0.064900
C891	C89	0.190400	0.594100	0.027500
C901	C90	0.294700	0.532300	0.995300
C911	C91	0.308200	0.647000	0.032200
C921	C92	0.382400	0.648900	0.029200
C931	C93	0.381400	0.768800	0.041700
C941	C94	0.304400	0.768600	0.043500
C951	C95	0.295100	0.897300	0.034700
C961	C96	0.191200	0.822000	0.050200
C971	C97	0.157400	0.790800	0.085100
C981	C98	0.049600	0.806200	0.051800
C991	C99	0.086600	0.835700	0.016200
C1001	C100	0.029100	0.926700	0.972600
C1011	C101	0.812200	0.752000	0.113200
C1021	C102	0.886500	0.745400	0.116800
C1031	C103	0.874400	0.626400	0.113800
C1041	C104	0.802100	0.630600	0.110000
C1051	C105	0.784400	0.500100	0.110800
C1061	C106	0.685000	0.586100	0.110000
C1071	C107	0.647600	0.609500	0.072600
C1081	C108	0.541800	0.612100	0.108800
C1091	C109	0.578900	0.588400	0.146200
C1101	C110	0.513400	0.512300	0.196500
C1111	C111	0.524300	0.645200	0.204900
C1121	C112	0.491200	0.644300	0.243400
C1131	C113	0.501600	0.765200	0.245900
C1141	C114	0.534400	0.763900	0.207000
C1151	C115	0.572400	0.889500	0.211800
C1161	C116	0.597000	0.816800	0.148800
C1171	C117	0.559300	0.799000	0.112800
C1181	C118	0.663700	0.797600	0.078200
C1191	C119	0.700900	0.814800	0.113900
C1201	C120	0.813900	0.879800	0.130400
C1211	C121	0.181100	0.822200	0.415000
C1221	C122	0.138500	0.834800	0.451600
C1231	C123	0.125000	0.712100	0.457900
C1241	C124	0.168100	0.702700	0.422800
C1251	C125	0.139800	0.572700	0.421400
C1261	C126	0.224100	0.628300	0.370500
C1271	C127	0.294200	0.648500	0.369800
C1281	C128	0.301300	0.617700	0.301600
C1291	C129	0.232400	0.602200	0.299400
C1301	C130	0.186100	0.514100	0.249600
C1311	C131	0.170900	0.642100	0.239500
C1321	C132	0.131300	0.634600	0.200300
C1331	C133	0.125700	0.756500	0.193600
C1341	C134	0.166100	0.763700	0.231600
C1351	C135	0.137400	0.892800	0.237700
C1361	C136	0.226100	0.832700	0.283700
C1371	C137	0.294500	0.804000	0.284600
C1381	C138	0.309600	0.836200	0.353400
C1391	C139	0.240400	0.859700	0.354500
C1401	C140	0.184000	0.952000	0.398900
C1411	C141	0.776000	0.317100	0.209200
C1421	C142	0.773900	0.390200	0.207300
C1431	C143	0.668300	0.390000	0.242000
C1441	C144	0.671900	0.315100	0.245200
C1451	C145	0.549900	0.305700	0.269500
C1461	C146	0.625400	0.202200	0.259600
C1471	C147	0.673400	0.163500	0.282200
C1481	C148	0.645400	0.065300	0.246000
C1491	C149	0.595000	0.103800	0.222800
C1501	C150	0.480300	0.080500	0.187500
C1511	C151	0.595500	0.047500	0.153200
C1521	C152	0.561700	0.012900	0.120900
C1531	C153	0.668900	0.005800	0.086300
C1541	C154	0.704300	0.045400	0.121000
C1551	C155	0.809100	0.076200	0.081400
C1561	C156	0.797700	0.100900	0.157400
C1571	C157	0.808100	0.064400	0.195300
C1581	C158	0.834600	0.166900	0.229300
C1591	C159	0.823000	0.202700	0.192400
C1601	C160	0.873800	0.310300	0.157200
C1611	C161	0.524600	0.700000	0.454600
C1621	C162	0.487600	0.690200	0.415600
C1631	C163	0.487000	0.809600	0.404000
C1641	C164	0.522200	0.821200	0.442600
C1651	C165	0.529800	0.951900	0.430600
C1661	C166	0.584700	0.895100	0.493400
C1671	C167	0.552400	0.886300	0.531800
C1681	C168	0.658600	0.896900	0.564900
C1691	C169	0.690400	0.905900	0.527500
C1701	C170	0.794700	0.967700	0.495300
C1711	C171	0.808200	0.853000	0.532200
C1721	C172	0.882400	0.851100	0.529200
C1731	C173	0.881400	0.731200	0.541700
C1741	C174	0.804400	0.731400	0.543500
C1751	C175	0.795100	0.602700	0.534700
C1761	C176	0.691200	0.678000	0.550200
C1771	C177	0.657400	0.709200	0.585100
C1781	C178	0.549600	0.693800	0.551800
C1791	C179	0.586600	0.664300	0.516200
C1801	C180	0.529100	0.573300	0.472600
C1811	C181	0.312200	0.748000	0.613200
C1821	C182	0.386500	0.754600	0.616800
C1831	C183	0.374400	0.873600	0.613800
C1841	C184	0.302100	0.869400	0.610000
C1851	C185	0.284400	0.999900	0.610800
C1861	C186	0.185000	0.913900	0.610000
C1871	C187	0.147600	0.890500	0.572600
C1881	C188	0.041800	0.887900	0.608800
C1891	C189	0.078900	0.911600	0.646200
C1901	C190	0.013400	0.987700	0.696500
C1911	C191	0.024300	0.854800	0.704900
C1921	C192	0.991200	0.855700	0.743400
C1931	C193	0.001600	0.734800	0.745900
C1941	C194	0.034400	0.736100	0.707000
C1951	C195	0.072400	0.610500	0.711800
C1961	C196	0.097000	0.683200	0.648800
C1971	C197	0.059300	0.701000	0.612800
C1981	C198	0.163700	0.702400	0.578200
C1991	C199	0.200900	0.685200	0.613900
C2001	C200	0.313900	0.620200	0.630400
C2011	C201	0.681100	0.677800	0.915000
C2021	C202	0.638500	0.665200	0.951600
C2031	C203	0.625000	0.787900	0.957900
C2041	C204	0.668100	0.797300	0.922800
C2051	C205	0.639800	0.927300	0.921400
C2061	C206	0.724100	0.871700	0.870500
C2071	C207	0.794200	0.851500	0.869800
C2081	C208	0.801300	0.882300	0.801600
C2091	C209	0.732400	0.897800	0.799400
C2101	C210	0.686100	0.985900	0.749600
C2111	C211	0.670900	0.857900	0.739500
C2121	C212	0.631300	0.865400	0.700300
C2131	C213	0.625700	0.743500	0.693600
C2141	C214	0.666100	0.736300	0.731600
C2151	C215	0.637400	0.607200	0.737700
C2161	C216	0.726100	0.667300	0.783700
C2171	C217	0.794500	0.696000	0.784600
C2181	C218	0.809600	0.663800	0.853400
C2191	C219	0.740400	0.640300	0.854500
C2201	C220	0.684000	0.548000	0.898900
C2211	C221	0.276000	0.182900	0.709200
C2221	C222	0.273900	0.109800	0.707300
C2231	C223	0.168300	0.110000	0.742000
C2241	C224	0.171900	0.184900	0.745200
C2251	C225	0.049900	0.194300	0.769500
C2261	C226	0.125400	0.297800	0.759600
C2271	C227	0.173400	0.336500	0.782200
C2281	C228	0.145400	0.434700	0.746000
C2291	C229	0.095000	0.396200	0.722800
C2301	C230	0.980300	0.419500	0.687500
C2311	C231	0.095500	0.452500	0.653200
C2321	C232	0.061700	0.487100	0.620900
C2331	C233	0.168900	0.494200	0.586300
C2341	C234	0.204300	0.454600	0.621000
C2351	C235	0.309100	0.423800	0.581400
C2361	C236	0.297700	0.399100	0.657400
C2371	C237	0.308100	0.435600	0.695300
C2381	C238	0.334600	0.333100	0.729300
C2391	C239	0.323000	0.297300	0.692400
C2401	C240	0.373800	0.189700	0.657200
C2411	C241	0.975400	0.200000	0.045400
C2421	C242	0.012400	0.190200	0.084400
C2431	C243	0.013000	0.309600	0.096000
C2441	C244	0.977800	0.321200	0.057400
C2451	C245	0.970200	0.451900	0.069400
C2461	C246	0.915300	0.395100	0.006600
C2471	C247	0.947600	0.386300	0.968200
C2481	C248	0.841400	0.396900	0.935100
C2491	C249	0.809600	0.405900	0.972500
C2501	C250	0.705300	0.467700	0.004700
C2511	C251	0.691800	0.353000	0.967800
C2521	C252	0.617600	0.351100	0.970800
C2531	C253	0.618600	0.231200	0.958300
C2541	C254	0.695600	0.231400	0.956500
C2551	C255	0.704900	0.102700	0.965300
C2561	C256	0.808800	0.178000	0.949800
C2571	C257	0.842600	0.209200	0.914900
C2581	C258	0.950400	0.193800	0.948200
C2591	C259	0.913400	0.164300	0.983800
C2601	C260	0.970900	0.073300	0.027400
C2611	C261	0.187800	0.248000	0.886800
C2621	C262	0.113500	0.254600	0.883200
C2631	C263	0.125600	0.373600	0.886200
C2641	C264	0.197900	0.369400	0.890000
C2651	C265	0.215600	0.499900	0.889200
C2661	C266	0.315000	0.413900	0.890000
C2671	C267	0.352400	0.390500	0.927400
C2681	C268	0.458200	0.387900	0.891200
C2691	C269	0.421100	0.411600	0.853800
C2701	C270	0.486600	0.487700	0.803500
C2711	C271	0.475700	0.354800	0.795100
C2721	C272	0.508800	0.355700	0.756600
C2731	C273	0.498400	0.234800	0.754100
C2741	C274	0.465600	0.236100	0.793000
C2751	C275	0.427600	0.110500	0.788200
C2761	C276	0.403000	0.183200	0.851200
C2771	C277	0.440700	0.201000	0.887200
C2781	C278	0.336300	0.202400	0.921800
C2791	C279	0.299100	0.185200	0.886100
C2801	C280	0.186100	0.120200	0.869600
C2811	C281	0.818900	0.177800	0.585000
C2821	C282	0.861500	0.165200	0.548400
C2831	C283	0.875000	0.287900	0.542100
C2841	C284	0.831900	0.297300	0.577200
C2851	C285	0.860200	0.427300	0.578600
C2861	C286	0.775900	0.371700	0.629500
C2871	C287	0.705800	0.351500	0.630200
C2881	C288	0.698700	0.382300	0.698400
C2891	C289	0.767600	0.397800	0.700600
C2901	C290	0.813900	0.485900	0.750400
C2911	C291	0.829100	0.357900	0.760500
C2921	C292	0.868700	0.365400	0.799700
C2931	C293	0.874300	0.243500	0.806400
C2941	C294	0.833900	0.236300	0.768400
C2951	C295	0.862600	0.107200	0.762300
C2961	C296	0.773900	0.167300	0.716300
C2971	C297	0.705500	0.196000	0.715400
C2981	C298	0.690400	0.163800	0.646600
C2991	C299	0.759600	0.140300	0.645500
C3001	C300	0.816000	0.048000	0.601100
C3011	C301	0.224000	0.682900	0.790800
C3021	C302	0.226100	0.609800	0.792700
C3031	C303	0.331700	0.610000	0.758000
C3041	C304	0.328100	0.684900	0.754800
C3051	C305	0.450100	0.694300	0.730500
C3061	C306	0.374600	0.797800	0.740400
C3071	C307	0.326600	0.836500	0.717800
C3081	C308	0.354600	0.934700	0.754000
C3091	C309	0.405000	0.896200	0.777200
C3101	C310	0.519700	0.919500	0.812500
C3111	C311	0.404500	0.952500	0.846800
C3121	C312	0.438300	0.987100	0.879100
C3131	C313	0.331100	0.994200	0.913700
C3141	C314	0.295700	0.954600	0.879000
C3151	C315	0.190900	0.923800	0.918600
C3161	C316	0.202300	0.899100	0.842600
C3171	C317	0.191900	0.935600	0.804700
C3181	C318	0.165400	0.833100	0.770700
C3191	C319	0.177000	0.797300	0.807600
C3201	C320	0.126200	0.689700	0.842800
N11	N1	0.456300	0.232800	0.534400
N21	N2	0.529700	0.254700	0.607200
N31	N3	0.454500	0.112700	0.544100
N41	N4	0.345900	0.096100	0.509500
N51	N5	0.411100	0.115600	0.431700
N61	N6	0.233900	0.086100	0.475300
N71	N7	0.230900	0.207900	0.459400
N81	N8	0.082200	0.210200	0.465800
N91	N9	0.231900	0.328500	0.450500
N101	N10	0.343600	0.343400	0.484200
N111	N11	0.412200	0.282200	0.414800
N121	N12	0.454500	0.351900	0.519600
N131	N13	0.730500	0.195000	0.389900
N141	N14	0.583500	0.185000	0.383700
N151	N15	0.742500	0.072700	0.390600
N161	N16	0.852900	0.075200	0.355300
N171	N17	0.923100	0.119700	0.428300
N181	N18	0.957500	0.081100	0.316600
N191	N19	0.951200	0.203800	0.313500
N201	N20	0.020500	0.202600	0.236900
N211	N21	0.943300	0.323800	0.312600
N221	N22	0.833600	0.326000	0.349900
N231	N23	0.905500	0.288400	0.421700
N241	N24	0.722300	0.316600	0.385900
N251	N25	0.305700	0.255300	0.098100
N261	N26	0.387300	0.278700	0.027600
N271	N27	0.317600	0.136400	0.093700
N281	N28	0.311100	0.107800	0.164500
N291	N29	0.165300	0.140900	0.164300
N301	N30	0.305700	0.086600	0.238100
N311	N31	0.313600	0.206400	0.246500
N321	N32	0.391300	0.191600	0.319000
N331	N33	0.317700	0.331000	0.252200
N341	N34	0.303800	0.359800	0.180000
N351	N35	0.163200	0.306200	0.183400
N361	N36	0.289100	0.379500	0.107500
N371	N37	0.773800	0.780500	0.271100
N381	N38	0.780100	0.925400	0.276000
N391	N39	0.877000	0.776100	0.235600
N401	N40	0.915600	0.670300	0.271100
N411	N41	0.817700	0.593400	0.223600
N421	N42	0.943100	0.569500	0.310500
N431	N43	0.836400	0.562500	0.346300
N441	N44	0.898900	0.493400	0.412900
N451	N45	0.726600	0.566700	0.377600
N461	N46	0.693100	0.671100	0.344400
N471	N47	0.674800	0.597200	0.270000
N481	N48	0.668200	0.776700	0.309000
N491	N49	0.043700	0.732800	0.965600
N501	N50	0.970300	0.754700	0.892800
N511	N51	0.045500	0.612700	0.955900
N521	N52	0.154100	0.596100	0.990500
N531	N53	0.088900	0.615600	0.068300
N541	N54	0.266100	0.586100	0.024700
N551	N55	0.269100	0.707900	0.040600
N561	N56	0.417800	0.710200	0.034200
N571	N57	0.268100	0.828500	0.049500
N581	N58	0.156400	0.843400	0.015800
N591	N59	0.087800	0.782200	0.085200
N601	N60	0.045500	0.851900	0.980400
N611	N61	0.769500	0.695000	0.110100
N621	N62	0.916500	0.685000	0.116300
N631	N63	0.757500	0.572700	0.109400
N641	N64	0.647100	0.575200	0.144700
N651	N65	0.576900	0.619700	0.071700
N661	N66	0.542500	0.581100	0.183400
N671	N67	0.548800	0.703800	0.186500
N681	N68	0.479500	0.702600	0.263100
N691	N69	0.556700	0.823800	0.187400
N701	N70	0.666400	0.826000	0.150100
N711	N71	0.594500	0.788400	0.078300
N721	N72	0.777700	0.816600	0.114100
N731	N73	0.194300	0.755300	0.401900
N741	N74	0.112700	0.778700	0.472400
N751	N75	0.182400	0.636400	0.406300
N761	N76	0.188900	0.607800	0.335500
N771	N77	0.334700	0.640900	0.335700
N781	N78	0.194300	0.586600	0.261900
N791	N79	0.186400	0.706400	0.253500
N801	N80	0.108700	0.691600	0.181000
N811	N81	0.182300	0.831000	0.247800
N821	N82	0.196200	0.859800	0.320000
N831	N83	0.336800	0.806200	0.316600
N841	N84	0.210900	0.879500	0.392500
N851	N85	0.726200	0.280500	0.228900
N861	N86	0.719900	0.425400	0.224000
N871	N87	0.623000	0.276100	0.264400
N881	N88	0.584400	0.170300	0.228900
N891	N89	0.682300	0.093400	0.276400
N901	N90	0.556900	0.069500	0.189500
N911	N91	0.663600	0.062500	0.153700
N921	N92	0.601100	0.993400	0.087100
N931	N93	0.773400	0.066700	0.122400
N941	N94	0.806900	0.171100	0.155600
N951	N95	0.825200	0.097200	0.230000
N961	N96	0.831800	0.276700	0.191000
N971	N97	0.543700	0.767200	0.465600
N981	N98	0.470300	0.745300	0.392800
N991	N99	0.545500	0.887300	0.455900
N1001	N100	0.654100	0.903900	0.490500
N1011	N101	0.588900	0.884400	0.568300
N1021	N102	0.766100	0.913900	0.524700
N1031	N103	0.769100	0.792100	0.540600
N1041	N104	0.917800	0.789800	0.534200
N1051	N105	0.768100	0.671500	0.549500
N1061	N106	0.656400	0.656600	0.515800
N1071	N107	0.587800	0.717800	0.585200
N1081	N108	0.545500	0.648100	0.480400
N1091	N109	0.269500	0.805000	0.610100
N1101	N110	0.416500	0.815000	0.616300
N1111	N111	0.257500	0.927300	0.609400
N1121	N112	0.147100	0.924800	0.644700
N1131	N113	0.076900	0.880300	0.571700
N1141	N114	0.042500	0.918900	0.683400
N1151	N115	0.048800	0.796200	0.686500
N1161	N116	0.979500	0.797400	0.763100
N1171	N117	0.056700	0.676200	0.687400
N1181	N118	0.166400	0.674000	0.650100
N1191	N119	0.094500	0.711600	0.578300
N1201	N120	0.277700	0.683400	0.614100
N1211	N121	0.694300	0.744700	0.901900
N1221	N122	0.612700	0.721300	0.972400
N1231	N123	0.682400	0.863600	0.906300
N1241	N124	0.688900	0.892200	0.835500
N1251	N125	0.834700	0.859100	0.835700
N1261	N126	0.694300	0.913400	0.761900
N1271	N127	0.686400	0.793600	0.753500
N1281	N128	0.608700	0.808400	0.681000
N1291	N129	0.682300	0.669000	0.747800
N1301	N130	0.696200	0.640200	0.820000
N1311	N131	0.836800	0.693800	0.816600
N1321	N132	0.710900	0.620500	0.892500
N1331	N133	0.226200	0.219500	0.728900
N1341	N134	0.219900	0.074600	0.724000
N1351	N135	0.123000	0.223900	0.764400
N1361	N136	0.084400	0.329700	0.728900
N1371	N137	0.182300	0.406600	0.776400
N1381	N138	0.056900	0.430500	0.689500
N1391	N139	0.163600	0.437500	0.653700
N1401	N140	0.101100	0.506600	0.587100
N1411	N141	0.273400	0.433300	0.622400
N1421	N142	0.306900	0.328900	0.655600
N1431	N143	0.325200	0.402800	0.730000
N1441	N144	0.331800	0.223300	0.691000
N1451	N145	0.956300	0.267200	0.034400
N1461	N146	0.029700	0.245300	0.107200
N1471	N147	0.954500	0.387300	0.044100
N1481	N148	0.845900	0.403900	0.009500
N1491	N149	0.911100	0.384400	0.931700
N1501	N150	0.733900	0.413900	0.975300
N1511	N151	0.730900	0.292100	0.959400
N1521	N152	0.582200	0.289800	0.965800
N1531	N153	0.731900	0.171500	0.950500
N1541	N154	0.843600	0.156600	0.984200
N1551	N155	0.912200	0.217800	0.914800
N1561	N156	0.954500	0.148100	0.019600
N1571	N157	0.230500	0.305000	0.889900
N1581	N158	0.083500	0.315000	0.883700
N1591	N159	0.242500	0.427300	0.890600
N1601	N160	0.352900	0.424800	0.855300
N1611	N161	0.423100	0.380300	0.928300
N1621	N162	0.457500	0.418900	0.816600
N1631	N163	0.451200	0.296200	0.813500
N1641	N164	0.520500	0.297400	0.736900
N1651	N165	0.443300	0.176200	0.812600
N1661	N166	0.333600	0.174000	0.849900
N1671	N167	0.405500	0.211600	0.921700
N1681	N168	0.222300	0.183400	0.885900
N1691	N169	0.805700	0.244700	0.598100
N1701	N170	0.887300	0.221300	0.527600
N1711	N171	0.817600	0.363600	0.593700
N1721	N172	0.811100	0.392200	0.664500
N1731	N173	0.665300	0.359100	0.664300
N1741	N174	0.805700	0.413400	0.738100
N1751	N175	0.813600	0.293600	0.746500
N1761	N176	0.891300	0.308400	0.819000
N1771	N177	0.817700	0.169000	0.752200
N1781	N178	0.803800	0.140200	0.680000
N1791	N179	0.663200	0.193800	0.683400
N1801	N180	0.789100	0.120500	0.607500
N1811	N181	0.273800	0.719500	0.771100
N1821	N182	0.280100	0.574600	0.776000
N1831	N183	0.377000	0.723900	0.735600
N1841	N184	0.415600	0.829700	0.771100
N1851	N185	0.317700	0.906600	0.723600
N1861	N186	0.443100	0.930500	0.810500
N1871	N187	0.336400	0.937500	0.846300
N1881	N188	0.398900	0.006600	0.912900
N1891	N189	0.226600	0.933300	0.877600
N1901	N190	0.193100	0.828900	0.844400
N1911	N191	0.174800	0.902800	0.770000
N1921	N192	0.168200	0.723300	0.809000
B11	B1	0.994300	0.482100	0.185900
F11	F1	0.024500	0.413100	0.185500
F21	F2	0.029900	0.518500	0.155500
F31	F3	0.009500	0.512400	0.223400
F41	F4	0.923700	0.474100	0.177200
B21	B2	0.178500	0.108600	0.996800
F51	F5	0.233700	0.135700	0.989500
F61	F6	0.185500	0.039200	0.999500
F71	F7	0.126000	0.125400	0.967700
F81	F8	0.150900	0.127900	0.035300
B31	B3	0.989700	0.986900	0.166700
F91	F9	0.967900	0.033400	0.138300
F101	F10	0.005900	0.919300	0.149900
F111	F11	0.049700	0.009100	0.186800
F121	F12	0.939200	0.974700	0.197800
B41	B4	0.327300	0.633200	0.166800
F131	F13	0.338200	0.568400	0.182400
F141	F14	0.270800	0.645300	0.142700
F151	F15	0.384700	0.631500	0.142800
F161	F16	0.331200	0.676600	0.200100
B51	B5	0.505700	0.982100	0.314100
F171	F17	0.475500	0.913100	0.314500
F181	F18	0.470100	0.018500	0.344500
F191	F19	0.490500	0.012400	0.276600
F201	F20	0.576300	0.974100	0.322800
B61	B6	0.321500	0.608600	0.503200
F211	F21	0.266300	0.635700	0.510500
F221	F22	0.314500	0.539200	0.500500
F231	F23	0.374000	0.625400	0.532300
F241	F24	0.349100	0.627900	0.464700
B71	B7	0.510300	0.486900	0.333300
F251	F25	0.532100	0.533400	0.361700
F261	F26	0.494100	0.419300	0.350100
F271	F27	0.450300	0.509100	0.313200
F281	F28	0.560800	0.474700	0.302200
B81	B8	0.172700	0.133200	0.333200
F291	F29	0.161800	0.068400	0.317600
F301	F30	0.229200	0.145300	0.357300
F311	F31	0.115300	0.131500	0.357200
F321	F32	0.168800	0.176600	0.299900
B91	B9	0.005700	0.517900	0.814100
F331	F33	0.975500	0.586900	0.814500
F341	F34	0.970100	0.481500	0.844500
F351	F35	0.990500	0.487600	0.776600
F361	F36	0.076300	0.525900	0.822800
B101	B10	0.821500	0.891400	0.003200
F371	F37	0.766300	0.864300	0.010500
F381	F38	0.814500	0.960800	0.000500
F391	F39	0.874000	0.874600	0.032300
F401	F40	0.849100	0.872100	0.964700
B111	B11	0.010300	0.013100	0.833300
F411	F41	0.032100	0.966600	0.861700
F421	F42	0.994100	0.080700	0.850100
F431	F43	0.950300	0.990900	0.813200
F441	F44	0.060800	0.025300	0.802200
B121	B12	0.672700	0.366800	0.833200
F451	F45	0.661800	0.431600	0.817600
F461	F46	0.729200	0.354700	0.857300
F471	F47	0.615300	0.368500	0.857200
F481	F48	0.668800	0.323400	0.799900
B131	B13	0.494300	0.017900	0.685900
F491	F49	0.524500	0.086900	0.685500
F501	F50	0.529900	0.981500	0.655500
F511	F51	0.509500	0.987600	0.723400
F521	F52	0.423700	0.025900	0.677200
B141	B14	0.678500	0.391400	0.496800
F531	F53	0.733700	0.364300	0.489500
F541	F54	0.685500	0.460800	0.499500
F551	F55	0.626000	0.374600	0.467700
F561	F56	0.650900	0.372100	0.535300
B151	B15	0.489700	0.513100	0.666700
F571	F57	0.467900	0.466600	0.638300
F581	F58	0.505900	0.580700	0.649900
F591	F59	0.549700	0.490900	0.686800
F601	F60	0.439200	0.525300	0.697800
B161	B16	0.827300	0.866800	0.666800
F611	F61	0.838200	0.931600	0.682400
F621	F62	0.770800	0.854700	0.642700
F631	F63	0.884700	0.868500	0.642800
F641	F64	0.831200	0.823400	0.700100
