data_BASSUL_clean_PM
_symmetry_space_group_name_H-M	'P1'
_cell_length_a	8.475900
_cell_length_b	25.285000
_cell_length_c	17.765000
_cell_angle_alpha	90.000000
_cell_angle_beta	90.000000
_cell_angle_gamma	90.000000
_symmetry_Int_Tables_number 1

loop_
_symmetry_equiv_pos_as_xyz
'x,y,z'

loop_
_atom_site_label
_atom_site_type_symbol
_atom_site_fract_x
_atom_site_fract_y
_atom_site_fract_z
Er11	Er1	0.166690	0.023250	0.282370
Er21	Er2	0.666690	0.976750	0.217630
Er31	Er3	0.666690	0.523250	0.717630
Er41	Er4	0.166690	0.476750	0.782370
Ag11	Ag1	0.461430	0.727670	0.452130
Ag21	Ag2	0.961430	0.272330	0.047870
Ag31	Ag3	0.961430	0.227670	0.547870
Ag41	Ag4	0.461430	0.772330	0.952130
H11	H1	0.685700	0.798200	0.340900
H21	H2	0.560300	0.096600	0.642300
H31	H3	0.744000	0.163700	0.672100
H41	H4	0.899600	0.140600	0.417100
H51	H5	0.466000	0.045100	0.508400
H61	H6	0.722900	0.869500	0.606600
H71	H7	0.886500	0.932700	0.496600
H81	H8	0.559100	0.794400	0.601400
H91	H9	0.185700	0.201800	0.159100
H101	H10	0.060300	0.903400	0.857700
H111	H11	0.244000	0.836300	0.827900
H121	H12	0.399600	0.859400	0.082900
H131	H13	0.966000	0.954900	0.991600
H141	H14	0.222900	0.130500	0.893400
H151	H15	0.386500	0.067300	0.003400
H161	H16	0.059100	0.205600	0.898600
H171	H17	0.185700	0.298200	0.659100
H181	H18	0.060300	0.596600	0.357700
H191	H19	0.244000	0.663700	0.327900
H201	H20	0.399600	0.640600	0.582900
H211	H21	0.966000	0.545100	0.491600
H221	H22	0.222900	0.369500	0.393400
H231	H23	0.386500	0.432700	0.503400
H241	H24	0.059100	0.294400	0.398600
H251	H25	0.685700	0.701800	0.840900
H261	H26	0.560300	0.403400	0.142300
H271	H27	0.744000	0.336300	0.172100
H281	H28	0.899600	0.359400	0.917100
H291	H29	0.466000	0.454900	0.008400
H301	H30	0.722900	0.630500	0.106600
H311	H31	0.886500	0.567300	0.996600
H321	H32	0.559100	0.705600	0.101400
C11	C1	0.953600	0.953300	0.353900
C21	C2	0.866300	0.907700	0.388000
C31	C3	0.808800	0.866300	0.340800
C41	C4	0.722700	0.825500	0.371300
C51	C5	0.841400	0.863900	0.257000
C61	C6	0.510400	0.017600	0.370600
C71	C7	0.811400	0.073300	0.314400
C81	C8	0.741200	0.083600	0.389500
C91	C9	0.731000	0.148200	0.625100
C101	C10	0.815100	0.120800	0.435100
C111	C11	0.604600	0.056000	0.416200
C121	C12	0.637700	0.096700	0.535800
C131	C13	0.554100	0.062920	0.490300
C141	C14	0.844100	0.906800	0.465400
C151	C15	0.691700	0.825600	0.448300
C161	C16	0.759800	0.127820	0.508100
C171	C17	0.754800	0.865100	0.494100
C181	C18	0.610000	0.809800	0.560600
C191	C19	0.453600	0.046700	0.146100
C201	C20	0.366300	0.092300	0.112000
C211	C21	0.308800	0.133700	0.159200
C221	C22	0.222700	0.174500	0.128700
C231	C23	0.341400	0.136100	0.243000
C241	C24	0.010400	0.982400	0.129400
C251	C25	0.311400	0.926700	0.185600
C261	C26	0.241200	0.916400	0.110500
C271	C27	0.231000	0.851800	0.874900
C281	C28	0.315100	0.879200	0.064900
C291	C29	0.104600	0.944000	0.083800
C301	C30	0.137700	0.903300	0.964200
C311	C31	0.054100	0.937080	0.009700
C321	C32	0.344100	0.093200	0.034600
C331	C33	0.191700	0.174400	0.051700
C341	C34	0.259800	0.872180	0.991900
C351	C35	0.254800	0.134900	0.005900
C361	C36	0.110000	0.190200	0.939400
C371	C37	0.453600	0.453300	0.646100
C381	C38	0.366300	0.407700	0.612000
C391	C39	0.308800	0.366300	0.659200
C401	C40	0.222700	0.325500	0.628700
C411	C41	0.341400	0.363900	0.743000
C421	C42	0.010400	0.517600	0.629400
C431	C43	0.311400	0.573300	0.685600
C441	C44	0.241200	0.583600	0.610500
C451	C45	0.231000	0.648200	0.374900
C461	C46	0.315100	0.620800	0.564900
C471	C47	0.104600	0.556000	0.583800
C481	C48	0.137700	0.596700	0.464200
C491	C49	0.054100	0.562920	0.509700
C501	C50	0.344100	0.406800	0.534600
C511	C51	0.191700	0.325600	0.551700
C521	C52	0.259800	0.627820	0.491900
C531	C53	0.254800	0.365100	0.505900
C541	C54	0.110000	0.309800	0.439400
C551	C55	0.953600	0.546700	0.853900
C561	C56	0.866300	0.592300	0.888000
C571	C57	0.808800	0.633700	0.840800
C581	C58	0.722700	0.674500	0.871300
C591	C59	0.841400	0.636100	0.757000
C601	C60	0.510400	0.482400	0.870600
C611	C61	0.811400	0.426700	0.814400
C621	C62	0.741200	0.416400	0.889500
C631	C63	0.731000	0.351800	0.125100
C641	C64	0.815100	0.379200	0.935100
C651	C65	0.604600	0.444000	0.916200
C661	C66	0.637700	0.403300	0.035800
C671	C67	0.554100	0.437080	0.990300
C681	C68	0.844100	0.593200	0.965400
C691	C69	0.691700	0.674400	0.948300
C701	C70	0.759800	0.372180	0.008100
C711	C71	0.754800	0.634900	0.994100
C721	C72	0.610000	0.690200	0.060600
N11	N1	0.625000	0.110180	0.610400
N21	N2	0.701100	0.852620	0.565900
N31	N3	0.599800	0.791670	0.491000
N41	N4	0.814600	0.161270	0.565200
N51	N5	0.125000	0.889820	0.889600
N61	N6	0.201100	0.147380	0.934100
N71	N7	0.099800	0.208330	0.009000
N81	N8	0.314600	0.838730	0.934800
N91	N9	0.125000	0.610180	0.389600
N101	N10	0.201100	0.352620	0.434100
N111	N11	0.099800	0.291670	0.509000
N121	N12	0.314600	0.661270	0.434800
N131	N13	0.625000	0.389820	0.110400
N141	N14	0.701100	0.647380	0.065900
N151	N15	0.599800	0.708330	0.991000
N161	N16	0.814600	0.338730	0.065200
O11	O1	0.912600	0.969300	0.288120
O21	O2	0.066600	0.974450	0.387400
O31	O3	0.748600	0.889840	0.214290
O41	O4	0.945700	0.835700	0.233900
O51	O5	0.364700	0.023680	0.370900
O61	O6	0.959700	0.079100	0.309100
O71	O7	0.579800	0.978800	0.338500
O81	O8	0.725400	0.060100	0.259500
O91	O9	0.412600	0.030700	0.211880
O101	O10	0.566600	0.025550	0.112600
O111	O11	0.248600	0.110160	0.285710
O121	O12	0.445700	0.164300	0.266100
O131	O13	0.864700	0.976320	0.129100
O141	O14	0.459700	0.920900	0.190900
O151	O15	0.079800	0.021200	0.161500
O161	O16	0.225400	0.939900	0.240500
O171	O17	0.412600	0.469300	0.711880
O181	O18	0.566600	0.474450	0.612600
O191	O19	0.248600	0.389840	0.785710
O201	O20	0.445700	0.335700	0.766100
O211	O21	0.864700	0.523680	0.629100
O221	O22	0.459700	0.579100	0.690900
O231	O23	0.079800	0.478800	0.661500
O241	O24	0.225400	0.560100	0.740500
O251	O25	0.912600	0.530700	0.788120
O261	O26	0.066600	0.525550	0.887400
O271	O27	0.748600	0.610160	0.714290
O281	O28	0.945700	0.664300	0.733900
O291	O29	0.364700	0.476320	0.870900
O301	O30	0.959700	0.420900	0.809100
O311	O31	0.579800	0.521200	0.838500
O321	O32	0.725400	0.439900	0.759500
Er51	Er5	0.333310	0.476750	0.282370
Er61	Er6	0.833310	0.523250	0.217630
Er71	Er7	0.833310	0.976750	0.717630
Er81	Er8	0.333310	0.023250	0.782370
Ag51	Ag5	0.038570	0.772330	0.452130
Ag61	Ag6	0.538570	0.227670	0.047870
Ag71	Ag7	0.538570	0.272330	0.547870
Ag81	Ag8	0.038570	0.727670	0.952130
H331	H33	0.814300	0.701800	0.340900
H341	H34	0.939700	0.403400	0.642300
H351	H35	0.756000	0.336300	0.672100
H361	H36	0.600400	0.359400	0.417100
H371	H37	0.034000	0.454900	0.508400
H381	H38	0.777100	0.630500	0.606600
H391	H39	0.613500	0.567300	0.496600
H401	H40	0.940900	0.705600	0.601400
H411	H41	0.314300	0.298200	0.159100
H421	H42	0.439700	0.596600	0.857700
H431	H43	0.256000	0.663700	0.827900
H441	H44	0.100400	0.640600	0.082900
H451	H45	0.534000	0.545100	0.991600
H461	H46	0.277100	0.369500	0.893400
H471	H47	0.113500	0.432700	0.003400
H481	H48	0.440900	0.294400	0.898600
H491	H49	0.314300	0.201800	0.659100
H501	H50	0.439700	0.903400	0.357700
H511	H51	0.256000	0.836300	0.327900
H521	H52	0.100400	0.859400	0.582900
H531	H53	0.534000	0.954900	0.491600
H541	H54	0.277100	0.130500	0.393400
H551	H55	0.113500	0.067300	0.503400
H561	H56	0.440900	0.205600	0.398600
H571	H57	0.814300	0.798200	0.840900
H581	H58	0.939700	0.096600	0.142300
H591	H59	0.756000	0.163700	0.172100
H601	H60	0.600400	0.140600	0.917100
H611	H61	0.034000	0.045100	0.008400
H621	H62	0.777100	0.869500	0.106600
H631	H63	0.613500	0.932700	0.996600
H641	H64	0.940900	0.794400	0.101400
C731	C73	0.546400	0.546700	0.353900
C741	C74	0.633700	0.592300	0.388000
C751	C75	0.691200	0.633700	0.340800
C761	C76	0.777300	0.674500	0.371300
C771	C77	0.658600	0.636100	0.257000
C781	C78	0.989600	0.482400	0.370600
C791	C79	0.688600	0.426700	0.314400
C801	C80	0.758800	0.416400	0.389500
C811	C81	0.769000	0.351800	0.625100
C821	C82	0.684900	0.379200	0.435100
C831	C83	0.895400	0.444000	0.416200
C841	C84	0.862300	0.403300	0.535800
C851	C85	0.945900	0.437080	0.490300
C861	C86	0.655900	0.593200	0.465400
C871	C87	0.808300	0.674400	0.448300
C881	C88	0.740200	0.372180	0.508100
C891	C89	0.745200	0.634900	0.494100
C901	C90	0.890000	0.690200	0.560600
C911	C91	0.046400	0.453300	0.146100
C921	C92	0.133700	0.407700	0.112000
C931	C93	0.191200	0.366300	0.159200
C941	C94	0.277300	0.325500	0.128700
C951	C95	0.158600	0.363900	0.243000
C961	C96	0.489600	0.517600	0.129400
C971	C97	0.188600	0.573300	0.185600
C981	C98	0.258800	0.583600	0.110500
C991	C99	0.269000	0.648200	0.874900
C1001	C100	0.184900	0.620800	0.064900
C1011	C101	0.395400	0.556000	0.083800
C1021	C102	0.362300	0.596700	0.964200
C1031	C103	0.445900	0.562920	0.009700
C1041	C104	0.155900	0.406800	0.034600
C1051	C105	0.308300	0.325600	0.051700
C1061	C106	0.240200	0.627820	0.991900
C1071	C107	0.245200	0.365100	0.005900
C1081	C108	0.390000	0.309800	0.939400
C1091	C109	0.046400	0.046700	0.646100
C1101	C110	0.133700	0.092300	0.612000
C1111	C111	0.191200	0.133700	0.659200
C1121	C112	0.277300	0.174500	0.628700
C1131	C113	0.158600	0.136100	0.743000
C1141	C114	0.489600	0.982400	0.629400
C1151	C115	0.188600	0.926700	0.685600
C1161	C116	0.258800	0.916400	0.610500
C1171	C117	0.269000	0.851800	0.374900
C1181	C118	0.184900	0.879200	0.564900
C1191	C119	0.395400	0.944000	0.583800
C1201	C120	0.362300	0.903300	0.464200
C1211	C121	0.445900	0.937080	0.509700
C1221	C122	0.155900	0.093200	0.534600
C1231	C123	0.308300	0.174400	0.551700
C1241	C124	0.240200	0.872180	0.491900
C1251	C125	0.245200	0.134900	0.505900
C1261	C126	0.390000	0.190200	0.439400
C1271	C127	0.546400	0.953300	0.853900
C1281	C128	0.633700	0.907700	0.888000
C1291	C129	0.691200	0.866300	0.840800
C1301	C130	0.777300	0.825500	0.871300
C1311	C131	0.658600	0.863900	0.757000
C1321	C132	0.989600	0.017600	0.870600
C1331	C133	0.688600	0.073300	0.814400
C1341	C134	0.758800	0.083600	0.889500
C1351	C135	0.769000	0.148200	0.125100
C1361	C136	0.684900	0.120800	0.935100
C1371	C137	0.895400	0.056000	0.916200
C1381	C138	0.862300	0.096700	0.035800
C1391	C139	0.945900	0.062920	0.990300
C1401	C140	0.655900	0.906800	0.965400
C1411	C141	0.808300	0.825600	0.948300
C1421	C142	0.740200	0.127820	0.008100
C1431	C143	0.745200	0.865100	0.994100
C1441	C144	0.890000	0.809800	0.060600
N171	N17	0.875000	0.389820	0.610400
N181	N18	0.798900	0.647380	0.565900
N191	N19	0.900200	0.708330	0.491000
N201	N20	0.685400	0.338730	0.565200
N211	N21	0.375000	0.610180	0.889600
N221	N22	0.298900	0.352620	0.934100
N231	N23	0.400200	0.291670	0.009000
N241	N24	0.185400	0.661270	0.934800
N251	N25	0.375000	0.889820	0.389600
N261	N26	0.298900	0.147380	0.434100
N271	N27	0.400200	0.208330	0.509000
N281	N28	0.185400	0.838730	0.434800
N291	N29	0.875000	0.110180	0.110400
N301	N30	0.798900	0.852620	0.065900
N311	N31	0.900200	0.791670	0.991000
N321	N32	0.685400	0.161270	0.065200
O331	O33	0.587400	0.530700	0.288120
O341	O34	0.433400	0.525550	0.387400
O351	O35	0.751400	0.610160	0.214290
O361	O36	0.554300	0.664300	0.233900
O371	O37	0.135300	0.476320	0.370900
O381	O38	0.540300	0.420900	0.309100
O391	O39	0.920200	0.521200	0.338500
O401	O40	0.774600	0.439900	0.259500
O411	O41	0.087400	0.469300	0.211880
O421	O42	0.933400	0.474450	0.112600
O431	O43	0.251400	0.389840	0.285710
O441	O44	0.054300	0.335700	0.266100
O451	O45	0.635300	0.523680	0.129100
O461	O46	0.040300	0.579100	0.190900
O471	O47	0.420200	0.478800	0.161500
O481	O48	0.274600	0.560100	0.240500
O491	O49	0.087400	0.030700	0.711880
O501	O50	0.933400	0.025550	0.612600
O511	O51	0.251400	0.110160	0.785710
O521	O52	0.054300	0.164300	0.766100
O531	O53	0.635300	0.976320	0.629100
O541	O54	0.040300	0.920900	0.690900
O551	O55	0.420200	0.021200	0.661500
O561	O56	0.274600	0.939900	0.740500
O571	O57	0.587400	0.969300	0.788120
O581	O58	0.433400	0.974450	0.887400
O591	O59	0.751400	0.889840	0.714290
O601	O60	0.554300	0.835700	0.733900
O611	O61	0.135300	0.023680	0.870900
O621	O62	0.540300	0.079100	0.809100
O631	O63	0.920200	0.978800	0.838500
O641	O64	0.774600	0.060100	0.759500
