data_BAXLOD_clean_PM
_symmetry_space_group_name_H-M	'P1'
_cell_length_a	12.298600
_cell_length_b	12.298600
_cell_length_c	5.244400
_cell_angle_alpha	90.000000
_cell_angle_beta	90.000000
_cell_angle_gamma	90.000000
_symmetry_Int_Tables_number 1

loop_
_symmetry_equiv_pos_as_xyz
'x,y,z'

loop_
_atom_site_label
_atom_site_type_symbol
_atom_site_fract_x
_atom_site_fract_y
_atom_site_fract_z
O11	O1	0.873100	0.416300	0.576000
Ni11	Ni1	0.012250	0.679290	0.256100
S11	S1	0.691500	0.561270	0.316430
O21	O2	0.968500	0.569290	0.525300
O31	O3	0.744300	0.872260	0.255200
N11	N1	0.875400	0.617700	0.066700
H11	H1	0.906500	0.595700	0.881200
O41	O4	0.897400	0.790800	0.374100
C11	C1	0.813800	0.795500	0.236100
C21	C2	0.897100	0.502200	0.457500
C31	C3	0.830600	0.524600	0.216400
H21	H2	0.828500	0.459200	0.109700
C41	C4	0.680800	0.656300	0.053800
H31	H3	0.661800	0.619000	0.897000
H41	H4	0.626400	0.711400	0.088800
C51	C5	0.794400	0.706800	0.035100
H51	H5	0.803200	0.738800	0.865200
O51	O5	0.126900	0.583700	0.076000
Ni21	Ni2	0.987750	0.320710	0.756100
S21	S2	0.308500	0.438730	0.816430
O61	O6	0.031500	0.430710	0.025300
O71	O7	0.255700	0.127740	0.755200
N21	N2	0.124600	0.382300	0.566700
H61	H6	0.093500	0.404300	0.381200
O81	O8	0.102600	0.209200	0.874100
C61	C6	0.186200	0.204500	0.736100
C71	C7	0.102900	0.497800	0.957500
C81	C8	0.169400	0.475400	0.716400
H71	H7	0.171500	0.540800	0.609700
C91	C9	0.319200	0.343700	0.553800
H81	H8	0.338200	0.381000	0.397000
H91	H9	0.373600	0.288600	0.588800
C101	C10	0.205600	0.293200	0.535100
H101	H10	0.196800	0.261200	0.365200
O91	O9	0.583700	0.873100	0.826000
Ni31	Ni3	0.320710	0.012250	0.506100
S31	S3	0.438730	0.691500	0.566430
O101	O10	0.430710	0.968500	0.775300
O111	O11	0.127740	0.744300	0.505200
N31	N3	0.382300	0.875400	0.316700
H111	H11	0.404300	0.906500	0.131200
O121	O12	0.209200	0.897400	0.624100
C111	C11	0.204500	0.813800	0.486100
C121	C12	0.497800	0.897100	0.707500
C131	C13	0.475400	0.830600	0.466400
H121	H12	0.540800	0.828500	0.359700
C141	C14	0.343700	0.680800	0.303800
H131	H13	0.381000	0.661800	0.147000
H141	H14	0.288600	0.626400	0.338800
C151	C15	0.293200	0.794400	0.285100
H151	H15	0.261200	0.803200	0.115200
O131	O13	0.416300	0.126900	0.326000
Ni41	Ni4	0.679290	0.987750	0.006100
S41	S4	0.561270	0.308500	0.066430
O141	O14	0.569290	0.031500	0.275300
O151	O15	0.872260	0.255700	0.005200
N41	N4	0.617700	0.124600	0.816700
H161	H16	0.595700	0.093500	0.631200
O161	O16	0.790800	0.102600	0.124100
C161	C16	0.795500	0.186200	0.986100
C171	C17	0.502200	0.102900	0.207500
C181	C18	0.524600	0.169400	0.966400
H171	H17	0.459200	0.171500	0.859700
C191	C19	0.656300	0.319200	0.803800
H181	H18	0.619000	0.338200	0.647000
H191	H19	0.711400	0.373600	0.838800
C201	C20	0.706800	0.205600	0.785100
H201	H20	0.738800	0.196800	0.615200
