data_BAZDAJ_clean_PM
_symmetry_space_group_name_H-M	'P1'
_cell_length_a	13.308200
_cell_length_b	15.621900
_cell_length_c	16.472700
_cell_angle_alpha	90.000000
_cell_angle_beta	90.000000
_cell_angle_gamma	90.000000
_symmetry_Int_Tables_number 1

loop_
_symmetry_equiv_pos_as_xyz
'x,y,z'

loop_
_atom_site_label
_atom_site_type_symbol
_atom_site_fract_x
_atom_site_fract_y
_atom_site_fract_z
C11	C1	0.013700	0.768100	0.855500
C21	C2	0.932100	0.697600	0.849200
C31	C3	0.765900	0.871100	0.027700
C41	C4	0.667500	0.869600	0.977600
C51	C5	0.854900	0.959100	0.708200
C61	C6	0.841600	0.026400	0.776600
O11	O1	0.103140	0.741320	0.856310
O21	O2	0.965580	0.622260	0.844650
O31	O3	0.987670	0.844680	0.858040
O41	O4	0.842950	0.721240	0.847880
O51	O5	0.846670	0.868820	0.989800
O61	O6	0.754940	0.879370	0.102980
O71	O7	0.672800	0.859120	0.903030
O81	O8	0.587850	0.879540	0.017910
O91	O9	0.839600	0.882960	0.725810
O101	O10	0.880930	0.988300	0.639770
O111	O11	0.821700	0.001370	0.845300
O121	O12	0.854850	0.103600	0.753710
Cr11	Cr1	0.112150	0.615510	0.863530
Mn11	Mn1	0.824700	0.860060	0.857010
C71	C7	0.486300	0.231900	0.355500
C81	C8	0.567900	0.302400	0.349200
C91	C9	0.734100	0.128900	0.527700
C101	C10	0.832500	0.130400	0.477600
C111	C11	0.645100	0.040900	0.208200
C121	C12	0.658400	0.973600	0.276600
O131	O13	0.396860	0.258680	0.356310
O141	O14	0.534420	0.377740	0.344650
O151	O15	0.512330	0.155320	0.358040
O161	O16	0.657050	0.278760	0.347880
O171	O17	0.653330	0.131180	0.489800
O181	O18	0.745060	0.120630	0.602980
O191	O19	0.827200	0.140880	0.403030
O201	O20	0.912150	0.120460	0.517910
O211	O21	0.660400	0.117040	0.225810
O221	O22	0.619070	0.011700	0.139770
O231	O23	0.678300	0.998630	0.345300
O241	O24	0.645150	0.896400	0.253710
Cr21	Cr2	0.387850	0.384490	0.363530
Mn21	Mn2	0.675300	0.139940	0.357010
C131	C13	0.986300	0.268100	0.644500
C141	C14	0.067900	0.197600	0.650800
C151	C15	0.234100	0.371100	0.472300
C161	C16	0.332500	0.369600	0.522400
C171	C17	0.145100	0.459100	0.791800
C181	C18	0.158400	0.526400	0.723400
O251	O25	0.896860	0.241320	0.643690
O261	O26	0.034420	0.122260	0.655350
O271	O27	0.012330	0.344680	0.641960
O281	O28	0.157050	0.221240	0.652120
O291	O29	0.153330	0.368820	0.510200
O301	O30	0.245060	0.379370	0.397020
O311	O31	0.327200	0.359120	0.596970
O321	O32	0.412150	0.379540	0.482090
O331	O33	0.160400	0.382960	0.774190
O341	O34	0.119070	0.488300	0.860230
O351	O35	0.178300	0.501370	0.654700
O361	O36	0.145150	0.603600	0.746290
Cr31	Cr3	0.887850	0.115510	0.636470
Mn31	Mn3	0.175300	0.360060	0.642990
C191	C19	0.513700	0.731900	0.144500
C201	C20	0.432100	0.802400	0.150800
C211	C21	0.265900	0.628900	0.972300
C221	C22	0.167500	0.630400	0.022400
C231	C23	0.354900	0.540900	0.291800
C241	C24	0.341600	0.473600	0.223400
O371	O37	0.603140	0.758680	0.143690
O381	O38	0.465580	0.877740	0.155350
O391	O39	0.487670	0.655320	0.141960
O401	O40	0.342950	0.778760	0.152120
O411	O41	0.346670	0.631180	0.010200
O421	O42	0.254940	0.620630	0.897020
O431	O43	0.172800	0.640880	0.096970
O441	O44	0.087850	0.620460	0.982090
O451	O45	0.339600	0.617040	0.274190
O461	O46	0.380930	0.511700	0.360230
O471	O47	0.321700	0.498630	0.154700
O481	O48	0.354850	0.396400	0.246290
Cr41	Cr4	0.612150	0.884490	0.136470
Mn41	Mn4	0.324700	0.639940	0.142990
C251	C25	0.035600	0.824200	0.378700
C261	C26	0.008100	0.809600	0.299000
H11	H1	0.015200	0.753900	0.276700
C271	C27	0.970300	0.875000	0.251000
H21	H2	0.951000	0.863400	0.196500
C281	C28	0.960600	0.956500	0.281500
C291	C29	0.988300	0.973400	0.358300
H31	H3	0.982300	0.030200	0.378400
C301	C30	0.026000	0.908800	0.409700
C311	C31	0.056700	0.931500	0.491100
H41	H4	0.050700	0.989900	0.506400
C321	C32	0.117100	0.912800	0.625400
H51	H5	0.072800	0.961500	0.639500
H61	H6	0.187700	0.932800	0.626400
C331	C33	0.102800	0.841800	0.683800
H71	H7	0.030200	0.831000	0.692100
H81	H8	0.133000	0.856900	0.736800
C341	C34	0.263500	0.764500	0.655700
H91	H9	0.288100	0.706600	0.670200
H101	H10	0.285400	0.804800	0.698500
C351	C35	0.307700	0.791600	0.573900
H111	H11	0.301200	0.854200	0.566400
H121	H12	0.379700	0.776000	0.570700
C361	C36	0.281300	0.653500	0.501800
H131	H13	0.299400	0.629200	0.555300
H141	H14	0.340600	0.649700	0.465600
C371	C37	0.193400	0.605000	0.465400
H151	H15	0.182700	0.622000	0.408200
H161	H16	0.205600	0.542500	0.467500
C381	C38	0.039000	0.572600	0.532900
H171	H17	0.048800	0.516000	0.513500
C391	C39	0.951200	0.588300	0.579000
C401	C40	0.889400	0.518700	0.603700
H181	H18	0.905600	0.461700	0.588300
C411	C41	0.803800	0.535700	0.651200
C421	C42	0.781400	0.614700	0.674800
H191	H19	0.724100	0.623800	0.708200
C431	C43	0.838100	0.682100	0.652500
H201	H20	0.820000	0.737800	0.670400
C441	C44	0.923000	0.672000	0.603700
N11	N1	0.091400	0.879130	0.544670
N21	N2	0.152000	0.763900	0.650600
H211	H21	0.128800	0.717100	0.680100
N31	N3	0.248600	0.744700	0.510770
H221	H22	0.260000	0.771800	0.461400
N41	N4	0.106100	0.627900	0.515200
O491	O49	0.069000	0.759460	0.421380
O501	O50	0.969830	0.741850	0.578790
Cl11	Cl1	0.914950	0.037570	0.219190
Cl21	Cl2	0.728030	0.447400	0.674560
Fe11	Fe1	0.099510	0.752430	0.534070
C451	C45	0.464400	0.175800	0.878700
C461	C46	0.491900	0.190400	0.799000
H231	H23	0.484800	0.246100	0.776700
C471	C47	0.529700	0.125000	0.751000
H241	H24	0.549000	0.136600	0.696500
C481	C48	0.539400	0.043500	0.781500
C491	C49	0.511700	0.026600	0.858300
H251	H25	0.517700	0.969800	0.878400
C501	C50	0.474000	0.091200	0.909700
C511	C51	0.443300	0.068500	0.991100
H261	H26	0.449300	0.010100	0.006400
C521	C52	0.382900	0.087200	0.125400
H271	H27	0.427200	0.038500	0.139500
H281	H28	0.312300	0.067200	0.126400
C531	C53	0.397200	0.158200	0.183800
H291	H29	0.469800	0.169000	0.192100
H301	H30	0.367000	0.143100	0.236800
C541	C54	0.236500	0.235500	0.155700
H311	H31	0.211900	0.293400	0.170200
H321	H32	0.214600	0.195200	0.198500
C551	C55	0.192300	0.208400	0.073900
H331	H33	0.198800	0.145800	0.066400
H341	H34	0.120300	0.224000	0.070700
C561	C56	0.218700	0.346500	0.001800
H351	H35	0.200600	0.370800	0.055300
H361	H36	0.159400	0.350300	0.965600
C571	C57	0.306600	0.395000	0.965400
H371	H37	0.317300	0.378000	0.908200
H381	H38	0.294400	0.457500	0.967500
C581	C58	0.461000	0.427400	0.032900
H391	H39	0.451200	0.484000	0.013500
C591	C59	0.548800	0.411700	0.079000
C601	C60	0.610600	0.481300	0.103700
H401	H40	0.594400	0.538300	0.088300
C611	C61	0.696200	0.464300	0.151200
C621	C62	0.718600	0.385300	0.174800
H411	H41	0.775900	0.376200	0.208200
C631	C63	0.661900	0.317900	0.152500
H421	H42	0.680000	0.262200	0.170400
C641	C64	0.577000	0.328000	0.103700
N51	N5	0.408600	0.120870	0.044670
N61	N6	0.348000	0.236100	0.150600
H431	H43	0.371200	0.282900	0.180100
N71	N7	0.251400	0.255300	0.010770
H441	H44	0.240000	0.228200	0.961400
N81	N8	0.393900	0.372100	0.015200
O511	O51	0.431000	0.240540	0.921380
O521	O52	0.530170	0.258150	0.078790
Cl31	Cl3	0.585050	0.962430	0.719190
Cl41	Cl4	0.771970	0.552600	0.174560
Fe21	Fe2	0.400490	0.247570	0.034070
C651	C65	0.964400	0.324200	0.121300
C661	C66	0.991900	0.309600	0.201000
H451	H45	0.984800	0.253900	0.223300
C671	C67	0.029700	0.375000	0.249000
H461	H46	0.049000	0.363400	0.303500
C681	C68	0.039400	0.456500	0.218500
C691	C69	0.011700	0.473400	0.141700
H471	H47	0.017700	0.530200	0.121600
C701	C70	0.974000	0.408800	0.090300
C711	C71	0.943300	0.431500	0.008900
H481	H48	0.949300	0.489900	0.993600
C721	C72	0.882900	0.412800	0.874600
H491	H49	0.927200	0.461500	0.860500
H501	H50	0.812300	0.432800	0.873600
C731	C73	0.897200	0.341800	0.816200
H511	H51	0.969800	0.331000	0.807900
H521	H52	0.867000	0.356900	0.763200
C741	C74	0.736500	0.264500	0.844300
H531	H53	0.711900	0.206600	0.829800
H541	H54	0.714600	0.304800	0.801500
C751	C75	0.692300	0.291600	0.926100
H551	H55	0.698800	0.354200	0.933600
H561	H56	0.620300	0.276000	0.929300
C761	C76	0.718700	0.153500	0.998200
H571	H57	0.700600	0.129200	0.944700
H581	H58	0.659400	0.149700	0.034400
C771	C77	0.806600	0.105000	0.034600
H591	H59	0.817300	0.122000	0.091800
H601	H60	0.794400	0.042500	0.032500
C781	C78	0.961000	0.072600	0.967100
H611	H61	0.951200	0.016000	0.986500
C791	C79	0.048800	0.088300	0.921000
C801	C80	0.110600	0.018700	0.896300
H621	H62	0.094400	0.961700	0.911700
C811	C81	0.196200	0.035700	0.848800
C821	C82	0.218600	0.114700	0.825200
H631	H63	0.275900	0.123800	0.791800
C831	C83	0.161900	0.182100	0.847500
H641	H64	0.180000	0.237800	0.829600
C841	C84	0.077000	0.172000	0.896300
N91	N9	0.908600	0.379130	0.955330
N101	N10	0.848000	0.263900	0.849400
H651	H65	0.871200	0.217100	0.819900
N111	N11	0.751400	0.244700	0.989230
H661	H66	0.740000	0.271800	0.038600
N121	N12	0.893900	0.127900	0.984800
O531	O53	0.931000	0.259460	0.078620
O541	O54	0.030170	0.241850	0.921210
Cl51	Cl5	0.085050	0.537570	0.280810
Cl61	Cl6	0.271970	0.947400	0.825440
Fe31	Fe3	0.900490	0.252430	0.965930
C851	C85	0.535600	0.675800	0.621300
C861	C86	0.508100	0.690400	0.701000
H671	H67	0.515200	0.746100	0.723300
C871	C87	0.470300	0.625000	0.749000
H681	H68	0.451000	0.636600	0.803500
C881	C88	0.460600	0.543500	0.718500
C891	C89	0.488300	0.526600	0.641700
H691	H69	0.482300	0.469800	0.621600
C901	C90	0.526000	0.591200	0.590300
C911	C91	0.556700	0.568500	0.508900
H701	H70	0.550700	0.510100	0.493600
C921	C92	0.617100	0.587200	0.374600
H711	H71	0.572800	0.538500	0.360500
H721	H72	0.687700	0.567200	0.373600
C931	C93	0.602800	0.658200	0.316200
H731	H73	0.530200	0.669000	0.307900
H741	H74	0.633000	0.643100	0.263200
C941	C94	0.763500	0.735500	0.344300
H751	H75	0.788100	0.793400	0.329800
H761	H76	0.785400	0.695200	0.301500
C951	C95	0.807700	0.708400	0.426100
H771	H77	0.801200	0.645800	0.433600
H781	H78	0.879700	0.724000	0.429300
C961	C96	0.781300	0.846500	0.498200
H791	H79	0.799400	0.870800	0.444700
H801	H80	0.840600	0.850300	0.534400
C971	C97	0.693400	0.895000	0.534600
H811	H81	0.682700	0.878000	0.591800
H821	H82	0.705600	0.957500	0.532500
C981	C98	0.539000	0.927400	0.467100
H831	H83	0.548800	0.984000	0.486500
C991	C99	0.451200	0.911700	0.421000
C1001	C100	0.389400	0.981300	0.396300
H841	H84	0.405600	0.038300	0.411700
C1011	C101	0.303800	0.964300	0.348800
C1021	C102	0.281400	0.885300	0.325200
H851	H85	0.224100	0.876200	0.291800
C1031	C103	0.338100	0.817900	0.347500
H861	H86	0.320000	0.762200	0.329600
C1041	C104	0.423000	0.828000	0.396300
N131	N13	0.591400	0.620870	0.455330
N141	N14	0.652000	0.736100	0.349400
H871	H87	0.628800	0.782900	0.319900
N151	N15	0.748600	0.755300	0.489230
H881	H88	0.760000	0.728200	0.538600
N161	N16	0.606100	0.872100	0.484800
O551	O55	0.569000	0.740540	0.578620
O561	O56	0.469830	0.758150	0.421210
Cl71	Cl7	0.414950	0.462430	0.780810
Cl81	Cl8	0.228030	0.052600	0.325440
Fe41	Fe4	0.599510	0.747570	0.465930
