data_BAZFUF01_clean_PM
_symmetry_space_group_name_H-M	'P1'
_cell_length_a	27.418000
_cell_length_b	27.418000
_cell_length_c	27.418000
_cell_angle_alpha	90.000000
_cell_angle_beta	90.000000
_cell_angle_gamma	90.000000
_symmetry_Int_Tables_number 1

loop_
_symmetry_equiv_pos_as_xyz
'x,y,z'

loop_
_atom_site_label
_atom_site_type_symbol
_atom_site_fract_x
_atom_site_fract_y
_atom_site_fract_z
O11	O1	0.950470	0.790680	0.549800
C11	C1	0.878000	0.793000	0.621600
H11	H1	0.889400	0.822400	0.609000
C21	C2	0.843600	0.793800	0.657300
H21	H2	0.832600	0.823400	0.669700
O21	O2	0.049530	0.209320	0.549800
C31	C3	0.122000	0.207000	0.621600
H31	H3	0.110600	0.177600	0.609000
C41	C4	0.156400	0.206200	0.657300
H41	H4	0.167400	0.176600	0.669700
O31	O3	0.049530	0.790680	0.450200
C51	C5	0.122000	0.793000	0.378400
H51	H5	0.110600	0.822400	0.391000
C61	C6	0.156400	0.793800	0.342700
H61	H6	0.167400	0.823400	0.330300
O41	O4	0.950470	0.209320	0.450200
C71	C7	0.878000	0.207000	0.378400
H71	H7	0.889400	0.177600	0.391000
C81	C8	0.843600	0.206200	0.342700
H81	H8	0.832600	0.176600	0.330300
O51	O5	0.549800	0.950470	0.790680
C91	C9	0.621600	0.878000	0.793000
H91	H9	0.609000	0.889400	0.822400
C101	C10	0.657300	0.843600	0.793800
H101	H10	0.669700	0.832600	0.823400
O61	O6	0.549800	0.049530	0.209320
C111	C11	0.621600	0.122000	0.207000
H111	H11	0.609000	0.110600	0.177600
C121	C12	0.657300	0.156400	0.206200
H121	H12	0.669700	0.167400	0.176600
O71	O7	0.450200	0.049530	0.790680
C131	C13	0.378400	0.122000	0.793000
H131	H13	0.391000	0.110600	0.822400
C141	C14	0.342700	0.156400	0.793800
H141	H14	0.330300	0.167400	0.823400
O81	O8	0.450200	0.950470	0.209320
C151	C15	0.378400	0.878000	0.207000
H151	H15	0.391000	0.889400	0.177600
C161	C16	0.342700	0.843600	0.206200
H161	H16	0.330300	0.832600	0.176600
O91	O9	0.790680	0.549800	0.950470
C171	C17	0.793000	0.621600	0.878000
H171	H17	0.822400	0.609000	0.889400
C181	C18	0.793800	0.657300	0.843600
H181	H18	0.823400	0.669700	0.832600
O101	O10	0.209320	0.549800	0.049530
C191	C19	0.207000	0.621600	0.122000
H191	H19	0.177600	0.609000	0.110600
C201	C20	0.206200	0.657300	0.156400
H201	H20	0.176600	0.669700	0.167400
O111	O11	0.790680	0.450200	0.049530
C211	C21	0.793000	0.378400	0.122000
H211	H21	0.822400	0.391000	0.110600
C221	C22	0.793800	0.342700	0.156400
H221	H22	0.823400	0.330300	0.167400
O121	O12	0.209320	0.450200	0.950470
C231	C23	0.207000	0.378400	0.878000
H231	H23	0.177600	0.391000	0.889400
C241	C24	0.206200	0.342700	0.843600
H241	H24	0.176600	0.330300	0.832600
O131	O13	0.290680	0.450470	0.950200
C251	C25	0.293000	0.378000	0.878400
H251	H25	0.322400	0.389400	0.891000
C261	C26	0.293800	0.343600	0.842700
H261	H26	0.323400	0.332600	0.830300
O141	O14	0.709320	0.549530	0.950200
C271	C27	0.707000	0.622000	0.878400
H271	H27	0.677600	0.610600	0.891000
C281	C28	0.706200	0.656400	0.842700
H281	H28	0.676600	0.667400	0.830300
O151	O15	0.290680	0.549530	0.049800
C291	C29	0.293000	0.622000	0.121600
H291	H29	0.322400	0.610600	0.109000
C301	C30	0.293800	0.656400	0.157300
H301	H30	0.323400	0.667400	0.169700
O161	O16	0.709320	0.450470	0.049800
C311	C31	0.707000	0.378000	0.121600
H311	H31	0.677600	0.389400	0.109000
C321	C32	0.706200	0.343600	0.157300
H321	H32	0.676600	0.332600	0.169700
O171	O17	0.450470	0.049800	0.709320
C331	C33	0.378000	0.121600	0.707000
H331	H33	0.389400	0.109000	0.677600
C341	C34	0.343600	0.157300	0.706200
H341	H34	0.332600	0.169700	0.676600
O181	O18	0.549530	0.049800	0.290680
C351	C35	0.622000	0.121600	0.293000
H351	H35	0.610600	0.109000	0.322400
C361	C36	0.656400	0.157300	0.293800
H361	H36	0.667400	0.169700	0.323400
O191	O19	0.549530	0.950200	0.709320
C371	C37	0.622000	0.878400	0.707000
H371	H37	0.610600	0.891000	0.677600
C381	C38	0.656400	0.842700	0.706200
H381	H38	0.667400	0.830300	0.676600
O201	O20	0.450470	0.950200	0.290680
C391	C39	0.378000	0.878400	0.293000
H391	H39	0.389400	0.891000	0.322400
C401	C40	0.343600	0.842700	0.293800
H401	H40	0.332600	0.830300	0.323400
O211	O21	0.049800	0.290680	0.549530
C411	C41	0.121600	0.293000	0.622000
H411	H41	0.109000	0.322400	0.610600
C421	C42	0.157300	0.293800	0.656400
H421	H42	0.169700	0.323400	0.667400
O221	O22	0.049800	0.709320	0.450470
C431	C43	0.121600	0.707000	0.378000
H431	H43	0.109000	0.677600	0.389400
C441	C44	0.157300	0.706200	0.343600
H441	H44	0.169700	0.676600	0.332600
O231	O23	0.950200	0.290680	0.450470
C451	C45	0.878400	0.293000	0.378000
H451	H45	0.891000	0.322400	0.389400
C461	C46	0.842700	0.293800	0.343600
H461	H46	0.830300	0.323400	0.332600
O241	O24	0.950200	0.709320	0.549530
C471	C47	0.878400	0.707000	0.622000
H471	H47	0.891000	0.677600	0.610600
C481	C48	0.842700	0.706200	0.656400
H481	H48	0.830300	0.676600	0.667400
O251	O25	0.049530	0.209320	0.450200
C491	C49	0.122000	0.207000	0.378400
H491	H49	0.110600	0.177600	0.391000
C501	C50	0.156400	0.206200	0.342700
H501	H50	0.167400	0.176600	0.330300
O261	O26	0.950470	0.790680	0.450200
C511	C51	0.878000	0.793000	0.378400
H511	H51	0.889400	0.822400	0.391000
C521	C52	0.843600	0.793800	0.342700
H521	H52	0.832600	0.823400	0.330300
O271	O27	0.950470	0.209320	0.549800
C531	C53	0.878000	0.207000	0.621600
H531	H53	0.889400	0.177600	0.609000
C541	C54	0.843600	0.206200	0.657300
H541	H54	0.832600	0.176600	0.669700
O281	O28	0.049530	0.790680	0.549800
C551	C55	0.122000	0.793000	0.621600
H551	H55	0.110600	0.822400	0.609000
C561	C56	0.156400	0.793800	0.657300
H561	H56	0.167400	0.823400	0.669700
O291	O29	0.450200	0.049530	0.209320
C571	C57	0.378400	0.122000	0.207000
H571	H57	0.391000	0.110600	0.177600
C581	C58	0.342700	0.156400	0.206200
H581	H58	0.330300	0.167400	0.176600
O301	O30	0.450200	0.950470	0.790680
C591	C59	0.378400	0.878000	0.793000
H591	H59	0.391000	0.889400	0.822400
C601	C60	0.342700	0.843600	0.793800
H601	H60	0.330300	0.832600	0.823400
O311	O31	0.549800	0.950470	0.209320
C611	C61	0.621600	0.878000	0.207000
H611	H61	0.609000	0.889400	0.177600
C621	C62	0.657300	0.843600	0.206200
H621	H62	0.669700	0.832600	0.176600
O321	O32	0.549800	0.049530	0.790680
C631	C63	0.621600	0.122000	0.793000
H631	H63	0.609000	0.110600	0.822400
C641	C64	0.657300	0.156400	0.793800
H641	H64	0.669700	0.167400	0.823400
O331	O33	0.209320	0.450200	0.049530
C651	C65	0.207000	0.378400	0.122000
H651	H65	0.177600	0.391000	0.110600
C661	C66	0.206200	0.342700	0.156400
H661	H66	0.176600	0.330300	0.167400
O341	O34	0.790680	0.450200	0.950470
C671	C67	0.793000	0.378400	0.878000
H671	H67	0.822400	0.391000	0.889400
C681	C68	0.793800	0.342700	0.843600
H681	H68	0.823400	0.330300	0.832600
O351	O35	0.209320	0.549800	0.950470
C691	C69	0.207000	0.621600	0.878000
H691	H69	0.177600	0.609000	0.889400
C701	C70	0.206200	0.657300	0.843600
H701	H70	0.176600	0.669700	0.832600
O361	O36	0.790680	0.549800	0.049530
C711	C71	0.793000	0.621600	0.122000
H711	H71	0.822400	0.609000	0.110600
C721	C72	0.793800	0.657300	0.156400
H721	H72	0.823400	0.669700	0.167400
O371	O37	0.709320	0.549530	0.049800
C731	C73	0.707000	0.622000	0.121600
H731	H73	0.677600	0.610600	0.109000
C741	C74	0.706200	0.656400	0.157300
H741	H74	0.676600	0.667400	0.169700
O381	O38	0.290680	0.450470	0.049800
C751	C75	0.293000	0.378000	0.121600
H751	H75	0.322400	0.389400	0.109000
C761	C76	0.293800	0.343600	0.157300
H761	H76	0.323400	0.332600	0.169700
O391	O39	0.709320	0.450470	0.950200
C771	C77	0.707000	0.378000	0.878400
H771	H77	0.677600	0.389400	0.891000
C781	C78	0.706200	0.343600	0.842700
H781	H78	0.676600	0.332600	0.830300
O401	O40	0.290680	0.549530	0.950200
C791	C79	0.293000	0.622000	0.878400
H791	H79	0.322400	0.610600	0.891000
C801	C80	0.293800	0.656400	0.842700
H801	H80	0.323400	0.667400	0.830300
O411	O41	0.549530	0.950200	0.290680
C811	C81	0.622000	0.878400	0.293000
H811	H81	0.610600	0.891000	0.322400
C821	C82	0.656400	0.842700	0.293800
H821	H82	0.667400	0.830300	0.323400
O421	O42	0.450470	0.950200	0.709320
C831	C83	0.378000	0.878400	0.707000
H831	H83	0.389400	0.891000	0.677600
C841	C84	0.343600	0.842700	0.706200
H841	H84	0.332600	0.830300	0.676600
O431	O43	0.450470	0.049800	0.290680
C851	C85	0.378000	0.121600	0.293000
H851	H85	0.389400	0.109000	0.322400
C861	C86	0.343600	0.157300	0.293800
H861	H86	0.332600	0.169700	0.323400
O441	O44	0.549530	0.049800	0.709320
C871	C87	0.622000	0.121600	0.707000
H871	H87	0.610600	0.109000	0.677600
C881	C88	0.656400	0.157300	0.706200
H881	H88	0.667400	0.169700	0.676600
O451	O45	0.950200	0.709320	0.450470
C891	C89	0.878400	0.707000	0.378000
H891	H89	0.891000	0.677600	0.389400
C901	C90	0.842700	0.706200	0.343600
H901	H90	0.830300	0.676600	0.332600
O461	O46	0.950200	0.290680	0.549530
C911	C91	0.878400	0.293000	0.622000
H911	H91	0.891000	0.322400	0.610600
C921	C92	0.842700	0.293800	0.656400
H921	H92	0.830300	0.323400	0.667400
O471	O47	0.049800	0.709320	0.549530
C931	C93	0.121600	0.707000	0.622000
H931	H93	0.109000	0.677600	0.610600
C941	C94	0.157300	0.706200	0.656400
H941	H94	0.169700	0.676600	0.667400
O481	O48	0.049800	0.290680	0.450470
C951	C95	0.121600	0.293000	0.378000
H951	H95	0.109000	0.322400	0.389400
C961	C96	0.157300	0.293800	0.343600
H961	H96	0.169700	0.323400	0.332600
Cu11	Cu1	0.000000	0.798220	0.500000
Cu21	Cu2	0.000000	0.201780	0.500000
Cu31	Cu3	0.500000	0.000000	0.798220
Cu41	Cu4	0.500000	0.000000	0.201780
Cu51	Cu5	0.798220	0.500000	0.000000
Cu61	Cu6	0.201780	0.500000	0.000000
Cu71	Cu7	0.298220	0.500000	0.000000
Cu81	Cu8	0.701780	0.500000	0.000000
Cu91	Cu9	0.500000	0.000000	0.701780
Cu101	Cu10	0.500000	0.000000	0.298220
Cu111	Cu11	0.000000	0.298220	0.500000
Cu121	Cu12	0.000000	0.701780	0.500000
C971	C97	0.896500	0.750000	0.603500
C981	C98	0.934750	0.750000	0.565250
C991	C99	0.784820	0.750000	0.715180
C1001	C100	0.824600	0.750000	0.675400
C1011	C101	0.103500	0.250000	0.603500
C1021	C102	0.065250	0.250000	0.565250
C1031	C103	0.215180	0.250000	0.715180
C1041	C104	0.175400	0.250000	0.675400
C1051	C105	0.103500	0.750000	0.396500
C1061	C106	0.065250	0.750000	0.434750
C1071	C107	0.215180	0.750000	0.284820
C1081	C108	0.175400	0.750000	0.324600
C1091	C109	0.896500	0.250000	0.396500
C1101	C110	0.934750	0.250000	0.434750
C1111	C111	0.784820	0.250000	0.284820
C1121	C112	0.824600	0.250000	0.324600
C1131	C113	0.603500	0.896500	0.750000
C1141	C114	0.565250	0.934750	0.750000
C1151	C115	0.715180	0.784820	0.750000
C1161	C116	0.675400	0.824600	0.750000
C1171	C117	0.603500	0.103500	0.250000
C1181	C118	0.565250	0.065250	0.250000
C1191	C119	0.715180	0.215180	0.250000
C1201	C120	0.675400	0.175400	0.250000
C1211	C121	0.396500	0.103500	0.750000
C1221	C122	0.434750	0.065250	0.750000
C1231	C123	0.284820	0.215180	0.750000
C1241	C124	0.324600	0.175400	0.750000
C1251	C125	0.396500	0.896500	0.250000
C1261	C126	0.434750	0.934750	0.250000
C1271	C127	0.284820	0.784820	0.250000
C1281	C128	0.324600	0.824600	0.250000
C1291	C129	0.750000	0.603500	0.896500
C1301	C130	0.750000	0.565250	0.934750
C1311	C131	0.750000	0.715180	0.784820
C1321	C132	0.750000	0.675400	0.824600
C1331	C133	0.250000	0.603500	0.103500
C1341	C134	0.250000	0.565250	0.065250
C1351	C135	0.250000	0.715180	0.215180
C1361	C136	0.250000	0.675400	0.175400
C1371	C137	0.750000	0.396500	0.103500
C1381	C138	0.750000	0.434750	0.065250
C1391	C139	0.750000	0.284820	0.215180
C1401	C140	0.750000	0.324600	0.175400
C1411	C141	0.250000	0.396500	0.896500
C1421	C142	0.250000	0.434750	0.934750
C1431	C143	0.250000	0.284820	0.784820
C1441	C144	0.250000	0.324600	0.824600
C1451	C145	0.103500	0.250000	0.396500
C1461	C146	0.065250	0.250000	0.434750
C1471	C147	0.215180	0.250000	0.284820
C1481	C148	0.175400	0.250000	0.324600
C1491	C149	0.896500	0.750000	0.396500
C1501	C150	0.934750	0.750000	0.434750
C1511	C151	0.784820	0.750000	0.284820
C1521	C152	0.824600	0.750000	0.324600
C1531	C153	0.896500	0.250000	0.603500
C1541	C154	0.934750	0.250000	0.565250
C1551	C155	0.784820	0.250000	0.715180
C1561	C156	0.824600	0.250000	0.675400
C1571	C157	0.103500	0.750000	0.603500
C1581	C158	0.065250	0.750000	0.565250
C1591	C159	0.215180	0.750000	0.715180
C1601	C160	0.175400	0.750000	0.675400
C1611	C161	0.396500	0.103500	0.250000
C1621	C162	0.434750	0.065250	0.250000
C1631	C163	0.284820	0.215180	0.250000
C1641	C164	0.324600	0.175400	0.250000
C1651	C165	0.396500	0.896500	0.750000
C1661	C166	0.434750	0.934750	0.750000
C1671	C167	0.284820	0.784820	0.750000
C1681	C168	0.324600	0.824600	0.750000
C1691	C169	0.603500	0.896500	0.250000
C1701	C170	0.565250	0.934750	0.250000
C1711	C171	0.715180	0.784820	0.250000
C1721	C172	0.675400	0.824600	0.250000
C1731	C173	0.603500	0.103500	0.750000
C1741	C174	0.565250	0.065250	0.750000
C1751	C175	0.715180	0.215180	0.750000
C1761	C176	0.675400	0.175400	0.750000
C1771	C177	0.250000	0.396500	0.103500
C1781	C178	0.250000	0.434750	0.065250
C1791	C179	0.250000	0.284820	0.215180
C1801	C180	0.250000	0.324600	0.175400
C1811	C181	0.750000	0.396500	0.896500
C1821	C182	0.750000	0.434750	0.934750
C1831	C183	0.750000	0.284820	0.784820
C1841	C184	0.750000	0.324600	0.824600
C1851	C185	0.250000	0.603500	0.896500
C1861	C186	0.250000	0.565250	0.934750
C1871	C187	0.250000	0.715180	0.784820
C1881	C188	0.250000	0.675400	0.824600
C1891	C189	0.750000	0.603500	0.103500
C1901	C190	0.750000	0.565250	0.065250
C1911	C191	0.750000	0.715180	0.215180
C1921	C192	0.750000	0.675400	0.175400
C1931	C193	0.750000	0.786100	0.713900
H971	H97	0.750000	0.810100	0.689900
C1941	C194	0.250000	0.213900	0.713900
H981	H98	0.250000	0.189900	0.689900
C1951	C195	0.250000	0.786100	0.286100
H991	H99	0.250000	0.810100	0.310100
C1961	C196	0.750000	0.213900	0.286100
H1001	H100	0.750000	0.189900	0.310100
C1971	C197	0.713900	0.750000	0.786100
H1011	H101	0.689900	0.750000	0.810100
C1981	C198	0.713900	0.250000	0.213900
H1021	H102	0.689900	0.250000	0.189900
C1991	C199	0.286100	0.250000	0.786100
H1031	H103	0.310100	0.250000	0.810100
C2001	C200	0.286100	0.750000	0.213900
H1041	H104	0.310100	0.750000	0.189900
C2011	C201	0.786100	0.713900	0.750000
H1051	H105	0.810100	0.689900	0.750000
C2021	C202	0.213900	0.713900	0.250000
H1061	H106	0.189900	0.689900	0.250000
C2031	C203	0.786100	0.286100	0.250000
H1071	H107	0.810100	0.310100	0.250000
C2041	C204	0.213900	0.286100	0.750000
H1081	H108	0.189900	0.310100	0.750000
C2051	C205	0.250000	0.213900	0.286100
H1091	H109	0.250000	0.189900	0.310100
C2061	C206	0.750000	0.786100	0.286100
H1101	H110	0.750000	0.810100	0.310100
C2071	C207	0.750000	0.213900	0.713900
H1111	H111	0.750000	0.189900	0.689900
C2081	C208	0.250000	0.786100	0.713900
H1121	H112	0.250000	0.810100	0.689900
C2091	C209	0.286100	0.250000	0.213900
H1131	H113	0.310100	0.250000	0.189900
C2101	C210	0.286100	0.750000	0.786100
H1141	H114	0.310100	0.750000	0.810100
C2111	C211	0.713900	0.750000	0.213900
H1151	H115	0.689900	0.750000	0.189900
C2121	C212	0.713900	0.250000	0.786100
H1161	H116	0.689900	0.250000	0.810100
C2131	C213	0.213900	0.286100	0.250000
H1171	H117	0.189900	0.310100	0.250000
C2141	C214	0.786100	0.286100	0.750000
H1181	H118	0.810100	0.310100	0.750000
C2151	C215	0.213900	0.713900	0.750000
H1191	H119	0.189900	0.689900	0.750000
C2161	C216	0.786100	0.713900	0.250000
H1201	H120	0.810100	0.689900	0.250000
