data_BAZFUF_clean_PM
_symmetry_space_group_name_H-M	'P1'
_cell_length_a	27.471900
_cell_length_b	27.471900
_cell_length_c	27.471900
_cell_angle_alpha	90.000000
_cell_angle_beta	90.000000
_cell_angle_gamma	90.000000
_symmetry_Int_Tables_number 1

loop_
_symmetry_equiv_pos_as_xyz
'x,y,z'

loop_
_atom_site_label
_atom_site_type_symbol
_atom_site_fract_x
_atom_site_fract_y
_atom_site_fract_z
Cu11	Cu1	0.500000	0.202030	0.000000
Cu21	Cu2	0.500000	0.797970	0.000000
Cu31	Cu3	0.000000	0.500000	0.202030
Cu41	Cu4	0.000000	0.500000	0.797970
Cu51	Cu5	0.202030	0.000000	0.500000
Cu61	Cu6	0.797970	0.000000	0.500000
Cu71	Cu7	0.702030	0.000000	0.500000
Cu81	Cu8	0.297970	0.000000	0.500000
Cu91	Cu9	0.000000	0.500000	0.297970
Cu101	Cu10	0.000000	0.500000	0.702030
Cu111	Cu11	0.500000	0.702030	0.000000
Cu121	Cu12	0.500000	0.297970	0.000000
H11	H1	0.391100	0.177900	0.889700
H21	H2	0.331200	0.177300	0.830200
H31	H3	0.608900	0.822100	0.889700
H41	H4	0.668800	0.822700	0.830200
H51	H5	0.608900	0.177900	0.110300
H61	H6	0.668800	0.177300	0.169800
H71	H7	0.391100	0.822100	0.110300
H81	H8	0.331200	0.822700	0.169800
H91	H9	0.889700	0.391100	0.177900
H101	H10	0.830200	0.331200	0.177300
H111	H11	0.889700	0.608900	0.822100
H121	H12	0.830200	0.668800	0.822700
H131	H13	0.110300	0.608900	0.177900
H141	H14	0.169800	0.668800	0.177300
H151	H15	0.110300	0.391100	0.822100
H161	H16	0.169800	0.331200	0.822700
H171	H17	0.177900	0.889700	0.391100
H181	H18	0.177300	0.830200	0.331200
H191	H19	0.822100	0.889700	0.608900
H201	H20	0.822700	0.830200	0.668800
H211	H21	0.177900	0.110300	0.608900
H221	H22	0.177300	0.169800	0.668800
H231	H23	0.822100	0.110300	0.391100
H241	H24	0.822700	0.169800	0.331200
H251	H25	0.677900	0.891100	0.610300
H261	H26	0.677300	0.831200	0.669800
H271	H27	0.322100	0.108900	0.610300
H281	H28	0.322700	0.168800	0.669800
H291	H29	0.677900	0.108900	0.389700
H301	H30	0.677300	0.168800	0.330200
H311	H31	0.322100	0.891100	0.389700
H321	H32	0.322700	0.831200	0.330200
H331	H33	0.891100	0.389700	0.322100
H341	H34	0.831200	0.330200	0.322700
H351	H35	0.108900	0.389700	0.677900
H361	H36	0.168800	0.330200	0.677300
H371	H37	0.108900	0.610300	0.322100
H381	H38	0.168800	0.669800	0.322700
H391	H39	0.891100	0.610300	0.677900
H401	H40	0.831200	0.669800	0.677300
H411	H41	0.389700	0.677900	0.108900
H421	H42	0.330200	0.677300	0.168800
H431	H43	0.389700	0.322100	0.891100
H441	H44	0.330200	0.322700	0.831200
H451	H45	0.610300	0.677900	0.891100
H461	H46	0.669800	0.677300	0.831200
H471	H47	0.610300	0.322100	0.108900
H481	H48	0.669800	0.322700	0.168800
H491	H49	0.608900	0.822100	0.110300
H501	H50	0.668800	0.822700	0.169800
H511	H51	0.391100	0.177900	0.110300
H521	H52	0.331200	0.177300	0.169800
H531	H53	0.391100	0.822100	0.889700
H541	H54	0.331200	0.822700	0.830200
H551	H55	0.608900	0.177900	0.889700
H561	H56	0.668800	0.177300	0.830200
H571	H57	0.110300	0.608900	0.822100
H581	H58	0.169800	0.668800	0.822700
H591	H59	0.110300	0.391100	0.177900
H601	H60	0.169800	0.331200	0.177300
H611	H61	0.889700	0.391100	0.822100
H621	H62	0.830200	0.331200	0.822700
H631	H63	0.889700	0.608900	0.177900
H641	H64	0.830200	0.668800	0.177300
H651	H65	0.822100	0.110300	0.608900
H661	H66	0.822700	0.169800	0.668800
H671	H67	0.177900	0.110300	0.391100
H681	H68	0.177300	0.169800	0.331200
H691	H69	0.822100	0.889700	0.391100
H701	H70	0.822700	0.830200	0.331200
H711	H71	0.177900	0.889700	0.608900
H721	H72	0.177300	0.830200	0.668800
H731	H73	0.322100	0.108900	0.389700
H741	H74	0.322700	0.168800	0.330200
H751	H75	0.677900	0.891100	0.389700
H761	H76	0.677300	0.831200	0.330200
H771	H77	0.322100	0.891100	0.610300
H781	H78	0.322700	0.831200	0.669800
H791	H79	0.677900	0.108900	0.610300
H801	H80	0.677300	0.168800	0.669800
H811	H81	0.108900	0.610300	0.677900
H821	H82	0.168800	0.669800	0.677300
H831	H83	0.891100	0.610300	0.322100
H841	H84	0.831200	0.669800	0.322700
H851	H85	0.891100	0.389700	0.677900
H861	H86	0.831200	0.330200	0.677300
H871	H87	0.108900	0.389700	0.322100
H881	H88	0.168800	0.330200	0.322700
H891	H89	0.610300	0.322100	0.891100
H901	H90	0.669800	0.322700	0.831200
H911	H91	0.610300	0.677900	0.108900
H921	H92	0.669800	0.677300	0.168800
H931	H93	0.389700	0.322100	0.108900
H941	H94	0.330200	0.322700	0.168800
H951	H95	0.389700	0.677900	0.891100
H961	H96	0.330200	0.677300	0.831200
H971	H97	0.309700	0.190300	0.750000
H981	H98	0.690300	0.809700	0.750000
H991	H99	0.690300	0.190300	0.250000
H1001	H100	0.309700	0.809700	0.250000
H1011	H101	0.750000	0.309700	0.190300
H1021	H102	0.750000	0.690300	0.809700
H1031	H103	0.250000	0.690300	0.190300
H1041	H104	0.250000	0.309700	0.809700
H1051	H105	0.190300	0.750000	0.309700
H1061	H106	0.809700	0.750000	0.690300
H1071	H107	0.190300	0.250000	0.690300
H1081	H108	0.809700	0.250000	0.309700
H1091	H109	0.690300	0.809700	0.250000
H1101	H110	0.309700	0.190300	0.250000
H1111	H111	0.309700	0.809700	0.750000
H1121	H112	0.690300	0.190300	0.750000
H1131	H113	0.250000	0.690300	0.809700
H1141	H114	0.250000	0.309700	0.190300
H1151	H115	0.750000	0.309700	0.809700
H1161	H116	0.750000	0.690300	0.190300
H1171	H117	0.809700	0.250000	0.690300
H1181	H118	0.190300	0.250000	0.309700
H1191	H119	0.809700	0.750000	0.309700
H1201	H120	0.190300	0.750000	0.690300
C11	C1	0.378900	0.207200	0.878120
C21	C2	0.342820	0.206790	0.842140
C31	C3	0.621100	0.792800	0.878120
C41	C4	0.657180	0.793210	0.842140
C51	C5	0.621100	0.207200	0.121880
C61	C6	0.657180	0.206790	0.157860
C71	C7	0.378900	0.792800	0.121880
C81	C8	0.342820	0.793210	0.157860
C91	C9	0.878120	0.378900	0.207200
C101	C10	0.842140	0.342820	0.206790
C111	C11	0.878120	0.621100	0.792800
C121	C12	0.842140	0.657180	0.793210
C131	C13	0.121880	0.621100	0.207200
C141	C14	0.157860	0.657180	0.206790
C151	C15	0.121880	0.378900	0.792800
C161	C16	0.157860	0.342820	0.793210
C171	C17	0.207200	0.878120	0.378900
C181	C18	0.206790	0.842140	0.342820
C191	C19	0.792800	0.878120	0.621100
C201	C20	0.793210	0.842140	0.657180
C211	C21	0.207200	0.121880	0.621100
C221	C22	0.206790	0.157860	0.657180
C231	C23	0.792800	0.121880	0.378900
C241	C24	0.793210	0.157860	0.342820
C251	C25	0.707200	0.878900	0.621880
C261	C26	0.706790	0.842820	0.657860
C271	C27	0.292800	0.121100	0.621880
C281	C28	0.293210	0.157180	0.657860
C291	C29	0.707200	0.121100	0.378120
C301	C30	0.706790	0.157180	0.342140
C311	C31	0.292800	0.878900	0.378120
C321	C32	0.293210	0.842820	0.342140
C331	C33	0.878900	0.378120	0.292800
C341	C34	0.842820	0.342140	0.293210
C351	C35	0.121100	0.378120	0.707200
C361	C36	0.157180	0.342140	0.706790
C371	C37	0.121100	0.621880	0.292800
C381	C38	0.157180	0.657860	0.293210
C391	C39	0.878900	0.621880	0.707200
C401	C40	0.842820	0.657860	0.706790
C411	C41	0.378120	0.707200	0.121100
C421	C42	0.342140	0.706790	0.157180
C431	C43	0.378120	0.292800	0.878900
C441	C44	0.342140	0.293210	0.842820
C451	C45	0.621880	0.707200	0.878900
C461	C46	0.657860	0.706790	0.842820
C471	C47	0.621880	0.292800	0.121100
C481	C48	0.657860	0.293210	0.157180
C491	C49	0.621100	0.792800	0.121880
C501	C50	0.657180	0.793210	0.157860
C511	C51	0.378900	0.207200	0.121880
C521	C52	0.342820	0.206790	0.157860
C531	C53	0.378900	0.792800	0.878120
C541	C54	0.342820	0.793210	0.842140
C551	C55	0.621100	0.207200	0.878120
C561	C56	0.657180	0.206790	0.842140
C571	C57	0.121880	0.621100	0.792800
C581	C58	0.157860	0.657180	0.793210
C591	C59	0.121880	0.378900	0.207200
C601	C60	0.157860	0.342820	0.206790
C611	C61	0.878120	0.378900	0.792800
C621	C62	0.842140	0.342820	0.793210
C631	C63	0.878120	0.621100	0.207200
C641	C64	0.842140	0.657180	0.206790
C651	C65	0.792800	0.121880	0.621100
C661	C66	0.793210	0.157860	0.657180
C671	C67	0.207200	0.121880	0.378900
C681	C68	0.206790	0.157860	0.342820
C691	C69	0.792800	0.878120	0.378900
C701	C70	0.793210	0.842140	0.342820
C711	C71	0.207200	0.878120	0.621100
C721	C72	0.206790	0.842140	0.657180
C731	C73	0.292800	0.121100	0.378120
C741	C74	0.293210	0.157180	0.342140
C751	C75	0.707200	0.878900	0.378120
C761	C76	0.706790	0.842820	0.342140
C771	C77	0.292800	0.878900	0.621880
C781	C78	0.293210	0.842820	0.657860
C791	C79	0.707200	0.121100	0.621880
C801	C80	0.706790	0.157180	0.657860
C811	C81	0.121100	0.621880	0.707200
C821	C82	0.157180	0.657860	0.706790
C831	C83	0.878900	0.621880	0.292800
C841	C84	0.842820	0.657860	0.293210
C851	C85	0.878900	0.378120	0.707200
C861	C86	0.842820	0.342140	0.706790
C871	C87	0.121100	0.378120	0.292800
C881	C88	0.157180	0.342140	0.293210
C891	C89	0.621880	0.292800	0.878900
C901	C90	0.657860	0.293210	0.842820
C911	C91	0.621880	0.707200	0.121100
C921	C92	0.657860	0.706790	0.157180
C931	C93	0.378120	0.292800	0.121100
C941	C94	0.342140	0.293210	0.157180
C951	C95	0.378120	0.707200	0.878900
C961	C96	0.342140	0.706790	0.842820
C971	C97	0.435590	0.250000	0.935590
C981	C98	0.396450	0.250000	0.896450
C991	C99	0.324360	0.250000	0.824360
C1001	C100	0.285930	0.250000	0.785930
C1011	C101	0.564410	0.750000	0.935590
C1021	C102	0.603550	0.750000	0.896450
C1031	C103	0.675640	0.750000	0.824360
C1041	C104	0.714070	0.750000	0.785930
C1051	C105	0.564410	0.250000	0.064410
C1061	C106	0.603550	0.250000	0.103550
C1071	C107	0.675640	0.250000	0.175640
C1081	C108	0.714070	0.250000	0.214070
C1091	C109	0.435590	0.750000	0.064410
C1101	C110	0.396450	0.750000	0.103550
C1111	C111	0.324360	0.750000	0.175640
C1121	C112	0.285930	0.750000	0.214070
C1131	C113	0.935590	0.435590	0.250000
C1141	C114	0.896450	0.396450	0.250000
C1151	C115	0.824360	0.324360	0.250000
C1161	C116	0.785930	0.285930	0.250000
C1171	C117	0.935590	0.564410	0.750000
C1181	C118	0.896450	0.603550	0.750000
C1191	C119	0.824360	0.675640	0.750000
C1201	C120	0.785930	0.714070	0.750000
C1211	C121	0.064410	0.564410	0.250000
C1221	C122	0.103550	0.603550	0.250000
C1231	C123	0.175640	0.675640	0.250000
C1241	C124	0.214070	0.714070	0.250000
C1251	C125	0.064410	0.435590	0.750000
C1261	C126	0.103550	0.396450	0.750000
C1271	C127	0.175640	0.324360	0.750000
C1281	C128	0.214070	0.285930	0.750000
C1291	C129	0.250000	0.935590	0.435590
C1301	C130	0.250000	0.896450	0.396450
C1311	C131	0.250000	0.824360	0.324360
C1321	C132	0.250000	0.785930	0.285930
C1331	C133	0.750000	0.935590	0.564410
C1341	C134	0.750000	0.896450	0.603550
C1351	C135	0.750000	0.824360	0.675640
C1361	C136	0.750000	0.785930	0.714070
C1371	C137	0.250000	0.064410	0.564410
C1381	C138	0.250000	0.103550	0.603550
C1391	C139	0.250000	0.175640	0.675640
C1401	C140	0.250000	0.214070	0.714070
C1411	C141	0.750000	0.064410	0.435590
C1421	C142	0.750000	0.103550	0.396450
C1431	C143	0.750000	0.175640	0.324360
C1441	C144	0.750000	0.214070	0.285930
C1451	C145	0.564410	0.750000	0.064410
C1461	C146	0.603550	0.750000	0.103550
C1471	C147	0.675640	0.750000	0.175640
C1481	C148	0.714070	0.750000	0.214070
C1491	C149	0.435590	0.250000	0.064410
C1501	C150	0.396450	0.250000	0.103550
C1511	C151	0.324360	0.250000	0.175640
C1521	C152	0.285930	0.250000	0.214070
C1531	C153	0.435590	0.750000	0.935590
C1541	C154	0.396450	0.750000	0.896450
C1551	C155	0.324360	0.750000	0.824360
C1561	C156	0.285930	0.750000	0.785930
C1571	C157	0.564410	0.250000	0.935590
C1581	C158	0.603550	0.250000	0.896450
C1591	C159	0.675640	0.250000	0.824360
C1601	C160	0.714070	0.250000	0.785930
C1611	C161	0.064410	0.564410	0.750000
C1621	C162	0.103550	0.603550	0.750000
C1631	C163	0.175640	0.675640	0.750000
C1641	C164	0.214070	0.714070	0.750000
C1651	C165	0.064410	0.435590	0.250000
C1661	C166	0.103550	0.396450	0.250000
C1671	C167	0.175640	0.324360	0.250000
C1681	C168	0.214070	0.285930	0.250000
C1691	C169	0.935590	0.435590	0.750000
C1701	C170	0.896450	0.396450	0.750000
C1711	C171	0.824360	0.324360	0.750000
C1721	C172	0.785930	0.285930	0.750000
C1731	C173	0.935590	0.564410	0.250000
C1741	C174	0.896450	0.603550	0.250000
C1751	C175	0.824360	0.675640	0.250000
C1761	C176	0.785930	0.714070	0.250000
C1771	C177	0.750000	0.064410	0.564410
C1781	C178	0.750000	0.103550	0.603550
C1791	C179	0.750000	0.175640	0.675640
C1801	C180	0.750000	0.214070	0.714070
C1811	C181	0.250000	0.064410	0.435590
C1821	C182	0.250000	0.103550	0.396450
C1831	C183	0.250000	0.175640	0.324360
C1841	C184	0.250000	0.214070	0.285930
C1851	C185	0.750000	0.935590	0.435590
C1861	C186	0.750000	0.896450	0.396450
C1871	C187	0.750000	0.824360	0.324360
C1881	C188	0.750000	0.785930	0.285930
C1891	C189	0.250000	0.935590	0.564410
C1901	C190	0.250000	0.896450	0.603550
C1911	C191	0.250000	0.824360	0.675640
C1921	C192	0.250000	0.785930	0.714070
C1931	C193	0.285800	0.214200	0.750000
C1941	C194	0.714200	0.785800	0.750000
C1951	C195	0.714200	0.214200	0.250000
C1961	C196	0.285800	0.785800	0.250000
C1971	C197	0.750000	0.285800	0.214200
C1981	C198	0.750000	0.714200	0.785800
C1991	C199	0.250000	0.714200	0.214200
C2001	C200	0.250000	0.285800	0.785800
C2011	C201	0.214200	0.750000	0.285800
C2021	C202	0.785800	0.750000	0.714200
C2031	C203	0.214200	0.250000	0.714200
C2041	C204	0.785800	0.250000	0.285800
C2051	C205	0.714200	0.785800	0.250000
C2061	C206	0.285800	0.214200	0.250000
C2071	C207	0.285800	0.785800	0.750000
C2081	C208	0.714200	0.214200	0.750000
C2091	C209	0.250000	0.714200	0.785800
C2101	C210	0.250000	0.285800	0.214200
C2111	C211	0.750000	0.285800	0.785800
C2121	C212	0.750000	0.714200	0.214200
C2131	C213	0.785800	0.250000	0.714200
C2141	C214	0.214200	0.250000	0.285800
C2151	C215	0.785800	0.750000	0.285800
C2161	C216	0.214200	0.750000	0.714200
O11	O1	0.449940	0.209140	0.949830
O21	O2	0.550060	0.790860	0.949830
O31	O3	0.550060	0.209140	0.050170
O41	O4	0.449940	0.790860	0.050170
O51	O5	0.949830	0.449940	0.209140
O61	O6	0.949830	0.550060	0.790860
O71	O7	0.050170	0.550060	0.209140
O81	O8	0.050170	0.449940	0.790860
O91	O9	0.209140	0.949830	0.449940
O101	O10	0.790860	0.949830	0.550060
O111	O11	0.209140	0.050170	0.550060
O121	O12	0.790860	0.050170	0.449940
O131	O13	0.709140	0.949940	0.550170
O141	O14	0.290860	0.050060	0.550170
O151	O15	0.709140	0.050060	0.449830
O161	O16	0.290860	0.949940	0.449830
O171	O17	0.949940	0.449830	0.290860
O181	O18	0.050060	0.449830	0.709140
O191	O19	0.050060	0.550170	0.290860
O201	O20	0.949940	0.550170	0.709140
O211	O21	0.449830	0.709140	0.050060
O221	O22	0.449830	0.290860	0.949940
O231	O23	0.550170	0.709140	0.949940
O241	O24	0.550170	0.290860	0.050060
O251	O25	0.550060	0.790860	0.050170
O261	O26	0.449940	0.209140	0.050170
O271	O27	0.449940	0.790860	0.949830
O281	O28	0.550060	0.209140	0.949830
O291	O29	0.050170	0.550060	0.790860
O301	O30	0.050170	0.449940	0.209140
O311	O31	0.949830	0.449940	0.790860
O321	O32	0.949830	0.550060	0.209140
O331	O33	0.790860	0.050170	0.550060
O341	O34	0.209140	0.050170	0.449940
O351	O35	0.790860	0.949830	0.449940
O361	O36	0.209140	0.949830	0.550060
O371	O37	0.290860	0.050060	0.449830
O381	O38	0.709140	0.949940	0.449830
O391	O39	0.290860	0.949940	0.550170
O401	O40	0.709140	0.050060	0.550170
O411	O41	0.050060	0.550170	0.709140
O421	O42	0.949940	0.550170	0.290860
O431	O43	0.949940	0.449830	0.709140
O441	O44	0.050060	0.449830	0.290860
O451	O45	0.550170	0.290860	0.949940
O461	O46	0.550170	0.709140	0.050060
O471	O47	0.449830	0.290860	0.050060
O481	O48	0.449830	0.709140	0.949940
