data_BEFLUV_clean_PM
_symmetry_space_group_name_H-M	'P1'
_cell_length_a	14.661500
_cell_length_b	14.661500
_cell_length_c	9.614600
_cell_angle_alpha	90.000000
_cell_angle_beta	90.000000
_cell_angle_gamma	90.000000
_symmetry_Int_Tables_number 1

loop_
_symmetry_equiv_pos_as_xyz
'x,y,z'

loop_
_atom_site_label
_atom_site_type_symbol
_atom_site_fract_x
_atom_site_fract_y
_atom_site_fract_z
Al11	Al1	0.507600	0.136000	0.399900
P11	P1	0.511200	0.147800	0.064200
O11	O1	0.545200	0.135900	0.209700
O21	O2	0.426100	0.094900	0.034700
O31	O3	0.498700	0.247100	0.023800
O41	O4	0.585900	0.115600	0.969600
Al21	Al2	0.992400	0.364000	0.399900
P21	P2	0.988800	0.352200	0.064200
O51	O5	0.954800	0.364100	0.209700
O61	O6	0.073900	0.405100	0.034700
O71	O7	0.001300	0.252900	0.023800
O81	O8	0.914100	0.384400	0.969600
Al31	Al3	0.364000	0.507600	0.399900
P31	P3	0.352200	0.511200	0.064200
O91	O9	0.364100	0.545200	0.209700
O101	O10	0.405100	0.426100	0.034700
O111	O11	0.252900	0.498700	0.023800
O121	O12	0.384400	0.585900	0.969600
Al41	Al4	0.136000	0.992400	0.399900
P41	P4	0.147800	0.988800	0.064200
O131	O13	0.135900	0.954800	0.209700
O141	O14	0.094900	0.073900	0.034700
O151	O15	0.247100	0.001300	0.023800
O161	O16	0.115600	0.914100	0.969600
Al51	Al5	0.992400	0.136000	0.100100
P51	P5	0.988800	0.147800	0.435800
O171	O17	0.954800	0.135900	0.290300
O181	O18	0.073900	0.094900	0.465300
O191	O19	0.001300	0.247100	0.476200
O201	O20	0.914100	0.115600	0.530400
Al61	Al6	0.507600	0.364000	0.100100
P61	P6	0.511200	0.352200	0.435800
O211	O21	0.545200	0.364100	0.290300
O221	O22	0.426100	0.405100	0.465300
O231	O23	0.498700	0.252900	0.476200
O241	O24	0.585900	0.384400	0.530400
Al71	Al7	0.136000	0.507600	0.100100
P71	P7	0.147800	0.511200	0.435800
O251	O25	0.135900	0.545200	0.290300
O261	O26	0.094900	0.426100	0.465300
O271	O27	0.247100	0.498700	0.476200
O281	O28	0.115600	0.585900	0.530400
Al81	Al8	0.364000	0.992400	0.100100
P81	P8	0.352200	0.988800	0.435800
O291	O29	0.364100	0.954800	0.290300
O301	O30	0.405100	0.073900	0.465300
O311	O31	0.252900	0.001300	0.476200
O321	O32	0.384400	0.914100	0.530400
Al91	Al9	0.492400	0.864000	0.600100
P91	P9	0.488800	0.852200	0.935800
O331	O33	0.454800	0.864100	0.790300
O341	O34	0.573900	0.905100	0.965300
O351	O35	0.501300	0.752900	0.976200
O361	O36	0.414100	0.884400	0.030400
Al101	Al10	0.007600	0.636000	0.600100
P101	P10	0.011200	0.647800	0.935800
O371	O37	0.045200	0.635900	0.790300
O381	O38	0.926100	0.594900	0.965300
O391	O39	0.998700	0.747100	0.976200
O401	O40	0.085900	0.615600	0.030400
Al111	Al11	0.636000	0.492400	0.600100
P111	P11	0.647800	0.488800	0.935800
O411	O41	0.635900	0.454800	0.790300
O421	O42	0.594900	0.573900	0.965300
O431	O43	0.747100	0.501300	0.976200
O441	O44	0.615600	0.414100	0.030400
Al121	Al12	0.864000	0.007600	0.600100
P121	P12	0.852200	0.011200	0.935800
O451	O45	0.864100	0.045200	0.790300
O461	O46	0.905100	0.926100	0.965300
O471	O47	0.752900	0.998700	0.976200
O481	O48	0.884400	0.085900	0.030400
Al131	Al13	0.007600	0.864000	0.899900
P131	P13	0.011200	0.852200	0.564200
O491	O49	0.045200	0.864100	0.709700
O501	O50	0.926100	0.905100	0.534700
O511	O51	0.998700	0.752900	0.523800
O521	O52	0.085900	0.884400	0.469600
Al141	Al14	0.492400	0.636000	0.899900
P141	P14	0.488800	0.647800	0.564200
O531	O53	0.454800	0.635900	0.709700
O541	O54	0.573900	0.594900	0.534700
O551	O55	0.501300	0.747100	0.523800
O561	O56	0.414100	0.615600	0.469600
Al151	Al15	0.864000	0.492400	0.899900
P151	P15	0.852200	0.488800	0.564200
O571	O57	0.864100	0.454800	0.709700
O581	O58	0.905100	0.573900	0.534700
O591	O59	0.752900	0.501300	0.523800
O601	O60	0.884400	0.414100	0.469600
Al161	Al16	0.636000	0.007600	0.899900
P161	P16	0.647800	0.011200	0.564200
O611	O61	0.635900	0.045200	0.709700
O621	O62	0.594900	0.926100	0.534700
O631	O63	0.747100	0.998700	0.523800
O641	O64	0.615600	0.085900	0.469600
