data_BEFNAD_clean_PM
_symmetry_space_group_name_H-M	'P1'
_cell_length_a	13.807800
_cell_length_b	13.249000
_cell_length_c	13.842000
_cell_angle_alpha	90.000000
_cell_angle_beta	91.328000
_cell_angle_gamma	90.000000
_symmetry_Int_Tables_number 1

loop_
_symmetry_equiv_pos_as_xyz
'x,y,z'

loop_
_atom_site_label
_atom_site_type_symbol
_atom_site_fract_x
_atom_site_fract_y
_atom_site_fract_z
Ga11	Ga1	0.123300	0.860700	0.224300
Co11	Co1	0.026400	0.739100	0.622800
Co21	Co2	0.876700	0.139300	0.775700
P11	P1	0.968200	0.260900	0.606000
P21	P2	0.855800	0.622700	0.715900
O11	O1	0.925700	0.264100	0.502800
O21	O2	0.008100	0.365900	0.633000
O31	O3	0.881900	0.517100	0.751000
O41	O4	0.921000	0.650000	0.633800
O51	O5	0.909900	0.001300	0.744400
O61	O6	0.866500	0.699700	0.797000
O71	O7	0.003000	0.873100	0.841800
O81	O8	0.884100	0.236000	0.672600
O91	O9	0.752100	0.621900	0.676600
O101	O10	0.047700	0.182400	0.612000
Ga21	Ga2	0.623300	0.360700	0.224300
Co31	Co3	0.526400	0.239100	0.622800
Co41	Co4	0.376700	0.639300	0.775700
P31	P3	0.468200	0.760900	0.606000
P41	P4	0.355800	0.122700	0.715900
O111	O11	0.425700	0.764100	0.502800
O121	O12	0.508100	0.865900	0.633000
O131	O13	0.381900	0.017100	0.751000
O141	O14	0.421000	0.150000	0.633800
O151	O15	0.409900	0.501300	0.744400
O161	O16	0.366500	0.199700	0.797000
O171	O17	0.503000	0.373100	0.841800
O181	O18	0.384100	0.736000	0.672600
O191	O19	0.252100	0.121900	0.676600
O201	O20	0.547700	0.682400	0.612000
Ga31	Ga3	0.876700	0.860700	0.275700
Co51	Co5	0.973600	0.739100	0.877200
Co61	Co6	0.123300	0.139300	0.724300
P51	P5	0.031800	0.260900	0.894000
P61	P6	0.144200	0.622700	0.784100
O211	O21	0.074300	0.264100	0.997200
O221	O22	0.991900	0.365900	0.867000
O231	O23	0.118100	0.517100	0.749000
O241	O24	0.079000	0.650000	0.866200
O251	O25	0.090100	0.001300	0.755600
O261	O26	0.133500	0.699700	0.703000
O271	O27	0.997000	0.873100	0.658200
O281	O28	0.115900	0.236000	0.827400
O291	O29	0.247900	0.621900	0.823400
O301	O30	0.952300	0.182400	0.888000
Ga41	Ga4	0.376700	0.360700	0.275700
Co71	Co7	0.473600	0.239100	0.877200
Co81	Co8	0.623300	0.639300	0.724300
P71	P7	0.531800	0.760900	0.894000
P81	P8	0.644200	0.122700	0.784100
O311	O31	0.574300	0.764100	0.997200
O321	O32	0.491900	0.865900	0.867000
O331	O33	0.618100	0.017100	0.749000
O341	O34	0.579000	0.150000	0.866200
O351	O35	0.590100	0.501300	0.755600
O361	O36	0.633500	0.199700	0.703000
O371	O37	0.497000	0.373100	0.658200
O381	O38	0.615900	0.736000	0.827400
O391	O39	0.747900	0.121900	0.823400
O401	O40	0.452300	0.682400	0.888000
Co91	Co9	0.973600	0.260900	0.377200
P91	P9	0.031800	0.739100	0.394000
P101	P10	0.144200	0.377300	0.284100
O411	O41	0.074300	0.735900	0.497200
O421	O42	0.991900	0.634100	0.367000
O431	O43	0.118100	0.482900	0.249000
O441	O44	0.079000	0.350000	0.366200
O451	O45	0.090100	0.998700	0.255600
O461	O46	0.133500	0.300300	0.203000
O471	O47	0.997000	0.126900	0.158200
O481	O48	0.115900	0.764000	0.327400
O491	O49	0.247900	0.378100	0.323400
O501	O50	0.952300	0.817600	0.388000
Co101	Co10	0.473600	0.760900	0.377200
P111	P11	0.531800	0.239100	0.394000
P121	P12	0.644200	0.877300	0.284100
O511	O51	0.574300	0.235900	0.497200
O521	O52	0.491900	0.134100	0.367000
O531	O53	0.618100	0.982900	0.249000
O541	O54	0.579000	0.850000	0.366200
O551	O55	0.590100	0.498700	0.255600
O561	O56	0.633500	0.800300	0.203000
O571	O57	0.497000	0.626900	0.158200
O581	O58	0.615900	0.264000	0.327400
O591	O59	0.747900	0.878100	0.323400
O601	O60	0.452300	0.317600	0.388000
Co111	Co11	0.026400	0.260900	0.122800
P131	P13	0.968200	0.739100	0.106000
P141	P14	0.855800	0.377300	0.215900
O611	O61	0.925700	0.735900	0.002800
O621	O62	0.008100	0.634100	0.133000
O631	O63	0.881900	0.482900	0.251000
O641	O64	0.921000	0.350000	0.133800
O651	O65	0.909900	0.998700	0.244400
O661	O66	0.866500	0.300300	0.297000
O671	O67	0.003000	0.126900	0.341800
O681	O68	0.884100	0.764000	0.172600
O691	O69	0.752100	0.378100	0.176600
O701	O70	0.047700	0.817600	0.112000
Co121	Co12	0.526400	0.760900	0.122800
P151	P15	0.468200	0.239100	0.106000
P161	P16	0.355800	0.877300	0.215900
O711	O71	0.425700	0.235900	0.002800
O721	O72	0.508100	0.134100	0.133000
O731	O73	0.381900	0.982900	0.251000
O741	O74	0.421000	0.850000	0.133800
O751	O75	0.409900	0.498700	0.244400
O761	O76	0.366500	0.800300	0.297000
O771	O77	0.503000	0.626900	0.341800
O781	O78	0.384100	0.264000	0.172600
O791	O79	0.252100	0.878100	0.176600
O801	O80	0.547700	0.317600	0.112000
Co131	Co13	0.000000	0.441200	0.750000
P171	P17	0.000000	0.937900	0.750000
Co141	Co14	0.500000	0.941200	0.750000
P181	P18	0.500000	0.437900	0.750000
Co151	Co15	0.000000	0.558800	0.250000
P191	P19	0.000000	0.062100	0.250000
Co161	Co16	0.500000	0.058800	0.250000
P201	P20	0.500000	0.562100	0.250000
