data_BEFNIL_clean_PM
_symmetry_space_group_name_H-M	'P1'
_cell_length_a	10.240000
_cell_length_b	10.240000
_cell_length_c	9.652300
_cell_angle_alpha	90.000000
_cell_angle_beta	90.000000
_cell_angle_gamma	90.000000
_symmetry_Int_Tables_number 1

loop_
_symmetry_equiv_pos_as_xyz
'x,y,z'

loop_
_atom_site_label
_atom_site_type_symbol
_atom_site_fract_x
_atom_site_fract_y
_atom_site_fract_z
O11	O1	0.696500	0.481800	0.781900
O21	O2	0.196500	0.981800	0.281900
O31	O3	0.303500	0.518200	0.781900
O41	O4	0.803500	0.018200	0.281900
O51	O5	0.481800	0.303500	0.218100
O61	O6	0.981800	0.803500	0.718100
O71	O7	0.518200	0.696500	0.218100
O81	O8	0.018200	0.196500	0.718100
O91	O9	0.303500	0.481800	0.218100
O101	O10	0.803500	0.981800	0.718100
O111	O11	0.696500	0.518200	0.218100
O121	O12	0.196500	0.018200	0.718100
O131	O13	0.518200	0.303500	0.781900
O141	O14	0.018200	0.803500	0.281900
O151	O15	0.481800	0.696500	0.781900
O161	O16	0.981800	0.196500	0.281900
Al11	Al1	0.633200	0.366800	0.131600
P11	P1	0.664700	0.335300	0.809100
O171	O17	0.699900	0.300100	0.955500
O181	O18	0.741300	0.258700	0.704600
Al21	Al2	0.133200	0.866800	0.631600
P21	P2	0.164700	0.835300	0.309100
O191	O19	0.199900	0.800100	0.455500
O201	O20	0.241300	0.758700	0.204600
Al31	Al3	0.366800	0.633200	0.131600
P31	P3	0.335300	0.664700	0.809100
O211	O21	0.300100	0.699900	0.955500
O221	O22	0.258700	0.741300	0.704600
Al41	Al4	0.866800	0.133200	0.631600
P41	P4	0.835300	0.164700	0.309100
O231	O23	0.800100	0.199900	0.455500
O241	O24	0.758700	0.241300	0.204600
Al51	Al5	0.366800	0.366800	0.868400
P51	P5	0.335300	0.335300	0.190900
O251	O25	0.300100	0.300100	0.044500
O261	O26	0.258700	0.258700	0.295400
Al61	Al6	0.866800	0.866800	0.368400
P61	P6	0.835300	0.835300	0.690900
O271	O27	0.800100	0.800100	0.544500
O281	O28	0.758700	0.758700	0.795400
Al71	Al7	0.633200	0.633200	0.868400
P71	P7	0.664700	0.664700	0.190900
O291	O29	0.699900	0.699900	0.044500
O301	O30	0.741300	0.741300	0.295400
Al81	Al8	0.133200	0.133200	0.368400
P81	P8	0.164700	0.164700	0.690900
O311	O31	0.199900	0.199900	0.544500
O321	O32	0.241300	0.241300	0.795400
