data_BEKSAM_clean_PM
_symmetry_space_group_name_H-M	'P1'
_cell_length_a	14.375300
_cell_length_b	11.941000
_cell_length_c	10.176000
_cell_angle_alpha	90.000000
_cell_angle_beta	91.102000
_cell_angle_gamma	90.000000
_symmetry_Int_Tables_number 1

loop_
_symmetry_equiv_pos_as_xyz
'x,y,z'

loop_
_atom_site_label
_atom_site_type_symbol
_atom_site_fract_x
_atom_site_fract_y
_atom_site_fract_z
Ga11	Ga1	0.248920	0.500740	0.496540
Ga21	Ga2	0.087560	0.375000	0.673430
Ga31	Ga3	0.411020	0.361800	0.345660
Ga41	Ga4	0.086280	0.632190	0.660200
Ga51	Ga5	0.409430	0.633650	0.330750
P11	P1	0.125170	0.300830	0.392120
P21	P2	0.123520	0.692810	0.375490
P31	P3	0.375830	0.697680	0.611210
P41	P4	0.376500	0.311770	0.629280
O11	O1	0.131000	0.500500	0.592800
O21	O2	0.367600	0.499100	0.391300
O31	O3	0.209300	0.376700	0.382600
O41	O4	0.292800	0.619500	0.615700
O51	O5	0.041000	0.359000	0.325000
O61	O6	0.207000	0.614700	0.370500
O71	O7	0.040300	0.634100	0.308400
O81	O8	0.143600	0.189000	0.319600
O91	O9	0.461000	0.638800	0.673000
O101	O10	0.144300	0.800000	0.298500
O111	O11	0.102100	0.729100	0.516300
O121	O12	0.296600	0.394200	0.629300
O131	O13	0.395000	0.270000	0.489000
O141	O14	0.463800	0.368500	0.691700
O151	O15	0.355800	0.803700	0.687600
O161	O16	0.351400	0.208400	0.709900
O171	O17	0.107600	0.269400	0.536500
O181	O18	0.394900	0.734700	0.468600
Ga61	Ga6	0.251080	0.000740	0.003460
Ga71	Ga7	0.412440	0.875000	0.826570
Ga81	Ga8	0.088980	0.861800	0.154340
Ga91	Ga9	0.413720	0.132190	0.839800
Ga101	Ga10	0.090570	0.133650	0.169250
P51	P5	0.374830	0.800830	0.107880
P61	P6	0.376480	0.192810	0.124510
P71	P7	0.124170	0.197680	0.888790
P81	P8	0.123500	0.811770	0.870720
O191	O19	0.369000	0.000500	0.907200
O201	O20	0.132400	0.999100	0.108700
O211	O21	0.290700	0.876700	0.117400
O221	O22	0.207200	0.119500	0.884300
O231	O23	0.459000	0.859000	0.175000
O241	O24	0.293000	0.114700	0.129500
O251	O25	0.459700	0.134100	0.191600
O261	O26	0.356400	0.689000	0.180400
O271	O27	0.039000	0.138800	0.827000
O281	O28	0.355700	0.300000	0.201500
O291	O29	0.397900	0.229100	0.983700
O301	O30	0.203400	0.894200	0.870700
O311	O31	0.105000	0.770000	0.011000
O321	O32	0.036200	0.868500	0.808300
O331	O33	0.144200	0.303700	0.812400
O341	O34	0.148600	0.708400	0.790100
O351	O35	0.392400	0.769400	0.963500
O361	O36	0.105100	0.234700	0.031400
Ga111	Ga11	0.751080	0.499260	0.503460
Ga121	Ga12	0.912440	0.625000	0.326570
Ga131	Ga13	0.588980	0.638200	0.654340
Ga141	Ga14	0.913720	0.367810	0.339800
Ga151	Ga15	0.590570	0.366350	0.669250
P91	P9	0.874830	0.699170	0.607880
P101	P10	0.876480	0.307190	0.624510
P111	P11	0.624170	0.302320	0.388790
P121	P12	0.623500	0.688230	0.370720
O371	O37	0.869000	0.499500	0.407200
O381	O38	0.632400	0.500900	0.608700
O391	O39	0.790700	0.623300	0.617400
O401	O40	0.707200	0.380500	0.384300
O411	O41	0.959000	0.641000	0.675000
O421	O42	0.793000	0.385300	0.629500
O431	O43	0.959700	0.365900	0.691600
O441	O44	0.856400	0.811000	0.680400
O451	O45	0.539000	0.361200	0.327000
O461	O46	0.855700	0.200000	0.701500
O471	O47	0.897900	0.270900	0.483700
O481	O48	0.703400	0.605800	0.370700
O491	O49	0.605000	0.730000	0.511000
O501	O50	0.536200	0.631500	0.308300
O511	O51	0.644200	0.196300	0.312400
O521	O52	0.648600	0.791600	0.290100
O531	O53	0.892400	0.730600	0.463500
O541	O54	0.605100	0.265300	0.531400
Ga161	Ga16	0.748920	0.999260	0.996540
Ga171	Ga17	0.587560	0.125000	0.173430
Ga181	Ga18	0.911020	0.138200	0.845660
Ga191	Ga19	0.586280	0.867810	0.160200
Ga201	Ga20	0.909430	0.866350	0.830750
P131	P13	0.625170	0.199170	0.892120
P141	P14	0.623520	0.807190	0.875490
P151	P15	0.875830	0.802320	0.111210
P161	P16	0.876500	0.188230	0.129280
O551	O55	0.631000	0.999500	0.092800
O561	O56	0.867600	0.000900	0.891300
O571	O57	0.709300	0.123300	0.882600
O581	O58	0.792800	0.880500	0.115700
O591	O59	0.541000	0.141000	0.825000
O601	O60	0.707000	0.885300	0.870500
O611	O61	0.540300	0.865900	0.808400
O621	O62	0.643600	0.311000	0.819600
O631	O63	0.961000	0.861200	0.173000
O641	O64	0.644300	0.700000	0.798500
O651	O65	0.602100	0.770900	0.016300
O661	O66	0.796600	0.105800	0.129300
O671	O67	0.895000	0.230000	0.989000
O681	O68	0.963800	0.131500	0.191700
O691	O69	0.855800	0.696300	0.187600
O701	O70	0.851400	0.291600	0.209900
O711	O71	0.607600	0.230600	0.036500
O721	O72	0.894900	0.765300	0.968600
