data_BEKYOG_clean_PM
_symmetry_space_group_name_H-M	'P1'
_cell_length_a	11.737000
_cell_length_b	11.737000
_cell_length_c	12.313000
_cell_angle_alpha	72.092400
_cell_angle_beta	72.092400
_cell_angle_gamma	76.913300
_symmetry_Int_Tables_number 1

loop_
_symmetry_equiv_pos_as_xyz
'x,y,z'

loop_
_atom_site_label
_atom_site_type_symbol
_atom_site_fract_x
_atom_site_fract_y
_atom_site_fract_z
Cr11	Cr1	0.204570	0.213810	0.475460
Cr21	Cr2	0.786190	0.795430	0.024540
Cr31	Cr3	0.795430	0.786190	0.524540
Cr41	Cr4	0.213810	0.204570	0.975460
Ag11	Ag1	0.949270	0.556090	0.745080
Ag21	Ag2	0.443910	0.050730	0.754920
Ag31	Ag3	0.050730	0.443910	0.254920
Ag41	Ag4	0.556090	0.949270	0.245080
Ag51	Ag5	0.956770	0.043230	0.750000
Ag61	Ag6	0.043230	0.956770	0.250000
C11	C1	0.042200	0.331600	0.633000
C21	C2	0.122200	0.426000	0.543900
C31	C3	0.827400	0.552000	0.129000
C41	C4	0.857700	0.564300	0.997600
C51	C5	0.034600	0.126000	0.925000
C61	C6	0.156300	0.066300	0.858400
C71	C7	0.668400	0.957800	0.867000
C81	C8	0.574000	0.877800	0.956100
C91	C9	0.448000	0.172600	0.371000
C101	C10	0.435700	0.142300	0.502400
C111	C11	0.874000	0.965400	0.575000
C121	C12	0.933700	0.843700	0.641600
C131	C13	0.957800	0.668400	0.367000
C141	C14	0.877800	0.574000	0.456100
C151	C15	0.172600	0.448000	0.871000
C161	C16	0.142300	0.435700	0.002400
C171	C17	0.965400	0.874000	0.075000
C181	C18	0.843700	0.933700	0.141600
C191	C19	0.331600	0.042200	0.133000
C201	C20	0.426000	0.122200	0.043900
C211	C21	0.552000	0.827400	0.629000
C221	C22	0.564300	0.857700	0.497600
C231	C23	0.126000	0.034600	0.425000
C241	C24	0.066300	0.156300	0.358400
O11	O1	0.068500	0.226300	0.613800
O21	O2	0.200700	0.384500	0.462500
O31	O3	0.959400	0.361200	0.716000
O41	O4	0.105300	0.530700	0.552300
O51	O5	0.788900	0.652100	0.158600
O61	O6	0.842300	0.672700	0.933900
O71	O7	0.845300	0.450300	0.197800
O81	O8	0.894200	0.474600	0.956400
O91	O9	0.045800	0.187600	0.990700
O101	O10	0.248400	0.095400	0.871200
O111	O11	0.937000	0.113200	0.917100
O121	O12	0.158600	0.996800	0.800400
O131	O13	0.773700	0.931500	0.886200
O141	O14	0.615500	0.799300	0.037500
O151	O15	0.638800	0.040600	0.784000
O161	O16	0.469300	0.894700	0.947700
O171	O17	0.347900	0.211100	0.341400
O181	O18	0.327300	0.157700	0.566100
O191	O19	0.549700	0.154700	0.302200
O201	O20	0.525400	0.105800	0.543600
O211	O21	0.812400	0.954200	0.509300
O221	O22	0.904600	0.751600	0.628800
O231	O23	0.886800	0.063000	0.582900
O241	O24	0.003200	0.841400	0.699600
O251	O25	0.931500	0.773700	0.386200
O261	O26	0.799300	0.615500	0.537500
O271	O27	0.040600	0.638800	0.284000
O281	O28	0.894700	0.469300	0.447700
O291	O29	0.211100	0.347900	0.841400
O301	O30	0.157700	0.327300	0.066100
O311	O31	0.154700	0.549700	0.802200
O321	O32	0.105800	0.525400	0.043600
O331	O33	0.954200	0.812400	0.009300
O341	O34	0.751600	0.904600	0.128800
O351	O35	0.063000	0.886800	0.082900
O361	O36	0.841400	0.003200	0.199600
O371	O37	0.226300	0.068500	0.113800
O381	O38	0.384500	0.200700	0.962500
O391	O39	0.361200	0.959400	0.216000
O401	O40	0.530700	0.105300	0.052300
O411	O41	0.652100	0.788900	0.658600
O421	O42	0.672700	0.842300	0.433900
O431	O43	0.450300	0.845300	0.697800
O441	O44	0.474600	0.894200	0.456400
O451	O45	0.187600	0.045800	0.490700
O461	O46	0.095400	0.248400	0.371200
O471	O47	0.113200	0.937000	0.417100
O481	O48	0.996800	0.158600	0.300400
