data_BEKYUM_clean_PM
_symmetry_space_group_name_H-M	'P1'
_cell_length_a	18.302000
_cell_length_b	14.670000
_cell_length_c	12.298000
_cell_angle_alpha	90.000000
_cell_angle_beta	113.620000
_cell_angle_gamma	90.000000
_symmetry_Int_Tables_number 1

loop_
_symmetry_equiv_pos_as_xyz
'x,y,z'

loop_
_atom_site_label
_atom_site_type_symbol
_atom_site_fract_x
_atom_site_fract_y
_atom_site_fract_z
Ag11	Ag1	0.245470	0.197950	0.744620
Cr11	Cr1	0.289720	0.495100	0.474630
O11	O1	0.351300	0.419900	0.615600
O21	O2	0.205700	0.408500	0.460200
O31	O3	0.338300	0.300700	0.715000
O41	O4	0.181300	0.287400	0.552400
C11	C1	0.314000	0.355300	0.634600
C21	C2	0.223200	0.347800	0.539700
Ag21	Ag2	0.922480	0.810310	0.128520
O51	O5	0.781000	0.569400	0.160600
O61	O6	0.743100	0.584500	0.934300
O71	O7	0.853300	0.696000	0.196900
O81	O8	0.814600	0.710300	0.957800
C31	C3	0.811700	0.637900	0.131000
C41	C4	0.790300	0.647000	0.996700
O91	O9	0.882800	0.928600	0.990100
O101	O10	0.826600	0.077400	0.871300
O111	O11	0.973800	0.912400	0.915600
O121	O12	0.921600	0.080200	0.799600
C51	C5	0.918300	0.953500	0.924400
C61	C6	0.888000	0.044200	0.857400
K11	K1	0.000600	0.729600	0.867800
Ag31	Ag3	0.073500	0.654800	0.794400
Ag41	Ag4	0.041600	0.760600	0.936800
Ag51	Ag5	0.948600	0.724400	0.881900
Ag61	Ag6	0.754530	0.197950	0.755380
Cr21	Cr2	0.710280	0.495100	0.025370
O131	O13	0.648700	0.419900	0.884400
O141	O14	0.794300	0.408500	0.039800
O151	O15	0.661700	0.300700	0.785000
O161	O16	0.818700	0.287400	0.947600
C71	C7	0.686000	0.355300	0.865400
C81	C8	0.776800	0.347800	0.960300
Ag71	Ag7	0.077520	0.810310	0.371480
O171	O17	0.219000	0.569400	0.339400
O181	O18	0.256900	0.584500	0.565700
O191	O19	0.146700	0.696000	0.303100
O201	O20	0.185400	0.710300	0.542200
C91	C9	0.188300	0.637900	0.369000
C101	C10	0.209700	0.647000	0.503300
O211	O21	0.117200	0.928600	0.509900
O221	O22	0.173400	0.077400	0.628700
O231	O23	0.026200	0.912400	0.584400
O241	O24	0.078400	0.080200	0.700400
C111	C11	0.081700	0.953500	0.575600
C121	C12	0.112000	0.044200	0.642600
K21	K2	0.999400	0.729600	0.632200
Ag81	Ag8	0.926500	0.654800	0.705600
Ag91	Ag9	0.958400	0.760600	0.563200
Ag101	Ag10	0.051400	0.724400	0.618100
Ag111	Ag11	0.577520	0.689690	0.871480
O251	O25	0.719000	0.930600	0.839400
O261	O26	0.756900	0.915500	0.065700
O271	O27	0.646700	0.804000	0.803100
O281	O28	0.685400	0.789700	0.042200
C131	C13	0.688300	0.862100	0.869000
C141	C14	0.709700	0.853000	0.003300
O291	O29	0.617200	0.571400	0.009900
O301	O30	0.673400	0.422600	0.128700
O311	O31	0.526200	0.587600	0.084400
O321	O32	0.578400	0.419800	0.200400
C151	C15	0.581700	0.546500	0.075600
C161	C16	0.612000	0.455800	0.142600
K31	K3	0.499400	0.770400	0.132200
Ag121	Ag12	0.426500	0.845200	0.205600
Ag131	Ag13	0.458400	0.739400	0.063200
Ag141	Ag14	0.551400	0.775600	0.118100
Ag151	Ag15	0.254530	0.302050	0.255380
Cr31	Cr3	0.210280	0.004900	0.525370
O331	O33	0.148700	0.080100	0.384400
O341	O34	0.294300	0.091500	0.539800
O351	O35	0.161700	0.199300	0.285000
O361	O36	0.318700	0.212600	0.447600
C171	C17	0.186000	0.144700	0.365400
C181	C18	0.276800	0.152200	0.460300
Ag161	Ag16	0.422480	0.689690	0.628520
O371	O37	0.281000	0.930600	0.660600
O381	O38	0.243100	0.915500	0.434300
O391	O39	0.353300	0.804000	0.696900
O401	O40	0.314600	0.789700	0.457800
C191	C19	0.311700	0.862100	0.631000
C201	C20	0.290300	0.853000	0.496700
O411	O41	0.382800	0.571400	0.490100
O421	O42	0.326600	0.422600	0.371300
O431	O43	0.473800	0.587600	0.415600
O441	O44	0.421600	0.419800	0.299600
C211	C21	0.418300	0.546500	0.424400
C221	C22	0.388000	0.455800	0.357400
K41	K4	0.500600	0.770400	0.367800
Ag171	Ag17	0.573500	0.845200	0.294400
Ag181	Ag18	0.541600	0.739400	0.436800
Ag191	Ag19	0.448600	0.775600	0.381900
Ag201	Ag20	0.745470	0.302050	0.244620
Cr41	Cr4	0.789720	0.004900	0.974630
O451	O45	0.851300	0.080100	0.115600
O461	O46	0.705700	0.091500	0.960200
O471	O47	0.838300	0.199300	0.215000
O481	O48	0.681300	0.212600	0.052400
C231	C23	0.814000	0.144700	0.134600
C241	C24	0.723200	0.152200	0.039700
Ag211	Ag21	0.000000	0.958000	0.750000
Ag221	Ag22	0.500000	0.542000	0.250000
Ag231	Ag23	0.422480	0.310310	0.128520
O491	O49	0.281000	0.069400	0.160600
O501	O50	0.243100	0.084500	0.934300
O511	O51	0.353300	0.196000	0.196900
O521	O52	0.314600	0.210300	0.957800
C251	C25	0.311700	0.137900	0.131000
C261	C26	0.290300	0.147000	0.996700
O531	O53	0.382800	0.428600	0.990100
O541	O54	0.326600	0.577400	0.871300
O551	O55	0.473800	0.412400	0.915600
O561	O56	0.421600	0.580200	0.799600
C271	C27	0.418300	0.453500	0.924400
C281	C28	0.388000	0.544200	0.857400
K51	K5	0.500600	0.229600	0.867800
Ag241	Ag24	0.573500	0.154800	0.794400
Ag251	Ag25	0.541600	0.260600	0.936800
Ag261	Ag26	0.448600	0.224400	0.881900
Ag271	Ag27	0.745470	0.697950	0.744620
Cr51	Cr5	0.789720	0.995100	0.474630
O571	O57	0.851300	0.919900	0.615600
O581	O58	0.705700	0.908500	0.460200
O591	O59	0.838300	0.800700	0.715000
O601	O60	0.681300	0.787400	0.552400
C291	C29	0.814000	0.855300	0.634600
C301	C30	0.723200	0.847800	0.539700
Ag281	Ag28	0.577520	0.310310	0.371480
O611	O61	0.719000	0.069400	0.339400
O621	O62	0.756900	0.084500	0.565700
O631	O63	0.646700	0.196000	0.303100
O641	O64	0.685400	0.210300	0.542200
C311	C31	0.688300	0.137900	0.369000
C321	C32	0.709700	0.147000	0.503300
O651	O65	0.617200	0.428600	0.509900
O661	O66	0.673400	0.577400	0.628700
O671	O67	0.526200	0.412400	0.584400
O681	O68	0.578400	0.580200	0.700400
C331	C33	0.581700	0.453500	0.575600
C341	C34	0.612000	0.544200	0.642600
K61	K6	0.499400	0.229600	0.632200
Ag291	Ag29	0.426500	0.154800	0.705600
Ag301	Ag30	0.458400	0.260600	0.563200
Ag311	Ag31	0.551400	0.224400	0.618100
Ag321	Ag32	0.254530	0.697950	0.755380
Cr61	Cr6	0.210280	0.995100	0.025370
O691	O69	0.148700	0.919900	0.884400
O701	O70	0.294300	0.908500	0.039800
O711	O71	0.161700	0.800700	0.785000
O721	O72	0.318700	0.787400	0.947600
C351	C35	0.186000	0.855300	0.865400
C361	C36	0.276800	0.847800	0.960300
Ag331	Ag33	0.754530	0.802050	0.255380
Cr71	Cr7	0.710280	0.504900	0.525370
O731	O73	0.648700	0.580100	0.384400
O741	O74	0.794300	0.591500	0.539800
O751	O75	0.661700	0.699300	0.285000
O761	O76	0.818700	0.712600	0.447600
C371	C37	0.686000	0.644700	0.365400
C381	C38	0.776800	0.652200	0.460300
Ag341	Ag34	0.077520	0.189690	0.871480
O771	O77	0.219000	0.430600	0.839400
O781	O78	0.256900	0.415500	0.065700
O791	O79	0.146700	0.304000	0.803100
O801	O80	0.185400	0.289700	0.042200
C391	C39	0.188300	0.362100	0.869000
C401	C40	0.209700	0.353000	0.003300
O811	O81	0.117200	0.071400	0.009900
O821	O82	0.173400	0.922600	0.128700
O831	O83	0.026200	0.087600	0.084400
O841	O84	0.078400	0.919800	0.200400
C411	C41	0.081700	0.046500	0.075600
C421	C42	0.112000	0.955800	0.142600
K71	K7	0.999400	0.270400	0.132200
Ag351	Ag35	0.926500	0.345200	0.205600
Ag361	Ag36	0.958400	0.239400	0.063200
Ag371	Ag37	0.051400	0.275600	0.118100
Ag381	Ag38	0.245470	0.802050	0.244620
Cr81	Cr8	0.289720	0.504900	0.974630
O851	O85	0.351300	0.580100	0.115600
O861	O86	0.205700	0.591500	0.960200
O871	O87	0.338300	0.699300	0.215000
O881	O88	0.181300	0.712600	0.052400
C431	C43	0.314000	0.644700	0.134600
C441	C44	0.223200	0.652200	0.039700
Ag391	Ag39	0.922480	0.189690	0.628520
O891	O89	0.781000	0.430600	0.660600
O901	O90	0.743100	0.415500	0.434300
O911	O91	0.853300	0.304000	0.696900
O921	O92	0.814600	0.289700	0.457800
C451	C45	0.811700	0.362100	0.631000
C461	C46	0.790300	0.353000	0.496700
O931	O93	0.882800	0.071400	0.490100
O941	O94	0.826600	0.922600	0.371300
O951	O95	0.973800	0.087600	0.415600
O961	O96	0.921600	0.919800	0.299600
C471	C47	0.918300	0.046500	0.424400
C481	C48	0.888000	0.955800	0.357400
K81	K8	0.000600	0.270400	0.367800
Ag401	Ag40	0.073500	0.345200	0.294400
Ag411	Ag41	0.041600	0.239400	0.436800
Ag421	Ag42	0.948600	0.275600	0.381900
Ag431	Ag43	0.500000	0.458000	0.750000
Ag441	Ag44	0.000000	0.042000	0.250000
