data_BELTUJ_clean_PM
_symmetry_space_group_name_H-M	'P1'
_cell_length_a	19.536000
_cell_length_b	24.875000
_cell_length_c	24.962700
_cell_angle_alpha	90.000000
_cell_angle_beta	90.000000
_cell_angle_gamma	90.000000
_symmetry_Int_Tables_number 1

loop_
_symmetry_equiv_pos_as_xyz
'x,y,z'

loop_
_atom_site_label
_atom_site_type_symbol
_atom_site_fract_x
_atom_site_fract_y
_atom_site_fract_z
Co11	Co1	0.917200	0.906560	0.922020
Co21	Co2	0.750520	0.940390	0.875560
Co31	Co3	0.080540	0.527190	0.917650
Co41	Co4	0.417200	0.093440	0.577980
Co51	Co5	0.250520	0.059610	0.624440
Co61	Co6	0.580540	0.472810	0.582350
Co71	Co7	0.582800	0.406560	0.077980
Co81	Co8	0.749480	0.440390	0.124440
Co91	Co9	0.419460	0.027190	0.082350
Co101	Co10	0.082800	0.593440	0.422020
Co111	Co11	0.249480	0.559610	0.375560
Co121	Co12	0.919460	0.972810	0.417650
Co131	Co13	0.082800	0.093440	0.077980
Co141	Co14	0.249480	0.059610	0.124440
Co151	Co15	0.919460	0.472810	0.082350
Co161	Co16	0.582800	0.906560	0.422020
Co171	Co17	0.749480	0.940390	0.375560
Co181	Co18	0.419460	0.527190	0.417650
Co191	Co19	0.417200	0.593440	0.922020
Co201	Co20	0.250520	0.559610	0.875560
Co211	Co21	0.580540	0.972810	0.917650
Co221	Co22	0.917200	0.406560	0.577980
Co231	Co23	0.750520	0.440390	0.624440
Co241	Co24	0.080540	0.027190	0.582350
P11	P1	0.916770	0.762670	0.597040
P21	P2	0.089340	0.881860	0.904100
P31	P3	0.416770	0.237330	0.902960
P41	P4	0.589340	0.118140	0.595900
P51	P5	0.583230	0.262670	0.402960
P61	P6	0.410660	0.381860	0.095900
P71	P7	0.083230	0.737330	0.097040
P81	P8	0.910660	0.618140	0.404100
P91	P9	0.083230	0.237330	0.402960
P101	P10	0.910660	0.118140	0.095900
P111	P11	0.583230	0.762670	0.097040
P121	P12	0.410660	0.881860	0.404100
P131	P13	0.416770	0.737330	0.597040
P141	P14	0.589340	0.618140	0.904100
P151	P15	0.916770	0.262670	0.902960
P161	P16	0.089340	0.381860	0.595900
H11	H1	0.995600	0.789100	0.689000
H21	H2	0.975500	0.830800	0.772300
H31	H3	0.774900	0.845000	0.735500
H41	H4	0.795200	0.800800	0.653900
H51	H5	0.978400	0.673000	0.546800
H61	H6	0.962800	0.579000	0.547200
H71	H7	0.815900	0.596000	0.661600
H81	H8	0.832400	0.689200	0.660500
H91	H9	0.892500	0.859400	0.542300
H101	H10	0.802900	0.897900	0.492000
H111	H11	0.698100	0.757100	0.502500
H121	H12	0.784200	0.720300	0.554400
H131	H13	0.181000	0.809600	0.845900
H141	H14	0.195000	0.716600	0.843000
H151	H15	0.026900	0.697300	0.937200
H161	H16	0.015900	0.790900	0.944000
H171	H17	0.210800	0.909700	0.843200
H181	H18	0.230300	0.953400	0.761100
H191	H19	0.026100	0.968700	0.739100
H201	H20	0.006600	0.924600	0.820700
H211	H21	0.211100	0.835200	0.958700
H221	H22	0.298800	0.872600	0.010100
H231	H23	0.209700	0.018600	0.000800
H241	H24	0.122500	0.982300	0.948600
H251	H25	0.495600	0.210900	0.811000
H261	H26	0.475500	0.169200	0.727700
H271	H27	0.274900	0.155000	0.764500
H281	H28	0.295200	0.199200	0.846100
H291	H29	0.478400	0.327000	0.953200
H301	H30	0.462800	0.421000	0.952800
H311	H31	0.315900	0.404000	0.838400
H321	H32	0.332400	0.310800	0.839500
H331	H33	0.392500	0.140600	0.957700
H341	H34	0.302900	0.102100	0.008000
H351	H35	0.198100	0.242900	0.997500
H361	H36	0.284200	0.279700	0.945600
H371	H37	0.681000	0.190400	0.654100
H381	H38	0.695000	0.283400	0.657000
H391	H39	0.526900	0.302700	0.562800
H401	H40	0.515900	0.209100	0.556000
H411	H41	0.710800	0.090300	0.656800
H421	H42	0.730300	0.046600	0.738900
H431	H43	0.526100	0.031300	0.760900
H441	H44	0.506600	0.075400	0.679300
H451	H45	0.711100	0.164800	0.541300
H461	H46	0.798800	0.127400	0.489900
H471	H47	0.709700	0.981400	0.499200
H481	H48	0.622500	0.017700	0.551400
H491	H49	0.504400	0.289100	0.311000
H501	H50	0.524500	0.330800	0.227700
H511	H51	0.725100	0.345000	0.264500
H521	H52	0.704800	0.300800	0.346100
H531	H53	0.521600	0.173000	0.453200
H541	H54	0.537200	0.079000	0.452800
H551	H55	0.684100	0.096000	0.338400
H561	H56	0.667600	0.189200	0.339500
H571	H57	0.607500	0.359400	0.457700
H581	H58	0.697100	0.397900	0.508000
H591	H59	0.801900	0.257100	0.497500
H601	H60	0.715800	0.220300	0.445600
H611	H61	0.319000	0.309600	0.154100
H621	H62	0.305000	0.216600	0.157000
H631	H63	0.473100	0.197300	0.062800
H641	H64	0.484100	0.290900	0.056000
H651	H65	0.289200	0.409700	0.156800
H661	H66	0.269700	0.453400	0.238900
H671	H67	0.473900	0.468700	0.260900
H681	H68	0.493400	0.424600	0.179300
H691	H69	0.288900	0.335200	0.041300
H701	H70	0.201200	0.372600	0.989900
H711	H71	0.290300	0.518600	0.999200
H721	H72	0.377500	0.482300	0.051400
H731	H73	0.004400	0.710900	0.189000
H741	H74	0.024500	0.669200	0.272300
H751	H75	0.225100	0.655000	0.235500
H761	H76	0.204800	0.699200	0.153900
H771	H77	0.021600	0.827000	0.046800
H781	H78	0.037200	0.921000	0.047200
H791	H79	0.184100	0.904000	0.161600
H801	H80	0.167600	0.810800	0.160500
H811	H81	0.107500	0.640600	0.042300
H821	H82	0.197100	0.602100	0.992000
H831	H83	0.301900	0.742900	0.002500
H841	H84	0.215800	0.779700	0.054400
H851	H85	0.819000	0.690400	0.345900
H861	H86	0.805000	0.783400	0.343000
H871	H87	0.973100	0.802700	0.437200
H881	H88	0.984100	0.709100	0.444000
H891	H89	0.789200	0.590300	0.343200
H901	H90	0.769700	0.546600	0.261100
H911	H91	0.973900	0.531300	0.239100
H921	H92	0.993400	0.575400	0.320700
H931	H93	0.788900	0.664800	0.458700
H941	H94	0.701200	0.627400	0.510100
H951	H95	0.790300	0.481400	0.500800
H961	H96	0.877500	0.517700	0.448600
H971	H97	0.004400	0.210900	0.311000
H981	H98	0.024500	0.169200	0.227700
H991	H99	0.225100	0.155000	0.264500
H1001	H100	0.204800	0.199200	0.346100
H1011	H101	0.021600	0.327000	0.453200
H1021	H102	0.037200	0.421000	0.452800
H1031	H103	0.184100	0.404000	0.338400
H1041	H104	0.167600	0.310800	0.339500
H1051	H105	0.107500	0.140600	0.457700
H1061	H106	0.197100	0.102100	0.508000
H1071	H107	0.301900	0.242900	0.497500
H1081	H108	0.215800	0.279700	0.445600
H1091	H109	0.819000	0.190400	0.154100
H1101	H110	0.805000	0.283400	0.157000
H1111	H111	0.973100	0.302700	0.062800
H1121	H112	0.984100	0.209100	0.056000
H1131	H113	0.789200	0.090300	0.156800
H1141	H114	0.769700	0.046600	0.238900
H1151	H115	0.973900	0.031300	0.260900
H1161	H116	0.993400	0.075400	0.179300
H1171	H117	0.788900	0.164800	0.041300
H1181	H118	0.701200	0.127400	0.989900
H1191	H119	0.790300	0.981400	0.999200
H1201	H120	0.877500	0.017700	0.051400
H1211	H121	0.504400	0.789100	0.189000
H1221	H122	0.524500	0.830800	0.272300
H1231	H123	0.725100	0.845000	0.235500
H1241	H124	0.704800	0.800800	0.153900
H1251	H125	0.521600	0.673000	0.046800
H1261	H126	0.537200	0.579000	0.047200
H1271	H127	0.684100	0.596000	0.161600
H1281	H128	0.667600	0.689200	0.160500
H1291	H129	0.607500	0.859400	0.042300
H1301	H130	0.697100	0.897900	0.992000
H1311	H131	0.801900	0.757100	0.002500
H1321	H132	0.715800	0.720300	0.054400
H1331	H133	0.319000	0.809600	0.345900
H1341	H134	0.305000	0.716600	0.343000
H1351	H135	0.473100	0.697300	0.437200
H1361	H136	0.484100	0.790900	0.444000
H1371	H137	0.289200	0.909700	0.343200
H1381	H138	0.269700	0.953400	0.261100
H1391	H139	0.473900	0.968700	0.239100
H1401	H140	0.493400	0.924600	0.320700
H1411	H141	0.288900	0.835200	0.458700
H1421	H142	0.201200	0.872600	0.510100
H1431	H143	0.290300	0.018600	0.500800
H1441	H144	0.377500	0.982300	0.448600
H1451	H145	0.495600	0.710900	0.689000
H1461	H146	0.475500	0.669200	0.772300
H1471	H147	0.274900	0.655000	0.735500
H1481	H148	0.295200	0.699200	0.653900
H1491	H149	0.478400	0.827000	0.546800
H1501	H150	0.462800	0.921000	0.547200
H1511	H151	0.315900	0.904000	0.661600
H1521	H152	0.332400	0.810800	0.660500
H1531	H153	0.392500	0.640600	0.542300
H1541	H154	0.302900	0.602100	0.492000
H1551	H155	0.198100	0.742900	0.502500
H1561	H156	0.284200	0.779700	0.554400
H1571	H157	0.681000	0.690400	0.845900
H1581	H158	0.695000	0.783400	0.843000
H1591	H159	0.526900	0.802700	0.937200
H1601	H160	0.515900	0.709100	0.944000
H1611	H161	0.710800	0.590300	0.843200
H1621	H162	0.730300	0.546600	0.761100
H1631	H163	0.526100	0.531300	0.739100
H1641	H164	0.506600	0.575400	0.820700
H1651	H165	0.711100	0.664800	0.958700
H1661	H166	0.798800	0.627400	0.010100
H1671	H167	0.709700	0.481400	0.000800
H1681	H168	0.622500	0.517700	0.948600
H1691	H169	0.995600	0.289100	0.811000
H1701	H170	0.975500	0.330800	0.727700
H1711	H171	0.774900	0.345000	0.764500
H1721	H172	0.795200	0.300800	0.846100
H1731	H173	0.978400	0.173000	0.953200
H1741	H174	0.962800	0.079000	0.952800
H1751	H175	0.815900	0.096000	0.838400
H1761	H176	0.832400	0.189200	0.839500
H1771	H177	0.892500	0.359400	0.957700
H1781	H178	0.802900	0.397900	0.008000
H1791	H179	0.698100	0.257100	0.997500
H1801	H180	0.784200	0.220300	0.945600
H1811	H181	0.181000	0.309600	0.654100
H1821	H182	0.195000	0.216600	0.657000
H1831	H183	0.026900	0.197300	0.562800
H1841	H184	0.015900	0.290900	0.556000
H1851	H185	0.210800	0.409700	0.656800
H1861	H186	0.230300	0.453400	0.738900
H1871	H187	0.026100	0.468700	0.760900
H1881	H188	0.006600	0.424600	0.679300
H1891	H189	0.211100	0.335200	0.541300
H1901	H190	0.298800	0.372600	0.489900
H1911	H191	0.209700	0.518600	0.499200
H1921	H192	0.122500	0.482300	0.551400
C11	C1	0.897800	0.792400	0.662800
C21	C2	0.950700	0.800500	0.698100
C31	C3	0.938700	0.826000	0.747900
C41	C4	0.873900	0.843760	0.761400
C51	C5	0.861000	0.874000	0.813000
C61	C6	0.820000	0.834000	0.726300
C71	C7	0.832400	0.807900	0.677400
C81	C8	0.906900	0.690320	0.602500
C91	C9	0.945200	0.657500	0.570000
C101	C10	0.936300	0.601100	0.570400
C111	C11	0.888200	0.577820	0.605100
C121	C12	0.875500	0.518100	0.605100
C131	C13	0.849100	0.611300	0.638300
C141	C14	0.858700	0.666900	0.637400
C151	C15	0.847700	0.785800	0.554100
C161	C16	0.852700	0.838800	0.534700
C171	C17	0.799500	0.861850	0.504300
C181	C18	0.741500	0.831000	0.492300
C191	C19	0.683300	0.856300	0.462900
C201	C20	0.737200	0.778100	0.511000
C211	C21	0.788600	0.756100	0.541500
C221	C22	0.097800	0.810180	0.895520
C231	C23	0.150400	0.787120	0.865200
C241	C24	0.158500	0.731700	0.863000
C251	C25	0.112200	0.697670	0.890700
C261	C26	0.122600	0.637300	0.889100
C271	C27	0.058900	0.720070	0.919600
C281	C28	0.051700	0.775910	0.923100
C291	C29	0.106200	0.914010	0.840790
C301	C30	0.173100	0.921900	0.822400
C311	C31	0.184700	0.948000	0.773200
C321	C32	0.130300	0.965800	0.742200
C331	C33	0.143600	0.995700	0.690200
C341	C34	0.063800	0.957000	0.760100
C351	C35	0.052300	0.930800	0.809100
C361	C36	0.157600	0.904770	0.947080
C371	C37	0.210500	0.872600	0.966600
C381	C38	0.262600	0.894900	0.997800
C391	C39	0.262500	0.949080	0.011150
C401	C40	0.319900	0.973540	0.042220
C411	C41	0.210200	0.981400	0.992300
C421	C42	0.158300	0.959600	0.961000
C431	C43	0.397800	0.207600	0.837200
C441	C44	0.450700	0.199500	0.801900
C451	C45	0.438700	0.174000	0.752100
C461	C46	0.373900	0.156240	0.738600
C471	C47	0.361000	0.126000	0.687000
C481	C48	0.320000	0.166000	0.773700
C491	C49	0.332400	0.192100	0.822600
C501	C50	0.406900	0.309680	0.897500
C511	C51	0.445200	0.342500	0.930000
C521	C52	0.436300	0.398900	0.929600
C531	C53	0.388200	0.422180	0.894900
C541	C54	0.375500	0.481900	0.894900
C551	C55	0.349100	0.388700	0.861700
C561	C56	0.358700	0.333100	0.862600
C571	C57	0.347700	0.214200	0.945900
C581	C58	0.352700	0.161200	0.965300
C591	C59	0.299500	0.138150	0.995700
C601	C60	0.241500	0.169000	0.007700
C611	C61	0.183300	0.143700	0.037100
C621	C62	0.237200	0.221900	0.989000
C631	C63	0.288600	0.243900	0.958500
C641	C64	0.597800	0.189820	0.604480
C651	C65	0.650400	0.212880	0.634800
C661	C66	0.658500	0.268300	0.637000
C671	C67	0.612200	0.302330	0.609300
C681	C68	0.622600	0.362700	0.610900
C691	C69	0.558900	0.279930	0.580400
C701	C70	0.551700	0.224090	0.576900
C711	C71	0.606200	0.085990	0.659210
C721	C72	0.673100	0.078100	0.677600
C731	C73	0.684700	0.052000	0.726800
C741	C74	0.630300	0.034200	0.757800
C751	C75	0.643600	0.004300	0.809800
C761	C76	0.563800	0.043000	0.739900
C771	C77	0.552300	0.069200	0.690900
C781	C78	0.657600	0.095230	0.552920
C791	C79	0.710500	0.127400	0.533400
C801	C80	0.762600	0.105100	0.502200
C811	C81	0.762500	0.050920	0.488850
C821	C82	0.819900	0.026460	0.457780
C831	C83	0.710200	0.018600	0.507700
C841	C84	0.658300	0.040400	0.539000
C851	C85	0.602200	0.292400	0.337200
C861	C86	0.549300	0.300500	0.301900
C871	C87	0.561300	0.326000	0.252100
C881	C88	0.626100	0.343760	0.238600
C891	C89	0.639000	0.374000	0.187000
C901	C90	0.680000	0.334000	0.273700
C911	C91	0.667600	0.307900	0.322600
C921	C92	0.593100	0.190320	0.397500
C931	C93	0.554800	0.157500	0.430000
C941	C94	0.563700	0.101100	0.429600
C951	C95	0.611800	0.077820	0.394900
C961	C96	0.624500	0.018100	0.394900
C971	C97	0.650900	0.111300	0.361700
C981	C98	0.641300	0.166900	0.362600
C991	C99	0.652300	0.285800	0.445900
C1001	C100	0.647300	0.338800	0.465300
C1011	C101	0.700500	0.361850	0.495700
C1021	C102	0.758500	0.331000	0.507700
C1031	C103	0.816700	0.356300	0.537100
C1041	C104	0.762800	0.278100	0.489000
C1051	C105	0.711400	0.256100	0.458500
C1061	C106	0.402200	0.310180	0.104480
C1071	C107	0.349600	0.287120	0.134800
C1081	C108	0.341500	0.231700	0.137000
C1091	C109	0.387800	0.197670	0.109300
C1101	C110	0.377400	0.137300	0.110900
C1111	C111	0.441100	0.220070	0.080400
C1121	C112	0.448300	0.275910	0.076900
C1131	C113	0.393800	0.414010	0.159210
C1141	C114	0.326900	0.421900	0.177600
C1151	C115	0.315300	0.448000	0.226800
C1161	C116	0.369700	0.465800	0.257800
C1171	C117	0.356400	0.495700	0.309800
C1181	C118	0.436200	0.457000	0.239900
C1191	C119	0.447700	0.430800	0.190900
C1201	C120	0.342400	0.404770	0.052920
C1211	C121	0.289500	0.372600	0.033400
C1221	C122	0.237400	0.394900	0.002200
C1231	C123	0.237500	0.449080	0.988850
C1241	C124	0.180100	0.473540	0.957780
C1251	C125	0.289800	0.481400	0.007700
C1261	C126	0.341700	0.459600	0.039000
C1271	C127	0.102200	0.707600	0.162800
C1281	C128	0.049300	0.699500	0.198100
C1291	C129	0.061300	0.674000	0.247900
C1301	C130	0.126100	0.656240	0.261400
C1311	C131	0.139000	0.626000	0.313000
C1321	C132	0.180000	0.666000	0.226300
C1331	C133	0.167600	0.692100	0.177400
C1341	C134	0.093100	0.809680	0.102500
C1351	C135	0.054800	0.842500	0.070000
C1361	C136	0.063700	0.898900	0.070400
C1371	C137	0.111800	0.922180	0.105100
C1381	C138	0.124500	0.981900	0.105100
C1391	C139	0.150900	0.888700	0.138300
C1401	C140	0.141300	0.833100	0.137400
C1411	C141	0.152300	0.714200	0.054100
C1421	C142	0.147300	0.661200	0.034700
C1431	C143	0.200500	0.638150	0.004300
C1441	C144	0.258500	0.669000	0.992300
C1451	C145	0.316700	0.643700	0.962900
C1461	C146	0.262800	0.721900	0.011000
C1471	C147	0.211400	0.743900	0.041500
C1481	C148	0.902200	0.689820	0.395520
C1491	C149	0.849600	0.712880	0.365200
C1501	C150	0.841500	0.768300	0.363000
C1511	C151	0.887800	0.802330	0.390700
C1521	C152	0.877400	0.862700	0.389100
C1531	C153	0.941100	0.779930	0.419600
C1541	C154	0.948300	0.724090	0.423100
C1551	C155	0.893800	0.585990	0.340790
C1561	C156	0.826900	0.578100	0.322400
C1571	C157	0.815300	0.552000	0.273200
C1581	C158	0.869700	0.534200	0.242200
C1591	C159	0.856400	0.504300	0.190200
C1601	C160	0.936200	0.543000	0.260100
C1611	C161	0.947700	0.569200	0.309100
C1621	C162	0.842400	0.595230	0.447080
C1631	C163	0.789500	0.627400	0.466600
C1641	C164	0.737400	0.605100	0.497800
C1651	C165	0.737500	0.550920	0.511150
C1661	C166	0.680100	0.526460	0.542220
C1671	C167	0.789800	0.518600	0.492300
C1681	C168	0.841700	0.540400	0.461000
C1691	C169	0.102200	0.207600	0.337200
C1701	C170	0.049300	0.199500	0.301900
C1711	C171	0.061300	0.174000	0.252100
C1721	C172	0.126100	0.156240	0.238600
C1731	C173	0.139000	0.126000	0.187000
C1741	C174	0.180000	0.166000	0.273700
C1751	C175	0.167600	0.192100	0.322600
C1761	C176	0.093100	0.309680	0.397500
C1771	C177	0.054800	0.342500	0.430000
C1781	C178	0.063700	0.398900	0.429600
C1791	C179	0.111800	0.422180	0.394900
C1801	C180	0.124500	0.481900	0.394900
C1811	C181	0.150900	0.388700	0.361700
C1821	C182	0.141300	0.333100	0.362600
C1831	C183	0.152300	0.214200	0.445900
C1841	C184	0.147300	0.161200	0.465300
C1851	C185	0.200500	0.138150	0.495700
C1861	C186	0.258500	0.169000	0.507700
C1871	C187	0.316700	0.143700	0.537100
C1881	C188	0.262800	0.221900	0.489000
C1891	C189	0.211400	0.243900	0.458500
C1901	C190	0.902200	0.189820	0.104480
C1911	C191	0.849600	0.212880	0.134800
C1921	C192	0.841500	0.268300	0.137000
C1931	C193	0.887800	0.302330	0.109300
C1941	C194	0.877400	0.362700	0.110900
C1951	C195	0.941100	0.279930	0.080400
C1961	C196	0.948300	0.224090	0.076900
C1971	C197	0.893800	0.085990	0.159210
C1981	C198	0.826900	0.078100	0.177600
C1991	C199	0.815300	0.052000	0.226800
C2001	C200	0.869700	0.034200	0.257800
C2011	C201	0.856400	0.004300	0.309800
C2021	C202	0.936200	0.043000	0.239900
C2031	C203	0.947700	0.069200	0.190900
C2041	C204	0.842400	0.095230	0.052920
C2051	C205	0.789500	0.127400	0.033400
C2061	C206	0.737400	0.105100	0.002200
C2071	C207	0.737500	0.050920	0.988850
C2081	C208	0.680100	0.026460	0.957780
C2091	C209	0.789800	0.018600	0.007700
C2101	C210	0.841700	0.040400	0.039000
C2111	C211	0.602200	0.792400	0.162800
C2121	C212	0.549300	0.800500	0.198100
C2131	C213	0.561300	0.826000	0.247900
C2141	C214	0.626100	0.843760	0.261400
C2151	C215	0.639000	0.874000	0.313000
C2161	C216	0.680000	0.834000	0.226300
C2171	C217	0.667600	0.807900	0.177400
C2181	C218	0.593100	0.690320	0.102500
C2191	C219	0.554800	0.657500	0.070000
C2201	C220	0.563700	0.601100	0.070400
C2211	C221	0.611800	0.577820	0.105100
C2221	C222	0.624500	0.518100	0.105100
C2231	C223	0.650900	0.611300	0.138300
C2241	C224	0.641300	0.666900	0.137400
C2251	C225	0.652300	0.785800	0.054100
C2261	C226	0.647300	0.838800	0.034700
C2271	C227	0.700500	0.861850	0.004300
C2281	C228	0.758500	0.831000	0.992300
C2291	C229	0.816700	0.856300	0.962900
C2301	C230	0.762800	0.778100	0.011000
C2311	C231	0.711400	0.756100	0.041500
C2321	C232	0.402200	0.810180	0.395520
C2331	C233	0.349600	0.787120	0.365200
C2341	C234	0.341500	0.731700	0.363000
C2351	C235	0.387800	0.697670	0.390700
C2361	C236	0.377400	0.637300	0.389100
C2371	C237	0.441100	0.720070	0.419600
C2381	C238	0.448300	0.775910	0.423100
C2391	C239	0.393800	0.914010	0.340790
C2401	C240	0.326900	0.921900	0.322400
C2411	C241	0.315300	0.948000	0.273200
C2421	C242	0.369700	0.965800	0.242200
C2431	C243	0.356400	0.995700	0.190200
C2441	C244	0.436200	0.957000	0.260100
C2451	C245	0.447700	0.930800	0.309100
C2461	C246	0.342400	0.904770	0.447080
C2471	C247	0.289500	0.872600	0.466600
C2481	C248	0.237400	0.894900	0.497800
C2491	C249	0.237500	0.949080	0.511150
C2501	C250	0.180100	0.973540	0.542220
C2511	C251	0.289800	0.981400	0.492300
C2521	C252	0.341700	0.959600	0.461000
C2531	C253	0.397800	0.707600	0.662800
C2541	C254	0.450700	0.699500	0.698100
C2551	C255	0.438700	0.674000	0.747900
C2561	C256	0.373900	0.656240	0.761400
C2571	C257	0.361000	0.626000	0.813000
C2581	C258	0.320000	0.666000	0.726300
C2591	C259	0.332400	0.692100	0.677400
C2601	C260	0.406900	0.809680	0.602500
C2611	C261	0.445200	0.842500	0.570000
C2621	C262	0.436300	0.898900	0.570400
C2631	C263	0.388200	0.922180	0.605100
C2641	C264	0.375500	0.981900	0.605100
C2651	C265	0.349100	0.888700	0.638300
C2661	C266	0.358700	0.833100	0.637400
C2671	C267	0.347700	0.714200	0.554100
C2681	C268	0.352700	0.661200	0.534700
C2691	C269	0.299500	0.638150	0.504300
C2701	C270	0.241500	0.669000	0.492300
C2711	C271	0.183300	0.643700	0.462900
C2721	C272	0.237200	0.721900	0.511000
C2731	C273	0.288600	0.743900	0.541500
C2741	C274	0.597800	0.689820	0.895520
C2751	C275	0.650400	0.712880	0.865200
C2761	C276	0.658500	0.768300	0.863000
C2771	C277	0.612200	0.802330	0.890700
C2781	C278	0.622600	0.862700	0.889100
C2791	C279	0.558900	0.779930	0.919600
C2801	C280	0.551700	0.724090	0.923100
C2811	C281	0.606200	0.585990	0.840790
C2821	C282	0.673100	0.578100	0.822400
C2831	C283	0.684700	0.552000	0.773200
C2841	C284	0.630300	0.534200	0.742200
C2851	C285	0.643600	0.504300	0.690200
C2861	C286	0.563800	0.543000	0.760100
C2871	C287	0.552300	0.569200	0.809100
C2881	C288	0.657600	0.595230	0.947080
C2891	C289	0.710500	0.627400	0.966600
C2901	C290	0.762600	0.605100	0.997800
C2911	C291	0.762500	0.550920	0.011150
C2921	C292	0.819900	0.526460	0.042220
C2931	C293	0.710200	0.518600	0.992300
C2941	C294	0.658300	0.540400	0.961000
C2951	C295	0.897800	0.292400	0.837200
C2961	C296	0.950700	0.300500	0.801900
C2971	C297	0.938700	0.326000	0.752100
C2981	C298	0.873900	0.343760	0.738600
C2991	C299	0.861000	0.374000	0.687000
C3001	C300	0.820000	0.334000	0.773700
C3011	C301	0.832400	0.307900	0.822600
C3021	C302	0.906900	0.190320	0.897500
C3031	C303	0.945200	0.157500	0.930000
C3041	C304	0.936300	0.101100	0.929600
C3051	C305	0.888200	0.077820	0.894900
C3061	C306	0.875500	0.018100	0.894900
C3071	C307	0.849100	0.111300	0.861700
C3081	C308	0.858700	0.166900	0.862600
C3091	C309	0.847700	0.285800	0.945900
C3101	C310	0.852700	0.338800	0.965300
C3111	C311	0.799500	0.361850	0.995700
C3121	C312	0.741500	0.331000	0.007700
C3131	C313	0.683300	0.356300	0.037100
C3141	C314	0.737200	0.278100	0.989000
C3151	C315	0.788600	0.256100	0.958500
C3161	C316	0.097800	0.310180	0.604480
C3171	C317	0.150400	0.287120	0.634800
C3181	C318	0.158500	0.231700	0.637000
C3191	C319	0.112200	0.197670	0.609300
C3201	C320	0.122600	0.137300	0.610900
C3211	C321	0.058900	0.220070	0.580400
C3221	C322	0.051700	0.275910	0.576900
C3231	C323	0.106200	0.414010	0.659210
C3241	C324	0.173100	0.421900	0.677600
C3251	C325	0.184700	0.448000	0.726800
C3261	C326	0.130300	0.465800	0.757800
C3271	C327	0.143600	0.495700	0.809800
C3281	C328	0.063800	0.457000	0.739900
C3291	C329	0.052300	0.430800	0.690900
C3301	C330	0.157600	0.404770	0.552920
C3311	C331	0.210500	0.372600	0.533400
C3321	C332	0.262600	0.394900	0.502200
C3331	C333	0.262500	0.449080	0.488850
C3341	C334	0.319900	0.473540	0.457780
C3351	C335	0.210200	0.481400	0.507700
C3361	C336	0.158300	0.459600	0.539000
O11	O1	0.909330	0.874900	0.846980
O21	O2	0.803800	0.896930	0.817500
O31	O3	0.922690	0.487940	0.586200
O41	O4	0.818520	0.503050	0.623070
O51	O5	0.692070	0.901580	0.438440
O61	O6	0.624200	0.835600	0.462300
O71	O7	0.986120	0.778840	0.577060
O81	O8	0.181950	0.621970	0.874120
O91	O9	0.073300	0.607540	0.902030
O101	O10	0.203040	0.015030	0.684280
O111	O11	0.093140	0.999870	0.658220
O121	O12	0.377440	0.950190	0.046070
O131	O13	0.312680	0.021250	0.062630
O141	O14	0.020670	0.896880	0.926360
O151	O15	0.409330	0.125100	0.653020
O161	O16	0.303800	0.103070	0.682500
O171	O17	0.422690	0.512060	0.913800
O181	O18	0.318520	0.496950	0.876930
O191	O19	0.192070	0.098420	0.061560
O201	O20	0.124200	0.164400	0.037700
O211	O21	0.486120	0.221160	0.922940
O221	O22	0.681950	0.378030	0.625880
O231	O23	0.573300	0.392460	0.597970
O241	O24	0.703040	0.984970	0.815720
O251	O25	0.593140	0.000130	0.841780
O261	O26	0.877440	0.049810	0.453930
O271	O27	0.812680	0.978750	0.437370
O281	O28	0.520670	0.103120	0.573640
O291	O29	0.590670	0.374900	0.153020
O301	O30	0.696200	0.396930	0.182500
O311	O31	0.577310	0.987940	0.413800
O321	O32	0.681480	0.003050	0.376930
O331	O33	0.807930	0.401580	0.561560
O341	O34	0.875800	0.335600	0.537700
O351	O35	0.513880	0.278840	0.422940
O361	O36	0.318050	0.121970	0.125880
O371	O37	0.426700	0.107540	0.097970
O381	O38	0.296960	0.515030	0.315720
O391	O39	0.406860	0.499870	0.341780
O401	O40	0.122560	0.450190	0.953930
O411	O41	0.187320	0.521250	0.937370
O421	O42	0.479330	0.396880	0.073640
O431	O43	0.090670	0.625100	0.346980
O441	O44	0.196200	0.603070	0.317500
O451	O45	0.077310	0.012060	0.086200
O461	O46	0.181480	0.996950	0.123070
O471	O47	0.307930	0.598420	0.938440
O481	O48	0.375800	0.664400	0.962300
O491	O49	0.013880	0.721160	0.077060
O501	O50	0.818050	0.878030	0.374120
O511	O51	0.926700	0.892460	0.402030
O521	O52	0.796960	0.484970	0.184280
O531	O53	0.906860	0.500130	0.158220
O541	O54	0.622560	0.549810	0.546070
O551	O55	0.687320	0.478750	0.562630
O561	O56	0.979330	0.603120	0.426360
O571	O57	0.090670	0.125100	0.153020
O581	O58	0.196200	0.103070	0.182500
O591	O59	0.077310	0.512060	0.413800
O601	O60	0.181480	0.496950	0.376930
O611	O61	0.307930	0.098420	0.561560
O621	O62	0.375800	0.164400	0.537700
O631	O63	0.013880	0.221160	0.422940
O641	O64	0.818050	0.378030	0.125880
O651	O65	0.926700	0.392460	0.097970
O661	O66	0.796960	0.984970	0.315720
O671	O67	0.906860	0.000130	0.341780
O681	O68	0.622560	0.049810	0.953930
O691	O69	0.687320	0.978750	0.937370
O701	O70	0.979330	0.103120	0.073640
O711	O71	0.590670	0.874900	0.346980
O721	O72	0.696200	0.896930	0.317500
O731	O73	0.577310	0.487940	0.086200
O741	O74	0.681480	0.503050	0.123070
O751	O75	0.807930	0.901580	0.938440
O761	O76	0.875800	0.835600	0.962300
O771	O77	0.513880	0.778840	0.077060
O781	O78	0.318050	0.621970	0.374120
O791	O79	0.426700	0.607540	0.402030
O801	O80	0.296960	0.015030	0.184280
O811	O81	0.406860	0.999870	0.158220
O821	O82	0.122560	0.950190	0.546070
O831	O83	0.187320	0.021250	0.562630
O841	O84	0.479330	0.896880	0.426360
O851	O85	0.409330	0.625100	0.846980
O861	O86	0.303800	0.603070	0.817500
O871	O87	0.422690	0.012060	0.586200
O881	O88	0.318520	0.996950	0.623070
O891	O89	0.192070	0.598420	0.438440
O901	O90	0.124200	0.664400	0.462300
O911	O91	0.486120	0.721160	0.577060
O921	O92	0.681950	0.878030	0.874120
O931	O93	0.573300	0.892460	0.902030
O941	O94	0.703040	0.484970	0.684280
O951	O95	0.593140	0.500130	0.658220
O961	O96	0.877440	0.549810	0.046070
O971	O97	0.812680	0.478750	0.062630
O981	O98	0.520670	0.603120	0.926360
O991	O99	0.909330	0.374900	0.653020
O1001	O100	0.803800	0.396930	0.682500
O1011	O101	0.922690	0.987940	0.913800
O1021	O102	0.818520	0.003050	0.876930
O1031	O103	0.692070	0.401580	0.061560
O1041	O104	0.624200	0.335600	0.037700
O1051	O105	0.986120	0.278840	0.922940
O1061	O106	0.181950	0.121970	0.625880
O1071	O107	0.073300	0.107540	0.597970
O1081	O108	0.203040	0.515030	0.815720
O1091	O109	0.093140	0.499870	0.841780
O1101	O110	0.377440	0.450190	0.453930
O1111	O111	0.312680	0.521250	0.437370
O1121	O112	0.020670	0.396880	0.573640
