data_BELTOD_clean_PM
_symmetry_space_group_name_H-M	'P1'
_cell_length_a	20.059400
_cell_length_b	24.994300
_cell_length_c	25.064500
_cell_angle_alpha	90.000000
_cell_angle_beta	90.000000
_cell_angle_gamma	90.000000
_symmetry_Int_Tables_number 1

loop_
_symmetry_equiv_pos_as_xyz
'x,y,z'

loop_
_atom_site_label
_atom_site_type_symbol
_atom_site_fract_x
_atom_site_fract_y
_atom_site_fract_z
Mn11	Mn1	0.919560	0.909030	0.924130
Mn21	Mn2	0.752000	0.941130	0.873340
Mn31	Mn3	0.081370	0.526500	0.915940
Mn41	Mn4	0.419560	0.090970	0.575870
Mn51	Mn5	0.252000	0.058870	0.626660
Mn61	Mn6	0.581370	0.473500	0.584060
Mn71	Mn7	0.580440	0.409030	0.075870
Mn81	Mn8	0.748000	0.441130	0.126660
Mn91	Mn9	0.418630	0.026500	0.084060
Mn101	Mn10	0.080440	0.590970	0.424130
Mn111	Mn11	0.248000	0.558870	0.373340
Mn121	Mn12	0.918630	0.973500	0.415940
Mn131	Mn13	0.080440	0.090970	0.075870
Mn141	Mn14	0.248000	0.058870	0.126660
Mn151	Mn15	0.918630	0.473500	0.084060
Mn161	Mn16	0.580440	0.909030	0.424130
Mn171	Mn17	0.748000	0.941130	0.373340
Mn181	Mn18	0.418630	0.526500	0.415940
Mn191	Mn19	0.419560	0.590970	0.924130
Mn201	Mn20	0.252000	0.558870	0.873340
Mn211	Mn21	0.581370	0.973500	0.915940
Mn221	Mn22	0.919560	0.409030	0.575870
Mn231	Mn23	0.752000	0.441130	0.626660
Mn241	Mn24	0.081370	0.026500	0.584060
P11	P1	0.911620	0.764460	0.596410
P21	P2	0.091760	0.880600	0.905940
P31	P3	0.411620	0.235540	0.903590
P41	P4	0.591760	0.119400	0.594060
P51	P5	0.588380	0.264460	0.403590
P61	P6	0.408240	0.380600	0.094060
P71	P7	0.088380	0.735540	0.096410
P81	P8	0.908240	0.619400	0.405940
P91	P9	0.088380	0.235540	0.403590
P101	P10	0.908240	0.119400	0.094060
P111	P11	0.588380	0.764460	0.096410
P121	P12	0.408240	0.880600	0.405940
P131	P13	0.411620	0.735540	0.596410
P141	P14	0.591760	0.619400	0.905940
P151	P15	0.911620	0.264460	0.903590
P161	P16	0.091760	0.380600	0.594060
H11	H1	0.992800	0.799000	0.682200
H21	H2	0.975900	0.839300	0.764800
H31	H3	0.779000	0.840100	0.739300
H41	H4	0.794300	0.797700	0.657500
H51	H5	0.964800	0.673800	0.545300
H61	H6	0.954200	0.583200	0.548300
H71	H7	0.815500	0.599000	0.663700
H81	H8	0.830400	0.691100	0.661600
H91	H9	0.883700	0.862800	0.546900
H101	H10	0.798300	0.898600	0.494700
H111	H11	0.705300	0.755700	0.495700
H121	H12	0.791200	0.719500	0.546100
H131	H13	0.182400	0.809800	0.850400
H141	H14	0.196900	0.717500	0.846800
H151	H15	0.035000	0.698200	0.940500
H161	H16	0.021800	0.790200	0.943800
H171	H17	0.209900	0.913500	0.846900
H181	H18	0.228200	0.958000	0.766600
H191	H19	0.012100	0.920400	0.821400
H201	H20	0.213200	0.836000	0.955600
H211	H21	0.299100	0.872400	0.006000
H221	H22	0.205700	0.014200	0.006400
H231	H23	0.119900	0.978100	0.955600
H241	H24	0.492800	0.201000	0.817800
H251	H25	0.475900	0.160700	0.735200
H261	H26	0.279000	0.159900	0.760700
H271	H27	0.294300	0.202300	0.842500
H281	H28	0.464800	0.326200	0.954700
H291	H29	0.454200	0.416800	0.951700
H301	H30	0.315500	0.401000	0.836300
H311	H31	0.330400	0.308900	0.838400
H321	H32	0.383700	0.137200	0.953100
H331	H33	0.298300	0.101400	0.005300
H341	H34	0.205300	0.244300	0.004300
H351	H35	0.291200	0.280500	0.953900
H361	H36	0.682400	0.190200	0.649600
H371	H37	0.696900	0.282500	0.653200
H381	H38	0.535000	0.301800	0.559500
H391	H39	0.521800	0.209800	0.556200
H401	H40	0.709900	0.086500	0.653100
H411	H41	0.728200	0.042000	0.733400
H421	H42	0.512100	0.079600	0.678600
H431	H43	0.713200	0.164000	0.544400
H441	H44	0.799100	0.127600	0.494000
H451	H45	0.705700	0.985800	0.493600
H461	H46	0.619900	0.021900	0.544400
H471	H47	0.507200	0.299000	0.317800
H481	H48	0.524100	0.339300	0.235200
H491	H49	0.721000	0.340100	0.260700
H501	H50	0.705700	0.297700	0.342500
H511	H51	0.535200	0.173800	0.454700
H521	H52	0.545800	0.083200	0.451700
H531	H53	0.684500	0.099000	0.336300
H541	H54	0.669600	0.191100	0.338400
H551	H55	0.616300	0.362800	0.453100
H561	H56	0.701700	0.398600	0.505300
H571	H57	0.794700	0.255700	0.504300
H581	H58	0.708800	0.219500	0.453900
H591	H59	0.317600	0.309800	0.149600
H601	H60	0.303100	0.217500	0.153200
H611	H61	0.465000	0.198200	0.059500
H621	H62	0.478200	0.290200	0.056200
H631	H63	0.290100	0.413500	0.153100
H641	H64	0.271800	0.458000	0.233400
H651	H65	0.487900	0.420400	0.178600
H661	H66	0.286800	0.336000	0.044400
H671	H67	0.200900	0.372400	0.994000
H681	H68	0.294300	0.514200	0.993600
H691	H69	0.380100	0.478100	0.044400
H701	H70	0.007200	0.701000	0.182200
H711	H71	0.024100	0.660700	0.264800
H721	H72	0.221000	0.659900	0.239300
H731	H73	0.205700	0.702300	0.157500
H741	H74	0.035200	0.826200	0.045300
H751	H75	0.045800	0.916800	0.048300
H761	H76	0.184500	0.901000	0.163700
H771	H77	0.169600	0.808900	0.161600
H781	H78	0.116300	0.637200	0.046900
H791	H79	0.201700	0.601400	0.994700
H801	H80	0.294700	0.744300	0.995700
H811	H81	0.208800	0.780500	0.046100
H821	H82	0.817600	0.690200	0.350400
H831	H83	0.803100	0.782500	0.346800
H841	H84	0.965000	0.801800	0.440500
H851	H85	0.978200	0.709800	0.443800
H861	H86	0.790100	0.586500	0.346900
H871	H87	0.771800	0.542000	0.266600
H881	H88	0.987900	0.579600	0.321400
H891	H89	0.786800	0.664000	0.455600
H901	H90	0.700900	0.627600	0.506000
H911	H91	0.794300	0.485800	0.506400
H921	H92	0.880100	0.521900	0.455600
H931	H93	0.007200	0.201000	0.317800
H941	H94	0.024100	0.160700	0.235200
H951	H95	0.221000	0.159900	0.260700
H961	H96	0.205700	0.202300	0.342500
H971	H97	0.035200	0.326200	0.454700
H981	H98	0.045800	0.416800	0.451700
H991	H99	0.184500	0.401000	0.336300
H1001	H100	0.169600	0.308900	0.338400
H1011	H101	0.116300	0.137200	0.453100
H1021	H102	0.201700	0.101400	0.505300
H1031	H103	0.294700	0.244300	0.504300
H1041	H104	0.208800	0.280500	0.453900
H1051	H105	0.817600	0.190200	0.149600
H1061	H106	0.803100	0.282500	0.153200
H1071	H107	0.965000	0.301800	0.059500
H1081	H108	0.978200	0.209800	0.056200
H1091	H109	0.790100	0.086500	0.153100
H1101	H110	0.771800	0.042000	0.233400
H1111	H111	0.987900	0.079600	0.178600
H1121	H112	0.786800	0.164000	0.044400
H1131	H113	0.700900	0.127600	0.994000
H1141	H114	0.794300	0.985800	0.993600
H1151	H115	0.880100	0.021900	0.044400
H1161	H116	0.507200	0.799000	0.182200
H1171	H117	0.524100	0.839300	0.264800
H1181	H118	0.721000	0.840100	0.239300
H1191	H119	0.705700	0.797700	0.157500
H1201	H120	0.535200	0.673800	0.045300
H1211	H121	0.545800	0.583200	0.048300
H1221	H122	0.684500	0.599000	0.163700
H1231	H123	0.669600	0.691100	0.161600
H1241	H124	0.616300	0.862800	0.046900
H1251	H125	0.701700	0.898600	0.994700
H1261	H126	0.794700	0.755700	0.995700
H1271	H127	0.708800	0.719500	0.046100
H1281	H128	0.317600	0.809800	0.350400
H1291	H129	0.303100	0.717500	0.346800
H1301	H130	0.465000	0.698200	0.440500
H1311	H131	0.478200	0.790200	0.443800
H1321	H132	0.290100	0.913500	0.346900
H1331	H133	0.271800	0.958000	0.266600
H1341	H134	0.487900	0.920400	0.321400
H1351	H135	0.286800	0.836000	0.455600
H1361	H136	0.200900	0.872400	0.506000
H1371	H137	0.294300	0.014200	0.506400
H1381	H138	0.380100	0.978100	0.455600
H1391	H139	0.492800	0.701000	0.682200
H1401	H140	0.475900	0.660700	0.764800
H1411	H141	0.279000	0.659900	0.739300
H1421	H142	0.294300	0.702300	0.657500
H1431	H143	0.464800	0.826200	0.545300
H1441	H144	0.454200	0.916800	0.548300
H1451	H145	0.315500	0.901000	0.663700
H1461	H146	0.330400	0.808900	0.661600
H1471	H147	0.383700	0.637200	0.546900
H1481	H148	0.298300	0.601400	0.494700
H1491	H149	0.205300	0.744300	0.495700
H1501	H150	0.291200	0.780500	0.546100
H1511	H151	0.682400	0.690200	0.850400
H1521	H152	0.696900	0.782500	0.846800
H1531	H153	0.535000	0.801800	0.940500
H1541	H154	0.521800	0.709800	0.943800
H1551	H155	0.709900	0.586500	0.846900
H1561	H156	0.728200	0.542000	0.766600
H1571	H157	0.512100	0.579600	0.821400
H1581	H158	0.713200	0.664000	0.955600
H1591	H159	0.799100	0.627600	0.006000
H1601	H160	0.705700	0.485800	0.006400
H1611	H161	0.619900	0.521900	0.955600
H1621	H162	0.992800	0.299000	0.817800
H1631	H163	0.975900	0.339300	0.735200
H1641	H164	0.779000	0.340100	0.760700
H1651	H165	0.794300	0.297700	0.842500
H1661	H166	0.964800	0.173800	0.954700
H1671	H167	0.954200	0.083200	0.951700
H1681	H168	0.815500	0.099000	0.836300
H1691	H169	0.830400	0.191100	0.838400
H1701	H170	0.883700	0.362800	0.953100
H1711	H171	0.798300	0.398600	0.005300
H1721	H172	0.705300	0.255700	0.004300
H1731	H173	0.791200	0.219500	0.953900
H1741	H174	0.182400	0.309800	0.649600
H1751	H175	0.196900	0.217500	0.653200
H1761	H176	0.035000	0.198200	0.559500
H1771	H177	0.021800	0.290200	0.556200
H1781	H178	0.209900	0.413500	0.653100
H1791	H179	0.228200	0.458000	0.733400
H1801	H180	0.012100	0.420400	0.678600
H1811	H181	0.213200	0.336000	0.544400
H1821	H182	0.299100	0.372400	0.494000
H1831	H183	0.205700	0.514200	0.493600
H1841	H184	0.119900	0.478100	0.544400
C11	C1	0.895400	0.794630	0.660830
C21	C2	0.949200	0.807120	0.693400
C31	C3	0.939200	0.831700	0.742800
C41	C4	0.875900	0.844740	0.759750
C51	C5	0.863900	0.874820	0.811760
C61	C6	0.822400	0.831800	0.727800
C71	C7	0.831400	0.806610	0.678600
C81	C8	0.900600	0.693180	0.603210
C91	C9	0.935100	0.658880	0.570160
C101	C10	0.928700	0.604700	0.571450
C111	C11	0.885100	0.581560	0.606580
C121	C12	0.874900	0.521530	0.607320
C131	C13	0.846700	0.614240	0.640200
C141	C14	0.855400	0.669350	0.638500
C151	C15	0.844700	0.788130	0.553510
C161	C16	0.847400	0.841180	0.536820
C171	C17	0.796600	0.862560	0.505250
C181	C18	0.743300	0.830280	0.489400
C191	C19	0.686600	0.854180	0.458830
C201	C20	0.741500	0.777370	0.505700
C211	C21	0.792300	0.755840	0.536600
C221	C22	0.101200	0.809240	0.897820
C231	C23	0.152700	0.787290	0.868700
C241	C24	0.161100	0.732110	0.866100
C251	C25	0.116300	0.698720	0.892380
C261	C26	0.125700	0.638420	0.890210
C271	C27	0.064700	0.720550	0.922000
C281	C28	0.057200	0.775510	0.924170
C291	C29	0.108700	0.912990	0.842730
C301	C30	0.173400	0.923990	0.825770
C311	C31	0.184400	0.950510	0.777640
C321	C32	0.131400	0.965790	0.746130
C331	C33	0.143200	0.995080	0.694110
C341	C34	0.067800	0.953800	0.762600
C351	C35	0.056000	0.927800	0.810700
C361	C36	0.158400	0.903510	0.949350
C371	C37	0.211700	0.872290	0.965400
C381	C38	0.262900	0.893990	0.995800
C391	C39	0.260890	0.947190	0.011260
C401	C40	0.317600	0.972100	0.042110
C411	C41	0.207600	0.978130	0.996020
C421	C42	0.156200	0.956580	0.965430
C431	C43	0.395400	0.205370	0.839170
C441	C44	0.449200	0.192880	0.806600
C451	C45	0.439200	0.168300	0.757200
C461	C46	0.375900	0.155260	0.740250
C471	C47	0.363900	0.125180	0.688240
C481	C48	0.322400	0.168200	0.772200
C491	C49	0.331400	0.193390	0.821400
C501	C50	0.400600	0.306820	0.896790
C511	C51	0.435100	0.341120	0.929840
C521	C52	0.428700	0.395300	0.928550
C531	C53	0.385100	0.418440	0.893420
C541	C54	0.374900	0.478470	0.892680
C551	C55	0.346700	0.385760	0.859800
C561	C56	0.355400	0.330650	0.861500
C571	C57	0.344700	0.211870	0.946490
C581	C58	0.347400	0.158820	0.963180
C591	C59	0.296600	0.137440	0.994750
C601	C60	0.243300	0.169720	0.010600
C611	C61	0.186600	0.145820	0.041170
C621	C62	0.241500	0.222630	0.994300
C631	C63	0.292300	0.244160	0.963400
C641	C64	0.601200	0.190760	0.602180
C651	C65	0.652700	0.212710	0.631300
C661	C66	0.661100	0.267890	0.633900
C671	C67	0.616300	0.301280	0.607620
C681	C68	0.625700	0.361580	0.609790
C691	C69	0.564700	0.279450	0.578000
C701	C70	0.557200	0.224490	0.575830
C711	C71	0.608700	0.087010	0.657270
C721	C72	0.673400	0.076010	0.674230
C731	C73	0.684400	0.049490	0.722360
C741	C74	0.631400	0.034210	0.753870
C751	C75	0.643200	0.004920	0.805890
C761	C76	0.567800	0.046200	0.737400
C771	C77	0.556000	0.072200	0.689300
C781	C78	0.658400	0.096490	0.550650
C791	C79	0.711700	0.127710	0.534600
C801	C80	0.762900	0.106010	0.504200
C811	C81	0.760890	0.052810	0.488740
C821	C82	0.817600	0.027900	0.457890
C831	C83	0.707600	0.021870	0.503980
C841	C84	0.656200	0.043420	0.534570
C851	C85	0.604600	0.294630	0.339170
C861	C86	0.550800	0.307120	0.306600
C871	C87	0.560800	0.331700	0.257200
C881	C88	0.624100	0.344740	0.240250
C891	C89	0.636100	0.374820	0.188240
C901	C90	0.677600	0.331800	0.272200
C911	C91	0.668600	0.306610	0.321400
C921	C92	0.599400	0.193180	0.396790
C931	C93	0.564900	0.158880	0.429840
C941	C94	0.571300	0.104700	0.428550
C951	C95	0.614900	0.081560	0.393420
C961	C96	0.625100	0.021530	0.392680
C971	C97	0.653300	0.114240	0.359800
C981	C98	0.644600	0.169350	0.361500
C991	C99	0.655300	0.288130	0.446490
C1001	C100	0.652600	0.341180	0.463180
C1011	C101	0.703400	0.362560	0.494750
C1021	C102	0.756700	0.330280	0.510600
C1031	C103	0.813400	0.354180	0.541170
C1041	C104	0.758500	0.277370	0.494300
C1051	C105	0.707700	0.255840	0.463400
C1061	C106	0.398800	0.309240	0.102180
C1071	C107	0.347300	0.287290	0.131300
C1081	C108	0.338900	0.232110	0.133900
C1091	C109	0.383700	0.198720	0.107620
C1101	C110	0.374300	0.138420	0.109790
C1111	C111	0.435300	0.220550	0.078000
C1121	C112	0.442800	0.275510	0.075830
C1131	C113	0.391300	0.412990	0.157270
C1141	C114	0.326600	0.423990	0.174230
C1151	C115	0.315600	0.450510	0.222360
C1161	C116	0.368600	0.465790	0.253870
C1171	C117	0.356800	0.495080	0.305890
C1181	C118	0.432200	0.453800	0.237400
C1191	C119	0.444000	0.427800	0.189300
C1201	C120	0.341600	0.403510	0.050650
C1211	C121	0.288300	0.372290	0.034600
C1221	C122	0.237100	0.393990	0.004200
C1231	C123	0.239110	0.447190	0.988740
C1241	C124	0.182400	0.472100	0.957890
C1251	C125	0.292400	0.478130	0.003980
C1261	C126	0.343800	0.456580	0.034570
C1271	C127	0.104600	0.705370	0.160830
C1281	C128	0.050800	0.692880	0.193400
C1291	C129	0.060800	0.668300	0.242800
C1301	C130	0.124100	0.655260	0.259750
C1311	C131	0.136100	0.625180	0.311760
C1321	C132	0.177600	0.668200	0.227800
C1331	C133	0.168600	0.693390	0.178600
C1341	C134	0.099400	0.806820	0.103210
C1351	C135	0.064900	0.841120	0.070160
C1361	C136	0.071300	0.895300	0.071450
C1371	C137	0.114900	0.918440	0.106580
C1381	C138	0.125100	0.978470	0.107320
C1391	C139	0.153300	0.885760	0.140200
C1401	C140	0.144600	0.830650	0.138500
C1411	C141	0.155300	0.711870	0.053510
C1421	C142	0.152600	0.658820	0.036820
C1431	C143	0.203400	0.637440	0.005250
C1441	C144	0.256700	0.669720	0.989400
C1451	C145	0.313400	0.645820	0.958830
C1461	C146	0.258500	0.722630	0.005700
C1471	C147	0.207700	0.744160	0.036600
C1481	C148	0.898800	0.690760	0.397820
C1491	C149	0.847300	0.712710	0.368700
C1501	C150	0.838900	0.767890	0.366100
C1511	C151	0.883700	0.801280	0.392380
C1521	C152	0.874300	0.861580	0.390210
C1531	C153	0.935300	0.779450	0.422000
C1541	C154	0.942800	0.724490	0.424170
C1551	C155	0.891300	0.587010	0.342730
C1561	C156	0.826600	0.576010	0.325770
C1571	C157	0.815600	0.549490	0.277640
C1581	C158	0.868600	0.534210	0.246130
C1591	C159	0.856800	0.504920	0.194110
C1601	C160	0.932200	0.546200	0.262600
C1611	C161	0.944000	0.572200	0.310700
C1621	C162	0.841600	0.596490	0.449350
C1631	C163	0.788300	0.627710	0.465400
C1641	C164	0.737100	0.606010	0.495800
C1651	C165	0.739110	0.552810	0.511260
C1661	C166	0.682400	0.527900	0.542110
C1671	C167	0.792400	0.521870	0.496020
C1681	C168	0.843800	0.543420	0.465430
C1691	C169	0.104600	0.205370	0.339170
C1701	C170	0.050800	0.192880	0.306600
C1711	C171	0.060800	0.168300	0.257200
C1721	C172	0.124100	0.155260	0.240250
C1731	C173	0.136100	0.125180	0.188240
C1741	C174	0.177600	0.168200	0.272200
C1751	C175	0.168600	0.193390	0.321400
C1761	C176	0.099400	0.306820	0.396790
C1771	C177	0.064900	0.341120	0.429840
C1781	C178	0.071300	0.395300	0.428550
C1791	C179	0.114900	0.418440	0.393420
C1801	C180	0.125100	0.478470	0.392680
C1811	C181	0.153300	0.385760	0.359800
C1821	C182	0.144600	0.330650	0.361500
C1831	C183	0.155300	0.211870	0.446490
C1841	C184	0.152600	0.158820	0.463180
C1851	C185	0.203400	0.137440	0.494750
C1861	C186	0.256700	0.169720	0.510600
C1871	C187	0.313400	0.145820	0.541170
C1881	C188	0.258500	0.222630	0.494300
C1891	C189	0.207700	0.244160	0.463400
C1901	C190	0.898800	0.190760	0.102180
C1911	C191	0.847300	0.212710	0.131300
C1921	C192	0.838900	0.267890	0.133900
C1931	C193	0.883700	0.301280	0.107620
C1941	C194	0.874300	0.361580	0.109790
C1951	C195	0.935300	0.279450	0.078000
C1961	C196	0.942800	0.224490	0.075830
C1971	C197	0.891300	0.087010	0.157270
C1981	C198	0.826600	0.076010	0.174230
C1991	C199	0.815600	0.049490	0.222360
C2001	C200	0.868600	0.034210	0.253870
C2011	C201	0.856800	0.004920	0.305890
C2021	C202	0.932200	0.046200	0.237400
C2031	C203	0.944000	0.072200	0.189300
C2041	C204	0.841600	0.096490	0.050650
C2051	C205	0.788300	0.127710	0.034600
C2061	C206	0.737100	0.106010	0.004200
C2071	C207	0.739110	0.052810	0.988740
C2081	C208	0.682400	0.027900	0.957890
C2091	C209	0.792400	0.021870	0.003980
C2101	C210	0.843800	0.043420	0.034570
C2111	C211	0.604600	0.794630	0.160830
C2121	C212	0.550800	0.807120	0.193400
C2131	C213	0.560800	0.831700	0.242800
C2141	C214	0.624100	0.844740	0.259750
C2151	C215	0.636100	0.874820	0.311760
C2161	C216	0.677600	0.831800	0.227800
C2171	C217	0.668600	0.806610	0.178600
C2181	C218	0.599400	0.693180	0.103210
C2191	C219	0.564900	0.658880	0.070160
C2201	C220	0.571300	0.604700	0.071450
C2211	C221	0.614900	0.581560	0.106580
C2221	C222	0.625100	0.521530	0.107320
C2231	C223	0.653300	0.614240	0.140200
C2241	C224	0.644600	0.669350	0.138500
C2251	C225	0.655300	0.788130	0.053510
C2261	C226	0.652600	0.841180	0.036820
C2271	C227	0.703400	0.862560	0.005250
C2281	C228	0.756700	0.830280	0.989400
C2291	C229	0.813400	0.854180	0.958830
C2301	C230	0.758500	0.777370	0.005700
C2311	C231	0.707700	0.755840	0.036600
C2321	C232	0.398800	0.809240	0.397820
C2331	C233	0.347300	0.787290	0.368700
C2341	C234	0.338900	0.732110	0.366100
C2351	C235	0.383700	0.698720	0.392380
C2361	C236	0.374300	0.638420	0.390210
C2371	C237	0.435300	0.720550	0.422000
C2381	C238	0.442800	0.775510	0.424170
C2391	C239	0.391300	0.912990	0.342730
C2401	C240	0.326600	0.923990	0.325770
C2411	C241	0.315600	0.950510	0.277640
C2421	C242	0.368600	0.965790	0.246130
C2431	C243	0.356800	0.995080	0.194110
C2441	C244	0.432200	0.953800	0.262600
C2451	C245	0.444000	0.927800	0.310700
C2461	C246	0.341600	0.903510	0.449350
C2471	C247	0.288300	0.872290	0.465400
C2481	C248	0.237100	0.893990	0.495800
C2491	C249	0.239110	0.947190	0.511260
C2501	C250	0.182400	0.972100	0.542110
C2511	C251	0.292400	0.978130	0.496020
C2521	C252	0.343800	0.956580	0.465430
C2531	C253	0.395400	0.705370	0.660830
C2541	C254	0.449200	0.692880	0.693400
C2551	C255	0.439200	0.668300	0.742800
C2561	C256	0.375900	0.655260	0.759750
C2571	C257	0.363900	0.625180	0.811760
C2581	C258	0.322400	0.668200	0.727800
C2591	C259	0.331400	0.693390	0.678600
C2601	C260	0.400600	0.806820	0.603210
C2611	C261	0.435100	0.841120	0.570160
C2621	C262	0.428700	0.895300	0.571450
C2631	C263	0.385100	0.918440	0.606580
C2641	C264	0.374900	0.978470	0.607320
C2651	C265	0.346700	0.885760	0.640200
C2661	C266	0.355400	0.830650	0.638500
C2671	C267	0.344700	0.711870	0.553510
C2681	C268	0.347400	0.658820	0.536820
C2691	C269	0.296600	0.637440	0.505250
C2701	C270	0.243300	0.669720	0.489400
C2711	C271	0.186600	0.645820	0.458830
C2721	C272	0.241500	0.722630	0.505700
C2731	C273	0.292300	0.744160	0.536600
C2741	C274	0.601200	0.690760	0.897820
C2751	C275	0.652700	0.712710	0.868700
C2761	C276	0.661100	0.767890	0.866100
C2771	C277	0.616300	0.801280	0.892380
C2781	C278	0.625700	0.861580	0.890210
C2791	C279	0.564700	0.779450	0.922000
C2801	C280	0.557200	0.724490	0.924170
C2811	C281	0.608700	0.587010	0.842730
C2821	C282	0.673400	0.576010	0.825770
C2831	C283	0.684400	0.549490	0.777640
C2841	C284	0.631400	0.534210	0.746130
C2851	C285	0.643200	0.504920	0.694110
C2861	C286	0.567800	0.546200	0.762600
C2871	C287	0.556000	0.572200	0.810700
C2881	C288	0.658400	0.596490	0.949350
C2891	C289	0.711700	0.627710	0.965400
C2901	C290	0.762900	0.606010	0.995800
C2911	C291	0.760890	0.552810	0.011260
C2921	C292	0.817600	0.527900	0.042110
C2931	C293	0.707600	0.521870	0.996020
C2941	C294	0.656200	0.543420	0.965430
C2951	C295	0.895400	0.294630	0.839170
C2961	C296	0.949200	0.307120	0.806600
C2971	C297	0.939200	0.331700	0.757200
C2981	C298	0.875900	0.344740	0.740250
C2991	C299	0.863900	0.374820	0.688240
C3001	C300	0.822400	0.331800	0.772200
C3011	C301	0.831400	0.306610	0.821400
C3021	C302	0.900600	0.193180	0.896790
C3031	C303	0.935100	0.158880	0.929840
C3041	C304	0.928700	0.104700	0.928550
C3051	C305	0.885100	0.081560	0.893420
C3061	C306	0.874900	0.021530	0.892680
C3071	C307	0.846700	0.114240	0.859800
C3081	C308	0.855400	0.169350	0.861500
C3091	C309	0.844700	0.288130	0.946490
C3101	C310	0.847400	0.341180	0.963180
C3111	C311	0.796600	0.362560	0.994750
C3121	C312	0.743300	0.330280	0.010600
C3131	C313	0.686600	0.354180	0.041170
C3141	C314	0.741500	0.277370	0.994300
C3151	C315	0.792300	0.255840	0.963400
C3161	C316	0.101200	0.309240	0.602180
C3171	C317	0.152700	0.287290	0.631300
C3181	C318	0.161100	0.232110	0.633900
C3191	C319	0.116300	0.198720	0.607620
C3201	C320	0.125700	0.138420	0.609790
C3211	C321	0.064700	0.220550	0.578000
C3221	C322	0.057200	0.275510	0.575830
C3231	C323	0.108700	0.412990	0.657270
C3241	C324	0.173400	0.423990	0.674230
C3251	C325	0.184400	0.450510	0.722360
C3261	C326	0.131400	0.465790	0.753870
C3271	C327	0.143200	0.495080	0.805890
C3281	C328	0.067800	0.453800	0.737400
C3291	C329	0.056000	0.427800	0.689300
C3301	C330	0.158400	0.403510	0.550650
C3311	C331	0.211700	0.372290	0.534600
C3321	C332	0.262900	0.393990	0.504200
C3331	C333	0.260890	0.447190	0.488740
C3341	C334	0.317600	0.472100	0.457890
C3351	C335	0.207600	0.478130	0.503980
C3361	C336	0.156200	0.456580	0.534570
O11	O1	0.912300	0.877960	0.844350
O21	O2	0.806660	0.893560	0.818100
O31	O3	0.920300	0.492590	0.588210
O41	O4	0.820950	0.505200	0.627520
O51	O5	0.691960	0.901840	0.440340
O61	O6	0.632030	0.829290	0.454790
O71	O7	0.979150	0.778470	0.576020
O81	O8	0.181730	0.622510	0.874580
O91	O9	0.078030	0.610140	0.903920
O101	O10	0.200020	0.014600	0.687150
O111	O11	0.094950	0.997830	0.662120
O121	O12	0.372440	0.948400	0.045040
O131	O13	0.309490	0.018320	0.062440
O141	O14	0.024260	0.895030	0.926880
O151	O15	0.412300	0.122040	0.655650
O161	O16	0.306660	0.106440	0.681900
O171	O17	0.420300	0.507410	0.911790
O181	O18	0.320950	0.494800	0.872480
O191	O19	0.191960	0.098160	0.059660
O201	O20	0.132030	0.170710	0.045210
O211	O21	0.479150	0.221530	0.923980
O221	O22	0.681730	0.377490	0.625420
O231	O23	0.578030	0.389860	0.596080
O241	O24	0.700020	0.985400	0.812850
O251	O25	0.594950	0.002170	0.837880
O261	O26	0.872440	0.051600	0.454960
O271	O27	0.809490	0.981680	0.437560
O281	O28	0.524260	0.104970	0.573120
O291	O29	0.587700	0.377960	0.155650
O301	O30	0.693340	0.393560	0.181900
O311	O31	0.579700	0.992590	0.411790
O321	O32	0.679050	0.005200	0.372480
O331	O33	0.808040	0.401840	0.559660
O341	O34	0.867970	0.329290	0.545210
O351	O35	0.520850	0.278470	0.423980
O361	O36	0.318270	0.122510	0.125420
O371	O37	0.421970	0.110140	0.096080
O381	O38	0.299980	0.514600	0.312850
O391	O39	0.405050	0.497830	0.337880
O401	O40	0.127560	0.448400	0.954960
O411	O41	0.190510	0.518320	0.937560
O421	O42	0.475740	0.395030	0.073120
O431	O43	0.087700	0.622040	0.344350
O441	O44	0.193340	0.606440	0.318100
O451	O45	0.079700	0.007410	0.088210
O461	O46	0.179050	0.994800	0.127520
O471	O47	0.308040	0.598160	0.940340
O481	O48	0.367970	0.670710	0.954790
O491	O49	0.020850	0.721530	0.076020
O501	O50	0.818270	0.877490	0.374580
O511	O51	0.921970	0.889860	0.403920
O521	O52	0.799980	0.485400	0.187150
O531	O53	0.905050	0.502170	0.162120
O541	O54	0.627560	0.551600	0.545040
O551	O55	0.690510	0.481680	0.562440
O561	O56	0.975740	0.604970	0.426880
O571	O57	0.087700	0.122040	0.155650
O581	O58	0.193340	0.106440	0.181900
O591	O59	0.079700	0.507410	0.411790
O601	O60	0.179050	0.494800	0.372480
O611	O61	0.308040	0.098160	0.559660
O621	O62	0.367970	0.170710	0.545210
O631	O63	0.020850	0.221530	0.423980
O641	O64	0.818270	0.377490	0.125420
O651	O65	0.921970	0.389860	0.096080
O661	O66	0.799980	0.985400	0.312850
O671	O67	0.905050	0.002170	0.337880
O681	O68	0.627560	0.051600	0.954960
O691	O69	0.690510	0.981680	0.937560
O701	O70	0.975740	0.104970	0.073120
O711	O71	0.587700	0.877960	0.344350
O721	O72	0.693340	0.893560	0.318100
O731	O73	0.579700	0.492590	0.088210
O741	O74	0.679050	0.505200	0.127520
O751	O75	0.808040	0.901840	0.940340
O761	O76	0.867970	0.829290	0.954790
O771	O77	0.520850	0.778470	0.076020
O781	O78	0.318270	0.622510	0.374580
O791	O79	0.421970	0.610140	0.403920
O801	O80	0.299980	0.014600	0.187150
O811	O81	0.405050	0.997830	0.162120
O821	O82	0.127560	0.948400	0.545040
O831	O83	0.190510	0.018320	0.562440
O841	O84	0.475740	0.895030	0.426880
O851	O85	0.412300	0.622040	0.844350
O861	O86	0.306660	0.606440	0.818100
O871	O87	0.420300	0.007410	0.588210
O881	O88	0.320950	0.994800	0.627520
O891	O89	0.191960	0.598160	0.440340
O901	O90	0.132030	0.670710	0.454790
O911	O91	0.479150	0.721530	0.576020
O921	O92	0.681730	0.877490	0.874580
O931	O93	0.578030	0.889860	0.903920
O941	O94	0.700020	0.485400	0.687150
O951	O95	0.594950	0.502170	0.662120
O961	O96	0.872440	0.551600	0.045040
O971	O97	0.809490	0.481680	0.062440
O981	O98	0.524260	0.604970	0.926880
O991	O99	0.912300	0.377960	0.655650
O1001	O100	0.806660	0.393560	0.681900
O1011	O101	0.920300	0.992590	0.911790
O1021	O102	0.820950	0.005200	0.872480
O1031	O103	0.691960	0.401840	0.059660
O1041	O104	0.632030	0.329290	0.045210
O1051	O105	0.979150	0.278470	0.923980
O1061	O106	0.181730	0.122510	0.625420
O1071	O107	0.078030	0.110140	0.596080
O1081	O108	0.200020	0.514600	0.812850
O1091	O109	0.094950	0.497830	0.837880
O1101	O110	0.372440	0.448400	0.454960
O1111	O111	0.309490	0.518320	0.437560
O1121	O112	0.024260	0.395030	0.573120
