data_BELVEV_charged_PM
_symmetry_space_group_name_H-M	'P1'
_cell_length_a	14.771900
_cell_length_b	14.771900
_cell_length_c	23.128400
_cell_angle_alpha	81.687000
_cell_angle_beta	78.391900
_cell_angle_gamma	117.296000
_symmetry_Int_Tables_number 1

loop_
_symmetry_equiv_pos_as_xyz
'x,y,z'

loop_
_atom_site_label
_atom_site_type_symbol
_atom_site_fract_x
_atom_site_fract_y
_atom_site_fract_z
Mn11	Mn1	0.430880	0.926190	0.223570
Mn21	Mn2	0.649760	0.654450	0.276430
Mn31	Mn3	0.569120	0.073810	0.776430
Mn41	Mn4	0.350240	0.345550	0.723570
Mn51	Mn5	0.419840	0.669840	0.250000
Mn61	Mn6	0.580160	0.330160	0.750000
P11	P1	0.669500	0.916650	0.844870
P21	P2	0.261520	0.514370	0.655130
P31	P3	0.330500	0.083350	0.155130
P41	P4	0.738480	0.485630	0.344870
H11	H1	0.579700	0.732000	0.950100
H21	H2	0.508700	0.700400	0.055100
H31	H3	0.572600	0.001600	0.029800
H41	H4	0.636400	0.031600	0.924400
H51	H5	0.824800	0.017600	0.907600
H61	H6	0.010900	0.129300	0.874600
H71	H7	0.024000	0.077200	0.707800
H81	H8	0.838500	0.970400	0.739300
H91	H9	0.749300	0.769400	0.841300
H101	H10	0.692000	0.609900	0.814900
H111	H11	0.441700	0.625400	0.779500
H121	H12	0.498300	0.785100	0.805600
H131	H13	0.182100	0.529800	0.549900
H141	H14	0.255500	0.563800	0.444900
H151	H15	0.531400	0.602400	0.470200
H161	H16	0.456000	0.560800	0.575600
H171	H17	0.425200	0.732400	0.592400
H181	H18	0.503900	0.885500	0.625400
H191	H19	0.285000	0.731800	0.792200
H201	H20	0.209700	0.577800	0.760700
H211	H21	0.110700	0.590600	0.658700
H221	H22	0.924800	0.506900	0.685100
H231	H23	0.904900	0.221200	0.720500
H241	H24	0.090700	0.303900	0.694400
H251	H25	0.420300	0.268000	0.049900
H261	H26	0.491300	0.299600	0.944900
H271	H27	0.427400	0.998400	0.970200
H281	H28	0.363600	0.968400	0.075600
H291	H29	0.175200	0.982400	0.092400
H301	H30	0.989100	0.870700	0.125400
H311	H31	0.976000	0.922800	0.292200
H321	H32	0.161500	0.029600	0.260700
H331	H33	0.250700	0.230600	0.158700
H341	H34	0.308000	0.390100	0.185100
H351	H35	0.558300	0.374600	0.220500
H361	H36	0.501700	0.214900	0.194400
H371	H37	0.817900	0.470200	0.450100
H381	H38	0.744500	0.436200	0.555100
H391	H39	0.468600	0.397600	0.529800
H401	H40	0.544000	0.439200	0.424400
H411	H41	0.574800	0.267600	0.407600
H421	H42	0.496100	0.114500	0.374600
H431	H43	0.715000	0.268200	0.207800
H441	H44	0.790300	0.422200	0.239300
H451	H45	0.889300	0.409400	0.341300
H461	H46	0.075200	0.493100	0.314900
H471	H47	0.095100	0.778800	0.279500
H481	H48	0.909300	0.696100	0.305600
C11	C1	0.616260	0.885670	0.927050
C21	C2	0.577550	0.786880	0.966170
C31	C3	0.535970	0.768510	0.028520
C41	C4	0.533430	0.847650	0.052840
C51	C5	0.487030	0.827220	0.121150
C61	C6	0.572680	0.946100	0.013640
C71	C7	0.612040	0.964370	0.951070
C81	C8	0.812870	0.985720	0.826070
C91	C9	0.864660	0.031180	0.866500
C101	C10	0.975710	0.097140	0.846890
C111	C11	0.034530	0.116010	0.787800
C121	C12	0.152680	0.194260	0.765580
C131	C13	0.983520	0.066990	0.748110
C141	C14	0.873190	0.002920	0.767050
C151	C15	0.630110	0.793760	0.825050
C161	C16	0.687150	0.740650	0.828280
C171	C17	0.653130	0.645990	0.812560
C181	C18	0.562990	0.603660	0.793390
C191	C19	0.528820	0.502040	0.774460
C201	C20	0.504800	0.655260	0.791520
C211	C21	0.538290	0.749950	0.807120
C221	C22	0.312720	0.543310	0.572950
C231	C23	0.253050	0.543720	0.533830
C241	C24	0.297030	0.564490	0.471480
C251	C25	0.400490	0.586270	0.447160
C261	C26	0.448370	0.608180	0.378850
C271	C27	0.459740	0.586320	0.486360
C281	C28	0.415440	0.563110	0.548930
C291	C29	0.311790	0.638940	0.673930
C301	C30	0.397680	0.731160	0.633500
C311	C31	0.444030	0.822600	0.653110
C321	C32	0.403810	0.822330	0.712200
C331	C33	0.459840	0.918260	0.734420
C341	C34	0.315100	0.731630	0.751890
C351	C35	0.269970	0.640240	0.732950
C361	C36	0.118810	0.455160	0.674950
C371	C37	0.068930	0.515430	0.671720
C381	C38	0.958550	0.465690	0.687440
C391	C39	0.897050	0.356380	0.706610
C401	C40	0.776500	0.303280	0.725540
C411	C41	0.946780	0.296320	0.708480
C421	C42	0.057070	0.345410	0.692880
C431	C43	0.383740	0.114330	0.072950
C441	C44	0.422450	0.213120	0.033830
C451	C45	0.464030	0.231490	0.971480
C461	C46	0.466570	0.152350	0.947160
C471	C47	0.512970	0.172780	0.878850
C481	C48	0.427320	0.053900	0.986360
C491	C49	0.387960	0.035630	0.048930
C501	C50	0.187130	0.014280	0.173930
C511	C51	0.135340	0.968820	0.133500
C521	C52	0.024290	0.902860	0.153110
C531	C53	0.965470	0.883990	0.212200
C541	C54	0.847320	0.805740	0.234420
C551	C55	0.016480	0.933010	0.251890
C561	C56	0.126810	0.997080	0.232950
C571	C57	0.369890	0.206240	0.174950
C581	C58	0.312850	0.259350	0.171720
C591	C59	0.346870	0.354010	0.187440
C601	C60	0.437010	0.396340	0.206610
C611	C61	0.471180	0.497960	0.225540
C621	C62	0.495200	0.344740	0.208480
C631	C63	0.461710	0.250050	0.192880
C641	C64	0.687280	0.456690	0.427050
C651	C65	0.746950	0.456280	0.466170
C661	C66	0.702970	0.435510	0.528520
C671	C67	0.599510	0.413730	0.552840
C681	C68	0.551630	0.391820	0.621150
C691	C69	0.540260	0.413680	0.513640
C701	C70	0.584560	0.436890	0.451070
C711	C71	0.688210	0.361060	0.326070
C721	C72	0.602320	0.268840	0.366500
C731	C73	0.555970	0.177400	0.346890
C741	C74	0.596190	0.177670	0.287800
C751	C75	0.540160	0.081740	0.265580
C761	C76	0.684900	0.268370	0.248110
C771	C77	0.730030	0.359760	0.267050
C781	C78	0.881190	0.544840	0.325050
C791	C79	0.931070	0.484570	0.328280
C801	C80	0.041450	0.534310	0.312560
C811	C81	0.102950	0.643620	0.293390
C821	C82	0.223500	0.696720	0.274460
C831	C83	0.053220	0.703680	0.291520
C841	C84	0.942930	0.654590	0.307120
C851	C85	0.591900	0.841900	0.250000
C861	C86	0.689900	0.939900	0.250000
C871	C87	0.408100	0.158100	0.750000
C881	C88	0.310100	0.060100	0.750000
O11	O1	0.457610	0.738560	0.154010
O21	O2	0.481230	0.902280	0.138310
O31	O3	0.194560	0.248070	0.800290
O41	O4	0.205720	0.207440	0.711980
O51	O5	0.592590	0.467960	0.770350
O61	O6	0.440240	0.460960	0.764100
O71	O7	0.631970	0.981420	0.812630
O81	O8	0.503440	0.838530	0.260890
O91	O9	0.392570	0.611620	0.345990
O101	O10	0.540590	0.619540	0.361690
O111	O11	0.548360	0.994850	0.699710
O121	O12	0.419420	0.917700	0.788020
O131	O13	0.738310	0.362940	0.729650
O141	O14	0.725060	0.204340	0.735900
O151	O15	0.294050	0.444600	0.687370
O161	O16	0.599420	0.764330	0.239110
O171	O17	0.542390	0.261440	0.845990
O181	O18	0.518770	0.097720	0.861690
O191	O19	0.805440	0.751930	0.199710
O201	O20	0.794280	0.792560	0.288020
O211	O21	0.407410	0.532040	0.229650
O221	O22	0.559760	0.539040	0.235900
O231	O23	0.368030	0.018580	0.187370
O241	O24	0.496560	0.161470	0.739110
O251	O25	0.607430	0.388380	0.654010
O261	O26	0.459410	0.380460	0.638310
O271	O27	0.451640	0.005150	0.300290
O281	O28	0.580580	0.082300	0.211980
O291	O29	0.261690	0.637060	0.270350
O301	O30	0.274940	0.795660	0.264100
O311	O31	0.705950	0.555400	0.312630
O321	O32	0.400580	0.235670	0.760890
H491	H49	0.725300	0.754800	0.669900
H501	H50	0.779100	0.798700	0.602200
H511	H51	0.602200	0.707400	0.620800
H521	H52	0.601300	0.606200	0.657300
H531	H53	0.658700	0.653200	0.584900
H541	H54	0.867800	0.713500	0.644900
H551	H55	0.813400	0.653100	0.598500
H561	H56	0.755100	0.605500	0.670800
C891	C89	0.643100	0.671100	0.623400
C901	C90	0.799800	0.670900	0.637300
N11	N1	0.738700	0.737400	0.633700
H571	H57	0.924700	0.395200	0.830100
H581	H58	0.900900	0.381300	0.897800
H591	H59	0.828200	0.223000	0.879200
H601	H60	0.763500	0.258600	0.842700
H611	H61	0.738100	0.243600	0.915100
H621	H62	0.858400	0.512700	0.855100
H631	H63	0.751600	0.411900	0.901500
H641	H64	0.776300	0.425900	0.829200
C911	C91	0.794500	0.266500	0.876600
C921	C92	0.808200	0.437100	0.862700
N21	N2	0.871100	0.372400	0.866300
H651	H65	0.274700	0.245200	0.330100
H661	H66	0.220900	0.201300	0.397800
H671	H67	0.397800	0.292600	0.379200
H681	H68	0.398700	0.393800	0.342700
H691	H69	0.341300	0.346800	0.415100
H701	H70	0.132200	0.286500	0.355100
H711	H71	0.186600	0.346900	0.401500
H721	H72	0.244900	0.394500	0.329200
C931	C93	0.356900	0.328900	0.376600
C941	C94	0.200200	0.329100	0.362700
N31	N3	0.261300	0.262600	0.366300
H731	H73	0.075300	0.604800	0.169900
H741	H74	0.099100	0.618700	0.102200
H751	H75	0.171800	0.777000	0.120800
H761	H76	0.236500	0.741400	0.157300
H771	H77	0.261900	0.756400	0.084900
H781	H78	0.141600	0.487300	0.144900
H791	H79	0.248400	0.588100	0.098500
H801	H80	0.223700	0.574100	0.170800
C951	C95	0.205500	0.733500	0.123400
C961	C96	0.191800	0.562900	0.137300
N41	N4	0.128900	0.627600	0.133700
