data_BEPLUF_clean_PM
_symmetry_space_group_name_H-M	'P1'
_cell_length_a	10.196400
_cell_length_b	17.686000
_cell_length_c	17.686000
_cell_angle_alpha	120.000000
_cell_angle_beta	90.000000
_cell_angle_gamma	90.000000
_symmetry_Int_Tables_number 1

loop_
_symmetry_equiv_pos_as_xyz
'x,y,z'

loop_
_atom_site_label
_atom_site_type_symbol
_atom_site_fract_x
_atom_site_fract_y
_atom_site_fract_z
Zn11	Zn1	0.986210	0.458830	0.533310
Zn21	Zn2	0.652880	0.074480	0.541170
Zn31	Zn3	0.319540	0.466690	0.925520
Zn41	Zn4	0.486210	0.541170	0.466690
Zn51	Zn5	0.152880	0.925520	0.458830
Zn61	Zn6	0.819540	0.533310	0.074480
H11	H1	0.204600	0.328000	0.436000
H21	H2	0.258600	0.185300	0.391900
H31	H3	0.921700	0.162700	0.490900
H41	H4	0.874500	0.306400	0.532400
H51	H5	0.071700	0.024300	0.372600
H61	H6	0.220400	0.051100	0.390100
H71	H7	0.254200	0.159300	0.549600
H81	H8	0.119100	0.189700	0.664700
H91	H9	0.254900	0.168000	0.690900
H101	H10	0.142900	0.097900	0.655500
H111	H11	0.050200	0.074400	0.519600
H121	H12	0.871270	0.108000	0.672000
H131	H13	0.925270	0.206600	0.814700
H141	H14	0.588370	0.328200	0.837300
H151	H15	0.541170	0.226000	0.693600
H161	H16	0.738370	0.348300	0.975700
H171	H17	0.887070	0.339000	0.948900
H181	H18	0.920870	0.390300	0.840700
H191	H19	0.785770	0.475000	0.810300
H201	H20	0.921570	0.522900	0.832000
H211	H21	0.809570	0.557600	0.902100
H221	H22	0.716870	0.445200	0.925600
H231	H23	0.537930	0.564000	0.892000
H241	H24	0.591930	0.608100	0.793400
H251	H25	0.255030	0.509100	0.671800
H261	H26	0.207830	0.467600	0.774000
H271	H27	0.405030	0.627400	0.651700
H281	H28	0.553730	0.609900	0.661000
H291	H29	0.587530	0.450400	0.609700
H301	H30	0.452430	0.335300	0.525000
H311	H31	0.588230	0.309100	0.477100
H321	H32	0.476230	0.344500	0.442400
H331	H33	0.383530	0.480400	0.554800
H341	H34	0.704600	0.672000	0.564000
H351	H35	0.758600	0.814700	0.608100
H361	H36	0.421700	0.837300	0.509100
H371	H37	0.374500	0.693600	0.467600
H381	H38	0.571700	0.975700	0.627400
H391	H39	0.720400	0.948900	0.609900
H401	H40	0.754200	0.840700	0.450400
H411	H41	0.619100	0.810300	0.335300
H421	H42	0.754900	0.832000	0.309100
H431	H43	0.642900	0.902100	0.344500
H441	H44	0.550200	0.925600	0.480400
H451	H45	0.371270	0.892000	0.328000
H461	H46	0.425270	0.793400	0.185300
H471	H47	0.088370	0.671800	0.162700
H481	H48	0.041170	0.774000	0.306400
H491	H49	0.238370	0.651700	0.024300
H501	H50	0.387070	0.661000	0.051100
H511	H51	0.420870	0.609700	0.159300
H521	H52	0.285770	0.525000	0.189700
H531	H53	0.421570	0.477100	0.168000
H541	H54	0.309570	0.442400	0.097900
H551	H55	0.216870	0.554800	0.074400
H561	H56	0.037930	0.436000	0.108000
H571	H57	0.091930	0.391900	0.206600
H581	H58	0.755030	0.490900	0.328200
H591	H59	0.707830	0.532400	0.226000
H601	H60	0.905030	0.372600	0.348300
H611	H61	0.053730	0.390100	0.339000
H621	H62	0.087530	0.549600	0.390300
H631	H63	0.952430	0.664700	0.475000
H641	H64	0.088230	0.690900	0.522900
H651	H65	0.976230	0.655500	0.557600
H661	H66	0.883530	0.519600	0.445200
C11	C1	0.146700	0.295000	0.448400
C21	C2	0.180600	0.208800	0.421800
C31	C3	0.096900	0.158700	0.440400
C41	C4	0.982300	0.195400	0.480000
C51	C5	0.953700	0.282200	0.504800
C61	C6	0.133300	0.064900	0.415700
C71	C7	0.232400	0.109900	0.557700
C81	C8	0.356600	0.054900	0.543600
C91	C9	0.182700	0.144600	0.650800
C101	C10	0.813370	0.153400	0.705000
C111	C11	0.847270	0.213000	0.791200
C121	C12	0.763570	0.281700	0.841300
C131	C13	0.648970	0.284600	0.804600
C141	C14	0.620370	0.222600	0.717800
C151	C15	0.799970	0.350800	0.935100
C161	C16	0.899070	0.447800	0.890100
C171	C17	0.023270	0.488700	0.945100
C181	C18	0.849370	0.506200	0.855400
C191	C19	0.480030	0.551600	0.846600
C201	C20	0.513930	0.578200	0.787000
C211	C21	0.430230	0.559600	0.718300
C221	C22	0.315630	0.520000	0.715400
C231	C23	0.287030	0.495200	0.777400
C241	C24	0.466630	0.584300	0.649200
C251	C25	0.565730	0.442300	0.552200
C261	C26	0.689930	0.456400	0.511300
C271	C27	0.516030	0.349200	0.493800
C281	C28	0.646700	0.705000	0.551600
C291	C29	0.680600	0.791200	0.578200
C301	C30	0.596900	0.841300	0.559600
C311	C31	0.482300	0.804600	0.520000
C321	C32	0.453700	0.717800	0.495200
C331	C33	0.633300	0.935100	0.584300
C341	C34	0.732400	0.890100	0.442300
C351	C35	0.856600	0.945100	0.456400
C361	C36	0.682700	0.855400	0.349200
C371	C37	0.313370	0.846600	0.295000
C381	C38	0.347270	0.787000	0.208800
C391	C39	0.263570	0.718300	0.158700
C401	C40	0.148970	0.715400	0.195400
C411	C41	0.120370	0.777400	0.282200
C421	C42	0.299970	0.649200	0.064900
C431	C43	0.399070	0.552200	0.109900
C441	C44	0.523270	0.511300	0.054900
C451	C45	0.349370	0.493800	0.144600
C461	C46	0.980030	0.448400	0.153400
C471	C47	0.013930	0.421800	0.213000
C481	C48	0.930230	0.440400	0.281700
C491	C49	0.815630	0.480000	0.284600
C501	C50	0.787030	0.504800	0.222600
C511	C51	0.966630	0.415700	0.350800
C521	C52	0.065730	0.557700	0.447800
C531	C53	0.189930	0.543600	0.488700
C541	C54	0.016030	0.650800	0.506200
N11	N1	0.130000	0.056000	0.493800
N21	N2	0.039300	0.331500	0.489300
N31	N3	0.796670	0.437800	0.944000
N41	N4	0.705970	0.157800	0.668500
N51	N5	0.463330	0.506200	0.562200
N61	N6	0.372630	0.510700	0.842200
N71	N7	0.630000	0.944000	0.506200
N81	N8	0.539300	0.668500	0.510700
N91	N9	0.296670	0.562200	0.056000
N101	N10	0.205970	0.842200	0.331500
N111	N11	0.963330	0.493800	0.437800
N121	N12	0.872630	0.489300	0.157800
O11	O1	0.350100	0.973700	0.497100
O21	O2	0.456000	0.098300	0.579900
O31	O3	0.016770	0.523400	0.026300
O41	O4	0.122670	0.481600	0.901700
O51	O5	0.683430	0.502900	0.476600
O61	O6	0.789330	0.420100	0.518400
O71	O7	0.850100	0.026300	0.502900
O81	O8	0.956000	0.901700	0.420100
O91	O9	0.516770	0.476600	0.973700
O101	O10	0.622670	0.518400	0.098300
O111	O11	0.183430	0.497100	0.523400
O121	O12	0.289330	0.579900	0.481600
