data_BEPMAM_clean_PM
_symmetry_space_group_name_H-M	'P1'
_cell_length_a	10.171600
_cell_length_b	17.591100
_cell_length_c	17.591100
_cell_angle_alpha	120.000000
_cell_angle_beta	90.000000
_cell_angle_gamma	90.000000
_symmetry_Int_Tables_number 1

loop_
_symmetry_equiv_pos_as_xyz
'x,y,z'

loop_
_atom_site_label
_atom_site_type_symbol
_atom_site_fract_x
_atom_site_fract_y
_atom_site_fract_z
Zn11	Zn1	0.869090	0.543330	0.467970
Zn21	Zn2	0.535760	0.924640	0.456670
Zn31	Zn3	0.202420	0.532030	0.075360
Zn41	Zn4	0.369090	0.456670	0.532030
Zn51	Zn5	0.035760	0.075360	0.543330
Zn61	Zn6	0.702420	0.467970	0.924640
H11	H1	0.585200	0.477200	0.778900
H21	H2	0.631700	0.522900	0.678200
H31	H3	0.979900	0.610100	0.794800
H41	H4	0.927700	0.562500	0.890100
H51	H5	0.791400	0.633800	0.653000
H61	H6	0.939500	0.614800	0.662900
H71	H7	0.965400	0.451900	0.613400
H81	H8	0.802800	0.349200	0.508000
H91	H9	0.942100	0.311800	0.509300
H101	H10	0.907300	0.335300	0.436700
H111	H11	0.765500	0.485500	0.558400
H121	H12	0.251870	0.301700	0.522800
H131	H13	0.298370	0.155300	0.477100
H141	H14	0.646570	0.184700	0.389900
H151	H15	0.594370	0.327600	0.437500
H161	H16	0.458070	0.019200	0.366200
H171	H17	0.606170	0.048100	0.385200
H181	H18	0.632070	0.161500	0.548100
H191	H19	0.469470	0.158800	0.650800
H201	H20	0.608770	0.197500	0.688200
H211	H21	0.573970	0.101400	0.664700
H221	H22	0.432170	0.072900	0.514500
H231	H23	0.918530	0.221100	0.698300
H241	H24	0.965030	0.321800	0.844700
H251	H25	0.313230	0.205200	0.815300
H261	H26	0.261030	0.109900	0.672400
H271	H27	0.124730	0.347000	0.980800
H281	H28	0.272830	0.337100	0.951900
H291	H29	0.298730	0.386600	0.838500
H301	H30	0.136130	0.492000	0.841200
H311	H31	0.275430	0.490700	0.802500
H321	H32	0.240630	0.563300	0.898600
H331	H33	0.098830	0.441600	0.927100
H341	H34	0.085200	0.522800	0.221100
H351	H35	0.131700	0.477100	0.321800
H361	H36	0.479900	0.389900	0.205200
H371	H37	0.427700	0.437500	0.109900
H381	H38	0.291400	0.366200	0.347000
H391	H39	0.439500	0.385200	0.337100
H401	H40	0.465400	0.548100	0.386600
H411	H41	0.302800	0.650800	0.492000
H421	H42	0.442100	0.688200	0.490700
H431	H43	0.407300	0.664700	0.563300
H441	H44	0.265500	0.514500	0.441600
H451	H45	0.751870	0.698300	0.477200
H461	H46	0.798370	0.844700	0.522900
H471	H47	0.146570	0.815300	0.610100
H481	H48	0.094370	0.672400	0.562500
H491	H49	0.958070	0.980800	0.633800
H501	H50	0.106170	0.951900	0.614800
H511	H51	0.132070	0.838500	0.451900
H521	H52	0.969470	0.841200	0.349200
H531	H53	0.108770	0.802500	0.311800
H541	H54	0.073970	0.898600	0.335300
H551	H55	0.932170	0.927100	0.485500
H561	H56	0.418530	0.778900	0.301700
H571	H57	0.465030	0.678200	0.155300
H581	H58	0.813230	0.794800	0.184700
H591	H59	0.761030	0.890100	0.327600
H601	H60	0.624730	0.653000	0.019200
H611	H61	0.772830	0.662900	0.048100
H621	H62	0.798730	0.613400	0.161500
H631	H63	0.636130	0.508000	0.158800
H641	H64	0.775430	0.509300	0.197500
H651	H65	0.740630	0.436700	0.101400
H661	H66	0.598830	0.558400	0.072900
C11	C1	0.665600	0.503700	0.781800
C21	C2	0.693900	0.530900	0.720300
C31	C3	0.813800	0.569600	0.722500
C41	C4	0.899800	0.582300	0.789200
C51	C5	0.867300	0.554300	0.846900
C61	C6	0.851500	0.590400	0.651900
C71	C7	0.944800	0.443700	0.555400
C81	C8	0.069400	0.460000	0.515900
C91	C9	0.894700	0.351700	0.497100
C101	C10	0.332270	0.278100	0.496300
C111	C11	0.360570	0.189400	0.469100
C121	C12	0.480470	0.152900	0.430400
C131	C13	0.566470	0.206900	0.417700
C141	C14	0.533970	0.292600	0.445700
C151	C15	0.518170	0.061500	0.409600
C161	C16	0.611470	0.111700	0.556300
C171	C17	0.736070	0.055900	0.540000
C181	C18	0.561370	0.145400	0.648300
C191	C19	0.998930	0.218200	0.721900
C201	C20	0.027230	0.279700	0.810600
C211	C21	0.147130	0.277500	0.847100
C221	C22	0.233130	0.210800	0.793100
C231	C23	0.200630	0.153100	0.707400
C241	C24	0.184830	0.348100	0.938500
C251	C25	0.278130	0.444600	0.888300
C261	C26	0.402730	0.484100	0.944100
C271	C27	0.228030	0.502900	0.854600
C281	C28	0.165600	0.496300	0.218200
C291	C29	0.193900	0.469100	0.279700
C301	C30	0.313800	0.430400	0.277500
C311	C31	0.399800	0.417700	0.210800
C321	C32	0.367300	0.445700	0.153100
C331	C33	0.351500	0.409600	0.348100
C341	C34	0.444800	0.556300	0.444600
C351	C35	0.569400	0.540000	0.484100
C361	C36	0.394700	0.648300	0.502900
C371	C37	0.832270	0.721900	0.503700
C381	C38	0.860570	0.810600	0.530900
C391	C39	0.980470	0.847100	0.569600
C401	C40	0.066470	0.793100	0.582300
C411	C41	0.033970	0.707400	0.554300
C421	C42	0.018170	0.938500	0.590400
C431	C43	0.111470	0.888300	0.443700
C441	C44	0.236070	0.944100	0.460000
C451	C45	0.061370	0.854600	0.351700
C461	C46	0.498930	0.781800	0.278100
C471	C47	0.527230	0.720300	0.189400
C481	C48	0.647130	0.722500	0.152900
C491	C49	0.733130	0.789200	0.206900
C501	C50	0.700630	0.846900	0.292600
C511	C51	0.684830	0.651900	0.061500
C521	C52	0.778130	0.555400	0.111700
C531	C53	0.902730	0.515900	0.055900
C541	C54	0.728030	0.497100	0.145400
N11	N1	0.846700	0.509800	0.564800
N21	N2	0.751700	0.515200	0.843700
N31	N3	0.513370	0.055000	0.490200
N41	N4	0.418370	0.328500	0.484800
N51	N5	0.180030	0.435200	0.945000
N61	N6	0.085030	0.156300	0.671500
N71	N7	0.346700	0.490200	0.435200
N81	N8	0.251700	0.484800	0.156300
N91	N9	0.013370	0.945000	0.509800
N101	N10	0.918370	0.671500	0.515200
N111	N11	0.680030	0.564800	0.055000
N121	N12	0.585030	0.843700	0.328500
O11	O1	0.172700	0.423400	0.525400
O21	O2	0.063300	0.503200	0.477800
O31	O3	0.839370	0.102000	0.576600
O41	O4	0.729970	0.974600	0.496800
O51	O5	0.506030	0.474600	0.898000
O61	O6	0.396630	0.522200	0.025400
O71	O7	0.672700	0.576600	0.474600
O81	O8	0.563300	0.496800	0.522200
O91	O9	0.339370	0.898000	0.423400
O101	O10	0.229970	0.025400	0.503200
O111	O11	0.006030	0.525400	0.102000
O121	O12	0.896630	0.477800	0.974600
