data_BEPNUH_clean_PM
_symmetry_space_group_name_H-M	'P1'
_cell_length_a	10.171600
_cell_length_b	17.744000
_cell_length_c	17.744000
_cell_angle_alpha	120.000000
_cell_angle_beta	90.000000
_cell_angle_gamma	90.000000
_symmetry_Int_Tables_number 1

loop_
_symmetry_equiv_pos_as_xyz
'x,y,z'

loop_
_atom_site_label
_atom_site_type_symbol
_atom_site_fract_x
_atom_site_fract_y
_atom_site_fract_z
Zn11	Zn1	0.868110	0.531630	0.456100
Zn21	Zn2	0.534780	0.924470	0.468370
Zn31	Zn3	0.201440	0.543900	0.075530
Zn41	Zn4	0.368110	0.468370	0.543900
Zn51	Zn5	0.034780	0.075530	0.531630
Zn61	Zn6	0.701440	0.456100	0.924470
H11	H1	0.969400	0.449500	0.522300
H21	H2	0.944100	0.350700	0.379000
H31	H3	0.795600	0.343700	0.398300
H41	H4	0.771400	0.404400	0.564400
H51	H5	0.813700	0.110500	0.439800
H61	H6	0.092000	0.333200	0.495800
H71	H7	0.753000	0.210300	0.399000
H81	H8	0.144200	0.230100	0.534900
H91	H9	0.921900	0.505600	0.666600
H101	H10	0.777300	0.535300	0.697900
H111	H11	0.858000	0.580100	0.655800
H121	H12	0.636070	0.072800	0.550500
H131	H13	0.610770	0.028300	0.649300
H141	H14	0.462270	0.054600	0.656300
H151	H15	0.438070	0.160000	0.595600
H161	H16	0.480370	0.329300	0.889500
H171	H17	0.758670	0.162600	0.666800
H181	H18	0.419670	0.188700	0.789700
H191	H19	0.810870	0.304800	0.769900
H201	H20	0.588570	0.161000	0.494400
H211	H21	0.443970	0.162600	0.464700
H221	H22	0.524670	0.075700	0.419900
H231	H23	0.302730	0.477700	0.927200
H241	H24	0.277430	0.621000	0.971700
H251	H25	0.128930	0.601700	0.945400
H261	H26	0.104730	0.435600	0.840000
H271	H27	0.147030	0.560200	0.670700
H281	H28	0.425330	0.504200	0.837400
H291	H29	0.086330	0.601000	0.811300
H301	H30	0.477530	0.465100	0.695200
H311	H31	0.255230	0.333400	0.839000
H321	H32	0.110630	0.302100	0.837400
H331	H33	0.191330	0.344200	0.924300
H341	H34	0.469400	0.550500	0.477700
H351	H35	0.444100	0.649300	0.621000
H361	H36	0.295600	0.656300	0.601700
H371	H37	0.271400	0.595600	0.435600
H381	H38	0.313700	0.889500	0.560200
H391	H39	0.592000	0.666800	0.504200
H401	H40	0.253000	0.789700	0.601000
H411	H41	0.644200	0.769900	0.465100
H421	H42	0.421900	0.494400	0.333400
H431	H43	0.277300	0.464700	0.302100
H441	H44	0.358000	0.419900	0.344200
H451	H45	0.136070	0.927200	0.449500
H461	H46	0.110770	0.971700	0.350700
H471	H47	0.962270	0.945400	0.343700
H481	H48	0.938070	0.840000	0.404400
H491	H49	0.980370	0.670700	0.110500
H501	H50	0.258670	0.837400	0.333200
H511	H51	0.919670	0.811300	0.210300
H521	H52	0.310870	0.695200	0.230100
H531	H53	0.088570	0.839000	0.505600
H541	H54	0.943970	0.837400	0.535300
H551	H55	0.024670	0.924300	0.580100
H561	H56	0.802730	0.522300	0.072800
H571	H57	0.777430	0.379000	0.028300
H581	H58	0.628930	0.398300	0.054600
H591	H59	0.604730	0.564400	0.160000
H601	H60	0.647030	0.439800	0.329300
H611	H61	0.925330	0.495800	0.162600
H621	H62	0.586330	0.399000	0.188700
H631	H63	0.977530	0.534900	0.304800
H641	H64	0.755230	0.666600	0.161000
H651	H65	0.610630	0.697900	0.162600
H661	H66	0.691330	0.655800	0.075700
C11	C1	0.917400	0.285000	0.445000
C21	C2	0.664100	0.492300	0.544600
C31	C3	0.883400	0.354500	0.423000
C41	C4	0.790400	0.458700	0.564800
C51	C5	0.870100	0.156400	0.451900
C61	C6	0.032800	0.288800	0.484300
C71	C7	0.832800	0.216100	0.427000
C81	C8	0.064300	0.226400	0.507700
C91	C9	0.841700	0.526200	0.654600
C101	C10	0.584070	0.160000	0.715000
C111	C11	0.330770	0.052300	0.507700
C121	C12	0.550070	0.068500	0.645500
C131	C13	0.457070	0.106100	0.541300
C141	C14	0.536770	0.295500	0.843600
C151	C15	0.699470	0.195500	0.711200
C161	C16	0.499470	0.210900	0.783900
C171	C17	0.730970	0.281300	0.773600
C181	C18	0.508370	0.128400	0.473800
C191	C19	0.250730	0.555000	0.840000
C201	C20	0.997430	0.455400	0.947700
C211	C21	0.216730	0.577000	0.931500
C221	C22	0.123730	0.435200	0.893900
C231	C23	0.203430	0.548100	0.704500
C241	C24	0.366130	0.515700	0.804500
C251	C25	0.166130	0.573000	0.789100
C261	C26	0.397630	0.492300	0.718700
C271	C27	0.175030	0.345400	0.871600
C281	C28	0.417400	0.715000	0.555000
C291	C29	0.164100	0.507700	0.455400
C301	C30	0.383400	0.645500	0.577000
C311	C31	0.290400	0.541300	0.435200
C321	C32	0.370100	0.843600	0.548100
C331	C33	0.532800	0.711200	0.515700
C341	C34	0.332800	0.783900	0.573000
C351	C35	0.564300	0.773600	0.492300
C361	C36	0.341700	0.473800	0.345400
C371	C37	0.084070	0.840000	0.285000
C381	C38	0.830770	0.947700	0.492300
C391	C39	0.050070	0.931500	0.354500
C401	C40	0.957070	0.893900	0.458700
C411	C41	0.036770	0.704500	0.156400
C421	C42	0.199470	0.804500	0.288800
C431	C43	0.999470	0.789100	0.216100
C441	C44	0.230970	0.718700	0.226400
C451	C45	0.008370	0.871600	0.526200
C461	C46	0.750730	0.445000	0.160000
C471	C47	0.497430	0.544600	0.052300
C481	C48	0.716730	0.423000	0.068500
C491	C49	0.623730	0.564800	0.106100
C501	C50	0.703430	0.451900	0.295500
C511	C51	0.866130	0.484300	0.195500
C521	C52	0.666130	0.427000	0.210900
C531	C53	0.897630	0.507700	0.281300
C541	C54	0.675030	0.654600	0.128400
Br11	Br1	0.898470	0.681410	0.551410
Br21	Br2	0.565140	0.870000	0.318590
Br31	Br3	0.231800	0.448590	0.130000
Br41	Br4	0.398470	0.318590	0.448590
Br51	Br5	0.065140	0.130000	0.681410
Br61	Br6	0.731800	0.551410	0.870000
N11	N1	0.888400	0.441900	0.497700
N21	N2	0.982000	0.162000	0.491900
N31	N3	0.555070	0.055800	0.558100
N41	N4	0.648670	0.329900	0.838000
N51	N5	0.221730	0.502300	0.944200
N61	N6	0.315330	0.508100	0.670100
N71	N7	0.388400	0.558100	0.502300
N81	N8	0.482000	0.838000	0.508100
N91	N9	0.055070	0.944200	0.441900
N101	N10	0.148670	0.670100	0.162000
N111	N11	0.721730	0.497700	0.055800
N121	N12	0.815330	0.491900	0.329900
O11	O1	0.668200	0.516900	0.489570
O21	O2	0.564300	0.494500	0.587800
O31	O3	0.334870	0.972670	0.483100
O41	O4	0.230970	0.093300	0.505500
O51	O5	0.001530	0.510430	0.027330
O61	O6	0.897630	0.412200	0.906700
O71	O7	0.168200	0.483100	0.510430
O81	O8	0.064300	0.505500	0.412200
O91	O9	0.834870	0.027330	0.516900
O101	O10	0.730970	0.906700	0.494500
O111	O11	0.501530	0.489570	0.972670
O121	O12	0.397630	0.587800	0.093300
