data_BEPREV_clean_PM
_symmetry_space_group_name_H-M	'P1'
_cell_length_a	29.106000
_cell_length_b	29.106000
_cell_length_c	23.417000
_cell_angle_alpha	90.000000
_cell_angle_beta	90.000000
_cell_angle_gamma	120.000000
_symmetry_Int_Tables_number 1

loop_
_symmetry_equiv_pos_as_xyz
'x,y,z'

loop_
_atom_site_label
_atom_site_type_symbol
_atom_site_fract_x
_atom_site_fract_y
_atom_site_fract_z
O11	O1	0.434130	0.713770	0.982800
O21	O2	0.396830	0.625730	0.973100
C11	C1	0.433700	0.670400	0.988300
C21	C2	0.482000	0.672600	0.014200
C31	C3	0.529300	0.719300	0.021300
H11	H1	0.531000	0.752000	0.012900
C41	C4	0.574900	0.719500	0.040600
H21	H2	0.607200	0.752200	0.044400
C51	C5	0.573500	0.672900	0.054100
C61	C6	0.524600	0.626500	0.052500
H31	H3	0.521900	0.594400	0.065900
C71	C7	0.480200	0.626000	0.031900
H41	H4	0.447700	0.593300	0.029800
C81	C8	0.622600	0.671700	0.069600
C91	C9	0.622100	0.623300	0.068700
H51	H5	0.590800	0.591700	0.057800
C101	C10	0.713600	0.568400	0.086500
H61	H6	0.746800	0.600500	0.088600
C111	C11	0.711900	0.520200	0.086700
H71	H7	0.744400	0.519900	0.089300
O31	O3	0.100800	0.047100	0.316130
O41	O4	0.063500	0.959060	0.306430
C121	C12	0.100370	0.003730	0.321630
C131	C13	0.148670	0.005930	0.347530
C141	C14	0.195970	0.052630	0.354630
H81	H8	0.197670	0.085330	0.346230
C151	C15	0.241570	0.052830	0.373930
H91	H9	0.273870	0.085530	0.377730
C161	C16	0.240170	0.006230	0.387430
C171	C17	0.191270	0.959830	0.385830
H101	H10	0.188570	0.927730	0.399230
C181	C18	0.146870	0.959330	0.365230
H111	H11	0.114370	0.926630	0.363130
C191	C19	0.289270	0.005030	0.402930
C201	C20	0.288770	0.956630	0.402030
H121	H12	0.257470	0.925030	0.391130
C211	C21	0.380270	0.901730	0.419830
H131	H13	0.413470	0.933830	0.421930
C221	C22	0.378570	0.853530	0.420030
H141	H14	0.411070	0.853230	0.422630
O51	O5	0.767460	0.380440	0.649470
O61	O6	0.730160	0.292400	0.639770
C231	C23	0.767030	0.337070	0.654970
C241	C24	0.815330	0.339270	0.680870
C251	C25	0.862630	0.385970	0.687970
H151	H15	0.864330	0.418670	0.679570
C261	C26	0.908230	0.386170	0.707270
H161	H16	0.940530	0.418870	0.711070
C271	C27	0.906830	0.339570	0.720770
C281	C28	0.857930	0.293170	0.719170
H171	H17	0.855230	0.261070	0.732570
C291	C29	0.813530	0.292670	0.698570
H181	H18	0.781030	0.259970	0.696470
C301	C30	0.955930	0.338370	0.736270
C311	C31	0.955430	0.289970	0.735370
H191	H19	0.924130	0.258370	0.724470
C321	C32	0.046930	0.235070	0.753170
H201	H20	0.080130	0.267170	0.755270
C331	C33	0.045230	0.186870	0.753370
H211	H21	0.077730	0.186570	0.755970
O71	O7	0.286230	0.720360	0.982800
O81	O8	0.374270	0.771100	0.973100
C341	C34	0.329600	0.763300	0.988300
C351	C35	0.327400	0.809400	0.014200
C361	C36	0.280700	0.810000	0.021300
H221	H22	0.248000	0.779000	0.012900
C371	C37	0.280500	0.855400	0.040600
H231	H23	0.247800	0.855000	0.044400
C381	C38	0.327100	0.900600	0.054100
C391	C39	0.373500	0.898100	0.052500
H241	H24	0.405600	0.927500	0.065900
C401	C40	0.374000	0.854200	0.031900
H251	H25	0.406700	0.854400	0.029800
C411	C41	0.328300	0.950900	0.069600
C421	C42	0.376700	0.998800	0.068700
H261	H26	0.408300	0.999100	0.057800
C431	C43	0.431600	0.145200	0.086500
H271	H27	0.399500	0.146300	0.088600
C441	C44	0.479800	0.191700	0.086700
H281	H28	0.480100	0.224500	0.089300
O91	O9	0.952900	0.053690	0.316130
O101	O10	0.040940	0.104430	0.306430
C451	C45	0.996270	0.096630	0.321630
C461	C46	0.994070	0.142730	0.347530
C471	C47	0.947370	0.143330	0.354630
H291	H29	0.914670	0.112330	0.346230
C481	C48	0.947170	0.188730	0.373930
H301	H30	0.914470	0.188330	0.377730
C491	C49	0.993770	0.233930	0.387430
C501	C50	0.040170	0.231430	0.385830
H311	H31	0.072270	0.260830	0.399230
C511	C51	0.040670	0.187530	0.365230
H321	H32	0.073370	0.187730	0.363130
C521	C52	0.994970	0.284230	0.402930
C531	C53	0.043370	0.332130	0.402030
H331	H33	0.074970	0.332430	0.391130
C541	C54	0.098270	0.478530	0.419830
H341	H34	0.066170	0.479630	0.421930
C551	C55	0.146470	0.525030	0.420030
H351	H35	0.146770	0.557830	0.422630
O111	O11	0.619560	0.387030	0.649470
O121	O12	0.707600	0.437770	0.639770
C561	C56	0.662930	0.429970	0.654970
C571	C57	0.660730	0.476070	0.680870
C581	C58	0.614030	0.476670	0.687970
H361	H36	0.581330	0.445670	0.679570
C591	C59	0.613830	0.522070	0.707270
H371	H37	0.581130	0.521670	0.711070
C601	C60	0.660430	0.567270	0.720770
C611	C61	0.706830	0.564770	0.719170
H381	H38	0.738930	0.594170	0.732570
C621	C62	0.707330	0.520870	0.698570
H391	H39	0.740030	0.521070	0.696470
C631	C63	0.661630	0.617570	0.736270
C641	C64	0.710030	0.665470	0.735370
H401	H40	0.741630	0.665770	0.724470
C651	C65	0.764930	0.811870	0.753170
H411	H41	0.732830	0.812970	0.755270
C661	C66	0.813130	0.858370	0.753370
H421	H42	0.813430	0.891170	0.755970
O131	O13	0.279640	0.565870	0.982800
O141	O14	0.228900	0.603170	0.973100
C671	C67	0.236700	0.566300	0.988300
C681	C68	0.190600	0.518000	0.014200
C691	C69	0.190000	0.470700	0.021300
H431	H43	0.221000	0.469000	0.012900
C701	C70	0.144600	0.425100	0.040600
H441	H44	0.145000	0.392800	0.044400
C711	C71	0.099400	0.426500	0.054100
C721	C72	0.101900	0.475400	0.052500
H451	H45	0.072500	0.478100	0.065900
C731	C73	0.145800	0.519800	0.031900
H461	H46	0.145600	0.552300	0.029800
C741	C74	0.049100	0.377400	0.069600
C751	C75	0.001200	0.377900	0.068700
H471	H47	0.000900	0.409200	0.057800
C761	C76	0.854800	0.286400	0.086500
H481	H48	0.853700	0.253200	0.088600
C771	C77	0.808300	0.288100	0.086700
H491	H49	0.775500	0.255600	0.089300
O151	O15	0.946310	0.899200	0.316130
O161	O16	0.895570	0.936500	0.306430
C781	C78	0.903370	0.899630	0.321630
C791	C79	0.857270	0.851330	0.347530
C801	C80	0.856670	0.804030	0.354630
H501	H50	0.887670	0.802330	0.346230
C811	C81	0.811270	0.758430	0.373930
H511	H51	0.811670	0.726130	0.377730
C821	C82	0.766070	0.759830	0.387430
C831	C83	0.768570	0.808730	0.385830
H521	H52	0.739170	0.811430	0.399230
C841	C84	0.812470	0.853130	0.365230
H531	H53	0.812270	0.885630	0.363130
C851	C85	0.715770	0.710730	0.402930
C861	C86	0.667870	0.711230	0.402030
H541	H54	0.667570	0.742530	0.391130
C871	C87	0.521470	0.619730	0.419830
H551	H55	0.520370	0.586530	0.421930
C881	C88	0.474970	0.621430	0.420030
H561	H56	0.442170	0.588930	0.422630
O171	O17	0.612970	0.232540	0.649470
O181	O18	0.562230	0.269840	0.639770
C891	C89	0.570030	0.232970	0.654970
C901	C90	0.523930	0.184670	0.680870
C911	C91	0.523330	0.137370	0.687970
H571	H57	0.554330	0.135670	0.679570
C921	C92	0.477930	0.091770	0.707270
H581	H58	0.478330	0.059470	0.711070
C931	C93	0.432730	0.093170	0.720770
C941	C94	0.435230	0.142070	0.719170
H591	H59	0.405830	0.144770	0.732570
C951	C95	0.479130	0.186470	0.698570
H601	H60	0.478930	0.218970	0.696470
C961	C96	0.382430	0.044070	0.736270
C971	C97	0.334530	0.044570	0.735370
H611	H61	0.334230	0.075870	0.724470
C981	C98	0.188130	0.953070	0.753170
H621	H62	0.187030	0.919870	0.755270
C991	C99	0.141630	0.954770	0.753370
H631	H63	0.108830	0.922270	0.755970
O191	O19	0.713770	0.434130	0.517200
O201	O20	0.625730	0.396830	0.526900
C1001	C100	0.670400	0.433700	0.511700
C1011	C101	0.672600	0.482000	0.485800
C1021	C102	0.719300	0.529300	0.478700
H641	H64	0.752000	0.531000	0.487100
C1031	C103	0.719500	0.574900	0.459400
H651	H65	0.752200	0.607200	0.455600
C1041	C104	0.672900	0.573500	0.445900
C1051	C105	0.626500	0.524600	0.447500
H661	H66	0.594400	0.521900	0.434100
C1061	C106	0.626000	0.480200	0.468100
H671	H67	0.593300	0.447700	0.470200
C1071	C107	0.671700	0.622600	0.430400
C1081	C108	0.623300	0.622100	0.431300
H681	H68	0.591700	0.590800	0.442200
C1091	C109	0.568400	0.713600	0.413500
H691	H69	0.600500	0.746800	0.411400
C1101	C110	0.520200	0.711900	0.413300
H701	H70	0.519900	0.744400	0.410700
O211	O21	0.380440	0.767460	0.850530
O221	O22	0.292400	0.730160	0.860230
C1111	C111	0.337070	0.767030	0.845030
C1121	C112	0.339270	0.815330	0.819130
C1131	C113	0.385970	0.862630	0.812030
H711	H71	0.418670	0.864330	0.820430
C1141	C114	0.386170	0.908230	0.792730
H721	H72	0.418870	0.940530	0.788930
C1151	C115	0.339570	0.906830	0.779230
C1161	C116	0.293170	0.857930	0.780830
H731	H73	0.261070	0.855230	0.767430
C1171	C117	0.292670	0.813530	0.801430
H741	H74	0.259970	0.781030	0.803530
C1181	C118	0.338370	0.955930	0.763730
C1191	C119	0.289970	0.955430	0.764630
H751	H75	0.258370	0.924130	0.775530
C1201	C120	0.235070	0.046930	0.746830
H761	H76	0.267170	0.080130	0.744730
C1211	C121	0.186870	0.045230	0.746630
H771	H77	0.186570	0.077730	0.744030
O231	O23	0.047100	0.100800	0.183870
O241	O24	0.959060	0.063500	0.193570
C1221	C122	0.003730	0.100370	0.178370
C1231	C123	0.005930	0.148670	0.152470
C1241	C124	0.052630	0.195970	0.145370
H781	H78	0.085330	0.197670	0.153770
C1251	C125	0.052830	0.241570	0.126070
H791	H79	0.085530	0.273870	0.122270
C1261	C126	0.006230	0.240170	0.112570
C1271	C127	0.959830	0.191270	0.114170
H801	H80	0.927730	0.188570	0.100770
C1281	C128	0.959330	0.146870	0.134770
H811	H81	0.926630	0.114370	0.136870
C1291	C129	0.005030	0.289270	0.097070
C1301	C130	0.956630	0.288770	0.097970
H821	H82	0.925030	0.257470	0.108870
C1311	C131	0.901730	0.380270	0.080170
H831	H83	0.933830	0.413470	0.078070
C1321	C132	0.853530	0.378570	0.079970
H841	H84	0.853230	0.411070	0.077370
O251	O25	0.720360	0.286230	0.517200
O261	O26	0.771100	0.374270	0.526900
C1331	C133	0.763300	0.329600	0.511700
C1341	C134	0.809400	0.327400	0.485800
C1351	C135	0.810000	0.280700	0.478700
H851	H85	0.779000	0.248000	0.487100
C1361	C136	0.855400	0.280500	0.459400
H861	H86	0.855000	0.247800	0.455600
C1371	C137	0.900600	0.327100	0.445900
C1381	C138	0.898100	0.373500	0.447500
H871	H87	0.927500	0.405600	0.434100
C1391	C139	0.854200	0.374000	0.468100
H881	H88	0.854400	0.406700	0.470200
C1401	C140	0.950900	0.328300	0.430400
C1411	C141	0.998800	0.376700	0.431300
H891	H89	0.999100	0.408300	0.442200
C1421	C142	0.145200	0.431600	0.413500
H901	H90	0.146300	0.399500	0.411400
C1431	C143	0.191700	0.479800	0.413300
H911	H91	0.224500	0.480100	0.410700
O271	O27	0.387030	0.619560	0.850530
O281	O28	0.437770	0.707600	0.860230
C1441	C144	0.429970	0.662930	0.845030
C1451	C145	0.476070	0.660730	0.819130
C1461	C146	0.476670	0.614030	0.812030
H921	H92	0.445670	0.581330	0.820430
C1471	C147	0.522070	0.613830	0.792730
H931	H93	0.521670	0.581130	0.788930
C1481	C148	0.567270	0.660430	0.779230
C1491	C149	0.564770	0.706830	0.780830
H941	H94	0.594170	0.738930	0.767430
C1501	C150	0.520870	0.707330	0.801430
H951	H95	0.521070	0.740030	0.803530
C1511	C151	0.617570	0.661630	0.763730
C1521	C152	0.665470	0.710030	0.764630
H961	H96	0.665770	0.741630	0.775530
C1531	C153	0.811870	0.764930	0.746830
H971	H97	0.812970	0.732830	0.744730
C1541	C154	0.858370	0.813130	0.746630
H981	H98	0.891170	0.813430	0.744030
O291	O29	0.053690	0.952900	0.183870
O301	O30	0.104430	0.040940	0.193570
C1551	C155	0.096630	0.996270	0.178370
C1561	C156	0.142730	0.994070	0.152470
C1571	C157	0.143330	0.947370	0.145370
H991	H99	0.112330	0.914670	0.153770
C1581	C158	0.188730	0.947170	0.126070
H1001	H100	0.188330	0.914470	0.122270
C1591	C159	0.233930	0.993770	0.112570
C1601	C160	0.231430	0.040170	0.114170
H1011	H101	0.260830	0.072270	0.100770
C1611	C161	0.187530	0.040670	0.134770
H1021	H102	0.187730	0.073370	0.136870
C1621	C162	0.284230	0.994970	0.097070
C1631	C163	0.332130	0.043370	0.097970
H1031	H103	0.332430	0.074970	0.108870
C1641	C164	0.478530	0.098270	0.080170
H1041	H104	0.479630	0.066170	0.078070
C1651	C165	0.525030	0.146470	0.079970
H1051	H105	0.557830	0.146770	0.077370
O311	O31	0.565870	0.279640	0.517200
O321	O32	0.603170	0.228900	0.526900
C1661	C166	0.566300	0.236700	0.511700
C1671	C167	0.518000	0.190600	0.485800
C1681	C168	0.470700	0.190000	0.478700
H1061	H106	0.469000	0.221000	0.487100
C1691	C169	0.425100	0.144600	0.459400
H1071	H107	0.392800	0.145000	0.455600
C1701	C170	0.426500	0.099400	0.445900
C1711	C171	0.475400	0.101900	0.447500
H1081	H108	0.478100	0.072500	0.434100
C1721	C172	0.519800	0.145800	0.468100
H1091	H109	0.552300	0.145600	0.470200
C1731	C173	0.377400	0.049100	0.430400
C1741	C174	0.377900	0.001200	0.431300
H1101	H110	0.409200	0.000900	0.442200
C1751	C175	0.286400	0.854800	0.413500
H1111	H111	0.253200	0.853700	0.411400
C1761	C176	0.288100	0.808300	0.413300
H1121	H112	0.255600	0.775500	0.410700
O331	O33	0.232540	0.612970	0.850530
O341	O34	0.269840	0.562230	0.860230
C1771	C177	0.232970	0.570030	0.845030
C1781	C178	0.184670	0.523930	0.819130
C1791	C179	0.137370	0.523330	0.812030
H1131	H113	0.135670	0.554330	0.820430
C1801	C180	0.091770	0.477930	0.792730
H1141	H114	0.059470	0.478330	0.788930
C1811	C181	0.093170	0.432730	0.779230
C1821	C182	0.142070	0.435230	0.780830
H1151	H115	0.144770	0.405830	0.767430
C1831	C183	0.186470	0.479130	0.801430
H1161	H116	0.218970	0.478930	0.803530
C1841	C184	0.044070	0.382430	0.763730
C1851	C185	0.044570	0.334530	0.764630
H1171	H117	0.075870	0.334230	0.775530
C1861	C186	0.953070	0.188130	0.746830
H1181	H118	0.919870	0.187030	0.744730
C1871	C187	0.954770	0.141630	0.746630
H1191	H119	0.922270	0.108830	0.744030
O351	O35	0.899200	0.946310	0.183870
O361	O36	0.936500	0.895570	0.193570
C1881	C188	0.899630	0.903370	0.178370
C1891	C189	0.851330	0.857270	0.152470
C1901	C190	0.804030	0.856670	0.145370
H1201	H120	0.802330	0.887670	0.153770
C1911	C191	0.758430	0.811270	0.126070
H1211	H121	0.726130	0.811670	0.122270
C1921	C192	0.759830	0.766070	0.112570
C1931	C193	0.808730	0.768570	0.114170
H1221	H122	0.811430	0.739170	0.100770
C1941	C194	0.853130	0.812470	0.134770
H1231	H123	0.885630	0.812270	0.136870
C1951	C195	0.710730	0.715770	0.097070
C1961	C196	0.711230	0.667870	0.097970
H1241	H124	0.742530	0.667570	0.108870
C1971	C197	0.619730	0.521470	0.080170
H1251	H125	0.586530	0.520370	0.078070
C1981	C198	0.621430	0.474970	0.079970
H1261	H126	0.588930	0.442170	0.077370
O371	O37	0.565870	0.286230	0.017200
O381	O38	0.603170	0.374270	0.026900
C1991	C199	0.566300	0.329600	0.011700
C2001	C200	0.518000	0.327400	0.985800
C2011	C201	0.470700	0.280700	0.978700
H1271	H127	0.469000	0.248000	0.987100
C2021	C202	0.425100	0.280500	0.959400
H1281	H128	0.392800	0.247800	0.955600
C2031	C203	0.426500	0.327100	0.945900
C2041	C204	0.475400	0.373500	0.947500
H1291	H129	0.478100	0.405600	0.934100
C2051	C205	0.519800	0.374000	0.968100
H1301	H130	0.552300	0.406700	0.970200
C2061	C206	0.377400	0.328300	0.930400
C2071	C207	0.377900	0.376700	0.931300
H1311	H131	0.409200	0.408300	0.942200
C2081	C208	0.286400	0.431600	0.913500
H1321	H132	0.253200	0.399500	0.911400
C2091	C209	0.288100	0.479800	0.913300
H1331	H133	0.255600	0.480100	0.910700
O391	O39	0.232540	0.619560	0.350530
O401	O40	0.269840	0.707600	0.360230
C2101	C210	0.232970	0.662930	0.345030
C2111	C211	0.184670	0.660730	0.319130
C2121	C212	0.137370	0.614030	0.312030
H1341	H134	0.135670	0.581330	0.320430
C2131	C213	0.091770	0.613830	0.292730
H1351	H135	0.059470	0.581130	0.288930
C2141	C214	0.093170	0.660430	0.279230
C2151	C215	0.142070	0.706830	0.280830
H1361	H136	0.144770	0.738930	0.267430
C2161	C216	0.186470	0.707330	0.301430
H1371	H137	0.218970	0.740030	0.303530
C2171	C217	0.044070	0.661630	0.263730
C2181	C218	0.044570	0.710030	0.264630
H1381	H138	0.075870	0.741630	0.275530
C2191	C219	0.953070	0.764930	0.246830
H1391	H139	0.919870	0.732830	0.244730
C2201	C220	0.954770	0.813130	0.246630
H1401	H140	0.922270	0.813430	0.244030
O411	O41	0.899200	0.952900	0.683870
O421	O42	0.936500	0.040940	0.693570
C2211	C221	0.899630	0.996270	0.678370
C2221	C222	0.851330	0.994070	0.652470
C2231	C223	0.804030	0.947370	0.645370
H1411	H141	0.802330	0.914670	0.653770
C2241	C224	0.758430	0.947170	0.626070
H1421	H142	0.726130	0.914470	0.622270
C2251	C225	0.759830	0.993770	0.612570
C2261	C226	0.808730	0.040170	0.614170
H1431	H143	0.811430	0.072270	0.600770
C2271	C227	0.853130	0.040670	0.634770
H1441	H144	0.885630	0.073370	0.636870
C2281	C228	0.710730	0.994970	0.597070
C2291	C229	0.711230	0.043370	0.597970
H1451	H145	0.742530	0.074970	0.608870
C2301	C230	0.619730	0.098270	0.580170
H1461	H146	0.586530	0.066170	0.578070
C2311	C231	0.621430	0.146470	0.579970
H1471	H147	0.588930	0.146770	0.577370
O431	O43	0.713770	0.279640	0.017200
O441	O44	0.625730	0.228900	0.026900
C2321	C232	0.670400	0.236700	0.011700
C2331	C233	0.672600	0.190600	0.985800
C2341	C234	0.719300	0.190000	0.978700
H1481	H148	0.752000	0.221000	0.987100
C2351	C235	0.719500	0.144600	0.959400
H1491	H149	0.752200	0.145000	0.955600
C2361	C236	0.672900	0.099400	0.945900
C2371	C237	0.626500	0.101900	0.947500
H1501	H150	0.594400	0.072500	0.934100
C2381	C238	0.626000	0.145800	0.968100
H1511	H151	0.593300	0.145600	0.970200
C2391	C239	0.671700	0.049100	0.930400
C2401	C240	0.623300	0.001200	0.931300
H1521	H152	0.591700	0.000900	0.942200
C2411	C241	0.568400	0.854800	0.913500
H1531	H153	0.600500	0.853700	0.911400
C2421	C242	0.520200	0.808300	0.913300
H1541	H154	0.519900	0.775500	0.910700
O451	O45	0.380440	0.612970	0.350530
O461	O46	0.292400	0.562230	0.360230
C2431	C243	0.337070	0.570030	0.345030
C2441	C244	0.339270	0.523930	0.319130
C2451	C245	0.385970	0.523330	0.312030
H1551	H155	0.418670	0.554330	0.320430
C2461	C246	0.386170	0.477930	0.292730
H1561	H156	0.418870	0.478330	0.288930
C2471	C247	0.339570	0.432730	0.279230
C2481	C248	0.293170	0.435230	0.280830
H1571	H157	0.261070	0.405830	0.267430
C2491	C249	0.292670	0.479130	0.301430
H1581	H158	0.259970	0.478930	0.303530
C2501	C250	0.338370	0.382430	0.263730
C2511	C251	0.289970	0.334530	0.264630
H1591	H159	0.258370	0.334230	0.275530
C2521	C252	0.235070	0.188130	0.246830
H1601	H160	0.267170	0.187030	0.244730
C2531	C253	0.186870	0.141630	0.246630
H1611	H161	0.186570	0.108830	0.244030
O471	O47	0.047100	0.946310	0.683870
O481	O48	0.959060	0.895570	0.693570
C2541	C254	0.003730	0.903370	0.678370
C2551	C255	0.005930	0.857270	0.652470
C2561	C256	0.052630	0.856670	0.645370
H1621	H162	0.085330	0.887670	0.653770
C2571	C257	0.052830	0.811270	0.626070
H1631	H163	0.085530	0.811670	0.622270
C2581	C258	0.006230	0.766070	0.612570
C2591	C259	0.959830	0.768570	0.614170
H1641	H164	0.927730	0.739170	0.600770
C2601	C260	0.959330	0.812470	0.634770
H1651	H165	0.926630	0.812270	0.636870
C2611	C261	0.005030	0.715770	0.597070
C2621	C262	0.956630	0.667870	0.597970
H1661	H166	0.925030	0.667570	0.608870
C2631	C263	0.901730	0.521470	0.580170
H1671	H167	0.933830	0.520370	0.578070
C2641	C264	0.853530	0.474970	0.579970
H1681	H168	0.853230	0.442170	0.577370
O491	O49	0.720360	0.434130	0.017200
O501	O50	0.771100	0.396830	0.026900
C2651	C265	0.763300	0.433700	0.011700
C2661	C266	0.809400	0.482000	0.985800
C2671	C267	0.810000	0.529300	0.978700
H1691	H169	0.779000	0.531000	0.987100
C2681	C268	0.855400	0.574900	0.959400
H1701	H170	0.855000	0.607200	0.955600
C2691	C269	0.900600	0.573500	0.945900
C2701	C270	0.898100	0.524600	0.947500
H1711	H171	0.927500	0.521900	0.934100
C2711	C271	0.854200	0.480200	0.968100
H1721	H172	0.854400	0.447700	0.970200
C2721	C272	0.950900	0.622600	0.930400
C2731	C273	0.998800	0.622100	0.931300
H1731	H173	0.999100	0.590800	0.942200
C2741	C274	0.145200	0.713600	0.913500
H1741	H174	0.146300	0.746800	0.911400
C2751	C275	0.191700	0.711900	0.913300
H1751	H175	0.224500	0.744400	0.910700
O511	O51	0.387030	0.767460	0.350530
O521	O52	0.437770	0.730160	0.360230
C2761	C276	0.429970	0.767030	0.345030
C2771	C277	0.476070	0.815330	0.319130
C2781	C278	0.476670	0.862630	0.312030
H1761	H176	0.445670	0.864330	0.320430
C2791	C279	0.522070	0.908230	0.292730
H1771	H177	0.521670	0.940530	0.288930
C2801	C280	0.567270	0.906830	0.279230
C2811	C281	0.564770	0.857930	0.280830
H1781	H178	0.594170	0.855230	0.267430
C2821	C282	0.520870	0.813530	0.301430
H1791	H179	0.521070	0.781030	0.303530
C2831	C283	0.617570	0.955930	0.263730
C2841	C284	0.665470	0.955430	0.264630
H1801	H180	0.665770	0.924130	0.275530
C2851	C285	0.811870	0.046930	0.246830
H1811	H181	0.812970	0.080130	0.244730
C2861	C286	0.858370	0.045230	0.246630
H1821	H182	0.891170	0.077730	0.244030
O531	O53	0.053690	0.100800	0.683870
O541	O54	0.104430	0.063500	0.693570
C2871	C287	0.096630	0.100370	0.678370
C2881	C288	0.142730	0.148670	0.652470
C2891	C289	0.143330	0.195970	0.645370
H1831	H183	0.112330	0.197670	0.653770
C2901	C290	0.188730	0.241570	0.626070
H1841	H184	0.188330	0.273870	0.622270
C2911	C291	0.233930	0.240170	0.612570
C2921	C292	0.231430	0.191270	0.614170
H1851	H185	0.260830	0.188570	0.600770
C2931	C293	0.187530	0.146870	0.634770
H1861	H186	0.187730	0.114370	0.636870
C2941	C294	0.284230	0.289270	0.597070
C2951	C295	0.332130	0.288770	0.597970
H1871	H187	0.332430	0.257470	0.608870
C2961	C296	0.478530	0.380270	0.580170
H1881	H188	0.479630	0.413470	0.578070
C2971	C297	0.525030	0.378570	0.579970
H1891	H189	0.557830	0.411070	0.577370
O551	O55	0.286230	0.565870	0.482800
O561	O56	0.374270	0.603170	0.473100
C2981	C298	0.329600	0.566300	0.488300
C2991	C299	0.327400	0.518000	0.514200
C3001	C300	0.280700	0.470700	0.521300
H1901	H190	0.248000	0.469000	0.512900
C3011	C301	0.280500	0.425100	0.540600
H1911	H191	0.247800	0.392800	0.544400
C3021	C302	0.327100	0.426500	0.554100
C3031	C303	0.373500	0.475400	0.552500
H1921	H192	0.405600	0.478100	0.565900
C3041	C304	0.374000	0.519800	0.531900
H1931	H193	0.406700	0.552300	0.529800
C3051	C305	0.328300	0.377400	0.569600
C3061	C306	0.376700	0.377900	0.568700
H1941	H194	0.408300	0.409200	0.557800
C3071	C307	0.431600	0.286400	0.586500
H1951	H195	0.399500	0.253200	0.588600
C3081	C308	0.479800	0.288100	0.586700
H1961	H196	0.480100	0.255600	0.589300
O571	O57	0.952900	0.899200	0.816130
O581	O58	0.040940	0.936500	0.806430
C3091	C309	0.996270	0.899630	0.821630
C3101	C310	0.994070	0.851330	0.847530
C3111	C311	0.947370	0.804030	0.854630
H1971	H197	0.914670	0.802330	0.846230
C3121	C312	0.947170	0.758430	0.873930
H1981	H198	0.914470	0.726130	0.877730
C3131	C313	0.993770	0.759830	0.887430
C3141	C314	0.040170	0.808730	0.885830
H1991	H199	0.072270	0.811430	0.899230
C3151	C315	0.040670	0.853130	0.865230
H2001	H200	0.073370	0.885630	0.863130
C3161	C316	0.994970	0.710730	0.902930
C3171	C317	0.043370	0.711230	0.902030
H2011	H201	0.074970	0.742530	0.891130
C3181	C318	0.098270	0.619730	0.919830
H2021	H202	0.066170	0.586530	0.921930
C3191	C319	0.146470	0.621430	0.920030
H2031	H203	0.146770	0.588930	0.922630
O591	O59	0.619560	0.232540	0.149470
O601	O60	0.707600	0.269840	0.139770
C3201	C320	0.662930	0.232970	0.154970
C3211	C321	0.660730	0.184670	0.180870
C3221	C322	0.614030	0.137370	0.187970
H2041	H204	0.581330	0.135670	0.179570
C3231	C323	0.613830	0.091770	0.207270
H2051	H205	0.581130	0.059470	0.211070
C3241	C324	0.660430	0.093170	0.220770
C3251	C325	0.706830	0.142070	0.219170
H2061	H206	0.738930	0.144770	0.232570
C3261	C326	0.707330	0.186470	0.198570
H2071	H207	0.740030	0.218970	0.196470
C3271	C327	0.661630	0.044070	0.236270
C3281	C328	0.710030	0.044570	0.235370
H2081	H208	0.741630	0.075870	0.224470
C3291	C329	0.764930	0.953070	0.253170
H2091	H209	0.732830	0.919870	0.255270
C3301	C330	0.813130	0.954770	0.253370
H2101	H210	0.813430	0.922270	0.255970
O611	O61	0.279640	0.713770	0.482800
O621	O62	0.228900	0.625730	0.473100
C3311	C331	0.236700	0.670400	0.488300
C3321	C332	0.190600	0.672600	0.514200
C3331	C333	0.190000	0.719300	0.521300
H2111	H211	0.221000	0.752000	0.512900
C3341	C334	0.144600	0.719500	0.540600
H2121	H212	0.145000	0.752200	0.544400
C3351	C335	0.099400	0.672900	0.554100
C3361	C336	0.101900	0.626500	0.552500
H2131	H213	0.072500	0.594400	0.565900
C3371	C337	0.145800	0.626000	0.531900
H2141	H214	0.145600	0.593300	0.529800
C3381	C338	0.049100	0.671700	0.569600
C3391	C339	0.001200	0.623300	0.568700
H2151	H215	0.000900	0.591700	0.557800
C3401	C340	0.854800	0.568400	0.586500
H2161	H216	0.853700	0.600500	0.588600
C3411	C341	0.808300	0.520200	0.586700
H2171	H217	0.775500	0.519900	0.589300
O631	O63	0.946310	0.047100	0.816130
O641	O64	0.895570	0.959060	0.806430
C3421	C342	0.903370	0.003730	0.821630
C3431	C343	0.857270	0.005930	0.847530
C3441	C344	0.856670	0.052630	0.854630
H2181	H218	0.887670	0.085330	0.846230
C3451	C345	0.811270	0.052830	0.873930
H2191	H219	0.811670	0.085530	0.877730
C3461	C346	0.766070	0.006230	0.887430
C3471	C347	0.768570	0.959830	0.885830
H2201	H220	0.739170	0.927730	0.899230
C3481	C348	0.812470	0.959330	0.865230
H2211	H221	0.812270	0.926630	0.863130
C3491	C349	0.715770	0.005030	0.902930
C3501	C350	0.667870	0.956630	0.902030
H2221	H222	0.667570	0.925030	0.891130
C3511	C351	0.521470	0.901730	0.919830
H2231	H223	0.520370	0.933830	0.921930
C3521	C352	0.474970	0.853530	0.920030
H2241	H224	0.442170	0.853230	0.922630
O651	O65	0.612970	0.380440	0.149470
O661	O66	0.562230	0.292400	0.139770
C3531	C353	0.570030	0.337070	0.154970
C3541	C354	0.523930	0.339270	0.180870
C3551	C355	0.523330	0.385970	0.187970
H2251	H225	0.554330	0.418670	0.179570
C3561	C356	0.477930	0.386170	0.207270
H2261	H226	0.478330	0.418870	0.211070
C3571	C357	0.432730	0.339570	0.220770
C3581	C358	0.435230	0.293170	0.219170
H2271	H227	0.405830	0.261070	0.232570
C3591	C359	0.479130	0.292670	0.198570
H2281	H228	0.478930	0.259970	0.196470
C3601	C360	0.382430	0.338370	0.236270
C3611	C361	0.334530	0.289970	0.235370
H2291	H229	0.334230	0.258370	0.224470
C3621	C362	0.188130	0.235070	0.253170
H2301	H230	0.187030	0.267170	0.255270
C3631	C363	0.141630	0.186870	0.253370
H2311	H231	0.108830	0.186570	0.255970
O671	O67	0.434130	0.720360	0.482800
O681	O68	0.396830	0.771100	0.473100
C3641	C364	0.433700	0.763300	0.488300
C3651	C365	0.482000	0.809400	0.514200
C3661	C366	0.529300	0.810000	0.521300
H2321	H232	0.531000	0.779000	0.512900
C3671	C367	0.574900	0.855400	0.540600
H2331	H233	0.607200	0.855000	0.544400
C3681	C368	0.573500	0.900600	0.554100
C3691	C369	0.524600	0.898100	0.552500
H2341	H234	0.521900	0.927500	0.565900
C3701	C370	0.480200	0.854200	0.531900
H2351	H235	0.447700	0.854400	0.529800
C3711	C371	0.622600	0.950900	0.569600
C3721	C372	0.622100	0.998800	0.568700
H2361	H236	0.590800	0.999100	0.557800
C3731	C373	0.713600	0.145200	0.586500
H2371	H237	0.746800	0.146300	0.588600
C3741	C374	0.711900	0.191700	0.586700
H2381	H238	0.744400	0.224500	0.589300
O691	O69	0.100800	0.053690	0.816130
O701	O70	0.063500	0.104430	0.806430
C3751	C375	0.100370	0.096630	0.821630
C3761	C376	0.148670	0.142730	0.847530
C3771	C377	0.195970	0.143330	0.854630
H2391	H239	0.197670	0.112330	0.846230
C3781	C378	0.241570	0.188730	0.873930
H2401	H240	0.273870	0.188330	0.877730
C3791	C379	0.240170	0.233930	0.887430
C3801	C380	0.191270	0.231430	0.885830
H2411	H241	0.188570	0.260830	0.899230
C3811	C381	0.146870	0.187530	0.865230
H2421	H242	0.114370	0.187730	0.863130
C3821	C382	0.289270	0.284230	0.902930
C3831	C383	0.288770	0.332130	0.902030
H2431	H243	0.257470	0.332430	0.891130
C3841	C384	0.380270	0.478530	0.919830
H2441	H244	0.413470	0.479630	0.921930
C3851	C385	0.378570	0.525030	0.920030
H2451	H245	0.411070	0.557830	0.922630
O711	O71	0.767460	0.387030	0.149470
O721	O72	0.730160	0.437770	0.139770
C3861	C386	0.767030	0.429970	0.154970
C3871	C387	0.815330	0.476070	0.180870
C3881	C388	0.862630	0.476670	0.187970
H2461	H246	0.864330	0.445670	0.179570
C3891	C389	0.908230	0.522070	0.207270
H2471	H247	0.940530	0.521670	0.211070
C3901	C390	0.906830	0.567270	0.220770
C3911	C391	0.857930	0.564770	0.219170
H2481	H248	0.855230	0.594170	0.232570
C3921	C392	0.813530	0.520870	0.198570
H2491	H249	0.781030	0.521070	0.196470
C3931	C393	0.955930	0.617570	0.236270
C3941	C394	0.955430	0.665470	0.235370
H2501	H250	0.924130	0.665770	0.224470
C3951	C395	0.046930	0.811870	0.253170
H2511	H251	0.080130	0.812970	0.255270
C3961	C396	0.045230	0.858370	0.253370
H2521	H252	0.077730	0.891170	0.255970
Ni11	Ni1	0.666670	0.402170	0.083330
N11	N1	0.666670	0.473780	0.083330
N21	N2	0.666670	0.717780	0.083330
C3971	C397	0.666670	0.621480	0.083330
C3981	C398	0.666670	0.570080	0.083330
Ni21	Ni2	0.597830	0.264490	0.083330
N31	N3	0.526220	0.192880	0.083330
N41	N4	0.282220	0.948880	0.083330
C3991	C399	0.378520	0.045180	0.083330
C4001	C400	0.429920	0.096580	0.083330
Ni31	Ni3	0.735510	0.333330	0.083330
N51	N5	0.807120	0.333330	0.083330
N61	N6	0.051120	0.333330	0.083330
C4011	C401	0.954820	0.333330	0.083330
C4021	C402	0.903420	0.333330	0.083330
Ni41	Ni4	0.402170	0.666670	0.416670
N71	N7	0.473780	0.666670	0.416670
N81	N8	0.717780	0.666670	0.416670
C4031	C403	0.621480	0.666670	0.416670
C4041	C404	0.570080	0.666670	0.416670
Ni51	Ni5	0.068840	0.000000	0.750000
N91	N9	0.140450	0.000000	0.750000
N101	N10	0.384450	0.000000	0.750000
C4051	C405	0.288150	0.000000	0.750000
C4061	C406	0.236750	0.000000	0.750000
Ni61	Ni6	0.264490	0.597830	0.416670
N111	N11	0.192880	0.526220	0.416670
N121	N12	0.948880	0.282220	0.416670
C4071	C407	0.045180	0.378520	0.416670
C4081	C408	0.096580	0.429920	0.416670
Ni71	Ni7	0.931160	0.931160	0.750000
N131	N13	0.859550	0.859550	0.750000
N141	N14	0.615550	0.615550	0.750000
C4091	C409	0.711850	0.711850	0.750000
C4101	C410	0.763250	0.763250	0.750000
Ni81	Ni8	0.333330	0.735510	0.416670
N151	N15	0.333330	0.807120	0.416670
N161	N16	0.333330	0.051120	0.416670
C4111	C411	0.333330	0.954820	0.416670
C4121	C412	0.333330	0.903420	0.416670
Ni91	Ni9	0.000000	0.068840	0.750000
N171	N17	0.000000	0.140450	0.750000
N181	N18	0.000000	0.384450	0.750000
C4131	C413	0.000000	0.288150	0.750000
C4141	C414	0.000000	0.236750	0.750000
Ni101	Ni10	0.333330	0.597830	0.916670
N191	N19	0.333330	0.526220	0.916670
N201	N20	0.333330	0.282220	0.916670
C4151	C415	0.333330	0.378520	0.916670
C4161	C416	0.333330	0.429920	0.916670
Ni111	Ni11	0.000000	0.931160	0.250000
N211	N21	0.000000	0.859550	0.250000
N221	N22	0.000000	0.615550	0.250000
C4171	C417	0.000000	0.711850	0.250000
C4181	C418	0.000000	0.763250	0.250000
Ni121	Ni12	0.402170	0.735510	0.916670
N231	N23	0.473780	0.807120	0.916670
N241	N24	0.717780	0.051120	0.916670
C4191	C419	0.621480	0.954820	0.916670
C4201	C420	0.570080	0.903420	0.916670
Ni131	Ni13	0.068840	0.068840	0.250000
N251	N25	0.140450	0.140450	0.250000
N261	N26	0.384450	0.384450	0.250000
C4211	C421	0.288150	0.288150	0.250000
C4221	C422	0.236750	0.236750	0.250000
Ni141	Ni14	0.264490	0.666670	0.916670
N271	N27	0.192880	0.666670	0.916670
N281	N28	0.948880	0.666670	0.916670
C4231	C423	0.045180	0.666670	0.916670
C4241	C424	0.096580	0.666670	0.916670
Ni151	Ni15	0.931160	0.000000	0.250000
N291	N29	0.859550	0.000000	0.250000
N301	N30	0.615550	0.000000	0.250000
C4251	C425	0.711850	0.000000	0.250000
C4261	C426	0.763250	0.000000	0.250000
Ni161	Ni16	0.597830	0.333330	0.583330
N311	N31	0.526220	0.333330	0.583330
N321	N32	0.282220	0.333330	0.583330
C4271	C427	0.378520	0.333330	0.583330
C4281	C428	0.429920	0.333330	0.583330
Ni171	Ni17	0.735510	0.402170	0.583330
N331	N33	0.807120	0.473780	0.583330
N341	N34	0.051120	0.717780	0.583330
C4291	C429	0.954820	0.621480	0.583330
C4301	C430	0.903420	0.570080	0.583330
Ni181	Ni18	0.666670	0.264490	0.583330
N351	N35	0.666670	0.192880	0.583330
N361	N36	0.666670	0.948880	0.583330
C4311	C431	0.666670	0.045180	0.583330
C4321	C432	0.666670	0.096580	0.583330
O731	O73	0.666670	0.333330	0.083330
O741	O74	0.000000	0.000000	0.750000
O751	O75	0.333330	0.666670	0.416670
O761	O76	0.333330	0.666670	0.916670
O771	O77	0.000000	0.000000	0.250000
O781	O78	0.666670	0.333330	0.583330
H2531	H253	0.666670	0.333330	0.126000
H2541	H254	0.333330	0.666670	0.459330
H2551	H255	0.000000	0.000000	0.792670
H2561	H256	0.333330	0.666670	0.374000
H2571	H257	0.000000	0.000000	0.707330
H2581	H258	0.666670	0.333330	0.040670
H2591	H259	0.333330	0.666670	0.874000
H2601	H260	0.000000	0.000000	0.207330
H2611	H261	0.666670	0.333330	0.540670
H2621	H262	0.666670	0.333330	0.626000
H2631	H263	0.333330	0.666670	0.959330
H2641	H264	0.000000	0.000000	0.292670
