data_BEPRIZ_clean_PM
_symmetry_space_group_name_H-M	'P1'
_cell_length_a	18.900000
_cell_length_b	18.900000
_cell_length_c	18.900000
_cell_angle_alpha	61.868200
_cell_angle_beta	61.868200
_cell_angle_gamma	61.868200
_symmetry_Int_Tables_number 1

loop_
_symmetry_equiv_pos_as_xyz
'x,y,z'

loop_
_atom_site_label
_atom_site_type_symbol
_atom_site_fract_x
_atom_site_fract_y
_atom_site_fract_z
Co11	Co1	0.354380	0.145620	0.250000
Co21	Co2	0.250000	0.354380	0.145620
Co31	Co3	0.145620	0.250000	0.354380
Co41	Co4	0.645620	0.854380	0.750000
Co51	Co5	0.750000	0.645620	0.854380
Co61	Co6	0.854380	0.750000	0.645620
H11	H1	0.445100	0.104500	0.430000
H21	H2	0.499100	0.075200	0.531000
H31	H3	0.266000	0.151600	0.682600
H41	H4	0.211700	0.183900	0.581300
H51	H5	0.513200	0.967600	0.657500
H61	H6	0.430000	0.445100	0.104500
H71	H7	0.531000	0.499100	0.075200
H81	H8	0.682600	0.266000	0.151600
H91	H9	0.581300	0.211700	0.183900
H101	H10	0.657500	0.513200	0.967600
H111	H11	0.104500	0.430000	0.445100
H121	H12	0.075200	0.531000	0.499100
H131	H13	0.151600	0.682600	0.266000
H141	H14	0.183900	0.581300	0.211700
H151	H15	0.967600	0.657500	0.513200
H161	H16	0.395500	0.054900	0.070000
H171	H17	0.424800	0.000900	0.969000
H181	H18	0.348400	0.234000	0.817400
H191	H19	0.316100	0.288300	0.918700
H201	H20	0.532400	0.986800	0.842500
H211	H21	0.054900	0.070000	0.395500
H221	H22	0.000900	0.969000	0.424800
H231	H23	0.234000	0.817400	0.348400
H241	H24	0.288300	0.918700	0.316100
H251	H25	0.986800	0.842500	0.532400
H261	H26	0.070000	0.395500	0.054900
H271	H27	0.969000	0.424800	0.000900
H281	H28	0.817400	0.348400	0.234000
H291	H29	0.918700	0.316100	0.288300
H301	H30	0.842500	0.532400	0.986800
H311	H31	0.554900	0.895500	0.570000
H321	H32	0.500900	0.924800	0.469000
H331	H33	0.734000	0.848400	0.317400
H341	H34	0.788300	0.816100	0.418700
H351	H35	0.486800	0.032400	0.342500
H361	H36	0.570000	0.554900	0.895500
H371	H37	0.469000	0.500900	0.924800
H381	H38	0.317400	0.734000	0.848400
H391	H39	0.418700	0.788300	0.816100
H401	H40	0.342500	0.486800	0.032400
H411	H41	0.895500	0.570000	0.554900
H421	H42	0.924800	0.469000	0.500900
H431	H43	0.848400	0.317400	0.734000
H441	H44	0.816100	0.418700	0.788300
H451	H45	0.032400	0.342500	0.486800
H461	H46	0.604500	0.945100	0.930000
H471	H47	0.575200	0.999100	0.031000
H481	H48	0.651600	0.766000	0.182600
H491	H49	0.683900	0.711700	0.081300
H501	H50	0.467600	0.013200	0.157500
H511	H51	0.945100	0.930000	0.604500
H521	H52	0.999100	0.031000	0.575200
H531	H53	0.766000	0.182600	0.651600
H541	H54	0.711700	0.081300	0.683900
H551	H55	0.013200	0.157500	0.467600
H561	H56	0.930000	0.604500	0.945100
H571	H57	0.031000	0.575200	0.999100
H581	H58	0.182600	0.651600	0.766000
H591	H59	0.081300	0.683900	0.711700
H601	H60	0.157500	0.467600	0.013200
H611	H61	0.343450	0.156550	0.750000
H621	H62	0.750000	0.343450	0.156550
H631	H63	0.156550	0.750000	0.343450
H641	H64	0.656550	0.843450	0.250000
H651	H65	0.250000	0.656550	0.843450
H661	H66	0.843450	0.250000	0.656550
C11	C1	0.287820	0.162010	0.428880
C21	C2	0.320870	0.144770	0.496230
C31	C3	0.408320	0.112620	0.481820
C41	C4	0.440790	0.093090	0.542890
C51	C5	0.385890	0.100090	0.623190
C61	C6	0.302570	0.138650	0.632910
C71	C7	0.269800	0.159480	0.571140
C81	C8	0.422150	0.068730	0.691190
C91	C9	0.493230	0.996270	0.695240
C101	C10	0.428880	0.287820	0.162010
C111	C11	0.496230	0.320870	0.144770
C121	C12	0.481820	0.408320	0.112620
C131	C13	0.542890	0.440790	0.093090
C141	C14	0.623190	0.385890	0.100090
C151	C15	0.632910	0.302570	0.138650
C161	C16	0.571140	0.269800	0.159480
C171	C17	0.691190	0.422150	0.068730
C181	C18	0.695240	0.493230	0.996270
C191	C19	0.162010	0.428880	0.287820
C201	C20	0.144770	0.496230	0.320870
C211	C21	0.112620	0.481820	0.408320
C221	C22	0.093090	0.542890	0.440790
C231	C23	0.100090	0.623190	0.385890
C241	C24	0.138650	0.632910	0.302570
C251	C25	0.159480	0.571140	0.269800
C261	C26	0.068730	0.691190	0.422150
C271	C27	0.996270	0.695240	0.493230
C281	C28	0.337990	0.212180	0.071120
C291	C29	0.355230	0.179130	0.003770
C301	C30	0.387380	0.091680	0.018180
C311	C31	0.406910	0.059210	0.957110
C321	C32	0.399910	0.114110	0.876810
C331	C33	0.361350	0.197430	0.867090
C341	C34	0.340520	0.230200	0.928860
C351	C35	0.431270	0.077850	0.808810
C361	C36	0.503730	0.006770	0.804760
C371	C37	0.212180	0.071120	0.337990
C381	C38	0.179130	0.003770	0.355230
C391	C39	0.091680	0.018180	0.387380
C401	C40	0.059210	0.957110	0.406910
C411	C41	0.114110	0.876810	0.399910
C421	C42	0.197430	0.867090	0.361350
C431	C43	0.230200	0.928860	0.340520
C441	C44	0.077850	0.808810	0.431270
C451	C45	0.006770	0.804760	0.503730
C461	C46	0.071120	0.337990	0.212180
C471	C47	0.003770	0.355230	0.179130
C481	C48	0.018180	0.387380	0.091680
C491	C49	0.957110	0.406910	0.059210
C501	C50	0.876810	0.399910	0.114110
C511	C51	0.867090	0.361350	0.197430
C521	C52	0.928860	0.340520	0.230200
C531	C53	0.808810	0.431270	0.077850
C541	C54	0.804760	0.503730	0.006770
C551	C55	0.712180	0.837990	0.571120
C561	C56	0.679130	0.855230	0.503770
C571	C57	0.591680	0.887380	0.518180
C581	C58	0.559210	0.906910	0.457110
C591	C59	0.614110	0.899910	0.376810
C601	C60	0.697430	0.861350	0.367090
C611	C61	0.730200	0.840520	0.428860
C621	C62	0.577850	0.931270	0.308810
C631	C63	0.506770	0.003730	0.304760
C641	C64	0.571120	0.712180	0.837990
C651	C65	0.503770	0.679130	0.855230
C661	C66	0.518180	0.591680	0.887380
C671	C67	0.457110	0.559210	0.906910
C681	C68	0.376810	0.614110	0.899910
C691	C69	0.367090	0.697430	0.861350
C701	C70	0.428860	0.730200	0.840520
C711	C71	0.308810	0.577850	0.931270
C721	C72	0.304760	0.506770	0.003730
C731	C73	0.837990	0.571120	0.712180
C741	C74	0.855230	0.503770	0.679130
C751	C75	0.887380	0.518180	0.591680
C761	C76	0.906910	0.457110	0.559210
C771	C77	0.899910	0.376810	0.614110
C781	C78	0.861350	0.367090	0.697430
C791	C79	0.840520	0.428860	0.730200
C801	C80	0.931270	0.308810	0.577850
C811	C81	0.003730	0.304760	0.506770
C821	C82	0.662010	0.787820	0.928880
C831	C83	0.644770	0.820870	0.996230
C841	C84	0.612620	0.908320	0.981820
C851	C85	0.593090	0.940790	0.042890
C861	C86	0.600090	0.885890	0.123190
C871	C87	0.638650	0.802570	0.132910
C881	C88	0.659480	0.769800	0.071140
C891	C89	0.568730	0.922150	0.191190
C901	C90	0.496270	0.993230	0.195240
C911	C91	0.787820	0.928880	0.662010
C921	C92	0.820870	0.996230	0.644770
C931	C93	0.908320	0.981820	0.612620
C941	C94	0.940790	0.042890	0.593090
C951	C95	0.885890	0.123190	0.600090
C961	C96	0.802570	0.132910	0.638650
C971	C97	0.769800	0.071140	0.659480
C981	C98	0.922150	0.191190	0.568730
C991	C99	0.993230	0.195240	0.496270
C1001	C100	0.928880	0.662010	0.787820
C1011	C101	0.996230	0.644770	0.820870
C1021	C102	0.981820	0.612620	0.908320
C1031	C103	0.042890	0.593090	0.940790
C1041	C104	0.123190	0.600090	0.885890
C1051	C105	0.132910	0.638650	0.802570
C1061	C106	0.071140	0.659480	0.769800
C1071	C107	0.191190	0.568730	0.922150
C1081	C108	0.195240	0.496270	0.993230
C1091	C109	0.391250	0.108750	0.750000
C1101	C110	0.750000	0.391250	0.108750
C1111	C111	0.108750	0.750000	0.391250
C1121	C112	0.608750	0.891250	0.250000
C1131	C113	0.250000	0.608750	0.891250
C1141	C114	0.891250	0.250000	0.608750
N11	N1	0.534140	0.965860	0.750000
N21	N2	0.750000	0.534140	0.965860
N31	N3	0.965860	0.750000	0.534140
N41	N4	0.465860	0.034140	0.250000
N51	N5	0.250000	0.465860	0.034140
N61	N6	0.034140	0.250000	0.465860
O11	O1	0.338910	0.126990	0.373750
O21	O2	0.213730	0.210650	0.433780
O31	O3	0.373750	0.338910	0.126990
O41	O4	0.433780	0.213730	0.210650
O51	O5	0.126990	0.373750	0.338910
O61	O6	0.210650	0.433780	0.213730
O71	O7	0.373010	0.161090	0.126250
O81	O8	0.289350	0.286270	0.066220
O91	O9	0.161090	0.126250	0.373010
O101	O10	0.286270	0.066220	0.289350
O111	O11	0.126250	0.373010	0.161090
O121	O12	0.066220	0.289350	0.286270
O131	O13	0.661090	0.873010	0.626250
O141	O14	0.786270	0.789350	0.566220
O151	O15	0.626250	0.661090	0.873010
O161	O16	0.566220	0.786270	0.789350
O171	O17	0.873010	0.626250	0.661090
O181	O18	0.789350	0.566220	0.786270
O191	O19	0.626990	0.838910	0.873750
O201	O20	0.710650	0.713730	0.933780
O211	O21	0.838910	0.873750	0.626990
O221	O22	0.713730	0.933780	0.710650
O231	O23	0.873750	0.626990	0.838910
O241	O24	0.933780	0.710650	0.713730
O251	O25	0.250000	0.250000	0.250000
O261	O26	0.750000	0.750000	0.750000
