data_BEPREV02_clean_PM
_symmetry_space_group_name_H-M	'P1'
_cell_length_a	29.050000
_cell_length_b	29.050000
_cell_length_c	24.502000
_cell_angle_alpha	90.000000
_cell_angle_beta	90.000000
_cell_angle_gamma	120.000000
_symmetry_Int_Tables_number 1

loop_
_symmetry_equiv_pos_as_xyz
'x,y,z'

loop_
_atom_site_label
_atom_site_type_symbol
_atom_site_fract_x
_atom_site_fract_y
_atom_site_fract_z
O11	O1	0.435500	0.713690	0.979160
O21	O2	0.396870	0.625510	0.972360
C11	C1	0.434220	0.670510	0.985660
C21	C2	0.482560	0.672530	0.011800
C31	C3	0.528900	0.719300	0.021100
H11	H1	0.530200	0.751300	0.014000
C41	C4	0.574100	0.719900	0.040900
H21	H2	0.604900	0.752300	0.046400
C51	C5	0.574300	0.674000	0.052300
C61	C6	0.525100	0.626800	0.049300
H31	H3	0.522400	0.595100	0.061100
C71	C7	0.480700	0.626600	0.029200
H41	H4	0.448700	0.594700	0.027200
C81	C8	0.622700	0.672400	0.069000
C91	C9	0.621900	0.624300	0.068300
H51	H5	0.591300	0.593500	0.057700
C101	C10	0.713500	0.569100	0.085400
H61	H6	0.746000	0.600600	0.086400
C111	C11	0.711700	0.520800	0.085900
H71	H7	0.743600	0.520800	0.088100
O31	O3	0.102170	0.047020	0.312490
O41	O4	0.063540	0.958840	0.305690
C121	C12	0.100890	0.003840	0.318990
C131	C13	0.149230	0.005860	0.345130
C141	C14	0.195570	0.052630	0.354430
H81	H8	0.196870	0.084630	0.347330
C151	C15	0.240770	0.053230	0.374230
H91	H9	0.271570	0.085630	0.379730
C161	C16	0.240970	0.007330	0.385630
C171	C17	0.191770	0.960130	0.382630
H101	H10	0.189070	0.928430	0.394430
C181	C18	0.147370	0.959930	0.362530
H111	H11	0.115370	0.928030	0.360530
C191	C19	0.289370	0.005730	0.402330
C201	C20	0.288570	0.957630	0.401630
H121	H12	0.257970	0.926830	0.391030
C211	C21	0.380170	0.902430	0.418730
H131	H13	0.412670	0.933930	0.419730
C221	C22	0.378370	0.854130	0.419230
H141	H14	0.410270	0.854130	0.421430
O51	O5	0.768830	0.380360	0.645830
O61	O6	0.730200	0.292180	0.639030
C231	C23	0.767550	0.337180	0.652330
C241	C24	0.815890	0.339200	0.678470
C251	C25	0.862230	0.385970	0.687770
H151	H15	0.863530	0.417970	0.680670
C261	C26	0.907430	0.386570	0.707570
H161	H16	0.938230	0.418970	0.713070
C271	C27	0.907630	0.340670	0.718970
C281	C28	0.858430	0.293470	0.715970
H171	H17	0.855730	0.261770	0.727770
C291	C29	0.814030	0.293270	0.695870
H181	H18	0.782030	0.261370	0.693870
C301	C30	0.956030	0.339070	0.735670
C311	C31	0.955230	0.290970	0.734970
H191	H19	0.924630	0.260170	0.724370
C321	C32	0.046830	0.235770	0.752070
H201	H20	0.079330	0.267270	0.753070
C331	C33	0.045030	0.187470	0.752570
H211	H21	0.076930	0.187470	0.754770
O71	O7	0.286310	0.721810	0.979160
O81	O8	0.374490	0.771360	0.972360
C341	C34	0.329490	0.763710	0.985660
C351	C35	0.327470	0.810030	0.011800
C361	C36	0.280700	0.809600	0.021100
H221	H22	0.248700	0.778900	0.014000
C371	C37	0.280100	0.854200	0.040900
H231	H23	0.247700	0.852600	0.046400
C381	C38	0.326000	0.900300	0.052300
C391	C39	0.373200	0.898300	0.049300
H241	H24	0.404900	0.927300	0.061100
C401	C40	0.373400	0.854100	0.029200
H251	H25	0.405300	0.854000	0.027200
C411	C41	0.327600	0.950300	0.069000
C421	C42	0.375700	0.997600	0.068300
H261	H26	0.406500	0.997800	0.057700
C431	C43	0.430900	0.144400	0.085400
H271	H27	0.399400	0.145400	0.086400
C441	C44	0.479200	0.190900	0.085900
H281	H28	0.479200	0.222800	0.088100
O91	O9	0.952980	0.055140	0.312490
O101	O10	0.041160	0.104690	0.305690
C451	C45	0.996160	0.097040	0.318990
C461	C46	0.994140	0.143360	0.345130
C471	C47	0.947370	0.142930	0.354430
H291	H29	0.915370	0.112230	0.347330
C481	C48	0.946770	0.187530	0.374230
H301	H30	0.914370	0.185930	0.379730
C491	C49	0.992670	0.233630	0.385630
C501	C50	0.039870	0.231630	0.382630
H311	H31	0.071570	0.260630	0.394430
C511	C51	0.040070	0.187430	0.362530
H321	H32	0.071970	0.187330	0.360530
C521	C52	0.994270	0.283630	0.402330
C531	C53	0.042370	0.330930	0.401630
H331	H33	0.073170	0.331130	0.391030
C541	C54	0.097570	0.477730	0.418730
H341	H34	0.066070	0.478730	0.419730
C551	C55	0.145870	0.524230	0.419230
H351	H35	0.145870	0.556130	0.421430
O111	O11	0.619640	0.388480	0.645830
O121	O12	0.707820	0.438030	0.639030
C561	C56	0.662820	0.430380	0.652330
C571	C57	0.660800	0.476700	0.678470
C581	C58	0.614030	0.476270	0.687770
H361	H36	0.582030	0.445570	0.680670
C591	C59	0.613430	0.520870	0.707570
H371	H37	0.581030	0.519270	0.713070
C601	C60	0.659330	0.566970	0.718970
C611	C61	0.706530	0.564970	0.715970
H381	H38	0.738230	0.593970	0.727770
C621	C62	0.706730	0.520770	0.695870
H391	H39	0.738630	0.520670	0.693870
C631	C63	0.660930	0.616970	0.735670
C641	C64	0.709030	0.664270	0.734970
H401	H40	0.739830	0.664470	0.724370
C651	C65	0.764230	0.811070	0.752070
H411	H41	0.732730	0.812070	0.753070
C661	C66	0.812530	0.857570	0.752570
H421	H42	0.812530	0.889470	0.754770
O131	O13	0.278190	0.564500	0.979160
O141	O14	0.228640	0.603130	0.972360
C671	C67	0.236290	0.565780	0.985660
C681	C68	0.189970	0.517440	0.011800
C691	C69	0.190400	0.471100	0.021100
H431	H43	0.221100	0.469800	0.014000
C701	C70	0.145800	0.425900	0.040900
H441	H44	0.147400	0.395100	0.046400
C711	C71	0.099700	0.425700	0.052300
C721	C72	0.101700	0.474900	0.049300
H451	H45	0.072700	0.477600	0.061100
C731	C73	0.145900	0.519300	0.029200
H461	H46	0.146000	0.551300	0.027200
C741	C74	0.049700	0.377300	0.069000
C751	C75	0.002400	0.378100	0.068300
H471	H47	0.002200	0.408700	0.057700
C761	C76	0.855600	0.286500	0.085400
H481	H48	0.854600	0.254000	0.086400
C771	C77	0.809100	0.288300	0.085900
H491	H49	0.777200	0.256400	0.088100
O151	O15	0.944860	0.897830	0.312490
O161	O16	0.895310	0.936460	0.305690
C781	C78	0.902960	0.899110	0.318990
C791	C79	0.856640	0.850770	0.345130
C801	C80	0.857070	0.804430	0.354430
H501	H50	0.887770	0.803130	0.347330
C811	C81	0.812470	0.759230	0.374230
H511	H51	0.814070	0.728430	0.379730
C821	C82	0.766370	0.759030	0.385630
C831	C83	0.768370	0.808230	0.382630
H521	H52	0.739370	0.810930	0.394430
C841	C84	0.812570	0.852630	0.362530
H531	H53	0.812670	0.884630	0.360530
C851	C85	0.716370	0.710630	0.402330
C861	C86	0.669070	0.711430	0.401630
H541	H54	0.668870	0.742030	0.391030
C871	C87	0.522270	0.619830	0.418730
H551	H55	0.521270	0.587330	0.419730
C881	C88	0.475770	0.621630	0.419230
H561	H56	0.443870	0.589730	0.421430
O171	O17	0.611520	0.231170	0.645830
O181	O18	0.561970	0.269800	0.639030
C891	C89	0.569620	0.232450	0.652330
C901	C90	0.523300	0.184110	0.678470
C911	C91	0.523730	0.137770	0.687770
H571	H57	0.554430	0.136470	0.680670
C921	C92	0.479130	0.092570	0.707570
H581	H58	0.480730	0.061770	0.713070
C931	C93	0.433030	0.092370	0.718970
C941	C94	0.435030	0.141570	0.715970
H591	H59	0.406030	0.144270	0.727770
C951	C95	0.479230	0.185970	0.695870
H601	H60	0.479330	0.217970	0.693870
C961	C96	0.383030	0.043970	0.735670
C971	C97	0.335730	0.044770	0.734970
H611	H61	0.335530	0.075370	0.724370
C981	C98	0.188930	0.953170	0.752070
H621	H62	0.187930	0.920670	0.753070
C991	C99	0.142430	0.954970	0.752570
H631	H63	0.110530	0.923070	0.754770
O191	O19	0.713690	0.435500	0.520840
O201	O20	0.625510	0.396870	0.527640
C1001	C100	0.670510	0.434220	0.514340
C1011	C101	0.672530	0.482560	0.488200
C1021	C102	0.719300	0.528900	0.478900
H641	H64	0.751300	0.530200	0.486000
C1031	C103	0.719900	0.574100	0.459100
H651	H65	0.752300	0.604900	0.453600
C1041	C104	0.674000	0.574300	0.447700
C1051	C105	0.626800	0.525100	0.450700
H661	H66	0.595100	0.522400	0.438900
C1061	C106	0.626600	0.480700	0.470800
H671	H67	0.594700	0.448700	0.472800
C1071	C107	0.672400	0.622700	0.431000
C1081	C108	0.624300	0.621900	0.431700
H681	H68	0.593500	0.591300	0.442300
C1091	C109	0.569100	0.713500	0.414600
H691	H69	0.600600	0.746000	0.413600
C1101	C110	0.520800	0.711700	0.414100
H701	H70	0.520800	0.743600	0.411900
O211	O21	0.380360	0.768830	0.854170
O221	O22	0.292180	0.730200	0.860970
C1111	C111	0.337180	0.767550	0.847670
C1121	C112	0.339200	0.815890	0.821530
C1131	C113	0.385970	0.862230	0.812230
H711	H71	0.417970	0.863530	0.819330
C1141	C114	0.386570	0.907430	0.792430
H721	H72	0.418970	0.938230	0.786930
C1151	C115	0.340670	0.907630	0.781030
C1161	C116	0.293470	0.858430	0.784030
H731	H73	0.261770	0.855730	0.772230
C1171	C117	0.293270	0.814030	0.804130
H741	H74	0.261370	0.782030	0.806130
C1181	C118	0.339070	0.956030	0.764330
C1191	C119	0.290970	0.955230	0.765030
H751	H75	0.260170	0.924630	0.775630
C1201	C120	0.235770	0.046830	0.747930
H761	H76	0.267270	0.079330	0.746930
C1211	C121	0.187470	0.045030	0.747430
H771	H77	0.187470	0.076930	0.745230
O231	O23	0.047020	0.102170	0.187510
O241	O24	0.958840	0.063540	0.194310
C1221	C122	0.003840	0.100890	0.181010
C1231	C123	0.005860	0.149230	0.154870
C1241	C124	0.052630	0.195570	0.145570
H781	H78	0.084630	0.196870	0.152670
C1251	C125	0.053230	0.240770	0.125770
H791	H79	0.085630	0.271570	0.120270
C1261	C126	0.007330	0.240970	0.114370
C1271	C127	0.960130	0.191770	0.117370
H801	H80	0.928430	0.189070	0.105570
C1281	C128	0.959930	0.147370	0.137470
H811	H81	0.928030	0.115370	0.139470
C1291	C129	0.005730	0.289370	0.097670
C1301	C130	0.957630	0.288570	0.098370
H821	H82	0.926830	0.257970	0.108970
C1311	C131	0.902430	0.380170	0.081270
H831	H83	0.933930	0.412670	0.080270
C1321	C132	0.854130	0.378370	0.080770
H841	H84	0.854130	0.410270	0.078570
O251	O25	0.721810	0.286310	0.520840
O261	O26	0.771360	0.374490	0.527640
C1331	C133	0.763710	0.329490	0.514340
C1341	C134	0.810030	0.327470	0.488200
C1351	C135	0.809600	0.280700	0.478900
H851	H85	0.778900	0.248700	0.486000
C1361	C136	0.854200	0.280100	0.459100
H861	H86	0.852600	0.247700	0.453600
C1371	C137	0.900300	0.326000	0.447700
C1381	C138	0.898300	0.373200	0.450700
H871	H87	0.927300	0.404900	0.438900
C1391	C139	0.854100	0.373400	0.470800
H881	H88	0.854000	0.405300	0.472800
C1401	C140	0.950300	0.327600	0.431000
C1411	C141	0.997600	0.375700	0.431700
H891	H89	0.997800	0.406500	0.442300
C1421	C142	0.144400	0.430900	0.414600
H901	H90	0.145400	0.399400	0.413600
C1431	C143	0.190900	0.479200	0.414100
H911	H91	0.222800	0.479200	0.411900
O271	O27	0.388480	0.619640	0.854170
O281	O28	0.438030	0.707820	0.860970
C1441	C144	0.430380	0.662820	0.847670
C1451	C145	0.476700	0.660800	0.821530
C1461	C146	0.476270	0.614030	0.812230
H921	H92	0.445570	0.582030	0.819330
C1471	C147	0.520870	0.613430	0.792430
H931	H93	0.519270	0.581030	0.786930
C1481	C148	0.566970	0.659330	0.781030
C1491	C149	0.564970	0.706530	0.784030
H941	H94	0.593970	0.738230	0.772230
C1501	C150	0.520770	0.706730	0.804130
H951	H95	0.520670	0.738630	0.806130
C1511	C151	0.616970	0.660930	0.764330
C1521	C152	0.664270	0.709030	0.765030
H961	H96	0.664470	0.739830	0.775630
C1531	C153	0.811070	0.764230	0.747930
H971	H97	0.812070	0.732730	0.746930
C1541	C154	0.857570	0.812530	0.747430
H981	H98	0.889470	0.812530	0.745230
O291	O29	0.055140	0.952980	0.187510
O301	O30	0.104690	0.041160	0.194310
C1551	C155	0.097040	0.996160	0.181010
C1561	C156	0.143360	0.994140	0.154870
C1571	C157	0.142930	0.947370	0.145570
H991	H99	0.112230	0.915370	0.152670
C1581	C158	0.187530	0.946770	0.125770
H1001	H100	0.185930	0.914370	0.120270
C1591	C159	0.233630	0.992670	0.114370
C1601	C160	0.231630	0.039870	0.117370
H1011	H101	0.260630	0.071570	0.105570
C1611	C161	0.187430	0.040070	0.137470
H1021	H102	0.187330	0.071970	0.139470
C1621	C162	0.283630	0.994270	0.097670
C1631	C163	0.330930	0.042370	0.098370
H1031	H103	0.331130	0.073170	0.108970
C1641	C164	0.477730	0.097570	0.081270
H1041	H104	0.478730	0.066070	0.080270
C1651	C165	0.524230	0.145870	0.080770
H1051	H105	0.556130	0.145870	0.078570
O311	O31	0.564500	0.278190	0.520840
O321	O32	0.603130	0.228640	0.527640
C1661	C166	0.565780	0.236290	0.514340
C1671	C167	0.517440	0.189970	0.488200
C1681	C168	0.471100	0.190400	0.478900
H1061	H106	0.469800	0.221100	0.486000
C1691	C169	0.425900	0.145800	0.459100
H1071	H107	0.395100	0.147400	0.453600
C1701	C170	0.425700	0.099700	0.447700
C1711	C171	0.474900	0.101700	0.450700
H1081	H108	0.477600	0.072700	0.438900
C1721	C172	0.519300	0.145900	0.470800
H1091	H109	0.551300	0.146000	0.472800
C1731	C173	0.377300	0.049700	0.431000
C1741	C174	0.378100	0.002400	0.431700
H1101	H110	0.408700	0.002200	0.442300
C1751	C175	0.286500	0.855600	0.414600
H1111	H111	0.254000	0.854600	0.413600
C1761	C176	0.288300	0.809100	0.414100
H1121	H112	0.256400	0.777200	0.411900
O331	O33	0.231170	0.611520	0.854170
O341	O34	0.269800	0.561970	0.860970
C1771	C177	0.232450	0.569620	0.847670
C1781	C178	0.184110	0.523300	0.821530
C1791	C179	0.137770	0.523730	0.812230
H1131	H113	0.136470	0.554430	0.819330
C1801	C180	0.092570	0.479130	0.792430
H1141	H114	0.061770	0.480730	0.786930
C1811	C181	0.092370	0.433030	0.781030
C1821	C182	0.141570	0.435030	0.784030
H1151	H115	0.144270	0.406030	0.772230
C1831	C183	0.185970	0.479230	0.804130
H1161	H116	0.217970	0.479330	0.806130
C1841	C184	0.043970	0.383030	0.764330
C1851	C185	0.044770	0.335730	0.765030
H1171	H117	0.075370	0.335530	0.775630
C1861	C186	0.953170	0.188930	0.747930
H1181	H118	0.920670	0.187930	0.746930
C1871	C187	0.954970	0.142430	0.747430
H1191	H119	0.923070	0.110530	0.745230
O351	O35	0.897830	0.944860	0.187510
O361	O36	0.936460	0.895310	0.194310
C1881	C188	0.899110	0.902960	0.181010
C1891	C189	0.850770	0.856640	0.154870
C1901	C190	0.804430	0.857070	0.145570
H1201	H120	0.803130	0.887770	0.152670
C1911	C191	0.759230	0.812470	0.125770
H1211	H121	0.728430	0.814070	0.120270
C1921	C192	0.759030	0.766370	0.114370
C1931	C193	0.808230	0.768370	0.117370
H1221	H122	0.810930	0.739370	0.105570
C1941	C194	0.852630	0.812570	0.137470
H1231	H123	0.884630	0.812670	0.139470
C1951	C195	0.710630	0.716370	0.097670
C1961	C196	0.711430	0.669070	0.098370
H1241	H124	0.742030	0.668870	0.108970
C1971	C197	0.619830	0.522270	0.081270
H1251	H125	0.587330	0.521270	0.080270
C1981	C198	0.621630	0.475770	0.080770
H1261	H126	0.589730	0.443870	0.078570
O371	O37	0.564500	0.286310	0.020840
O381	O38	0.603130	0.374490	0.027640
C1991	C199	0.565780	0.329490	0.014340
C2001	C200	0.517440	0.327470	0.988200
C2011	C201	0.471100	0.280700	0.978900
H1271	H127	0.469800	0.248700	0.986000
C2021	C202	0.425900	0.280100	0.959100
H1281	H128	0.395100	0.247700	0.953600
C2031	C203	0.425700	0.326000	0.947700
C2041	C204	0.474900	0.373200	0.950700
H1291	H129	0.477600	0.404900	0.938900
C2051	C205	0.519300	0.373400	0.970800
H1301	H130	0.551300	0.405300	0.972800
C2061	C206	0.377300	0.327600	0.931000
C2071	C207	0.378100	0.375700	0.931700
H1311	H131	0.408700	0.406500	0.942300
C2081	C208	0.286500	0.430900	0.914600
H1321	H132	0.254000	0.399400	0.913600
C2091	C209	0.288300	0.479200	0.914100
H1331	H133	0.256400	0.479200	0.911900
O391	O39	0.231170	0.619640	0.354170
O401	O40	0.269800	0.707820	0.360970
C2101	C210	0.232450	0.662820	0.347670
C2111	C211	0.184110	0.660800	0.321530
C2121	C212	0.137770	0.614030	0.312230
H1341	H134	0.136470	0.582030	0.319330
C2131	C213	0.092570	0.613430	0.292430
H1351	H135	0.061770	0.581030	0.286930
C2141	C214	0.092370	0.659330	0.281030
C2151	C215	0.141570	0.706530	0.284030
H1361	H136	0.144270	0.738230	0.272230
C2161	C216	0.185970	0.706730	0.304130
H1371	H137	0.217970	0.738630	0.306130
C2171	C217	0.043970	0.660930	0.264330
C2181	C218	0.044770	0.709030	0.265030
H1381	H138	0.075370	0.739830	0.275630
C2191	C219	0.953170	0.764230	0.247930
H1391	H139	0.920670	0.732730	0.246930
C2201	C220	0.954970	0.812530	0.247430
H1401	H140	0.923070	0.812530	0.245230
O411	O41	0.897830	0.952980	0.687510
O421	O42	0.936460	0.041160	0.694310
C2211	C221	0.899110	0.996160	0.681010
C2221	C222	0.850770	0.994140	0.654870
C2231	C223	0.804430	0.947370	0.645570
H1411	H141	0.803130	0.915370	0.652670
C2241	C224	0.759230	0.946770	0.625770
H1421	H142	0.728430	0.914370	0.620270
C2251	C225	0.759030	0.992670	0.614370
C2261	C226	0.808230	0.039870	0.617370
H1431	H143	0.810930	0.071570	0.605570
C2271	C227	0.852630	0.040070	0.637470
H1441	H144	0.884630	0.071970	0.639470
C2281	C228	0.710630	0.994270	0.597670
C2291	C229	0.711430	0.042370	0.598370
H1451	H145	0.742030	0.073170	0.608970
C2301	C230	0.619830	0.097570	0.581270
H1461	H146	0.587330	0.066070	0.580270
C2311	C231	0.621630	0.145870	0.580770
H1471	H147	0.589730	0.145870	0.578570
O431	O43	0.713690	0.278190	0.020840
O441	O44	0.625510	0.228640	0.027640
C2321	C232	0.670510	0.236290	0.014340
C2331	C233	0.672530	0.189970	0.988200
C2341	C234	0.719300	0.190400	0.978900
H1481	H148	0.751300	0.221100	0.986000
C2351	C235	0.719900	0.145800	0.959100
H1491	H149	0.752300	0.147400	0.953600
C2361	C236	0.674000	0.099700	0.947700
C2371	C237	0.626800	0.101700	0.950700
H1501	H150	0.595100	0.072700	0.938900
C2381	C238	0.626600	0.145900	0.970800
H1511	H151	0.594700	0.146000	0.972800
C2391	C239	0.672400	0.049700	0.931000
C2401	C240	0.624300	0.002400	0.931700
H1521	H152	0.593500	0.002200	0.942300
C2411	C241	0.569100	0.855600	0.914600
H1531	H153	0.600600	0.854600	0.913600
C2421	C242	0.520800	0.809100	0.914100
H1541	H154	0.520800	0.777200	0.911900
O451	O45	0.380360	0.611520	0.354170
O461	O46	0.292180	0.561970	0.360970
C2431	C243	0.337180	0.569620	0.347670
C2441	C244	0.339200	0.523300	0.321530
C2451	C245	0.385970	0.523730	0.312230
H1551	H155	0.417970	0.554430	0.319330
C2461	C246	0.386570	0.479130	0.292430
H1561	H156	0.418970	0.480730	0.286930
C2471	C247	0.340670	0.433030	0.281030
C2481	C248	0.293470	0.435030	0.284030
H1571	H157	0.261770	0.406030	0.272230
C2491	C249	0.293270	0.479230	0.304130
H1581	H158	0.261370	0.479330	0.306130
C2501	C250	0.339070	0.383030	0.264330
C2511	C251	0.290970	0.335730	0.265030
H1591	H159	0.260170	0.335530	0.275630
C2521	C252	0.235770	0.188930	0.247930
H1601	H160	0.267270	0.187930	0.246930
C2531	C253	0.187470	0.142430	0.247430
H1611	H161	0.187470	0.110530	0.245230
O471	O47	0.047020	0.944860	0.687510
O481	O48	0.958840	0.895310	0.694310
C2541	C254	0.003840	0.902960	0.681010
C2551	C255	0.005860	0.856640	0.654870
C2561	C256	0.052630	0.857070	0.645570
H1621	H162	0.084630	0.887770	0.652670
C2571	C257	0.053230	0.812470	0.625770
H1631	H163	0.085630	0.814070	0.620270
C2581	C258	0.007330	0.766370	0.614370
C2591	C259	0.960130	0.768370	0.617370
H1641	H164	0.928430	0.739370	0.605570
C2601	C260	0.959930	0.812570	0.637470
H1651	H165	0.928030	0.812670	0.639470
C2611	C261	0.005730	0.716370	0.597670
C2621	C262	0.957630	0.669070	0.598370
H1661	H166	0.926830	0.668870	0.608970
C2631	C263	0.902430	0.522270	0.581270
H1671	H167	0.933930	0.521270	0.580270
C2641	C264	0.854130	0.475770	0.580770
H1681	H168	0.854130	0.443870	0.578570
O491	O49	0.721810	0.435500	0.020840
O501	O50	0.771360	0.396870	0.027640
C2651	C265	0.763710	0.434220	0.014340
C2661	C266	0.810030	0.482560	0.988200
C2671	C267	0.809600	0.528900	0.978900
H1691	H169	0.778900	0.530200	0.986000
C2681	C268	0.854200	0.574100	0.959100
H1701	H170	0.852600	0.604900	0.953600
C2691	C269	0.900300	0.574300	0.947700
C2701	C270	0.898300	0.525100	0.950700
H1711	H171	0.927300	0.522400	0.938900
C2711	C271	0.854100	0.480700	0.970800
H1721	H172	0.854000	0.448700	0.972800
C2721	C272	0.950300	0.622700	0.931000
C2731	C273	0.997600	0.621900	0.931700
H1731	H173	0.997800	0.591300	0.942300
C2741	C274	0.144400	0.713500	0.914600
H1741	H174	0.145400	0.746000	0.913600
C2751	C275	0.190900	0.711700	0.914100
H1751	H175	0.222800	0.743600	0.911900
O511	O51	0.388480	0.768830	0.354170
O521	O52	0.438030	0.730200	0.360970
C2761	C276	0.430380	0.767550	0.347670
C2771	C277	0.476700	0.815890	0.321530
C2781	C278	0.476270	0.862230	0.312230
H1761	H176	0.445570	0.863530	0.319330
C2791	C279	0.520870	0.907430	0.292430
H1771	H177	0.519270	0.938230	0.286930
C2801	C280	0.566970	0.907630	0.281030
C2811	C281	0.564970	0.858430	0.284030
H1781	H178	0.593970	0.855730	0.272230
C2821	C282	0.520770	0.814030	0.304130
H1791	H179	0.520670	0.782030	0.306130
C2831	C283	0.616970	0.956030	0.264330
C2841	C284	0.664270	0.955230	0.265030
H1801	H180	0.664470	0.924630	0.275630
C2851	C285	0.811070	0.046830	0.247930
H1811	H181	0.812070	0.079330	0.246930
C2861	C286	0.857570	0.045030	0.247430
H1821	H182	0.889470	0.076930	0.245230
O531	O53	0.055140	0.102170	0.687510
O541	O54	0.104690	0.063540	0.694310
C2871	C287	0.097040	0.100890	0.681010
C2881	C288	0.143360	0.149230	0.654870
C2891	C289	0.142930	0.195570	0.645570
H1831	H183	0.112230	0.196870	0.652670
C2901	C290	0.187530	0.240770	0.625770
H1841	H184	0.185930	0.271570	0.620270
C2911	C291	0.233630	0.240970	0.614370
C2921	C292	0.231630	0.191770	0.617370
H1851	H185	0.260630	0.189070	0.605570
C2931	C293	0.187430	0.147370	0.637470
H1861	H186	0.187330	0.115370	0.639470
C2941	C294	0.283630	0.289370	0.597670
C2951	C295	0.330930	0.288570	0.598370
H1871	H187	0.331130	0.257970	0.608970
C2961	C296	0.477730	0.380170	0.581270
H1881	H188	0.478730	0.412670	0.580270
C2971	C297	0.524230	0.378370	0.580770
H1891	H189	0.556130	0.410270	0.578570
O551	O55	0.286310	0.564500	0.479160
O561	O56	0.374490	0.603130	0.472360
C2981	C298	0.329490	0.565780	0.485660
C2991	C299	0.327470	0.517440	0.511800
C3001	C300	0.280700	0.471100	0.521100
H1901	H190	0.248700	0.469800	0.514000
C3011	C301	0.280100	0.425900	0.540900
H1911	H191	0.247700	0.395100	0.546400
C3021	C302	0.326000	0.425700	0.552300
C3031	C303	0.373200	0.474900	0.549300
H1921	H192	0.404900	0.477600	0.561100
C3041	C304	0.373400	0.519300	0.529200
H1931	H193	0.405300	0.551300	0.527200
C3051	C305	0.327600	0.377300	0.569000
C3061	C306	0.375700	0.378100	0.568300
H1941	H194	0.406500	0.408700	0.557700
C3071	C307	0.430900	0.286500	0.585400
H1951	H195	0.399400	0.254000	0.586400
C3081	C308	0.479200	0.288300	0.585900
H1961	H196	0.479200	0.256400	0.588100
O571	O57	0.952980	0.897830	0.812490
O581	O58	0.041160	0.936460	0.805690
C3091	C309	0.996160	0.899110	0.818990
C3101	C310	0.994140	0.850770	0.845130
C3111	C311	0.947370	0.804430	0.854430
H1971	H197	0.915370	0.803130	0.847330
C3121	C312	0.946770	0.759230	0.874230
H1981	H198	0.914370	0.728430	0.879730
C3131	C313	0.992670	0.759030	0.885630
C3141	C314	0.039870	0.808230	0.882630
H1991	H199	0.071570	0.810930	0.894430
C3151	C315	0.040070	0.852630	0.862530
H2001	H200	0.071970	0.884630	0.860530
C3161	C316	0.994270	0.710630	0.902330
C3171	C317	0.042370	0.711430	0.901630
H2011	H201	0.073170	0.742030	0.891030
C3181	C318	0.097570	0.619830	0.918730
H2021	H202	0.066070	0.587330	0.919730
C3191	C319	0.145870	0.621630	0.919230
H2031	H203	0.145870	0.589730	0.921430
O591	O59	0.619640	0.231170	0.145830
O601	O60	0.707820	0.269800	0.139030
C3201	C320	0.662820	0.232450	0.152330
C3211	C321	0.660800	0.184110	0.178470
C3221	C322	0.614030	0.137770	0.187770
H2041	H204	0.582030	0.136470	0.180670
C3231	C323	0.613430	0.092570	0.207570
H2051	H205	0.581030	0.061770	0.213070
C3241	C324	0.659330	0.092370	0.218970
C3251	C325	0.706530	0.141570	0.215970
H2061	H206	0.738230	0.144270	0.227770
C3261	C326	0.706730	0.185970	0.195870
H2071	H207	0.738630	0.217970	0.193870
C3271	C327	0.660930	0.043970	0.235670
C3281	C328	0.709030	0.044770	0.234970
H2081	H208	0.739830	0.075370	0.224370
C3291	C329	0.764230	0.953170	0.252070
H2091	H209	0.732730	0.920670	0.253070
C3301	C330	0.812530	0.954970	0.252570
H2101	H210	0.812530	0.923070	0.254770
O611	O61	0.278190	0.713690	0.479160
O621	O62	0.228640	0.625510	0.472360
C3311	C331	0.236290	0.670510	0.485660
C3321	C332	0.189970	0.672530	0.511800
C3331	C333	0.190400	0.719300	0.521100
H2111	H211	0.221100	0.751300	0.514000
C3341	C334	0.145800	0.719900	0.540900
H2121	H212	0.147400	0.752300	0.546400
C3351	C335	0.099700	0.674000	0.552300
C3361	C336	0.101700	0.626800	0.549300
H2131	H213	0.072700	0.595100	0.561100
C3371	C337	0.145900	0.626600	0.529200
H2141	H214	0.146000	0.594700	0.527200
C3381	C338	0.049700	0.672400	0.569000
C3391	C339	0.002400	0.624300	0.568300
H2151	H215	0.002200	0.593500	0.557700
C3401	C340	0.855600	0.569100	0.585400
H2161	H216	0.854600	0.600600	0.586400
C3411	C341	0.809100	0.520800	0.585900
H2171	H217	0.777200	0.520800	0.588100
O631	O63	0.944860	0.047020	0.812490
O641	O64	0.895310	0.958840	0.805690
C3421	C342	0.902960	0.003840	0.818990
C3431	C343	0.856640	0.005860	0.845130
C3441	C344	0.857070	0.052630	0.854430
H2181	H218	0.887770	0.084630	0.847330
C3451	C345	0.812470	0.053230	0.874230
H2191	H219	0.814070	0.085630	0.879730
C3461	C346	0.766370	0.007330	0.885630
C3471	C347	0.768370	0.960130	0.882630
H2201	H220	0.739370	0.928430	0.894430
C3481	C348	0.812570	0.959930	0.862530
H2211	H221	0.812670	0.928030	0.860530
C3491	C349	0.716370	0.005730	0.902330
C3501	C350	0.669070	0.957630	0.901630
H2221	H222	0.668870	0.926830	0.891030
C3511	C351	0.522270	0.902430	0.918730
H2231	H223	0.521270	0.933930	0.919730
C3521	C352	0.475770	0.854130	0.919230
H2241	H224	0.443870	0.854130	0.921430
O651	O65	0.611520	0.380360	0.145830
O661	O66	0.561970	0.292180	0.139030
C3531	C353	0.569620	0.337180	0.152330
C3541	C354	0.523300	0.339200	0.178470
C3551	C355	0.523730	0.385970	0.187770
H2251	H225	0.554430	0.417970	0.180670
C3561	C356	0.479130	0.386570	0.207570
H2261	H226	0.480730	0.418970	0.213070
C3571	C357	0.433030	0.340670	0.218970
C3581	C358	0.435030	0.293470	0.215970
H2271	H227	0.406030	0.261770	0.227770
C3591	C359	0.479230	0.293270	0.195870
H2281	H228	0.479330	0.261370	0.193870
C3601	C360	0.383030	0.339070	0.235670
C3611	C361	0.335730	0.290970	0.234970
H2291	H229	0.335530	0.260170	0.224370
C3621	C362	0.188930	0.235770	0.252070
H2301	H230	0.187930	0.267270	0.253070
C3631	C363	0.142430	0.187470	0.252570
H2311	H231	0.110530	0.187470	0.254770
O671	O67	0.435500	0.721810	0.479160
O681	O68	0.396870	0.771360	0.472360
C3641	C364	0.434220	0.763710	0.485660
C3651	C365	0.482560	0.810030	0.511800
C3661	C366	0.528900	0.809600	0.521100
H2321	H232	0.530200	0.778900	0.514000
C3671	C367	0.574100	0.854200	0.540900
H2331	H233	0.604900	0.852600	0.546400
C3681	C368	0.574300	0.900300	0.552300
C3691	C369	0.525100	0.898300	0.549300
H2341	H234	0.522400	0.927300	0.561100
C3701	C370	0.480700	0.854100	0.529200
H2351	H235	0.448700	0.854000	0.527200
C3711	C371	0.622700	0.950300	0.569000
C3721	C372	0.621900	0.997600	0.568300
H2361	H236	0.591300	0.997800	0.557700
C3731	C373	0.713500	0.144400	0.585400
H2371	H237	0.746000	0.145400	0.586400
C3741	C374	0.711700	0.190900	0.585900
H2381	H238	0.743600	0.222800	0.588100
O691	O69	0.102170	0.055140	0.812490
O701	O70	0.063540	0.104690	0.805690
C3751	C375	0.100890	0.097040	0.818990
C3761	C376	0.149230	0.143360	0.845130
C3771	C377	0.195570	0.142930	0.854430
H2391	H239	0.196870	0.112230	0.847330
C3781	C378	0.240770	0.187530	0.874230
H2401	H240	0.271570	0.185930	0.879730
C3791	C379	0.240970	0.233630	0.885630
C3801	C380	0.191770	0.231630	0.882630
H2411	H241	0.189070	0.260630	0.894430
C3811	C381	0.147370	0.187430	0.862530
H2421	H242	0.115370	0.187330	0.860530
C3821	C382	0.289370	0.283630	0.902330
C3831	C383	0.288570	0.330930	0.901630
H2431	H243	0.257970	0.331130	0.891030
C3841	C384	0.380170	0.477730	0.918730
H2441	H244	0.412670	0.478730	0.919730
C3851	C385	0.378370	0.524230	0.919230
H2451	H245	0.410270	0.556130	0.921430
O711	O71	0.768830	0.388480	0.145830
O721	O72	0.730200	0.438030	0.139030
C3861	C386	0.767550	0.430380	0.152330
C3871	C387	0.815890	0.476700	0.178470
C3881	C388	0.862230	0.476270	0.187770
H2461	H246	0.863530	0.445570	0.180670
C3891	C389	0.907430	0.520870	0.207570
H2471	H247	0.938230	0.519270	0.213070
C3901	C390	0.907630	0.566970	0.218970
C3911	C391	0.858430	0.564970	0.215970
H2481	H248	0.855730	0.593970	0.227770
C3921	C392	0.814030	0.520770	0.195870
H2491	H249	0.782030	0.520670	0.193870
C3931	C393	0.956030	0.616970	0.235670
C3941	C394	0.955230	0.664270	0.234970
H2501	H250	0.924630	0.664470	0.224370
C3951	C395	0.046830	0.811070	0.252070
H2511	H251	0.079330	0.812070	0.253070
C3961	C396	0.045030	0.857570	0.252570
H2521	H252	0.076930	0.889470	0.254770
Ni11	Ni1	0.666670	0.402240	0.083330
N11	N1	0.666670	0.474030	0.083330
N21	N2	0.666670	0.718450	0.083330
C3971	C397	0.666670	0.621880	0.083330
C3981	C398	0.666670	0.570480	0.083330
Ni21	Ni2	0.597760	0.264420	0.083330
N31	N3	0.525970	0.192630	0.083330
N41	N4	0.281550	0.948210	0.083330
C3991	C399	0.378120	0.044780	0.083330
C4001	C400	0.429520	0.096180	0.083330
Ni31	Ni3	0.735580	0.333330	0.083330
N51	N5	0.807370	0.333330	0.083330
N61	N6	0.051790	0.333330	0.083330
C4011	C401	0.955220	0.333330	0.083330
C4021	C402	0.903820	0.333330	0.083330
Ni41	Ni4	0.402240	0.666670	0.416670
N71	N7	0.474030	0.666670	0.416670
N81	N8	0.718450	0.666670	0.416670
C4031	C403	0.621880	0.666670	0.416670
C4041	C404	0.570480	0.666670	0.416670
Ni51	Ni5	0.068910	0.000000	0.750000
N91	N9	0.140700	0.000000	0.750000
N101	N10	0.385120	0.000000	0.750000
C4051	C405	0.288550	0.000000	0.750000
C4061	C406	0.237150	0.000000	0.750000
Ni61	Ni6	0.264420	0.597760	0.416670
N111	N11	0.192630	0.525970	0.416670
N121	N12	0.948210	0.281550	0.416670
C4071	C407	0.044780	0.378120	0.416670
C4081	C408	0.096180	0.429520	0.416670
Ni71	Ni7	0.931090	0.931090	0.750000
N131	N13	0.859300	0.859300	0.750000
N141	N14	0.614880	0.614880	0.750000
C4091	C409	0.711450	0.711450	0.750000
C4101	C410	0.762850	0.762850	0.750000
Ni81	Ni8	0.333330	0.735580	0.416670
N151	N15	0.333330	0.807370	0.416670
N161	N16	0.333330	0.051790	0.416670
C4111	C411	0.333330	0.955220	0.416670
C4121	C412	0.333330	0.903820	0.416670
Ni91	Ni9	0.000000	0.068910	0.750000
N171	N17	0.000000	0.140700	0.750000
N181	N18	0.000000	0.385120	0.750000
C4131	C413	0.000000	0.288550	0.750000
C4141	C414	0.000000	0.237150	0.750000
Ni101	Ni10	0.333330	0.597760	0.916670
N191	N19	0.333330	0.525970	0.916670
N201	N20	0.333330	0.281550	0.916670
C4151	C415	0.333330	0.378120	0.916670
C4161	C416	0.333330	0.429520	0.916670
Ni111	Ni11	0.000000	0.931090	0.250000
N211	N21	0.000000	0.859300	0.250000
N221	N22	0.000000	0.614880	0.250000
C4171	C417	0.000000	0.711450	0.250000
C4181	C418	0.000000	0.762850	0.250000
Ni121	Ni12	0.402240	0.735580	0.916670
N231	N23	0.474030	0.807370	0.916670
N241	N24	0.718450	0.051790	0.916670
C4191	C419	0.621880	0.955220	0.916670
C4201	C420	0.570480	0.903820	0.916670
Ni131	Ni13	0.068910	0.068910	0.250000
N251	N25	0.140700	0.140700	0.250000
N261	N26	0.385120	0.385120	0.250000
C4211	C421	0.288550	0.288550	0.250000
C4221	C422	0.237150	0.237150	0.250000
Ni141	Ni14	0.264420	0.666670	0.916670
N271	N27	0.192630	0.666670	0.916670
N281	N28	0.948210	0.666670	0.916670
C4231	C423	0.044780	0.666670	0.916670
C4241	C424	0.096180	0.666670	0.916670
Ni151	Ni15	0.931090	0.000000	0.250000
N291	N29	0.859300	0.000000	0.250000
N301	N30	0.614880	0.000000	0.250000
C4251	C425	0.711450	0.000000	0.250000
C4261	C426	0.762850	0.000000	0.250000
Ni161	Ni16	0.597760	0.333330	0.583330
N311	N31	0.525970	0.333330	0.583330
N321	N32	0.281550	0.333330	0.583330
C4271	C427	0.378120	0.333330	0.583330
C4281	C428	0.429520	0.333330	0.583330
Ni171	Ni17	0.735580	0.402240	0.583330
N331	N33	0.807370	0.474030	0.583330
N341	N34	0.051790	0.718450	0.583330
C4291	C429	0.955220	0.621880	0.583330
C4301	C430	0.903820	0.570480	0.583330
Ni181	Ni18	0.666670	0.264420	0.583330
N351	N35	0.666670	0.192630	0.583330
N361	N36	0.666670	0.948210	0.583330
C4311	C431	0.666670	0.044780	0.583330
C4321	C432	0.666670	0.096180	0.583330
O731	O73	0.666670	0.333330	0.083330
O741	O74	0.000000	0.000000	0.750000
O751	O75	0.333330	0.666670	0.416670
O761	O76	0.333330	0.666670	0.916670
O771	O77	0.000000	0.000000	0.250000
O781	O78	0.666670	0.333330	0.583330
H2531	H253	0.666670	0.333330	0.123300
H2541	H254	0.333330	0.666670	0.456630
H2551	H255	0.000000	0.000000	0.789970
H2561	H256	0.333330	0.666670	0.376700
H2571	H257	0.000000	0.000000	0.710030
H2581	H258	0.666670	0.333330	0.043370
H2591	H259	0.333330	0.666670	0.876700
H2601	H260	0.000000	0.000000	0.210030
H2611	H261	0.666670	0.333330	0.543370
H2621	H262	0.666670	0.333330	0.623300
H2631	H263	0.333330	0.666670	0.956630
H2641	H264	0.000000	0.000000	0.289970
