data_BEPVID_clean_PM
_symmetry_space_group_name_H-M	'P1'
_cell_length_a	11.456900
_cell_length_b	11.472300
_cell_length_c	13.119900
_cell_angle_alpha	90.176000
_cell_angle_beta	115.705000
_cell_angle_gamma	110.147000
_symmetry_Int_Tables_number 1

loop_
_symmetry_equiv_pos_as_xyz
'x,y,z'

loop_
_atom_site_label
_atom_site_type_symbol
_atom_site_fract_x
_atom_site_fract_y
_atom_site_fract_z
Cu11	Cu1	0.829170	0.879720	0.591080
Cu21	Cu2	0.138970	0.049550	0.004740
Cu31	Cu3	0.354960	0.816070	0.295810
Cu41	Cu4	0.170830	0.120280	0.408920
Cu51	Cu5	0.861030	0.950450	0.995260
Cu61	Cu6	0.645040	0.183930	0.704190
H11	H1	0.555100	0.339300	0.401000
H21	H2	0.584600	0.478500	0.379600
H31	H3	0.489700	0.420100	0.438400
H41	H4	0.384900	0.190100	0.228100
H51	H5	0.129000	0.894900	0.702700
H61	H6	0.994400	0.285900	0.004000
H71	H7	0.090000	0.419300	0.998900
H81	H8	0.072200	0.297800	0.929100
H91	H9	0.399200	0.593300	0.286000
H101	H10	0.275700	0.576000	0.163900
H111	H11	0.129200	0.356300	0.291300
H121	H12	0.996600	0.377900	0.377200
H131	H13	0.000100	0.574600	0.419200
H141	H14	0.087700	0.819800	0.311600
H151	H15	0.241300	0.858500	0.409800
H161	H16	0.339800	0.834200	0.725500
H171	H17	0.364900	0.842100	0.616900
H181	H18	0.388700	0.965000	0.688900
H191	H19	0.768200	0.806800	0.351100
H201	H20	0.857000	0.832400	0.284300
H211	H21	0.799200	0.697200	0.310600
H221	H22	0.444900	0.660700	0.599000
H231	H23	0.415400	0.521500	0.620400
H241	H24	0.510300	0.579900	0.561600
H251	H25	0.615100	0.809900	0.771900
H261	H26	0.871000	0.105100	0.297300
H271	H27	0.005600	0.714100	0.996000
H281	H28	0.910000	0.580700	0.001100
H291	H29	0.927800	0.702200	0.070900
H301	H30	0.600800	0.406700	0.714000
H311	H31	0.724300	0.424000	0.836100
H321	H32	0.870800	0.643700	0.708700
H331	H33	0.003400	0.622100	0.622800
H341	H34	0.999900	0.425400	0.580800
H351	H35	0.912300	0.180200	0.688400
H361	H36	0.758700	0.141500	0.590200
H371	H37	0.660200	0.165800	0.274500
H381	H38	0.635100	0.157900	0.383100
H391	H39	0.611300	0.035000	0.311100
H401	H40	0.231800	0.193200	0.648900
H411	H41	0.143000	0.167600	0.715700
H421	H42	0.200800	0.302800	0.689400
C11	C1	0.516000	0.402700	0.381600
C21	C2	0.389400	0.356500	0.266270
C31	C3	0.300650	0.412220	0.201380
C41	C4	0.202460	0.323300	0.100290
C51	C5	0.078600	0.332400	0.998900
C61	C6	0.303300	0.539200	0.232840
C71	C7	0.210590	0.540150	0.286510
C81	C8	0.130500	0.435200	0.309600
C91	C9	0.051300	0.448200	0.360400
C101	C10	0.053900	0.565000	0.385900
C111	C11	0.136900	0.668210	0.361680
C121	C12	0.145200	0.800500	0.383850
C131	C13	0.332400	0.876500	0.661300
C141	C14	0.180520	0.858200	0.586540
C151	C15	0.099540	0.824490	0.470590
C161	C16	0.966710	0.819700	0.449910
C171	C17	0.836200	0.786100	0.339170
C181	C18	0.016620	0.985500	0.848770
C191	C19	0.296180	0.909970	0.181210
C201	C20	0.643550	0.848500	0.487970
C211	C21	0.484000	0.597300	0.618400
C221	C22	0.610600	0.643500	0.733730
C231	C23	0.699350	0.587780	0.798620
C241	C24	0.797540	0.676700	0.899710
C251	C25	0.921400	0.667600	0.001100
C261	C26	0.696700	0.460800	0.767160
C271	C27	0.789410	0.459850	0.713490
C281	C28	0.869500	0.564800	0.690400
C291	C29	0.948700	0.551800	0.639600
C301	C30	0.946100	0.435000	0.614100
C311	C31	0.863100	0.331790	0.638320
C321	C32	0.854800	0.199500	0.616150
C331	C33	0.667600	0.123500	0.338700
C341	C34	0.819480	0.141800	0.413460
C351	C35	0.900460	0.175510	0.529410
C361	C36	0.033290	0.180300	0.550090
C371	C37	0.163800	0.213900	0.660830
C381	C38	0.983380	0.014500	0.151230
C391	C39	0.703820	0.090030	0.818790
C401	C40	0.356450	0.151500	0.512030
N11	N1	0.230100	0.219590	0.103100
N21	N2	0.344820	0.242740	0.205030
N31	N3	0.214850	0.655880	0.312730
N41	N4	0.099970	0.872890	0.630480
N51	N5	0.967750	0.849230	0.548740
N61	N6	0.947580	0.944300	0.753450
N71	N7	0.255060	0.967650	0.114080
N81	N8	0.532900	0.833580	0.419460
N91	N9	0.769900	0.780410	0.896900
N101	N10	0.655180	0.757260	0.794970
N111	N11	0.785150	0.344120	0.687270
N121	N12	0.900030	0.127110	0.369520
N131	N13	0.032250	0.150770	0.451260
N141	N14	0.052420	0.055700	0.246550
N151	N15	0.744940	0.032350	0.885920
N161	N16	0.467100	0.166420	0.580540
