data_BEPVAV_clean_PM
_symmetry_space_group_name_H-M	'P1'
_cell_length_a	11.370000
_cell_length_b	11.427400
_cell_length_c	12.191200
_cell_angle_alpha	67.952000
_cell_angle_beta	87.743000
_cell_angle_gamma	69.803000
_symmetry_Int_Tables_number 1

loop_
_symmetry_equiv_pos_as_xyz
'x,y,z'

loop_
_atom_site_label
_atom_site_type_symbol
_atom_site_fract_x
_atom_site_fract_y
_atom_site_fract_z
Cu11	Cu1	0.315110	0.632470	0.275020
Cu21	Cu2	0.371010	0.183900	0.580520
Cu31	Cu3	0.548200	0.876510	0.989940
Cu41	Cu4	0.684890	0.367530	0.724980
Cu51	Cu5	0.628990	0.816100	0.419480
Cu61	Cu6	0.451800	0.123490	0.010060
H11	H1	0.914200	0.414500	0.331700
H21	H2	0.966200	0.493000	0.391000
H31	H3	0.823100	0.500400	0.399600
H41	H4	0.683000	0.621900	0.195300
H51	H5	0.390800	0.890600	0.716100
H61	H6	0.769000	0.960500	0.911800
H71	H7	0.851400	0.980000	0.002500
H81	H8	0.918400	0.883500	0.933900
H91	H9	0.090600	0.606000	0.252500
H101	H10	0.081100	0.726800	0.128500
H111	H11	0.853500	0.888100	0.260700
H121	H12	0.879100	0.022100	0.356200
H131	H13	0.079100	0.996000	0.419000
H141	H14	0.348800	0.856800	0.323100
H151	H15	0.353700	0.723100	0.433300
H161	H16	0.290800	0.679300	0.715800
H171	H17	0.395100	0.618200	0.640500
H181	H18	0.436200	0.650400	0.746900
H191	H19	0.306500	0.205000	0.342000
H201	H20	0.337700	0.100400	0.277600
H211	H21	0.198100	0.159200	0.311300
H221	H22	0.085800	0.585500	0.668300
H231	H23	0.033800	0.507000	0.609000
H241	H24	0.176900	0.499600	0.600400
H251	H25	0.317000	0.378100	0.804700
H261	H26	0.609200	0.109400	0.283900
H271	H27	0.231000	0.039500	0.088200
H281	H28	0.148600	0.020000	0.997500
H291	H29	0.081600	0.116500	0.066100
H301	H30	0.909400	0.394000	0.747500
H311	H31	0.918900	0.273200	0.871500
H321	H32	0.146500	0.111900	0.739300
H331	H33	0.120900	0.977900	0.643800
H341	H34	0.920900	0.004000	0.581000
H351	H35	0.651200	0.143200	0.676900
H361	H36	0.646300	0.276900	0.566700
H371	H37	0.709200	0.320700	0.284200
H381	H38	0.604900	0.381800	0.359500
H391	H39	0.563800	0.349600	0.253100
H401	H40	0.693500	0.795000	0.658000
H411	H41	0.662300	0.899600	0.722400
H421	H42	0.801900	0.840800	0.688700
C11	C1	0.892600	0.496000	0.349300
C21	C2	0.853200	0.618400	0.235300
C31	C3	0.913400	0.705700	0.169300
C41	C4	0.826500	0.800600	0.068800
C51	C5	0.842700	0.915700	0.971100
C61	C6	0.039700	0.700800	0.202200
C71	C7	0.042700	0.787800	0.266500
C81	C8	0.935100	0.879600	0.285900
C91	C9	0.950700	0.957400	0.342600
C101	C10	0.068300	0.942300	0.379400
C111	C11	0.172100	0.848400	0.358800
C121	C12	0.308600	0.822000	0.395700
C131	C13	0.370600	0.679900	0.682500
C141	C14	0.354600	0.821300	0.596400
C151	C15	0.325700	0.883600	0.479300
C161	C16	0.320600	0.016400	0.453100
C171	C17	0.288000	0.129700	0.336200
C181	C18	0.477300	0.014400	0.841500
C191	C19	0.411000	0.694800	0.154400
C201	C20	0.340400	0.358400	0.467100
C211	C21	0.107400	0.504000	0.650700
C221	C22	0.146800	0.381600	0.764700
C231	C23	0.086600	0.294300	0.830700
C241	C24	0.173500	0.199400	0.931200
C251	C25	0.157300	0.084300	0.028900
C261	C26	0.960300	0.299200	0.797800
C271	C27	0.957300	0.212200	0.733500
C281	C28	0.064900	0.120400	0.714100
C291	C29	0.049300	0.042600	0.657400
C301	C30	0.931700	0.057700	0.620600
C311	C31	0.827900	0.151600	0.641200
C321	C32	0.691400	0.178000	0.604300
C331	C33	0.629400	0.320100	0.317500
C341	C34	0.645400	0.178700	0.403600
C351	C35	0.674300	0.116400	0.520700
C361	C36	0.679400	0.983600	0.546900
C371	C37	0.712000	0.870300	0.663800
C381	C38	0.522700	0.985600	0.158500
C391	C39	0.589000	0.305200	0.845600
C401	C40	0.659600	0.641600	0.532900
N11	N1	0.722200	0.773500	0.072500
N21	N2	0.738800	0.661500	0.173100
N31	N3	0.159200	0.772700	0.303600
N41	N4	0.369600	0.909900	0.641000
N51	N5	0.346300	0.031800	0.550600
N61	N6	0.435000	0.087000	0.747200
N71	N7	0.468700	0.745300	0.084300
N81	N8	0.326500	0.462000	0.393700
N91	N9	0.277800	0.226500	0.927500
N101	N10	0.261200	0.338500	0.826900
N111	N11	0.840800	0.227300	0.696400
N121	N12	0.630400	0.090100	0.359000
N131	N13	0.653700	0.968200	0.449400
N141	N14	0.565000	0.913000	0.252800
N151	N15	0.531300	0.254700	0.915700
N161	N16	0.673500	0.538000	0.606300
