data_BEPWEA_clean_PM
_symmetry_space_group_name_H-M	'P1'
_cell_length_a	12.743000
_cell_length_b	13.964400
_cell_length_c	14.797100
_cell_angle_alpha	84.984200
_cell_angle_beta	83.450800
_cell_angle_gamma	64.441700
_symmetry_Int_Tables_number 1

loop_
_symmetry_equiv_pos_as_xyz
'x,y,z'

loop_
_atom_site_label
_atom_site_type_symbol
_atom_site_fract_x
_atom_site_fract_y
_atom_site_fract_z
Cu11	Cu1	0.885510	0.467590	0.992590
O11	O1	0.976730	0.338540	0.065240
O21	O2	0.886300	0.366820	0.909750
O31	O3	0.720690	0.406080	0.066390
O41	O4	0.901870	0.561620	0.074610
O51	O5	0.779560	0.595120	0.934900
C11	C1	0.956800	0.261300	0.045500
C21	C2	0.878600	0.284200	0.967740
Cu21	Cu2	0.614290	0.533520	0.008900
C31	C3	0.752800	0.317900	0.012650
C41	C4	0.829800	0.658400	0.062700
C51	C5	0.747600	0.683500	0.988370
O61	O6	0.992500	0.174250	0.088190
H11	H1	0.902300	0.220100	0.933500
O71	O7	0.598210	0.439530	0.926690
O81	O8	0.613450	0.634130	0.091210
O91	O9	0.523710	0.662660	0.935680
H21	H2	0.749700	0.258600	0.051700
C61	C6	0.669700	0.343400	0.938800
O101	O10	0.825590	0.731350	0.108560
H31	H3	0.750600	0.742800	0.949300
C71	C7	0.621600	0.716700	0.033400
C81	C8	0.544900	0.739300	0.954800
O111	O11	0.673520	0.270500	0.892550
H41	H4	0.597200	0.780900	0.067600
O121	O12	0.509900	0.826200	0.911670
C91	C9	0.512100	0.279500	0.540600
C101	C10	0.587400	0.306000	0.463290
H51	H5	0.613400	0.252200	0.417400
O131	O13	0.412790	0.354740	0.563850
O141	O14	0.549150	0.190020	0.578870
O151	O15	0.525590	0.406640	0.422130
C111	C11	0.695400	0.302200	0.505400
H61	H6	0.742000	0.230400	0.529900
C121	C12	0.766200	0.333100	0.427200
O161	O16	0.660300	0.376390	0.574500
O171	O17	0.750440	0.429730	0.422730
O181	O18	0.830820	0.266690	0.370690
C131	C13	0.031700	0.267800	0.542300
C141	C14	0.099400	0.300700	0.463670
H71	H7	0.132500	0.244700	0.419400
O191	O19	0.928340	0.337530	0.565450
O201	O20	0.077690	0.180060	0.582880
O211	O21	0.029550	0.396270	0.420280
C151	C15	0.200000	0.312800	0.504360
H81	H8	0.253000	0.244300	0.530600
C161	C16	0.264700	0.348600	0.426430
O221	O22	0.154950	0.389230	0.572070
O231	O23	0.240560	0.447460	0.419820
O241	O24	0.333850	0.283390	0.370100
Cu31	Cu3	0.383800	0.487710	0.492560
Cu41	Cu4	0.109850	0.526030	0.507060
Li11	Li1	0.530700	0.427500	0.292800
O251	O25	0.496890	0.580080	0.279580
H91	H9	0.454000	0.599000	0.326700
H101	H10	0.560700	0.577000	0.291000
Li21	Li2	0.468500	0.681300	0.172200
Li31	Li3	0.030500	0.422700	0.292100
O261	O26	0.997320	0.575280	0.279880
H111	H11	0.957000	0.593000	0.329100
H121	H12	0.062300	0.570000	0.289000
Li41	Li4	0.793500	0.336800	0.650800
Li51	Li5	0.969000	0.676900	0.172300
Li61	Li6	0.010900	0.033000	0.080300
Li71	Li7	0.286500	0.343400	0.651800
O271	O27	0.338500	0.050500	0.929000
O281	O28	0.403900	0.014400	0.992900
O291	O29	0.996800	0.999700	0.044300
Li81	Li8	0.505900	0.966000	0.919700
Cu51	Cu5	0.114490	0.532410	0.007410
O301	O30	0.023270	0.661460	0.934760
O311	O31	0.113700	0.633180	0.090250
O321	O32	0.279310	0.593920	0.933610
O331	O33	0.098130	0.438380	0.925390
O341	O34	0.220440	0.404880	0.065100
C171	C17	0.043200	0.738700	0.954500
C181	C18	0.121400	0.715800	0.032260
Cu61	Cu6	0.385710	0.466480	0.991100
C191	C19	0.247200	0.682100	0.987350
C201	C20	0.170200	0.341600	0.937300
C211	C21	0.252400	0.316500	0.011630
O351	O35	0.007500	0.825750	0.911810
H131	H13	0.097700	0.779900	0.066500
O361	O36	0.401790	0.560470	0.073310
O371	O37	0.386550	0.365870	0.908790
O381	O38	0.476290	0.337340	0.064320
H141	H14	0.250300	0.741400	0.948300
C221	C22	0.330300	0.656600	0.061200
O391	O39	0.174410	0.268650	0.891440
H151	H15	0.249400	0.257200	0.050700
C231	C23	0.378400	0.283300	0.966600
C241	C24	0.455100	0.260700	0.045200
O401	O40	0.326480	0.729500	0.107450
H161	H16	0.402800	0.219100	0.932400
O411	O41	0.490100	0.173800	0.088330
C251	C25	0.487900	0.720500	0.459400
C261	C26	0.412600	0.694000	0.536710
H171	H17	0.386600	0.747800	0.582600
O421	O42	0.587210	0.645260	0.436150
O431	O43	0.450850	0.809980	0.421130
O441	O44	0.474410	0.593360	0.577870
C271	C27	0.304600	0.697800	0.494600
H181	H18	0.258000	0.769600	0.470100
C281	C28	0.233800	0.666900	0.572800
O451	O45	0.339700	0.623610	0.425500
O461	O46	0.249560	0.570270	0.577270
O471	O47	0.169180	0.733310	0.629310
C291	C29	0.968300	0.732200	0.457700
C301	C30	0.900600	0.699300	0.536330
H191	H19	0.867500	0.755300	0.580600
O481	O48	0.071660	0.662470	0.434550
O491	O49	0.922310	0.819940	0.417120
O501	O50	0.970450	0.603730	0.579720
C311	C31	0.800000	0.687200	0.495640
H201	H20	0.747000	0.755700	0.469400
C321	C32	0.735300	0.651400	0.573570
O511	O51	0.845050	0.610770	0.427930
O521	O52	0.759440	0.552540	0.580180
O531	O53	0.666150	0.716610	0.629900
Cu71	Cu7	0.616200	0.512290	0.507440
Cu81	Cu8	0.890150	0.473970	0.492940
Li91	Li9	0.469300	0.572500	0.707200
O541	O54	0.503110	0.419920	0.720420
H211	H21	0.546000	0.401000	0.673300
H221	H22	0.439300	0.423000	0.709000
Li101	Li10	0.531500	0.318700	0.827800
Li111	Li11	0.969500	0.577300	0.707900
O551	O55	0.002680	0.424720	0.720120
H231	H23	0.043000	0.407000	0.670900
H241	H24	0.937700	0.430000	0.711000
Li121	Li12	0.206500	0.663200	0.349200
Li131	Li13	0.031000	0.323100	0.827700
Li141	Li14	0.989100	0.967000	0.919700
Li151	Li15	0.713500	0.656600	0.348200
O561	O56	0.661500	0.949500	0.071000
O571	O57	0.596100	0.985600	0.007100
O581	O58	0.003200	0.000300	0.955700
Li161	Li16	0.494100	0.034000	0.080300
