data_BERGAI_clean_PM
_symmetry_space_group_name_H-M	'P1'
_cell_length_a	12.700000
_cell_length_b	12.700000
_cell_length_c	25.364000
_cell_angle_alpha	90.000000
_cell_angle_beta	90.000000
_cell_angle_gamma	90.000000
_symmetry_Int_Tables_number 1

loop_
_symmetry_equiv_pos_as_xyz
'x,y,z'

loop_
_atom_site_label
_atom_site_type_symbol
_atom_site_fract_x
_atom_site_fract_y
_atom_site_fract_z
Zn11	Zn1	0.038550	0.930740	0.437530
Zn21	Zn2	0.461450	0.569260	0.437530
Zn31	Zn3	0.569260	0.038550	0.437530
Zn41	Zn4	0.930740	0.461450	0.437530
Zn51	Zn5	0.461450	0.930740	0.062470
Zn61	Zn6	0.038550	0.569260	0.062470
Zn71	Zn7	0.930740	0.038550	0.062470
Zn81	Zn8	0.569260	0.461450	0.062470
Zn91	Zn9	0.961450	0.069260	0.562470
Zn101	Zn10	0.538550	0.430740	0.562470
Zn111	Zn11	0.430740	0.961450	0.562470
Zn121	Zn12	0.069260	0.538550	0.562470
Zn131	Zn13	0.538550	0.069260	0.937530
Zn141	Zn14	0.961450	0.430740	0.937530
Zn151	Zn15	0.069260	0.961450	0.937530
Zn161	Zn16	0.430740	0.538550	0.937530
H11	H1	0.276700	0.939700	0.468700
H21	H2	0.071300	0.927000	0.237400
H31	H3	0.183600	0.931700	0.165600
H41	H4	0.256000	0.032300	0.645700
H51	H5	0.139500	0.044900	0.647400
H61	H6	0.223300	0.560300	0.468700
H71	H7	0.428700	0.573000	0.237400
H81	H8	0.316400	0.568300	0.165600
H91	H9	0.244000	0.467700	0.645700
H101	H10	0.360500	0.455100	0.647400
H111	H11	0.560300	0.276700	0.468700
H121	H12	0.573000	0.071300	0.237400
H131	H13	0.568300	0.183600	0.165600
H141	H14	0.467700	0.256000	0.645700
H151	H15	0.455100	0.139500	0.647400
H161	H16	0.939700	0.223300	0.468700
H171	H17	0.927000	0.428700	0.237400
H181	H18	0.931700	0.316400	0.165600
H191	H19	0.032300	0.244000	0.645700
H201	H20	0.044900	0.360500	0.647400
H211	H21	0.223300	0.939700	0.031300
H221	H22	0.428700	0.927000	0.262600
H231	H23	0.316400	0.931700	0.334400
H241	H24	0.244000	0.032300	0.854300
H251	H25	0.360500	0.044900	0.852600
H261	H26	0.276700	0.560300	0.031300
H271	H27	0.071300	0.573000	0.262600
H281	H28	0.183600	0.568300	0.334400
H291	H29	0.256000	0.467700	0.854300
H301	H30	0.139500	0.455100	0.852600
H311	H31	0.939700	0.276700	0.031300
H321	H32	0.927000	0.071300	0.262600
H331	H33	0.931700	0.183600	0.334400
H341	H34	0.032300	0.256000	0.854300
H351	H35	0.044900	0.139500	0.852600
H361	H36	0.560300	0.223300	0.031300
H371	H37	0.573000	0.428700	0.262600
H381	H38	0.568300	0.316400	0.334400
H391	H39	0.467700	0.244000	0.854300
H401	H40	0.455100	0.360500	0.852600
H411	H41	0.723300	0.060300	0.531300
H421	H42	0.928700	0.073000	0.762600
H431	H43	0.816400	0.068300	0.834400
H441	H44	0.744000	0.967700	0.354300
H451	H45	0.860500	0.955100	0.352600
H461	H46	0.776700	0.439700	0.531300
H471	H47	0.571300	0.427000	0.762600
H481	H48	0.683600	0.431700	0.834400
H491	H49	0.756000	0.532300	0.354300
H501	H50	0.639500	0.544900	0.352600
H511	H51	0.439700	0.723300	0.531300
H521	H52	0.427000	0.928700	0.762600
H531	H53	0.431700	0.816400	0.834400
H541	H54	0.532300	0.744000	0.354300
H551	H55	0.544900	0.860500	0.352600
H561	H56	0.060300	0.776700	0.531300
H571	H57	0.073000	0.571300	0.762600
H581	H58	0.068300	0.683600	0.834400
H591	H59	0.967700	0.756000	0.354300
H601	H60	0.955100	0.639500	0.352600
H611	H61	0.776700	0.060300	0.968700
H621	H62	0.571300	0.073000	0.737400
H631	H63	0.683600	0.068300	0.665600
H641	H64	0.756000	0.967700	0.145700
H651	H65	0.639500	0.955100	0.147400
H661	H66	0.723300	0.439700	0.968700
H671	H67	0.928700	0.427000	0.737400
H681	H68	0.816400	0.431700	0.665600
H691	H69	0.744000	0.532300	0.145700
H701	H70	0.860500	0.544900	0.147400
H711	H71	0.060300	0.723300	0.968700
H721	H72	0.073000	0.928700	0.737400
H731	H73	0.068300	0.816400	0.665600
H741	H74	0.967700	0.744000	0.145700
H751	H75	0.955100	0.860500	0.147400
H761	H76	0.439700	0.776700	0.968700
H771	H77	0.427000	0.571300	0.737400
H781	H78	0.431700	0.683600	0.665600
H791	H79	0.532300	0.756000	0.145700
H801	H80	0.544900	0.639500	0.147400
C11	C1	0.190400	0.004600	0.582450
C21	C2	0.237000	0.958600	0.498010
C31	C3	0.182000	0.930600	0.292700
C41	C4	0.143700	0.929100	0.242800
C51	C5	0.211000	0.930700	0.199600
C61	C6	0.107500	0.931100	0.338800
C71	C7	0.309600	0.495400	0.582450
C81	C8	0.263000	0.541400	0.498010
C91	C9	0.318000	0.569400	0.292700
C101	C10	0.356300	0.570900	0.242800
C111	C11	0.289000	0.569300	0.199600
C121	C12	0.392500	0.568900	0.338800
C131	C13	0.495400	0.190400	0.582450
C141	C14	0.541400	0.237000	0.498010
C151	C15	0.569400	0.182000	0.292700
C161	C16	0.570900	0.143700	0.242800
C171	C17	0.569300	0.211000	0.199600
C181	C18	0.568900	0.107500	0.338800
C191	C19	0.004600	0.309600	0.582450
C201	C20	0.958600	0.263000	0.498010
C211	C21	0.930600	0.318000	0.292700
C221	C22	0.929100	0.356300	0.242800
C231	C23	0.930700	0.289000	0.199600
C241	C24	0.931100	0.392500	0.338800
C251	C25	0.309600	0.004600	0.917550
C261	C26	0.263000	0.958600	0.001990
C271	C27	0.318000	0.930600	0.207300
C281	C28	0.356300	0.929100	0.257200
C291	C29	0.289000	0.930700	0.300400
C301	C30	0.392500	0.931100	0.161200
C311	C31	0.190400	0.495400	0.917550
C321	C32	0.237000	0.541400	0.001990
C331	C33	0.182000	0.569400	0.207300
C341	C34	0.143700	0.570900	0.257200
C351	C35	0.211000	0.569300	0.300400
C361	C36	0.107500	0.568900	0.161200
C371	C37	0.004600	0.190400	0.917550
C381	C38	0.958600	0.237000	0.001990
C391	C39	0.930600	0.182000	0.207300
C401	C40	0.929100	0.143700	0.257200
C411	C41	0.930700	0.211000	0.300400
C421	C42	0.931100	0.107500	0.161200
C431	C43	0.495400	0.309600	0.917550
C441	C44	0.541400	0.263000	0.001990
C451	C45	0.569400	0.318000	0.207300
C461	C46	0.570900	0.356300	0.257200
C471	C47	0.569300	0.289000	0.300400
C481	C48	0.568900	0.392500	0.161200
C491	C49	0.809600	0.995400	0.417550
C501	C50	0.763000	0.041400	0.501990
C511	C51	0.818000	0.069400	0.707300
C521	C52	0.856300	0.070900	0.757200
C531	C53	0.789000	0.069300	0.800400
C541	C54	0.892500	0.068900	0.661200
C551	C55	0.690400	0.504600	0.417550
C561	C56	0.737000	0.458600	0.501990
C571	C57	0.682000	0.430600	0.707300
C581	C58	0.643700	0.429100	0.757200
C591	C59	0.711000	0.430700	0.800400
C601	C60	0.607500	0.431100	0.661200
C611	C61	0.504600	0.809600	0.417550
C621	C62	0.458600	0.763000	0.501990
C631	C63	0.430600	0.818000	0.707300
C641	C64	0.429100	0.856300	0.757200
C651	C65	0.430700	0.789000	0.800400
C661	C66	0.431100	0.892500	0.661200
C671	C67	0.995400	0.690400	0.417550
C681	C68	0.041400	0.737000	0.501990
C691	C69	0.069400	0.682000	0.707300
C701	C70	0.070900	0.643700	0.757200
C711	C71	0.069300	0.711000	0.800400
C721	C72	0.068900	0.607500	0.661200
C731	C73	0.690400	0.995400	0.082450
C741	C74	0.737000	0.041400	0.998010
C751	C75	0.682000	0.069400	0.792700
C761	C76	0.643700	0.070900	0.742800
C771	C77	0.711000	0.069300	0.699600
C781	C78	0.607500	0.068900	0.838800
C791	C79	0.809600	0.504600	0.082450
C801	C80	0.763000	0.458600	0.998010
C811	C81	0.818000	0.430600	0.792700
C821	C82	0.856300	0.429100	0.742800
C831	C83	0.789000	0.430700	0.699600
C841	C84	0.892500	0.431100	0.838800
C851	C85	0.995400	0.809600	0.082450
C861	C86	0.041400	0.763000	0.998010
C871	C87	0.069400	0.818000	0.792700
C881	C88	0.070900	0.856300	0.742800
C891	C89	0.069300	0.789000	0.699600
C901	C90	0.068900	0.892500	0.838800
C911	C91	0.504600	0.690400	0.082450
C921	C92	0.458600	0.737000	0.998010
C931	C93	0.430600	0.682000	0.792700
C941	C94	0.429100	0.643700	0.742800
C951	C95	0.430700	0.711000	0.699600
C961	C96	0.431100	0.607500	0.838800
N11	N1	0.097400	0.001600	0.551400
N21	N2	0.126200	0.973200	0.499210
N31	N3	0.276700	0.978000	0.549450
N41	N4	0.195900	0.029900	0.630200
N51	N5	0.402600	0.498400	0.551400
N61	N6	0.373800	0.526800	0.499210
N71	N7	0.223300	0.522000	0.549450
N81	N8	0.304100	0.470100	0.630200
N91	N9	0.498400	0.097400	0.551400
N101	N10	0.526800	0.126200	0.499210
N111	N11	0.522000	0.276700	0.549450
N121	N12	0.470100	0.195900	0.630200
N131	N13	0.001600	0.402600	0.551400
N141	N14	0.973200	0.373800	0.499210
N151	N15	0.978000	0.223300	0.549450
N161	N16	0.029900	0.304100	0.630200
N171	N17	0.402600	0.001600	0.948600
N181	N18	0.373800	0.973200	0.000790
N191	N19	0.223300	0.978000	0.950550
N201	N20	0.304100	0.029900	0.869800
N211	N21	0.097400	0.498400	0.948600
N221	N22	0.126200	0.526800	0.000790
N231	N23	0.276700	0.522000	0.950550
N241	N24	0.195900	0.470100	0.869800
N251	N25	0.001600	0.097400	0.948600
N261	N26	0.973200	0.126200	0.000790
N271	N27	0.978000	0.276700	0.950550
N281	N28	0.029900	0.195900	0.869800
N291	N29	0.498400	0.402600	0.948600
N301	N30	0.526800	0.373800	0.000790
N311	N31	0.522000	0.223300	0.950550
N321	N32	0.470100	0.304100	0.869800
N331	N33	0.902600	0.998400	0.448600
N341	N34	0.873800	0.026800	0.500790
N351	N35	0.723300	0.022000	0.450550
N361	N36	0.804100	0.970100	0.369800
N371	N37	0.597400	0.501600	0.448600
N381	N38	0.626200	0.473200	0.500790
N391	N39	0.776700	0.478000	0.450550
N401	N40	0.695900	0.529900	0.369800
N411	N41	0.501600	0.902600	0.448600
N421	N42	0.473200	0.873800	0.500790
N431	N43	0.478000	0.723300	0.450550
N441	N44	0.529900	0.804100	0.369800
N451	N45	0.998400	0.597400	0.448600
N461	N46	0.026800	0.626200	0.500790
N471	N47	0.022000	0.776700	0.450550
N481	N48	0.970100	0.695900	0.369800
N491	N49	0.597400	0.998400	0.051400
N501	N50	0.626200	0.026800	0.999210
N511	N51	0.776700	0.022000	0.049450
N521	N52	0.695900	0.970100	0.130200
N531	N53	0.902600	0.501600	0.051400
N541	N54	0.873800	0.473200	0.999210
N551	N55	0.723300	0.478000	0.049450
N561	N56	0.804100	0.529900	0.130200
N571	N57	0.998400	0.902600	0.051400
N581	N58	0.026800	0.873800	0.999210
N591	N59	0.022000	0.723300	0.049450
N601	N60	0.970100	0.804100	0.130200
N611	N61	0.501600	0.597400	0.051400
N621	N62	0.473200	0.626200	0.999210
N631	N63	0.478000	0.776700	0.049450
N641	N64	0.529900	0.695900	0.130200
O11	O1	0.146400	0.949500	0.383800
O21	O2	0.012500	0.911900	0.332900
O31	O3	0.353600	0.550500	0.383800
O41	O4	0.487500	0.588100	0.332900
O51	O5	0.550500	0.146400	0.383800
O61	O6	0.588100	0.012500	0.332900
O71	O7	0.949500	0.353600	0.383800
O81	O8	0.911900	0.487500	0.332900
O91	O9	0.353600	0.949500	0.116200
O101	O10	0.487500	0.911900	0.167100
O111	O11	0.146400	0.550500	0.116200
O121	O12	0.012500	0.588100	0.167100
O131	O13	0.949500	0.146400	0.116200
O141	O14	0.911900	0.012500	0.167100
O151	O15	0.550500	0.353600	0.116200
O161	O16	0.588100	0.487500	0.167100
O171	O17	0.853600	0.050500	0.616200
O181	O18	0.987500	0.088100	0.667100
O191	O19	0.646400	0.449500	0.616200
O201	O20	0.512500	0.411900	0.667100
O211	O21	0.449500	0.853600	0.616200
O221	O22	0.411900	0.987500	0.667100
O231	O23	0.050500	0.646400	0.616200
O241	O24	0.088100	0.512500	0.667100
O251	O25	0.646400	0.050500	0.883800
O261	O26	0.512500	0.088100	0.832900
O271	O27	0.853600	0.449500	0.883800
O281	O28	0.987500	0.411900	0.832900
O291	O29	0.050500	0.853600	0.883800
O301	O30	0.088100	0.987500	0.832900
O311	O31	0.449500	0.646400	0.883800
O321	O32	0.411900	0.512500	0.832900
