data_BETDAH_clean_PM
_symmetry_space_group_name_H-M	'P1'
_cell_length_a	13.346700
_cell_length_b	14.354000
_cell_length_c	16.033600
_cell_angle_alpha	116.591000
_cell_angle_beta	98.621000
_cell_angle_gamma	90.000000
_symmetry_Int_Tables_number 1

loop_
_symmetry_equiv_pos_as_xyz
'x,y,z'

loop_
_atom_site_label
_atom_site_type_symbol
_atom_site_fract_x
_atom_site_fract_y
_atom_site_fract_z
Ho11	Ho1	0.960270	0.895920	0.366820
Ho21	Ho2	0.539730	0.529100	0.633180
Ho31	Ho3	0.039730	0.104080	0.633180
Ho41	Ho4	0.460270	0.470900	0.366820
H11	H1	0.450000	0.866800	0.884200
H21	H2	0.393800	0.972800	0.029600
H31	H3	0.380800	0.727900	0.080800
H41	H4	0.403300	0.617400	0.925600
H51	H5	0.296700	0.226500	0.540200
H61	H6	0.227000	0.972400	0.287800
H71	H7	0.421800	0.202100	0.317600
H81	H8	0.050000	0.982600	0.115800
H91	H9	0.106200	0.943200	0.970400
H101	H10	0.119200	0.647100	0.919200
H111	H11	0.096700	0.691800	0.074400
H121	H12	0.203300	0.686300	0.459800
H131	H13	0.273000	0.684600	0.712200
H141	H14	0.078200	0.884500	0.682400
H151	H15	0.550000	0.133200	0.115800
H161	H16	0.606200	0.027200	0.970400
H171	H17	0.619200	0.272100	0.919200
H181	H18	0.596700	0.382600	0.074400
H191	H19	0.703300	0.773500	0.459800
H201	H20	0.773000	0.027600	0.712200
H211	H21	0.578200	0.797900	0.682400
H221	H22	0.950000	0.017400	0.884200
H231	H23	0.893800	0.056800	0.029600
H241	H24	0.880800	0.352900	0.080800
H251	H25	0.903300	0.308200	0.925600
H261	H26	0.796700	0.313700	0.540200
H271	H27	0.727000	0.315400	0.287800
H281	H28	0.921800	0.115500	0.317600
C11	C1	0.480000	0.666100	0.805000
C21	C2	0.443000	0.734500	0.894400
C31	C3	0.434100	0.837300	0.922200
C41	C4	0.400000	0.901800	0.010200
C51	C5	0.376900	0.855700	0.065000
C61	C6	0.388000	0.755500	0.039000
C71	C7	0.410000	0.689600	0.949000
C81	C8	0.351100	0.922100	0.161200
C91	C9	0.426400	0.334500	0.498000
C101	C10	0.370100	0.230500	0.439600
C111	C11	0.304400	0.189500	0.477200
C121	C12	0.250200	0.093000	0.419800
C131	C13	0.263800	0.036200	0.326000
C141	C14	0.331900	0.074500	0.289800
C151	C15	0.381400	0.173600	0.344200
C161	C16	0.172700	0.051000	0.457600
C171	C17	0.020000	0.861100	0.195000
C181	C18	0.057000	0.840100	0.105600
C191	C19	0.065900	0.915100	0.077800
C201	C20	0.100000	0.891600	0.989800
C211	C21	0.123100	0.790700	0.935000
C221	C22	0.112000	0.716500	0.961000
C231	C23	0.090000	0.740600	0.051000
C241	C24	0.148900	0.760900	0.838800
C251	C25	0.073600	0.836500	0.502000
C261	C26	0.129900	0.790900	0.560400
C271	C27	0.195600	0.712300	0.522800
C281	C28	0.249800	0.673200	0.580200
C291	C29	0.236200	0.710200	0.674000
C301	C30	0.168100	0.784700	0.710200
C311	C31	0.118600	0.829400	0.655800
C321	C32	0.327300	0.593400	0.542400
C331	C33	0.520000	0.333900	0.195000
C341	C34	0.557000	0.265500	0.105600
C351	C35	0.565900	0.162700	0.077800
C361	C36	0.600000	0.098200	0.989800
C371	C37	0.623100	0.144300	0.935000
C381	C38	0.612000	0.244500	0.961000
C391	C39	0.590000	0.310400	0.051000
C401	C40	0.648900	0.077900	0.838800
C411	C41	0.573600	0.665500	0.502000
C421	C42	0.629900	0.769500	0.560400
C431	C43	0.695600	0.810500	0.522800
C441	C44	0.749800	0.907000	0.580200
C451	C45	0.736200	0.963800	0.674000
C461	C46	0.668100	0.925500	0.710200
C471	C47	0.618600	0.826400	0.655800
C481	C48	0.827300	0.949000	0.542400
C491	C49	0.980000	0.138900	0.805000
C501	C50	0.943000	0.159900	0.894400
C511	C51	0.934100	0.084900	0.922200
C521	C52	0.900000	0.108400	0.010200
C531	C53	0.876900	0.209300	0.065000
C541	C54	0.888000	0.283500	0.039000
C551	C55	0.910000	0.259400	0.949000
C561	C56	0.851100	0.239100	0.161200
C571	C57	0.926400	0.163500	0.498000
C581	C58	0.870100	0.209100	0.439600
C591	C59	0.804400	0.287700	0.477200
C601	C60	0.750200	0.326800	0.419800
C611	C61	0.763800	0.289800	0.326000
C621	C62	0.831900	0.215300	0.289800
C631	C63	0.881400	0.170600	0.344200
C641	C64	0.672700	0.406600	0.457600
N11	N1	0.350200	0.018800	0.195400
N21	N2	0.149800	0.823400	0.804600
N31	N3	0.649800	0.981200	0.804600
N41	N4	0.850200	0.176600	0.195400
O11	O1	0.481600	0.572500	0.778400
O21	O2	0.506000	0.708000	0.754400
O31	O3	0.445600	0.368000	0.587400
O41	O4	0.455300	0.387300	0.460000
O51	O5	0.127900	0.963000	0.401400
O61	O6	0.160900	0.107300	0.542400
O71	O7	0.018400	0.794100	0.221600
O81	O8	0.994000	0.953600	0.245600
O91	O9	0.054400	0.780600	0.412600
O101	O10	0.044700	0.927300	0.540000
O111	O11	0.372100	0.561600	0.598600
O121	O12	0.339100	0.564900	0.457600
O131	O13	0.518400	0.427500	0.221600
O141	O14	0.494000	0.292000	0.245600
O151	O15	0.554400	0.632000	0.412600
O161	O16	0.544700	0.612700	0.540000
O171	O17	0.872100	0.037000	0.598600
O181	O18	0.839100	0.892700	0.457600
O191	O19	0.981600	0.205900	0.778400
O201	O20	0.006000	0.046400	0.754400
O211	O21	0.945600	0.219400	0.587400
O221	O22	0.955300	0.072700	0.460000
O231	O23	0.627900	0.438400	0.401400
O241	O24	0.660900	0.435100	0.542400
