data_BETDEL_clean_PM
_symmetry_space_group_name_H-M	'P1'
_cell_length_a	13.609300
_cell_length_b	13.907700
_cell_length_c	15.986500
_cell_angle_alpha	115.784000
_cell_angle_beta	98.164100
_cell_angle_gamma	90.000000
_symmetry_Int_Tables_number 1

loop_
_symmetry_equiv_pos_as_xyz
'x,y,z'

loop_
_atom_site_label
_atom_site_type_symbol
_atom_site_fract_x
_atom_site_fract_y
_atom_site_fract_z
Dy11	Dy1	0.458910	0.893170	0.367840
Dy21	Dy2	0.041090	0.525330	0.632160
Dy31	Dy3	0.541090	0.106830	0.632160
Dy41	Dy4	0.958910	0.474670	0.367840
H11	H1	0.535400	0.973300	0.107800
H21	H2	0.605900	0.939700	0.969600
H31	H3	0.647600	0.641800	0.929200
H41	H4	0.604100	0.685500	0.083600
H51	H5	0.702700	0.682300	0.462200
H61	H6	0.774300	0.680700	0.713800
H71	H7	0.574800	0.878600	0.685000
H81	H8	0.964600	0.865500	0.892200
H91	H9	0.894100	0.970100	0.030400
H101	H10	0.852400	0.712600	0.070800
H111	H11	0.895900	0.601900	0.916400
H121	H12	0.797300	0.220100	0.537800
H131	H13	0.725700	0.966900	0.286200
H141	H14	0.925200	0.193600	0.315000
H151	H15	0.464600	0.026700	0.892200
H161	H16	0.394100	0.060300	0.030400
H171	H17	0.352400	0.358200	0.070800
H181	H18	0.395900	0.314500	0.916400
H191	H19	0.297300	0.317700	0.537800
H201	H20	0.225700	0.319300	0.286200
H211	H21	0.425200	0.121400	0.315000
H221	H22	0.035400	0.134500	0.107800
H231	H23	0.105900	0.029900	0.969600
H241	H24	0.147600	0.287400	0.929200
H251	H25	0.104100	0.398100	0.083600
H261	H26	0.202700	0.779900	0.462200
H271	H27	0.274300	0.033100	0.713800
H281	H28	0.074800	0.806400	0.685000
C11	C1	0.523500	0.849400	0.193000
C21	C2	0.559500	0.831000	0.105800
C31	C3	0.560000	0.907200	0.074200
C41	C4	0.598500	0.886000	0.988600
C51	C5	0.623900	0.784100	0.936600
C61	C6	0.627000	0.709100	0.965800
C71	C7	0.597000	0.734500	0.058200
C81	C8	0.650200	0.752100	0.842200
C91	C9	0.567800	0.830000	0.503200
C101	C10	0.627500	0.785900	0.561600
C111	C11	0.695000	0.708100	0.525000
C121	C12	0.750100	0.669600	0.581800
C131	C13	0.736600	0.706500	0.675800
C141	C14	0.670400	0.778100	0.711600
C151	C15	0.616500	0.824400	0.658200
C161	C16	0.829000	0.589500	0.544000
C171	C17	0.976500	0.656400	0.807000
C181	C18	0.940500	0.725200	0.894200
C191	C19	0.940000	0.833000	0.925800
C201	C20	0.901500	0.897400	0.011400
C211	C21	0.876100	0.847500	0.063400
C221	C22	0.873000	0.743300	0.034200
C231	C23	0.903000	0.676300	0.941800
C241	C24	0.849800	0.909900	0.157800
C251	C25	0.932200	0.326800	0.496800
C261	C26	0.872500	0.224300	0.438400
C271	C27	0.805000	0.183100	0.475000
C281	C28	0.749900	0.087800	0.418200
C291	C29	0.763400	0.030700	0.324200
C301	C30	0.829600	0.066500	0.288400
C311	C31	0.883500	0.166200	0.341800
C321	C32	0.671000	0.045500	0.456000
C331	C33	0.476500	0.150600	0.807000
C341	C34	0.440500	0.169000	0.894200
C351	C35	0.440000	0.092800	0.925800
C361	C36	0.401500	0.114000	0.011400
C371	C37	0.376100	0.215900	0.063400
C381	C38	0.373000	0.290900	0.034200
C391	C39	0.403000	0.265500	0.941800
C401	C40	0.349800	0.247900	0.157800
C411	C41	0.432200	0.170000	0.496800
C421	C42	0.372500	0.214100	0.438400
C431	C43	0.305000	0.291900	0.475000
C441	C44	0.249900	0.330400	0.418200
C451	C45	0.263400	0.293500	0.324200
C461	C46	0.329600	0.221900	0.288400
C471	C47	0.383500	0.175600	0.341800
C481	C48	0.171000	0.410500	0.456000
C491	C49	0.023500	0.343600	0.193000
C501	C50	0.059500	0.274800	0.105800
C511	C51	0.060000	0.167000	0.074200
C521	C52	0.098500	0.102600	0.988600
C531	C53	0.123900	0.152500	0.936600
C541	C54	0.127000	0.256700	0.965800
C551	C55	0.097000	0.323700	0.058200
C561	C56	0.150200	0.090100	0.842200
C571	C57	0.067800	0.673200	0.503200
C581	C58	0.127500	0.775700	0.561600
C591	C59	0.195000	0.816900	0.525000
C601	C60	0.250100	0.912200	0.581800
C611	C61	0.236600	0.969300	0.675800
C621	C62	0.170400	0.933500	0.711600
C631	C63	0.116500	0.833800	0.658200
C641	C64	0.329000	0.954500	0.544000
N11	N1	0.649200	0.815000	0.804400
N21	N2	0.850800	0.010600	0.195600
N31	N3	0.350800	0.185000	0.195600
N41	N4	0.149200	0.989400	0.804400
O11	O1	0.520600	0.786600	0.224400
O21	O2	0.493300	0.947700	0.245000
O31	O3	0.552000	0.773900	0.415800
O41	O4	0.540500	0.924700	0.540200
O51	O5	0.838400	0.564500	0.460600
O61	O6	0.875400	0.557400	0.600600
O71	O7	0.979400	0.562200	0.775600
O81	O8	0.006700	0.702700	0.755000
O91	O9	0.948000	0.358100	0.584200
O101	O10	0.959500	0.384500	0.459800
O111	O11	0.661600	0.103900	0.539400
O121	O12	0.624600	0.956800	0.399400
O131	O13	0.479400	0.213400	0.775600
O141	O14	0.506700	0.052300	0.755000
O151	O15	0.448000	0.226100	0.584200
O161	O16	0.459500	0.075300	0.459800
O171	O17	0.161600	0.435500	0.539400
O181	O18	0.124600	0.442600	0.399400
O191	O19	0.020600	0.437800	0.224400
O201	O20	0.993300	0.297300	0.245000
O211	O21	0.052000	0.641900	0.415800
O221	O22	0.040500	0.615500	0.540200
O231	O23	0.338400	0.896100	0.460600
O241	O24	0.375400	0.043200	0.600600
