data_BETFUD_clean_PM
_symmetry_space_group_name_H-M	'P1'
_cell_length_a	13.509700
_cell_length_b	14.568500
_cell_length_c	16.248700
_cell_angle_alpha	116.634000
_cell_angle_beta	99.035700
_cell_angle_gamma	90.000000
_symmetry_Int_Tables_number 1

loop_
_symmetry_equiv_pos_as_xyz
'x,y,z'

loop_
_atom_site_label
_atom_site_type_symbol
_atom_site_fract_x
_atom_site_fract_y
_atom_site_fract_z
Ce11	Ce1	0.957210	0.895350	0.362640
Ce21	Ce2	0.542790	0.532710	0.637360
Ce31	Ce3	0.042790	0.104650	0.637360
Ce41	Ce4	0.457210	0.467290	0.362640
H11	H1	0.068100	0.684200	0.058600
H21	H2	0.117400	0.642600	0.916400
H31	H3	0.109200	0.938600	0.967000
H41	H4	0.055500	0.977500	0.109400
H51	H5	0.268400	0.677300	0.707600
H61	H6	0.075900	0.877500	0.678600
H71	H7	0.195800	0.679900	0.458800
H81	H8	0.151000	0.682000	0.816000
H91	H9	0.431900	0.625600	0.941400
H101	H10	0.382600	0.726200	0.083600
H111	H11	0.390800	0.971600	0.033000
H121	H12	0.444500	0.868100	0.890600
H131	H13	0.231600	0.969700	0.292400
H141	H14	0.424100	0.198900	0.321400
H151	H15	0.304200	0.221100	0.541200
H161	H16	0.349000	0.866000	0.184000
H171	H17	0.931900	0.315800	0.941400
H181	H18	0.882600	0.357400	0.083600
H191	H19	0.890800	0.061400	0.033000
H201	H20	0.944500	0.022500	0.890600
H211	H21	0.731600	0.322700	0.292400
H221	H22	0.924100	0.122500	0.321400
H231	H23	0.804200	0.320100	0.541200
H241	H24	0.849000	0.318000	0.184000
H251	H25	0.568100	0.374400	0.058600
H261	H26	0.617400	0.273800	0.916400
H271	H27	0.609200	0.028400	0.967000
H281	H28	0.555500	0.131900	0.109400
H291	H29	0.768400	0.030300	0.707600
H301	H30	0.575900	0.801100	0.678600
H311	H31	0.695800	0.778900	0.458800
H321	H32	0.651000	0.134000	0.816000
C11	C1	0.019200	0.860900	0.188000
C21	C2	0.054100	0.834500	0.096600
C31	C3	0.074600	0.735200	0.039800
C41	C4	0.104900	0.710100	0.954400
C51	C5	0.116400	0.784700	0.926600
C61	C6	0.099600	0.887100	0.984600
C71	C7	0.067500	0.910100	0.070400
C81	C8	0.145600	0.756800	0.834400
C91	C9	0.316600	0.587800	0.539000
C101	C10	0.244600	0.667300	0.577200
C111	C11	0.232800	0.703800	0.670400
C121	C12	0.167300	0.780400	0.707400
C131	C13	0.116300	0.823800	0.652600
C141	C14	0.127000	0.785800	0.559400
C151	C15	0.190200	0.706500	0.521600
C161	C16	0.071000	0.827600	0.498400
C171	C17	0.480800	0.672900	0.812000
C181	C18	0.445900	0.737900	0.903400
C191	C19	0.425400	0.695400	0.960200
C201	C20	0.395100	0.755700	0.045600
C211	C21	0.383600	0.858100	0.073400
C221	C22	0.400400	0.902500	0.015400
C231	C23	0.432500	0.839700	0.929600
C241	C24	0.354400	0.922400	0.165600
C251	C25	0.183400	0.048800	0.461000
C261	C26	0.255400	0.090100	0.422800
C271	C27	0.267200	0.033400	0.329600
C281	C28	0.332700	0.073000	0.292600
C291	C29	0.383700	0.171200	0.347400
C301	C30	0.373000	0.226400	0.440600
C311	C31	0.309800	0.184900	0.478400
C321	C32	0.429000	0.329200	0.501600
C331	C33	0.980800	0.139100	0.812000
C341	C34	0.945900	0.165500	0.903400
C351	C35	0.925400	0.264800	0.960200
C361	C36	0.895100	0.289900	0.045600
C371	C37	0.883600	0.215300	0.073400
C381	C38	0.900400	0.112900	0.015400
C391	C39	0.932500	0.089900	0.929600
C401	C40	0.854400	0.243200	0.165600
C411	C41	0.683400	0.412200	0.461000
C421	C42	0.755400	0.332700	0.422800
C431	C43	0.767200	0.296200	0.329600
C441	C44	0.832700	0.219600	0.292600
C451	C45	0.883700	0.176200	0.347400
C461	C46	0.873000	0.214200	0.440600
C471	C47	0.809800	0.293500	0.478400
C481	C48	0.929000	0.172400	0.501600
C491	C49	0.519200	0.327100	0.188000
C501	C50	0.554100	0.262100	0.096600
C511	C51	0.574600	0.304600	0.039800
C521	C52	0.604900	0.244300	0.954400
C531	C53	0.616400	0.141900	0.926600
C541	C54	0.599600	0.097500	0.984600
C551	C55	0.567500	0.160300	0.070400
C561	C56	0.645600	0.077600	0.834400
C571	C57	0.816600	0.951200	0.539000
C581	C58	0.744600	0.909900	0.577200
C591	C59	0.732800	0.966600	0.670400
C601	C60	0.667300	0.927000	0.707400
C611	C61	0.616300	0.828800	0.652600
C621	C62	0.627000	0.773600	0.559400
C631	C63	0.690200	0.815100	0.521600
C641	C64	0.571000	0.670800	0.498400
N11	N1	0.150100	0.819300	0.801600
N21	N2	0.349900	0.017700	0.198400
N31	N3	0.849900	0.180700	0.198400
N41	N4	0.650100	0.982300	0.801600
O11	O1	0.998200	0.949630	0.237460
O21	O2	0.012200	0.788670	0.209740
O31	O3	0.325600	0.553700	0.454200
O41	O4	0.365500	0.557980	0.594960
O51	O5	0.054700	0.773680	0.411160
O61	O6	0.037200	0.916870	0.536740
O71	O7	0.501800	0.712170	0.762540
O81	O8	0.487800	0.578930	0.790260
O91	O9	0.174400	0.099500	0.545800
O101	O10	0.134500	0.963020	0.405040
O111	O11	0.445300	0.362520	0.588840
O121	O12	0.462800	0.380130	0.463260
O131	O13	0.001800	0.050370	0.762540
O141	O14	0.987800	0.211330	0.790260
O151	O15	0.674400	0.446300	0.545800
O161	O16	0.634500	0.442020	0.405040
O171	O17	0.945300	0.226320	0.588840
O181	O18	0.962800	0.083130	0.463260
O191	O19	0.498200	0.287830	0.237460
O201	O20	0.512200	0.421070	0.209740
O211	O21	0.825600	0.900500	0.454200
O221	O22	0.865500	0.036980	0.594960
O231	O23	0.554700	0.637480	0.411160
O241	O24	0.537200	0.619870	0.536740
