data_BETFAJ_clean_PM
_symmetry_space_group_name_H-M	'P1'
_cell_length_a	13.551500
_cell_length_b	14.314000
_cell_length_c	16.084300
_cell_angle_alpha	116.421000
_cell_angle_beta	98.746400
_cell_angle_gamma	90.000000
_symmetry_Int_Tables_number 1

loop_
_symmetry_equiv_pos_as_xyz
'x,y,z'

loop_
_atom_site_label
_atom_site_type_symbol
_atom_site_fract_x
_atom_site_fract_y
_atom_site_fract_z
Sm11	Sm1	0.957940	0.895110	0.365080
Sm21	Sm2	0.542060	0.530030	0.634920
Sm31	Sm3	0.042060	0.104890	0.634920
Sm41	Sm4	0.457940	0.469970	0.365080
H11	H1	0.049400	0.978000	0.110600
H21	H2	0.098600	0.939600	0.968200
H31	H3	0.129300	0.645000	0.922600
H41	H4	0.081000	0.684700	0.066400
H51	H5	0.156000	0.685000	0.812000
H61	H6	0.199200	0.681600	0.459600
H71	H7	0.272500	0.681100	0.711000
H81	H8	0.077600	0.879900	0.681200
H91	H9	0.450600	0.867400	0.889400
H101	H10	0.401400	0.971400	0.031800
H111	H11	0.370700	0.722400	0.077400
H121	H12	0.419000	0.618300	0.933600
H131	H13	0.344000	0.873000	0.188000
H141	H14	0.300800	0.222000	0.540400
H151	H15	0.227500	0.970100	0.289000
H161	H16	0.422400	0.198700	0.318800
H171	H17	0.950600	0.022000	0.889400
H181	H18	0.901400	0.060400	0.031800
H191	H19	0.870700	0.355000	0.077400
H201	H20	0.919000	0.315300	0.933600
H211	H21	0.844000	0.315000	0.188000
H221	H22	0.800800	0.318400	0.540400
H231	H23	0.727500	0.318900	0.289000
H241	H24	0.922400	0.120100	0.318800
H251	H25	0.549400	0.132600	0.110600
H261	H26	0.598600	0.028600	0.968200
H271	H27	0.629300	0.277600	0.922600
H281	H28	0.581000	0.381700	0.066400
H291	H29	0.656000	0.127000	0.812000
H301	H30	0.699200	0.778000	0.459600
H311	H31	0.772500	0.029900	0.711000
H321	H32	0.577600	0.801300	0.681200
C11	C1	0.021000	0.858800	0.193000
C21	C2	0.057500	0.835600	0.102400
C31	C3	0.064900	0.910400	0.073000
C41	C4	0.095100	0.888000	0.988000
C51	C5	0.120200	0.787000	0.932600
C61	C6	0.113700	0.712500	0.960400
C71	C7	0.083600	0.736400	0.046600
C81	C8	0.145400	0.758100	0.838000
C91	C9	0.071300	0.830100	0.499400
C101	C10	0.129000	0.787000	0.560800
C111	C11	0.193300	0.708500	0.522800
C121	C12	0.248000	0.670800	0.579600
C131	C13	0.236000	0.707100	0.673000
C141	C14	0.167800	0.783800	0.709800
C151	C15	0.118400	0.825600	0.655400
C161	C16	0.323700	0.591800	0.542800
C171	C17	0.479000	0.665800	0.807000
C181	C18	0.442500	0.733200	0.897600
C191	C19	0.435100	0.837400	0.927000
C201	C20	0.404900	0.900000	0.012000
C211	C21	0.379800	0.854400	0.067400
C221	C22	0.386300	0.752100	0.039600
C231	C23	0.416400	0.689800	0.953400
C241	C24	0.354600	0.920100	0.162000
C251	C25	0.428700	0.330700	0.500600
C261	C26	0.371000	0.226200	0.439200
C271	C27	0.306700	0.185700	0.477200
C281	C28	0.252000	0.091200	0.420400
C291	C29	0.264000	0.034100	0.327000
C301	C30	0.332200	0.074000	0.290200
C311	C31	0.381600	0.170200	0.344600
C321	C32	0.176300	0.049000	0.457200
C331	C33	0.979000	0.141200	0.807000
C341	C34	0.942500	0.164400	0.897600
C351	C35	0.935100	0.089600	0.927000
C361	C36	0.904900	0.112000	0.012000
C371	C37	0.879800	0.213000	0.067400
C381	C38	0.886300	0.287500	0.039600
C391	C39	0.916400	0.263600	0.953400
C401	C40	0.854600	0.241900	0.162000
C411	C41	0.928700	0.169900	0.500600
C421	C42	0.871000	0.213000	0.439200
C431	C43	0.806700	0.291500	0.477200
C441	C44	0.752000	0.329200	0.420400
C451	C45	0.764000	0.292900	0.327000
C461	C46	0.832200	0.216200	0.290200
C471	C47	0.881600	0.174400	0.344600
C481	C48	0.676300	0.408200	0.457200
C491	C49	0.521000	0.334200	0.193000
C501	C50	0.557500	0.266800	0.102400
C511	C51	0.564900	0.162600	0.073000
C521	C52	0.595100	0.100000	0.988000
C531	C53	0.620200	0.145600	0.932600
C541	C54	0.613700	0.247900	0.960400
C551	C55	0.583600	0.310200	0.046600
C561	C56	0.645400	0.079900	0.838000
C571	C57	0.571300	0.669300	0.499400
C581	C58	0.629000	0.773800	0.560800
C591	C59	0.693300	0.814300	0.522800
C601	C60	0.748000	0.908800	0.579600
C611	C61	0.736000	0.965900	0.673000
C621	C62	0.667800	0.926000	0.709800
C631	C63	0.618400	0.829800	0.655400
C641	C64	0.823700	0.951000	0.542800
N11	N1	0.148700	0.820230	0.803060
N21	N2	0.351300	0.017170	0.196940
N31	N3	0.851300	0.179770	0.196940
N41	N4	0.648700	0.982830	0.803060
O11	O1	0.993700	0.948680	0.240960
O21	O2	0.018100	0.788030	0.217460
O31	O3	0.040600	0.921270	0.537140
O41	O4	0.053200	0.774740	0.412080
O51	O5	0.371000	0.560960	0.597920
O61	O6	0.333500	0.561610	0.457420
O71	O7	0.506300	0.707720	0.759040
O81	O8	0.481900	0.570570	0.782540
O91	O9	0.459400	0.384130	0.462860
O101	O10	0.446800	0.362660	0.587920
O111	O11	0.129000	0.963040	0.402080
O121	O12	0.166500	0.104190	0.542580
O131	O13	0.006300	0.051320	0.759040
O141	O14	0.981900	0.211970	0.782540
O151	O15	0.959400	0.078730	0.462860
O161	O16	0.946800	0.225260	0.587920
O171	O17	0.629000	0.439040	0.402080
O181	O18	0.666500	0.438390	0.542580
O191	O19	0.493700	0.292280	0.240960
O201	O20	0.518100	0.429430	0.217460
O211	O21	0.540600	0.615870	0.537140
O221	O22	0.553200	0.637340	0.412080
O231	O23	0.871000	0.036960	0.597920
O241	O24	0.833500	0.895810	0.457420
