data_BETFEN_clean_PM
_symmetry_space_group_name_H-M	'P1'
_cell_length_a	13.634700
_cell_length_b	14.314500
_cell_length_c	16.115100
_cell_angle_alpha	116.368000
_cell_angle_beta	98.632500
_cell_angle_gamma	90.000000
_symmetry_Int_Tables_number 1

loop_
_symmetry_equiv_pos_as_xyz
'x,y,z'

loop_
_atom_site_label
_atom_site_type_symbol
_atom_site_fract_x
_atom_site_fract_y
_atom_site_fract_z
Pr11	Pr1	0.043200	0.030950	0.636540
Pr21	Pr2	0.456800	0.394410	0.363460
Pr31	Pr3	0.956800	0.969050	0.363460
Pr41	Pr4	0.543200	0.605590	0.636540
H11	H1	0.920500	0.119700	0.937400
H21	H2	0.886600	0.223500	0.084600
H31	H3	0.898900	0.471900	0.033400
H41	H4	0.947600	0.366700	0.889400
H51	H5	0.882000	0.386000	0.200000
H61	H6	0.799700	0.721700	0.540400
H71	H7	0.724200	0.471700	0.287800
H81	H8	0.919800	0.699000	0.319200
H91	H9	0.579500	0.182300	0.062600
H101	H10	0.613400	0.138900	0.915400
H111	H11	0.601100	0.438500	0.966600
H121	H12	0.552400	0.477300	0.110600
H131	H13	0.618000	0.186000	0.800000
H141	H14	0.700300	0.181300	0.459600
H151	H15	0.775800	0.183900	0.712200
H161	H16	0.580200	0.379800	0.680800
H171	H17	0.079500	0.880300	0.062600
H181	H18	0.113400	0.776500	0.915400
H191	H19	0.101100	0.528100	0.966600
H201	H20	0.052400	0.633300	0.110600
H211	H21	0.118000	0.614000	0.800000
H221	H22	0.200300	0.278300	0.459600
H231	H23	0.275800	0.528300	0.712200
H241	H24	0.080200	0.301000	0.680800
H251	H25	0.420500	0.817700	0.937400
H261	H26	0.386600	0.861100	0.084600
H271	H27	0.398900	0.561500	0.033400
H281	H28	0.447600	0.522700	0.889400
H291	H29	0.382000	0.814000	0.200000
H301	H30	0.299700	0.818700	0.540400
H311	H31	0.224200	0.816100	0.287800
H321	H32	0.419800	0.620200	0.319200
C11	C1	0.978600	0.167400	0.810000
C21	C2	0.942900	0.233700	0.899800
C31	C3	0.919200	0.191400	0.957800
C41	C4	0.894100	0.252000	0.044000
C51	C5	0.880200	0.356600	0.069800
C61	C6	0.903300	0.400600	0.014200
C71	C7	0.933700	0.337200	0.927800
C81	C8	0.855400	0.420500	0.163400
C91	C9	0.930000	0.829700	0.502000
C101	C10	0.872000	0.724900	0.439800
C111	C11	0.806800	0.684600	0.477600
C121	C12	0.752700	0.589000	0.421000
C131	C13	0.763100	0.533600	0.326800
C141	C14	0.832800	0.572100	0.291600
C151	C15	0.881000	0.669800	0.345800
C161	C16	0.678500	0.550300	0.457800
C171	C17	0.521400	0.357400	0.190000
C181	C18	0.557100	0.333900	0.100200
C191	C19	0.580800	0.233600	0.042200
C201	C20	0.605900	0.208000	0.956000
C211	C21	0.619800	0.286800	0.930200
C221	C22	0.596700	0.386400	0.985800
C231	C23	0.566300	0.409400	0.072200
C241	C24	0.644600	0.257100	0.836600
C251	C25	0.570000	0.327700	0.498000
C261	C26	0.628000	0.285100	0.560200
C271	C27	0.693200	0.207000	0.522400
C281	C28	0.747300	0.168000	0.579000
C291	C29	0.736900	0.206800	0.673200
C301	C30	0.667200	0.280500	0.708400
C311	C31	0.619000	0.324000	0.654200
C321	C32	0.821500	0.092500	0.542200
C331	C33	0.021400	0.832600	0.190000
C341	C34	0.057100	0.766300	0.100200
C351	C35	0.080800	0.808600	0.042200
C361	C36	0.105900	0.748000	0.956000
C371	C37	0.119800	0.643400	0.930200
C381	C38	0.096700	0.599400	0.985800
C391	C39	0.066300	0.662800	0.072200
C401	C40	0.144600	0.579500	0.836600
C411	C41	0.070000	0.170300	0.498000
C421	C42	0.128000	0.275100	0.560200
C431	C43	0.193200	0.315400	0.522400
C441	C44	0.247300	0.411000	0.579000
C451	C45	0.236900	0.466400	0.673200
C461	C46	0.167200	0.427900	0.708400
C471	C47	0.119000	0.330200	0.654200
C481	C48	0.321500	0.449700	0.542200
C491	C49	0.478600	0.642600	0.810000
C501	C50	0.442900	0.666100	0.899800
C511	C51	0.419200	0.766400	0.957800
C521	C52	0.394100	0.792000	0.044000
C531	C53	0.380200	0.713200	0.069800
C541	C54	0.403300	0.613600	0.014200
C551	C55	0.433700	0.590600	0.927800
C561	C56	0.355400	0.742900	0.163400
C571	C57	0.430000	0.672300	0.502000
C581	C58	0.372000	0.714900	0.439800
C591	C59	0.306800	0.793000	0.477600
C601	C60	0.252700	0.832000	0.421000
C611	C61	0.263100	0.793200	0.326800
C621	C62	0.332800	0.719500	0.291600
C631	C63	0.381000	0.676000	0.345800
C641	C64	0.178500	0.907500	0.457800
N11	N1	0.850700	0.515600	0.197000
N21	N2	0.649300	0.318600	0.803000
N31	N3	0.149300	0.484400	0.803000
N41	N4	0.350700	0.681400	0.197000
O11	O1	0.005900	0.208700	0.762200
O21	O2	0.982300	0.073700	0.786600
O31	O3	0.961400	0.883020	0.464640
O41	O4	0.946300	0.860600	0.588800
O51	O5	0.669000	0.603100	0.543000
O61	O6	0.629900	0.463000	0.402000
O71	O7	0.494100	0.446500	0.237800
O81	O8	0.517700	0.287100	0.213400
O91	O9	0.538600	0.418380	0.535360
O101	O10	0.553700	0.271800	0.411200
O111	O11	0.831000	0.060100	0.457000
O121	O12	0.870100	0.061000	0.598000
O131	O13	0.994100	0.791300	0.237800
O141	O14	0.017700	0.926300	0.213400
O151	O15	0.038600	0.116980	0.535360
O161	O16	0.053700	0.139400	0.411200
O171	O17	0.331000	0.396900	0.457000
O181	O18	0.370100	0.537000	0.598000
O191	O19	0.505900	0.553500	0.762200
O201	O20	0.482300	0.712900	0.786600
O211	O21	0.461400	0.581620	0.464640
O221	O22	0.446300	0.728200	0.588800
O231	O23	0.169000	0.939900	0.543000
O241	O24	0.129900	0.939000	0.402000
