data_BETGUE_clean_PM
_symmetry_space_group_name_H-M	'P1'
_cell_length_a	18.797600
_cell_length_b	18.797600
_cell_length_c	18.797600
_cell_angle_alpha	90.000000
_cell_angle_beta	90.000000
_cell_angle_gamma	90.000000
_symmetry_Int_Tables_number 1

loop_
_symmetry_equiv_pos_as_xyz
'x,y,z'

loop_
_atom_site_label
_atom_site_type_symbol
_atom_site_fract_x
_atom_site_fract_y
_atom_site_fract_z
N11	N1	0.369650	0.418760	0.077720
N21	N2	0.325020	0.408280	0.132050
N31	N3	0.630350	0.581240	0.077720
N41	N4	0.674980	0.591720	0.132050
N51	N5	0.630350	0.418760	0.922280
N61	N6	0.674980	0.408280	0.867950
N71	N7	0.369650	0.581240	0.922280
N81	N8	0.325020	0.591720	0.867950
N91	N9	0.077720	0.369650	0.418760
N101	N10	0.132050	0.325020	0.408280
N111	N11	0.077720	0.630350	0.581240
N121	N12	0.132050	0.674980	0.591720
N131	N13	0.922280	0.630350	0.418760
N141	N14	0.867950	0.674980	0.408280
N151	N15	0.922280	0.369650	0.581240
N161	N16	0.867950	0.325020	0.591720
N171	N17	0.418760	0.077720	0.369650
N181	N18	0.408280	0.132050	0.325020
N191	N19	0.581240	0.077720	0.630350
N201	N20	0.591720	0.132050	0.674980
N211	N21	0.418760	0.922280	0.630350
N221	N22	0.408280	0.867950	0.674980
N231	N23	0.581240	0.922280	0.369650
N241	N24	0.591720	0.867950	0.325020
N251	N25	0.418760	0.369650	0.922280
N261	N26	0.408280	0.325020	0.867950
N271	N27	0.581240	0.630350	0.922280
N281	N28	0.591720	0.674980	0.867950
N291	N29	0.418760	0.630350	0.077720
N301	N30	0.408280	0.674980	0.132050
N311	N31	0.581240	0.369650	0.077720
N321	N32	0.591720	0.325020	0.132050
N331	N33	0.369650	0.077720	0.581240
N341	N34	0.325020	0.132050	0.591720
N351	N35	0.630350	0.077720	0.418760
N361	N36	0.674980	0.132050	0.408280
N371	N37	0.630350	0.922280	0.581240
N381	N38	0.674980	0.867950	0.591720
N391	N39	0.369650	0.922280	0.418760
N401	N40	0.325020	0.867950	0.408280
N411	N41	0.077720	0.418760	0.630350
N421	N42	0.132050	0.408280	0.674980
N431	N43	0.077720	0.581240	0.369650
N441	N44	0.132050	0.591720	0.325020
N451	N45	0.922280	0.418760	0.369650
N461	N46	0.867950	0.408280	0.325020
N471	N47	0.922280	0.581240	0.630350
N481	N48	0.867950	0.591720	0.674980
N491	N49	0.630350	0.581240	0.922280
N501	N50	0.674980	0.591720	0.867950
N511	N51	0.369650	0.418760	0.922280
N521	N52	0.325020	0.408280	0.867950
N531	N53	0.369650	0.581240	0.077720
N541	N54	0.325020	0.591720	0.132050
N551	N55	0.630350	0.418760	0.077720
N561	N56	0.674980	0.408280	0.132050
N571	N57	0.922280	0.630350	0.581240
N581	N58	0.867950	0.674980	0.591720
N591	N59	0.922280	0.369650	0.418760
N601	N60	0.867950	0.325020	0.408280
N611	N61	0.077720	0.369650	0.581240
N621	N62	0.132050	0.325020	0.591720
N631	N63	0.077720	0.630350	0.418760
N641	N64	0.132050	0.674980	0.408280
N651	N65	0.581240	0.922280	0.630350
N661	N66	0.591720	0.867950	0.674980
N671	N67	0.418760	0.922280	0.369650
N681	N68	0.408280	0.867950	0.325020
N691	N69	0.581240	0.077720	0.369650
N701	N70	0.591720	0.132050	0.325020
N711	N71	0.418760	0.077720	0.630350
N721	N72	0.408280	0.132050	0.674980
N731	N73	0.581240	0.630350	0.077720
N741	N74	0.591720	0.674980	0.132050
N751	N75	0.418760	0.369650	0.077720
N761	N76	0.408280	0.325020	0.132050
N771	N77	0.581240	0.369650	0.922280
N781	N78	0.591720	0.325020	0.867950
N791	N79	0.418760	0.630350	0.922280
N801	N80	0.408280	0.674980	0.867950
N811	N81	0.630350	0.922280	0.418760
N821	N82	0.674980	0.867950	0.408280
N831	N83	0.369650	0.922280	0.581240
N841	N84	0.325020	0.867950	0.591720
N851	N85	0.369650	0.077720	0.418760
N861	N86	0.325020	0.132050	0.408280
N871	N87	0.630350	0.077720	0.581240
N881	N88	0.674980	0.132050	0.591720
N891	N89	0.922280	0.581240	0.369650
N901	N90	0.867950	0.591720	0.325020
N911	N91	0.922280	0.418760	0.630350
N921	N92	0.867950	0.408280	0.674980
N931	N93	0.077720	0.581240	0.630350
N941	N94	0.132050	0.591720	0.674980
N951	N95	0.077720	0.418760	0.369650
N961	N96	0.132050	0.408280	0.325020
Co11	Co1	0.361960	0.500000	0.000000
Co21	Co2	0.638040	0.500000	0.000000
Co31	Co3	0.000000	0.361960	0.500000
Co41	Co4	0.000000	0.638040	0.500000
Co51	Co5	0.500000	0.000000	0.361960
Co61	Co6	0.500000	0.000000	0.638040
Co71	Co7	0.500000	0.361960	0.000000
Co81	Co8	0.500000	0.638040	0.000000
Co91	Co9	0.361960	0.000000	0.500000
Co101	Co10	0.638040	0.000000	0.500000
Co111	Co11	0.000000	0.500000	0.638040
Co121	Co12	0.000000	0.500000	0.361960
C11	C1	0.350060	0.350060	0.164100
C21	C2	0.318180	0.318180	0.227300
C31	C3	0.649940	0.649940	0.164100
C41	C4	0.681820	0.681820	0.227300
C51	C5	0.649940	0.350060	0.835900
C61	C6	0.681820	0.318180	0.772700
C71	C7	0.350060	0.649940	0.835900
C81	C8	0.318180	0.681820	0.772700
C91	C9	0.164100	0.350060	0.350060
C101	C10	0.227300	0.318180	0.318180
C111	C11	0.164100	0.649940	0.649940
C121	C12	0.227300	0.681820	0.681820
C131	C13	0.835900	0.649940	0.350060
C141	C14	0.772700	0.681820	0.318180
C151	C15	0.835900	0.350060	0.649940
C161	C16	0.772700	0.318180	0.681820
C171	C17	0.350060	0.164100	0.350060
C181	C18	0.318180	0.227300	0.318180
C191	C19	0.649940	0.164100	0.649940
C201	C20	0.681820	0.227300	0.681820
C211	C21	0.350060	0.835900	0.649940
C221	C22	0.318180	0.772700	0.681820
C231	C23	0.649940	0.835900	0.350060
C241	C24	0.681820	0.772700	0.318180
C251	C25	0.350060	0.350060	0.835900
C261	C26	0.318180	0.318180	0.772700
C271	C27	0.649940	0.649940	0.835900
C281	C28	0.681820	0.681820	0.772700
C291	C29	0.350060	0.649940	0.164100
C301	C30	0.318180	0.681820	0.227300
C311	C31	0.649940	0.350060	0.164100
C321	C32	0.681820	0.318180	0.227300
C331	C33	0.350060	0.164100	0.649940
C341	C34	0.318180	0.227300	0.681820
C351	C35	0.649940	0.164100	0.350060
C361	C36	0.681820	0.227300	0.318180
C371	C37	0.649940	0.835900	0.649940
C381	C38	0.681820	0.772700	0.681820
C391	C39	0.350060	0.835900	0.350060
C401	C40	0.318180	0.772700	0.318180
C411	C41	0.164100	0.350060	0.649940
C421	C42	0.227300	0.318180	0.681820
C431	C43	0.164100	0.649940	0.350060
C441	C44	0.227300	0.681820	0.318180
C451	C45	0.835900	0.350060	0.350060
C461	C46	0.772700	0.318180	0.318180
C471	C47	0.835900	0.649940	0.649940
C481	C48	0.772700	0.681820	0.681820
C491	C49	0.257460	0.347700	0.257460
H11	H1	0.236800	0.387700	0.236800
C501	C50	0.742540	0.652300	0.257460
H21	H2	0.763200	0.612300	0.236800
C511	C51	0.742540	0.347700	0.742540
H31	H3	0.763200	0.387700	0.763200
C521	C52	0.257460	0.652300	0.742540
H41	H4	0.236800	0.612300	0.763200
C531	C53	0.257460	0.257460	0.347700
H51	H5	0.236800	0.236800	0.387700
C541	C54	0.257460	0.742540	0.652300
H61	H6	0.236800	0.763200	0.612300
C551	C55	0.742540	0.742540	0.347700
H71	H7	0.763200	0.763200	0.387700
C561	C56	0.742540	0.257460	0.652300
H81	H8	0.763200	0.236800	0.612300
C571	C57	0.347700	0.257460	0.257460
H91	H9	0.387700	0.236800	0.236800
C581	C58	0.652300	0.257460	0.742540
H101	H10	0.612300	0.236800	0.763200
C591	C59	0.347700	0.742540	0.742540
H111	H11	0.387700	0.763200	0.763200
C601	C60	0.652300	0.742540	0.257460
H121	H12	0.612300	0.763200	0.236800
C611	C61	0.347700	0.257460	0.742540
H131	H13	0.387700	0.236800	0.763200
C621	C62	0.652300	0.742540	0.742540
H141	H14	0.612300	0.763200	0.763200
C631	C63	0.347700	0.742540	0.257460
H151	H15	0.387700	0.763200	0.236800
C641	C64	0.652300	0.257460	0.257460
H161	H16	0.612300	0.236800	0.236800
C651	C65	0.257460	0.257460	0.652300
H171	H17	0.236800	0.236800	0.612300
C661	C66	0.742540	0.257460	0.347700
H181	H18	0.763200	0.236800	0.387700
C671	C67	0.742540	0.742540	0.652300
H191	H19	0.763200	0.763200	0.612300
C681	C68	0.257460	0.742540	0.347700
H201	H20	0.236800	0.763200	0.387700
C691	C69	0.257460	0.347700	0.742540
H211	H21	0.236800	0.387700	0.763200
C701	C70	0.257460	0.652300	0.257460
H221	H22	0.236800	0.612300	0.236800
C711	C71	0.742540	0.347700	0.257460
H231	H23	0.763200	0.387700	0.236800
C721	C72	0.742540	0.652300	0.742540
H241	H24	0.763200	0.612300	0.763200
