data_BETGEO_clean_PM
_symmetry_space_group_name_H-M	'P1'
_cell_length_a	18.556400
_cell_length_b	18.556400
_cell_length_c	18.556400
_cell_angle_alpha	90.000000
_cell_angle_beta	90.000000
_cell_angle_gamma	90.000000
_symmetry_Int_Tables_number 1

loop_
_symmetry_equiv_pos_as_xyz
'x,y,z'

loop_
_atom_site_label
_atom_site_type_symbol
_atom_site_fract_x
_atom_site_fract_y
_atom_site_fract_z
N11	N1	0.371530	0.421540	0.076290
N21	N2	0.326370	0.410640	0.130580
N31	N3	0.628470	0.578460	0.076290
N41	N4	0.673630	0.589360	0.130580
N51	N5	0.628470	0.421540	0.923710
N61	N6	0.673630	0.410640	0.869420
N71	N7	0.371530	0.578460	0.923710
N81	N8	0.326370	0.589360	0.869420
N91	N9	0.076290	0.371530	0.421540
N101	N10	0.130580	0.326370	0.410640
N111	N11	0.076290	0.628470	0.578460
N121	N12	0.130580	0.673630	0.589360
N131	N13	0.923710	0.628470	0.421540
N141	N14	0.869420	0.673630	0.410640
N151	N15	0.923710	0.371530	0.578460
N161	N16	0.869420	0.326370	0.589360
N171	N17	0.421540	0.076290	0.371530
N181	N18	0.410640	0.130580	0.326370
N191	N19	0.578460	0.076290	0.628470
N201	N20	0.589360	0.130580	0.673630
N211	N21	0.421540	0.923710	0.628470
N221	N22	0.410640	0.869420	0.673630
N231	N23	0.578460	0.923710	0.371530
N241	N24	0.589360	0.869420	0.326370
N251	N25	0.421540	0.371530	0.923710
N261	N26	0.410640	0.326370	0.869420
N271	N27	0.578460	0.628470	0.923710
N281	N28	0.589360	0.673630	0.869420
N291	N29	0.421540	0.628470	0.076290
N301	N30	0.410640	0.673630	0.130580
N311	N31	0.578460	0.371530	0.076290
N321	N32	0.589360	0.326370	0.130580
N331	N33	0.371530	0.076290	0.578460
N341	N34	0.326370	0.130580	0.589360
N351	N35	0.628470	0.076290	0.421540
N361	N36	0.673630	0.130580	0.410640
N371	N37	0.628470	0.923710	0.578460
N381	N38	0.673630	0.869420	0.589360
N391	N39	0.371530	0.923710	0.421540
N401	N40	0.326370	0.869420	0.410640
N411	N41	0.076290	0.421540	0.628470
N421	N42	0.130580	0.410640	0.673630
N431	N43	0.076290	0.578460	0.371530
N441	N44	0.130580	0.589360	0.326370
N451	N45	0.923710	0.421540	0.371530
N461	N46	0.869420	0.410640	0.326370
N471	N47	0.923710	0.578460	0.628470
N481	N48	0.869420	0.589360	0.673630
N491	N49	0.628470	0.578460	0.923710
N501	N50	0.673630	0.589360	0.869420
N511	N51	0.371530	0.421540	0.923710
N521	N52	0.326370	0.410640	0.869420
N531	N53	0.371530	0.578460	0.076290
N541	N54	0.326370	0.589360	0.130580
N551	N55	0.628470	0.421540	0.076290
N561	N56	0.673630	0.410640	0.130580
N571	N57	0.923710	0.628470	0.578460
N581	N58	0.869420	0.673630	0.589360
N591	N59	0.923710	0.371530	0.421540
N601	N60	0.869420	0.326370	0.410640
N611	N61	0.076290	0.371530	0.578460
N621	N62	0.130580	0.326370	0.589360
N631	N63	0.076290	0.628470	0.421540
N641	N64	0.130580	0.673630	0.410640
N651	N65	0.578460	0.923710	0.628470
N661	N66	0.589360	0.869420	0.673630
N671	N67	0.421540	0.923710	0.371530
N681	N68	0.410640	0.869420	0.326370
N691	N69	0.578460	0.076290	0.371530
N701	N70	0.589360	0.130580	0.326370
N711	N71	0.421540	0.076290	0.628470
N721	N72	0.410640	0.130580	0.673630
N731	N73	0.578460	0.628470	0.076290
N741	N74	0.589360	0.673630	0.130580
N751	N75	0.421540	0.371530	0.076290
N761	N76	0.410640	0.326370	0.130580
N771	N77	0.578460	0.371530	0.923710
N781	N78	0.589360	0.326370	0.869420
N791	N79	0.421540	0.628470	0.923710
N801	N80	0.410640	0.673630	0.869420
N811	N81	0.628470	0.923710	0.421540
N821	N82	0.673630	0.869420	0.410640
N831	N83	0.371530	0.923710	0.578460
N841	N84	0.326370	0.869420	0.589360
N851	N85	0.371530	0.076290	0.421540
N861	N86	0.326370	0.130580	0.410640
N871	N87	0.628470	0.076290	0.578460
N881	N88	0.673630	0.130580	0.589360
N891	N89	0.923710	0.578460	0.371530
N901	N90	0.869420	0.589360	0.326370
N911	N91	0.923710	0.421540	0.628470
N921	N92	0.869420	0.410640	0.673630
N931	N93	0.076290	0.578460	0.628470
N941	N94	0.130580	0.589360	0.673630
N951	N95	0.076290	0.421540	0.371530
N961	N96	0.130580	0.410640	0.326370
Ni11	Ni1	0.366470	0.500000	0.000000
Ni21	Ni2	0.633530	0.500000	0.000000
Ni31	Ni3	0.000000	0.366470	0.500000
Ni41	Ni4	0.000000	0.633530	0.500000
Ni51	Ni5	0.500000	0.000000	0.366470
Ni61	Ni6	0.500000	0.000000	0.633530
Ni71	Ni7	0.500000	0.366470	0.000000
Ni81	Ni8	0.500000	0.633530	0.000000
Ni91	Ni9	0.366470	0.000000	0.500000
Ni101	Ni10	0.633530	0.000000	0.500000
Ni111	Ni11	0.000000	0.500000	0.633530
Ni121	Ni12	0.000000	0.500000	0.366470
C11	C1	0.351100	0.351100	0.162600
C21	C2	0.317000	0.317000	0.225500
C31	C3	0.648900	0.648900	0.162600
C41	C4	0.683000	0.683000	0.225500
C51	C5	0.648900	0.351100	0.837400
C61	C6	0.683000	0.317000	0.774500
C71	C7	0.351100	0.648900	0.837400
C81	C8	0.317000	0.683000	0.774500
C91	C9	0.162600	0.351100	0.351100
C101	C10	0.225500	0.317000	0.317000
C111	C11	0.162600	0.648900	0.648900
C121	C12	0.225500	0.683000	0.683000
C131	C13	0.837400	0.648900	0.351100
C141	C14	0.774500	0.683000	0.317000
C151	C15	0.837400	0.351100	0.648900
C161	C16	0.774500	0.317000	0.683000
C171	C17	0.351100	0.162600	0.351100
C181	C18	0.317000	0.225500	0.317000
C191	C19	0.648900	0.162600	0.648900
C201	C20	0.683000	0.225500	0.683000
C211	C21	0.351100	0.837400	0.648900
C221	C22	0.317000	0.774500	0.683000
C231	C23	0.648900	0.837400	0.351100
C241	C24	0.683000	0.774500	0.317000
C251	C25	0.351100	0.351100	0.837400
C261	C26	0.317000	0.317000	0.774500
C271	C27	0.648900	0.648900	0.837400
C281	C28	0.683000	0.683000	0.774500
C291	C29	0.351100	0.648900	0.162600
C301	C30	0.317000	0.683000	0.225500
C311	C31	0.648900	0.351100	0.162600
C321	C32	0.683000	0.317000	0.225500
C331	C33	0.351100	0.162600	0.648900
C341	C34	0.317000	0.225500	0.683000
C351	C35	0.648900	0.162600	0.351100
C361	C36	0.683000	0.225500	0.317000
C371	C37	0.648900	0.837400	0.648900
C381	C38	0.683000	0.774500	0.683000
C391	C39	0.351100	0.837400	0.351100
C401	C40	0.317000	0.774500	0.317000
C411	C41	0.162600	0.351100	0.648900
C421	C42	0.225500	0.317000	0.683000
C431	C43	0.162600	0.648900	0.351100
C441	C44	0.225500	0.683000	0.317000
C451	C45	0.837400	0.351100	0.351100
C461	C46	0.774500	0.317000	0.317000
C471	C47	0.837400	0.648900	0.648900
C481	C48	0.774500	0.683000	0.683000
C491	C49	0.255800	0.348100	0.255800
H11	H1	0.235500	0.389100	0.235500
C501	C50	0.744200	0.651900	0.255800
H21	H2	0.764500	0.610900	0.235500
C511	C51	0.744200	0.348100	0.744200
H31	H3	0.764500	0.389100	0.764500
C521	C52	0.255800	0.651900	0.744200
H41	H4	0.235500	0.610900	0.764500
C531	C53	0.255800	0.255800	0.348100
H51	H5	0.235500	0.235500	0.389100
C541	C54	0.255800	0.744200	0.651900
H61	H6	0.235500	0.764500	0.610900
C551	C55	0.744200	0.744200	0.348100
H71	H7	0.764500	0.764500	0.389100
C561	C56	0.744200	0.255800	0.651900
H81	H8	0.764500	0.235500	0.610900
C571	C57	0.348100	0.255800	0.255800
H91	H9	0.389100	0.235500	0.235500
C581	C58	0.651900	0.255800	0.744200
H101	H10	0.610900	0.235500	0.764500
C591	C59	0.348100	0.744200	0.744200
H111	H11	0.389100	0.764500	0.764500
C601	C60	0.651900	0.744200	0.255800
H121	H12	0.610900	0.764500	0.235500
C611	C61	0.348100	0.255800	0.744200
H131	H13	0.389100	0.235500	0.764500
C621	C62	0.651900	0.744200	0.744200
H141	H14	0.610900	0.764500	0.764500
C631	C63	0.348100	0.744200	0.255800
H151	H15	0.389100	0.764500	0.235500
C641	C64	0.651900	0.255800	0.255800
H161	H16	0.610900	0.235500	0.235500
C651	C65	0.255800	0.255800	0.651900
H171	H17	0.235500	0.235500	0.610900
C661	C66	0.744200	0.255800	0.348100
H181	H18	0.764500	0.235500	0.389100
C671	C67	0.744200	0.744200	0.651900
H191	H19	0.764500	0.764500	0.610900
C681	C68	0.255800	0.744200	0.348100
H201	H20	0.235500	0.764500	0.389100
C691	C69	0.255800	0.348100	0.744200
H211	H21	0.235500	0.389100	0.764500
C701	C70	0.255800	0.651900	0.255800
H221	H22	0.235500	0.610900	0.235500
C711	C71	0.744200	0.348100	0.255800
H231	H23	0.764500	0.389100	0.235500
C721	C72	0.744200	0.651900	0.744200
H241	H24	0.764500	0.610900	0.764500
Cl11	Cl1	0.500000	0.500000	0.000000
Cl21	Cl2	0.000000	0.500000	0.500000
Cl31	Cl3	0.500000	0.000000	0.500000
O11	O1	0.153900	0.500000	0.153900
Cl41	Cl4	0.271200	0.500000	0.271200
O21	O2	0.846100	0.500000	0.153900
Cl51	Cl5	0.728800	0.500000	0.271200
O31	O3	0.846100	0.500000	0.846100
Cl61	Cl6	0.728800	0.500000	0.728800
O41	O4	0.153900	0.500000	0.846100
Cl71	Cl7	0.271200	0.500000	0.728800
O51	O5	0.153900	0.153900	0.500000
Cl81	Cl8	0.271200	0.271200	0.500000
O61	O6	0.153900	0.846100	0.500000
Cl91	Cl9	0.271200	0.728800	0.500000
O71	O7	0.846100	0.846100	0.500000
Cl101	Cl10	0.728800	0.728800	0.500000
O81	O8	0.846100	0.153900	0.500000
Cl111	Cl11	0.728800	0.271200	0.500000
O91	O9	0.500000	0.153900	0.153900
Cl121	Cl12	0.500000	0.271200	0.271200
O101	O10	0.500000	0.153900	0.846100
Cl131	Cl13	0.500000	0.271200	0.728800
O111	O11	0.500000	0.846100	0.846100
Cl141	Cl14	0.500000	0.728800	0.728800
O121	O12	0.500000	0.846100	0.153900
Cl151	Cl15	0.500000	0.728800	0.271200
Ni131	Ni13	0.260480	0.500000	0.140520
Ni141	Ni14	0.739520	0.500000	0.140520
Ni151	Ni15	0.739520	0.500000	0.859480
Ni161	Ni16	0.260480	0.500000	0.859480
Ni171	Ni17	0.140520	0.260480	0.500000
Ni181	Ni18	0.140520	0.739520	0.500000
Ni191	Ni19	0.859480	0.739520	0.500000
Ni201	Ni20	0.859480	0.260480	0.500000
Ni211	Ni21	0.500000	0.140520	0.260480
Ni221	Ni22	0.500000	0.140520	0.739520
Ni231	Ni23	0.500000	0.859480	0.739520
Ni241	Ni24	0.500000	0.859480	0.260480
Ni251	Ni25	0.500000	0.260480	0.859480
Ni261	Ni26	0.500000	0.739520	0.859480
Ni271	Ni27	0.500000	0.739520	0.140520
Ni281	Ni28	0.500000	0.260480	0.140520
Ni291	Ni29	0.260480	0.140520	0.500000
Ni301	Ni30	0.739520	0.140520	0.500000
Ni311	Ni31	0.739520	0.859480	0.500000
Ni321	Ni32	0.260480	0.859480	0.500000
Ni331	Ni33	0.140520	0.500000	0.739520
Ni341	Ni34	0.140520	0.500000	0.260480
Ni351	Ni35	0.859480	0.500000	0.260480
Ni361	Ni36	0.859480	0.500000	0.739520
