data_BETGIS_clean_PM
_symmetry_space_group_name_H-M	'P1'
_cell_length_a	18.648300
_cell_length_b	18.648300
_cell_length_c	18.648300
_cell_angle_alpha	90.000000
_cell_angle_beta	90.000000
_cell_angle_gamma	90.000000
_symmetry_Int_Tables_number 1

loop_
_symmetry_equiv_pos_as_xyz
'x,y,z'

loop_
_atom_site_label
_atom_site_type_symbol
_atom_site_fract_x
_atom_site_fract_y
_atom_site_fract_z
N11	N1	0.371030	0.420350	0.077020
N21	N2	0.326130	0.410400	0.131750
N31	N3	0.628970	0.579650	0.077020
N41	N4	0.673870	0.589600	0.131750
N51	N5	0.628970	0.420350	0.922980
N61	N6	0.673870	0.410400	0.868250
N71	N7	0.371030	0.579650	0.922980
N81	N8	0.326130	0.589600	0.868250
N91	N9	0.077020	0.371030	0.420350
N101	N10	0.131750	0.326130	0.410400
N111	N11	0.077020	0.628970	0.579650
N121	N12	0.131750	0.673870	0.589600
N131	N13	0.922980	0.628970	0.420350
N141	N14	0.868250	0.673870	0.410400
N151	N15	0.922980	0.371030	0.579650
N161	N16	0.868250	0.326130	0.589600
N171	N17	0.420350	0.077020	0.371030
N181	N18	0.410400	0.131750	0.326130
N191	N19	0.579650	0.077020	0.628970
N201	N20	0.589600	0.131750	0.673870
N211	N21	0.420350	0.922980	0.628970
N221	N22	0.410400	0.868250	0.673870
N231	N23	0.579650	0.922980	0.371030
N241	N24	0.589600	0.868250	0.326130
N251	N25	0.420350	0.371030	0.922980
N261	N26	0.410400	0.326130	0.868250
N271	N27	0.579650	0.628970	0.922980
N281	N28	0.589600	0.673870	0.868250
N291	N29	0.420350	0.628970	0.077020
N301	N30	0.410400	0.673870	0.131750
N311	N31	0.579650	0.371030	0.077020
N321	N32	0.589600	0.326130	0.131750
N331	N33	0.371030	0.077020	0.579650
N341	N34	0.326130	0.131750	0.589600
N351	N35	0.628970	0.077020	0.420350
N361	N36	0.673870	0.131750	0.410400
N371	N37	0.628970	0.922980	0.579650
N381	N38	0.673870	0.868250	0.589600
N391	N39	0.371030	0.922980	0.420350
N401	N40	0.326130	0.868250	0.410400
N411	N41	0.077020	0.420350	0.628970
N421	N42	0.131750	0.410400	0.673870
N431	N43	0.077020	0.579650	0.371030
N441	N44	0.131750	0.589600	0.326130
N451	N45	0.922980	0.420350	0.371030
N461	N46	0.868250	0.410400	0.326130
N471	N47	0.922980	0.579650	0.628970
N481	N48	0.868250	0.589600	0.673870
N491	N49	0.628970	0.579650	0.922980
N501	N50	0.673870	0.589600	0.868250
N511	N51	0.371030	0.420350	0.922980
N521	N52	0.326130	0.410400	0.868250
N531	N53	0.371030	0.579650	0.077020
N541	N54	0.326130	0.589600	0.131750
N551	N55	0.628970	0.420350	0.077020
N561	N56	0.673870	0.410400	0.131750
N571	N57	0.922980	0.628970	0.579650
N581	N58	0.868250	0.673870	0.589600
N591	N59	0.922980	0.371030	0.420350
N601	N60	0.868250	0.326130	0.410400
N611	N61	0.077020	0.371030	0.579650
N621	N62	0.131750	0.326130	0.589600
N631	N63	0.077020	0.628970	0.420350
N641	N64	0.131750	0.673870	0.410400
N651	N65	0.579650	0.922980	0.628970
N661	N66	0.589600	0.868250	0.673870
N671	N67	0.420350	0.922980	0.371030
N681	N68	0.410400	0.868250	0.326130
N691	N69	0.579650	0.077020	0.371030
N701	N70	0.589600	0.131750	0.326130
N711	N71	0.420350	0.077020	0.628970
N721	N72	0.410400	0.131750	0.673870
N731	N73	0.579650	0.628970	0.077020
N741	N74	0.589600	0.673870	0.131750
N751	N75	0.420350	0.371030	0.077020
N761	N76	0.410400	0.326130	0.131750
N771	N77	0.579650	0.371030	0.922980
N781	N78	0.589600	0.326130	0.868250
N791	N79	0.420350	0.628970	0.922980
N801	N80	0.410400	0.673870	0.868250
N811	N81	0.628970	0.922980	0.420350
N821	N82	0.673870	0.868250	0.410400
N831	N83	0.371030	0.922980	0.579650
N841	N84	0.326130	0.868250	0.589600
N851	N85	0.371030	0.077020	0.420350
N861	N86	0.326130	0.131750	0.410400
N871	N87	0.628970	0.077020	0.579650
N881	N88	0.673870	0.131750	0.589600
N891	N89	0.922980	0.579650	0.371030
N901	N90	0.868250	0.589600	0.326130
N911	N91	0.922980	0.420350	0.628970
N921	N92	0.868250	0.410400	0.673870
N931	N93	0.077020	0.579650	0.628970
N941	N94	0.131750	0.589600	0.673870
N951	N95	0.077020	0.420350	0.371030
N961	N96	0.131750	0.410400	0.326130
Ni11	Ni1	0.365640	0.500000	0.000000
Ni21	Ni2	0.634360	0.500000	0.000000
Ni31	Ni3	0.000000	0.365640	0.500000
Ni41	Ni4	0.000000	0.634360	0.500000
Ni51	Ni5	0.500000	0.000000	0.365640
Ni61	Ni6	0.500000	0.000000	0.634360
Ni71	Ni7	0.500000	0.365640	0.000000
Ni81	Ni8	0.500000	0.634360	0.000000
Ni91	Ni9	0.365640	0.000000	0.500000
Ni101	Ni10	0.634360	0.000000	0.500000
Ni111	Ni11	0.000000	0.500000	0.634360
Ni121	Ni12	0.000000	0.500000	0.365640
Cl11	Cl1	0.500000	0.500000	0.000000
Cl21	Cl2	0.000000	0.500000	0.500000
Cl31	Cl3	0.500000	0.000000	0.500000
C11	C1	0.351860	0.351860	0.164300
C21	C2	0.318950	0.318950	0.227500
C31	C3	0.648140	0.648140	0.164300
C41	C4	0.681050	0.681050	0.227500
C51	C5	0.648140	0.351860	0.835700
C61	C6	0.681050	0.318950	0.772500
C71	C7	0.351860	0.648140	0.835700
C81	C8	0.318950	0.681050	0.772500
C91	C9	0.164300	0.351860	0.351860
C101	C10	0.227500	0.318950	0.318950
C111	C11	0.164300	0.648140	0.648140
C121	C12	0.227500	0.681050	0.681050
C131	C13	0.835700	0.648140	0.351860
C141	C14	0.772500	0.681050	0.318950
C151	C15	0.835700	0.351860	0.648140
C161	C16	0.772500	0.318950	0.681050
C171	C17	0.351860	0.164300	0.351860
C181	C18	0.318950	0.227500	0.318950
C191	C19	0.648140	0.164300	0.648140
C201	C20	0.681050	0.227500	0.681050
C211	C21	0.351860	0.835700	0.648140
C221	C22	0.318950	0.772500	0.681050
C231	C23	0.648140	0.835700	0.351860
C241	C24	0.681050	0.772500	0.318950
C251	C25	0.351860	0.351860	0.835700
C261	C26	0.318950	0.318950	0.772500
C271	C27	0.648140	0.648140	0.835700
C281	C28	0.681050	0.681050	0.772500
C291	C29	0.351860	0.648140	0.164300
C301	C30	0.318950	0.681050	0.227500
C311	C31	0.648140	0.351860	0.164300
C321	C32	0.681050	0.318950	0.227500
C331	C33	0.351860	0.164300	0.648140
C341	C34	0.318950	0.227500	0.681050
C351	C35	0.648140	0.164300	0.351860
C361	C36	0.681050	0.227500	0.318950
C371	C37	0.648140	0.835700	0.648140
C381	C38	0.681050	0.772500	0.681050
C391	C39	0.351860	0.835700	0.351860
C401	C40	0.318950	0.772500	0.318950
C411	C41	0.164300	0.351860	0.648140
C421	C42	0.227500	0.318950	0.681050
C431	C43	0.164300	0.648140	0.351860
C441	C44	0.227500	0.681050	0.318950
C451	C45	0.835700	0.351860	0.351860
C461	C46	0.772500	0.318950	0.318950
C471	C47	0.835700	0.648140	0.648140
C481	C48	0.772500	0.681050	0.681050
C491	C49	0.258790	0.349700	0.258790
H11	H1	0.239300	0.391300	0.239300
Cl41	Cl4	0.142600	0.424000	0.142600
C501	C50	0.741210	0.650300	0.258790
H21	H2	0.760700	0.608700	0.239300
Cl51	Cl5	0.857400	0.576000	0.142600
C511	C51	0.741210	0.349700	0.741210
H31	H3	0.760700	0.391300	0.760700
Cl61	Cl6	0.857400	0.424000	0.857400
C521	C52	0.258790	0.650300	0.741210
H41	H4	0.239300	0.608700	0.760700
Cl71	Cl7	0.142600	0.576000	0.857400
C531	C53	0.258790	0.258790	0.349700
H51	H5	0.239300	0.239300	0.391300
Cl81	Cl8	0.142600	0.142600	0.424000
C541	C54	0.258790	0.741210	0.650300
H61	H6	0.239300	0.760700	0.608700
Cl91	Cl9	0.142600	0.857400	0.576000
C551	C55	0.741210	0.741210	0.349700
H71	H7	0.760700	0.760700	0.391300
Cl101	Cl10	0.857400	0.857400	0.424000
C561	C56	0.741210	0.258790	0.650300
H81	H8	0.760700	0.239300	0.608700
Cl111	Cl11	0.857400	0.142600	0.576000
C571	C57	0.349700	0.258790	0.258790
H91	H9	0.391300	0.239300	0.239300
Cl121	Cl12	0.424000	0.142600	0.142600
C581	C58	0.650300	0.258790	0.741210
H101	H10	0.608700	0.239300	0.760700
Cl131	Cl13	0.576000	0.142600	0.857400
C591	C59	0.349700	0.741210	0.741210
H111	H11	0.391300	0.760700	0.760700
Cl141	Cl14	0.424000	0.857400	0.857400
C601	C60	0.650300	0.741210	0.258790
H121	H12	0.608700	0.760700	0.239300
Cl151	Cl15	0.576000	0.857400	0.142600
C611	C61	0.349700	0.258790	0.741210
H131	H13	0.391300	0.239300	0.760700
Cl161	Cl16	0.424000	0.142600	0.857400
C621	C62	0.650300	0.741210	0.741210
H141	H14	0.608700	0.760700	0.760700
Cl171	Cl17	0.576000	0.857400	0.857400
C631	C63	0.349700	0.741210	0.258790
H151	H15	0.391300	0.760700	0.239300
Cl181	Cl18	0.424000	0.857400	0.142600
C641	C64	0.650300	0.258790	0.258790
H161	H16	0.608700	0.239300	0.239300
Cl191	Cl19	0.576000	0.142600	0.142600
C651	C65	0.258790	0.258790	0.650300
H171	H17	0.239300	0.239300	0.608700
Cl201	Cl20	0.142600	0.142600	0.576000
C661	C66	0.741210	0.258790	0.349700
H181	H18	0.760700	0.239300	0.391300
Cl211	Cl21	0.857400	0.142600	0.424000
C671	C67	0.741210	0.741210	0.650300
H191	H19	0.760700	0.760700	0.608700
Cl221	Cl22	0.857400	0.857400	0.576000
C681	C68	0.258790	0.741210	0.349700
H201	H20	0.239300	0.760700	0.391300
Cl231	Cl23	0.142600	0.857400	0.424000
C691	C69	0.258790	0.349700	0.741210
H211	H21	0.239300	0.391300	0.760700
Cl241	Cl24	0.142600	0.424000	0.857400
C701	C70	0.258790	0.650300	0.258790
H221	H22	0.239300	0.608700	0.239300
Cl251	Cl25	0.142600	0.576000	0.142600
C711	C71	0.741210	0.349700	0.258790
H231	H23	0.760700	0.391300	0.239300
Cl261	Cl26	0.857400	0.424000	0.142600
C721	C72	0.741210	0.650300	0.741210
H241	H24	0.760700	0.608700	0.760700
Cl271	Cl27	0.857400	0.576000	0.857400
Ni131	Ni13	0.248600	0.500000	0.134270
Ni141	Ni14	0.751400	0.500000	0.134270
Ni151	Ni15	0.751400	0.500000	0.865730
Ni161	Ni16	0.248600	0.500000	0.865730
Ni171	Ni17	0.134270	0.248600	0.500000
Ni181	Ni18	0.134270	0.751400	0.500000
Ni191	Ni19	0.865730	0.751400	0.500000
Ni201	Ni20	0.865730	0.248600	0.500000
Ni211	Ni21	0.500000	0.134270	0.248600
Ni221	Ni22	0.500000	0.134270	0.751400
Ni231	Ni23	0.500000	0.865730	0.751400
Ni241	Ni24	0.500000	0.865730	0.248600
Ni251	Ni25	0.500000	0.248600	0.865730
Ni261	Ni26	0.500000	0.751400	0.865730
Ni271	Ni27	0.500000	0.751400	0.134270
Ni281	Ni28	0.500000	0.248600	0.134270
Ni291	Ni29	0.248600	0.134270	0.500000
Ni301	Ni30	0.751400	0.134270	0.500000
Ni311	Ni31	0.751400	0.865730	0.500000
Ni321	Ni32	0.248600	0.865730	0.500000
Ni331	Ni33	0.134270	0.500000	0.751400
Ni341	Ni34	0.134270	0.500000	0.248600
Ni351	Ni35	0.865730	0.500000	0.248600
Ni361	Ni36	0.865730	0.500000	0.751400
