data_BETGOY_clean_PM
_symmetry_space_group_name_H-M	'P1'
_cell_length_a	18.501500
_cell_length_b	18.501500
_cell_length_c	18.501500
_cell_angle_alpha	90.000000
_cell_angle_beta	90.000000
_cell_angle_gamma	90.000000
_symmetry_Int_Tables_number 1

loop_
_symmetry_equiv_pos_as_xyz
'x,y,z'

loop_
_atom_site_label
_atom_site_type_symbol
_atom_site_fract_x
_atom_site_fract_y
_atom_site_fract_z
N11	N1	0.371300	0.421500	0.075000
N21	N2	0.325800	0.410300	0.129200
N31	N3	0.628700	0.578500	0.075000
N41	N4	0.674200	0.589700	0.129200
N51	N5	0.628700	0.421500	0.925000
N61	N6	0.674200	0.410300	0.870800
N71	N7	0.371300	0.578500	0.925000
N81	N8	0.325800	0.589700	0.870800
N91	N9	0.075000	0.371300	0.421500
N101	N10	0.129200	0.325800	0.410300
N111	N11	0.075000	0.628700	0.578500
N121	N12	0.129200	0.674200	0.589700
N131	N13	0.925000	0.628700	0.421500
N141	N14	0.870800	0.674200	0.410300
N151	N15	0.925000	0.371300	0.578500
N161	N16	0.870800	0.325800	0.589700
N171	N17	0.421500	0.075000	0.371300
N181	N18	0.410300	0.129200	0.325800
N191	N19	0.578500	0.075000	0.628700
N201	N20	0.589700	0.129200	0.674200
N211	N21	0.421500	0.925000	0.628700
N221	N22	0.410300	0.870800	0.674200
N231	N23	0.578500	0.925000	0.371300
N241	N24	0.589700	0.870800	0.325800
N251	N25	0.421500	0.371300	0.925000
N261	N26	0.410300	0.325800	0.870800
N271	N27	0.578500	0.628700	0.925000
N281	N28	0.589700	0.674200	0.870800
N291	N29	0.421500	0.628700	0.075000
N301	N30	0.410300	0.674200	0.129200
N311	N31	0.578500	0.371300	0.075000
N321	N32	0.589700	0.325800	0.129200
N331	N33	0.371300	0.075000	0.578500
N341	N34	0.325800	0.129200	0.589700
N351	N35	0.628700	0.075000	0.421500
N361	N36	0.674200	0.129200	0.410300
N371	N37	0.628700	0.925000	0.578500
N381	N38	0.674200	0.870800	0.589700
N391	N39	0.371300	0.925000	0.421500
N401	N40	0.325800	0.870800	0.410300
N411	N41	0.075000	0.421500	0.628700
N421	N42	0.129200	0.410300	0.674200
N431	N43	0.075000	0.578500	0.371300
N441	N44	0.129200	0.589700	0.325800
N451	N45	0.925000	0.421500	0.371300
N461	N46	0.870800	0.410300	0.325800
N471	N47	0.925000	0.578500	0.628700
N481	N48	0.870800	0.589700	0.674200
N491	N49	0.628700	0.578500	0.925000
N501	N50	0.674200	0.589700	0.870800
N511	N51	0.371300	0.421500	0.925000
N521	N52	0.325800	0.410300	0.870800
N531	N53	0.371300	0.578500	0.075000
N541	N54	0.325800	0.589700	0.129200
N551	N55	0.628700	0.421500	0.075000
N561	N56	0.674200	0.410300	0.129200
N571	N57	0.925000	0.628700	0.578500
N581	N58	0.870800	0.674200	0.589700
N591	N59	0.925000	0.371300	0.421500
N601	N60	0.870800	0.325800	0.410300
N611	N61	0.075000	0.371300	0.578500
N621	N62	0.129200	0.325800	0.589700
N631	N63	0.075000	0.628700	0.421500
N641	N64	0.129200	0.674200	0.410300
N651	N65	0.578500	0.925000	0.628700
N661	N66	0.589700	0.870800	0.674200
N671	N67	0.421500	0.925000	0.371300
N681	N68	0.410300	0.870800	0.325800
N691	N69	0.578500	0.075000	0.371300
N701	N70	0.589700	0.129200	0.325800
N711	N71	0.421500	0.075000	0.628700
N721	N72	0.410300	0.129200	0.674200
N731	N73	0.578500	0.628700	0.075000
N741	N74	0.589700	0.674200	0.129200
N751	N75	0.421500	0.371300	0.075000
N761	N76	0.410300	0.325800	0.129200
N771	N77	0.578500	0.371300	0.925000
N781	N78	0.589700	0.325800	0.870800
N791	N79	0.421500	0.628700	0.925000
N801	N80	0.410300	0.674200	0.870800
N811	N81	0.628700	0.925000	0.421500
N821	N82	0.674200	0.870800	0.410300
N831	N83	0.371300	0.925000	0.578500
N841	N84	0.325800	0.870800	0.589700
N851	N85	0.371300	0.075000	0.421500
N861	N86	0.325800	0.129200	0.410300
N871	N87	0.628700	0.075000	0.578500
N881	N88	0.674200	0.129200	0.589700
N891	N89	0.925000	0.578500	0.371300
N901	N90	0.870800	0.589700	0.325800
N911	N91	0.925000	0.421500	0.628700
N921	N92	0.870800	0.410300	0.674200
N931	N93	0.075000	0.578500	0.628700
N941	N94	0.129200	0.589700	0.674200
N951	N95	0.075000	0.421500	0.371300
N961	N96	0.129200	0.410300	0.325800
Co11	Co1	0.366740	0.500000	0.000000
Cl11	Cl1	0.240300	0.500000	0.000000
Co21	Co2	0.633260	0.500000	0.000000
Cl21	Cl2	0.759700	0.500000	0.000000
Co31	Co3	0.000000	0.366740	0.500000
Cl31	Cl3	0.000000	0.240300	0.500000
Co41	Co4	0.000000	0.633260	0.500000
Cl41	Cl4	0.000000	0.759700	0.500000
Co51	Co5	0.500000	0.000000	0.366740
Cl51	Cl5	0.500000	0.000000	0.240300
Co61	Co6	0.500000	0.000000	0.633260
Cl61	Cl6	0.500000	0.000000	0.759700
Co71	Co7	0.500000	0.366740	0.000000
Cl71	Cl7	0.500000	0.240300	0.000000
Co81	Co8	0.500000	0.633260	0.000000
Cl81	Cl8	0.500000	0.759700	0.000000
Co91	Co9	0.366740	0.000000	0.500000
Cl91	Cl9	0.240300	0.000000	0.500000
Co101	Co10	0.633260	0.000000	0.500000
Cl101	Cl10	0.759700	0.000000	0.500000
Co111	Co11	0.000000	0.500000	0.633260
Cl111	Cl11	0.000000	0.500000	0.759700
Co121	Co12	0.000000	0.500000	0.366740
Cl121	Cl12	0.000000	0.500000	0.240300
Cl131	Cl13	0.500000	0.500000	0.000000
Cl141	Cl14	0.000000	0.500000	0.500000
Cl151	Cl15	0.500000	0.000000	0.500000
C11	C1	0.350700	0.350700	0.161800
C21	C2	0.316900	0.316900	0.225700
C31	C3	0.649300	0.649300	0.161800
C41	C4	0.683100	0.683100	0.225700
C51	C5	0.649300	0.350700	0.838200
C61	C6	0.683100	0.316900	0.774300
C71	C7	0.350700	0.649300	0.838200
C81	C8	0.316900	0.683100	0.774300
C91	C9	0.161800	0.350700	0.350700
C101	C10	0.225700	0.316900	0.316900
C111	C11	0.161800	0.649300	0.649300
C121	C12	0.225700	0.683100	0.683100
C131	C13	0.838200	0.649300	0.350700
C141	C14	0.774300	0.683100	0.316900
C151	C15	0.838200	0.350700	0.649300
C161	C16	0.774300	0.316900	0.683100
C171	C17	0.350700	0.161800	0.350700
C181	C18	0.316900	0.225700	0.316900
C191	C19	0.649300	0.161800	0.649300
C201	C20	0.683100	0.225700	0.683100
C211	C21	0.350700	0.838200	0.649300
C221	C22	0.316900	0.774300	0.683100
C231	C23	0.649300	0.838200	0.350700
C241	C24	0.683100	0.774300	0.316900
C251	C25	0.350700	0.350700	0.838200
C261	C26	0.316900	0.316900	0.774300
C271	C27	0.649300	0.649300	0.838200
C281	C28	0.683100	0.683100	0.774300
C291	C29	0.350700	0.649300	0.161800
C301	C30	0.316900	0.683100	0.225700
C311	C31	0.649300	0.350700	0.161800
C321	C32	0.683100	0.316900	0.225700
C331	C33	0.350700	0.161800	0.649300
C341	C34	0.316900	0.225700	0.683100
C351	C35	0.649300	0.161800	0.350700
C361	C36	0.683100	0.225700	0.316900
C371	C37	0.649300	0.838200	0.649300
C381	C38	0.683100	0.774300	0.683100
C391	C39	0.350700	0.838200	0.350700
C401	C40	0.316900	0.774300	0.316900
C411	C41	0.161800	0.350700	0.649300
C421	C42	0.225700	0.316900	0.683100
C431	C43	0.161800	0.649300	0.350700
C441	C44	0.225700	0.683100	0.316900
C451	C45	0.838200	0.350700	0.350700
C461	C46	0.774300	0.316900	0.316900
C471	C47	0.838200	0.649300	0.649300
C481	C48	0.774300	0.683100	0.683100
C491	C49	0.257500	0.347700	0.257500
H11	H1	0.238400	0.390100	0.238400
C501	C50	0.742500	0.652300	0.257500
H21	H2	0.761600	0.609900	0.238400
C511	C51	0.742500	0.347700	0.742500
H31	H3	0.761600	0.390100	0.761600
C521	C52	0.257500	0.652300	0.742500
H41	H4	0.238400	0.609900	0.761600
C531	C53	0.257500	0.257500	0.347700
H51	H5	0.238400	0.238400	0.390100
C541	C54	0.257500	0.742500	0.652300
H61	H6	0.238400	0.761600	0.609900
C551	C55	0.742500	0.742500	0.347700
H71	H7	0.761600	0.761600	0.390100
C561	C56	0.742500	0.257500	0.652300
H81	H8	0.761600	0.238400	0.609900
C571	C57	0.347700	0.257500	0.257500
H91	H9	0.390100	0.238400	0.238400
C581	C58	0.652300	0.257500	0.742500
H101	H10	0.609900	0.238400	0.761600
C591	C59	0.347700	0.742500	0.742500
H111	H11	0.390100	0.761600	0.761600
C601	C60	0.652300	0.742500	0.257500
H121	H12	0.609900	0.761600	0.238400
C611	C61	0.347700	0.257500	0.742500
H131	H13	0.390100	0.238400	0.761600
C621	C62	0.652300	0.742500	0.742500
H141	H14	0.609900	0.761600	0.761600
C631	C63	0.347700	0.742500	0.257500
H151	H15	0.390100	0.761600	0.238400
C641	C64	0.652300	0.257500	0.257500
H161	H16	0.609900	0.238400	0.238400
C651	C65	0.257500	0.257500	0.652300
H171	H17	0.238400	0.238400	0.609900
C661	C66	0.742500	0.257500	0.347700
H181	H18	0.761600	0.238400	0.390100
C671	C67	0.742500	0.742500	0.652300
H191	H19	0.761600	0.761600	0.609900
C681	C68	0.257500	0.742500	0.347700
H201	H20	0.238400	0.761600	0.390100
C691	C69	0.257500	0.347700	0.742500
H211	H21	0.238400	0.390100	0.761600
C701	C70	0.257500	0.652300	0.257500
H221	H22	0.238400	0.609900	0.238400
C711	C71	0.742500	0.347700	0.257500
H231	H23	0.761600	0.390100	0.238400
C721	C72	0.742500	0.652300	0.742500
H241	H24	0.761600	0.609900	0.761600
Co131	Co13	0.268100	0.500000	0.148400
Co141	Co14	0.731900	0.500000	0.148400
Co151	Co15	0.731900	0.500000	0.851600
Co161	Co16	0.268100	0.500000	0.851600
Co171	Co17	0.148400	0.268100	0.500000
Co181	Co18	0.148400	0.731900	0.500000
Co191	Co19	0.851600	0.731900	0.500000
Co201	Co20	0.851600	0.268100	0.500000
Co211	Co21	0.500000	0.148400	0.268100
Co221	Co22	0.500000	0.148400	0.731900
Co231	Co23	0.500000	0.851600	0.731900
Co241	Co24	0.500000	0.851600	0.268100
Co251	Co25	0.500000	0.268100	0.851600
Co261	Co26	0.500000	0.731900	0.851600
Co271	Co27	0.500000	0.731900	0.148400
Co281	Co28	0.500000	0.268100	0.148400
Co291	Co29	0.268100	0.148400	0.500000
Co301	Co30	0.731900	0.148400	0.500000
Co311	Co31	0.731900	0.851600	0.500000
Co321	Co32	0.268100	0.851600	0.500000
Co331	Co33	0.148400	0.500000	0.731900
Co341	Co34	0.148400	0.500000	0.268100
Co351	Co35	0.851600	0.500000	0.268100
Co361	Co36	0.851600	0.500000	0.731900
