data_BETGAK_clean_PM
_symmetry_space_group_name_H-M	'P1'
_cell_length_a	13.509500
_cell_length_b	14.535600
_cell_length_c	16.252500
_cell_angle_alpha	116.563000
_cell_angle_beta	99.021800
_cell_angle_gamma	90.000000
_symmetry_Int_Tables_number 1

loop_
_symmetry_equiv_pos_as_xyz
'x,y,z'

loop_
_atom_site_label
_atom_site_type_symbol
_atom_site_fract_x
_atom_site_fract_y
_atom_site_fract_z
La11	La1	0.456710	0.895160	0.361610
La21	La2	0.043290	0.533550	0.638390
La31	La3	0.543290	0.104840	0.638390
La41	La4	0.956710	0.466450	0.361610
H11	H1	0.564100	0.681400	0.054200
H21	H2	0.621600	0.644000	0.917200
H31	H3	0.606500	0.937500	0.965200
H41	H4	0.554400	0.976600	0.105800
H51	H5	0.649000	0.685000	0.790000
H61	H6	0.577700	0.878300	0.678800
H71	H7	0.768900	0.678800	0.708200
H81	H8	0.694000	0.679200	0.458000
H91	H9	0.935900	0.627200	0.945800
H101	H10	0.878400	0.726800	0.082800
H111	H11	0.893500	0.972300	0.034800
H121	H12	0.945600	0.870800	0.894200
H131	H13	0.851000	0.895000	0.210000
H141	H14	0.922300	0.199500	0.321200
H151	H15	0.731100	0.970600	0.291800
H161	H16	0.806000	0.221200	0.542000
H171	H17	0.435900	0.318600	0.945800
H181	H18	0.378400	0.356000	0.082800
H191	H19	0.393500	0.062500	0.034800
H201	H20	0.445600	0.023400	0.894200
H211	H21	0.351000	0.315000	0.210000
H221	H22	0.422300	0.121700	0.321200
H231	H23	0.231100	0.321200	0.291800
H241	H24	0.306000	0.320800	0.542000
H251	H25	0.064100	0.372800	0.054200
H261	H26	0.121600	0.273200	0.917200
H271	H27	0.106500	0.027700	0.965200
H281	H28	0.054400	0.129200	0.105800
H291	H29	0.149000	0.105000	0.790000
H301	H30	0.077700	0.800500	0.678800
H311	H31	0.268900	0.029400	0.708200
H321	H32	0.194000	0.778800	0.458000
C11	C1	0.519400	0.859790	0.185980
C21	C2	0.555300	0.834400	0.095800
C31	C3	0.574000	0.733600	0.037400
C41	C4	0.607200	0.711000	0.954800
C51	C5	0.619100	0.787000	0.927800
C61	C6	0.599100	0.886100	0.983400
C71	C7	0.567500	0.909300	0.067800
C81	C8	0.643800	0.756300	0.834000
C91	C9	0.569400	0.825710	0.497620
C101	C10	0.626400	0.784260	0.558920
C111	C11	0.616800	0.823370	0.652540
C121	C12	0.667000	0.779090	0.706780
C131	C13	0.732400	0.704240	0.670480
C141	C14	0.744100	0.666390	0.576580
C151	C15	0.688900	0.705680	0.520760
C161	C16	0.815700	0.586140	0.538880
C171	C17	0.980600	0.673810	0.814020
C181	C18	0.944700	0.738600	0.904200
C191	C19	0.926000	0.696200	0.962600
C201	C20	0.892800	0.756200	0.045200
C211	C21	0.880900	0.859200	0.072200
C221	C22	0.900900	0.902700	0.016600
C231	C23	0.932500	0.841500	0.932200
C241	C24	0.856200	0.922300	0.166000
C251	C25	0.930600	0.328090	0.502380
C261	C26	0.873600	0.225340	0.441080
C271	C27	0.883200	0.170830	0.347460
C281	C28	0.833000	0.072310	0.293220
C291	C29	0.767600	0.033760	0.329520
C301	C30	0.755900	0.089810	0.423420
C311	C31	0.811100	0.184920	0.479240
C321	C32	0.684300	0.047260	0.461120
C331	C33	0.480600	0.140210	0.814020
C341	C34	0.444700	0.165600	0.904200
C351	C35	0.426000	0.266400	0.962600
C361	C36	0.392800	0.289000	0.045200
C371	C37	0.380900	0.213000	0.072200
C381	C38	0.400900	0.113900	0.016600
C391	C39	0.432500	0.090700	0.932200
C401	C40	0.356200	0.243700	0.166000
C411	C41	0.430600	0.174290	0.502380
C421	C42	0.373600	0.215740	0.441080
C431	C43	0.383200	0.176630	0.347460
C441	C44	0.333000	0.220910	0.293220
C451	C45	0.267600	0.295760	0.329520
C461	C46	0.255900	0.333610	0.423420
C471	C47	0.311100	0.294320	0.479240
C481	C48	0.184300	0.413860	0.461120
C491	C49	0.019400	0.326190	0.185980
C501	C50	0.055300	0.261400	0.095800
C511	C51	0.074000	0.303800	0.037400
C521	C52	0.107200	0.243800	0.954800
C531	C53	0.119100	0.140800	0.927800
C541	C54	0.099100	0.097300	0.983400
C551	C55	0.067500	0.158500	0.067800
C561	C56	0.143800	0.077700	0.834000
C571	C57	0.069400	0.671910	0.497620
C581	C58	0.126400	0.774660	0.558920
C591	C59	0.116800	0.829170	0.652540
C601	C60	0.167000	0.927690	0.706780
C611	C61	0.232400	0.966240	0.670480
C621	C62	0.244100	0.910190	0.576580
C631	C63	0.188900	0.815080	0.520760
C641	C64	0.315700	0.952740	0.538880
N11	N1	0.648700	0.818280	0.800160
N21	N2	0.851300	0.018120	0.199840
N31	N3	0.351300	0.181720	0.199840
N41	N4	0.148700	0.981880	0.800160
O11	O1	0.512000	0.787230	0.207660
O21	O2	0.498500	0.948850	0.235700
O31	O3	0.553800	0.772490	0.411580
O41	O4	0.537300	0.916300	0.536400
O51	O5	0.865200	0.557200	0.594200
O61	O6	0.823200	0.552820	0.454440
O71	O7	0.988000	0.579570	0.792340
O81	O8	0.001500	0.713150	0.764300
O91	O9	0.946200	0.360910	0.588420
O101	O10	0.962700	0.379900	0.463600
O111	O11	0.634800	0.963000	0.405800
O121	O12	0.676800	0.098380	0.545560
O131	O13	0.488000	0.212770	0.792340
O141	O14	0.501500	0.051150	0.764300
O151	O15	0.446200	0.227510	0.588420
O161	O16	0.462700	0.083700	0.463600
O171	O17	0.134800	0.442800	0.405800
O181	O18	0.176800	0.447180	0.545560
O191	O19	0.012000	0.420430	0.207660
O201	O20	0.998500	0.286850	0.235700
O211	O21	0.053800	0.639090	0.411580
O221	O22	0.037300	0.620100	0.536400
O231	O23	0.365200	0.037000	0.594200
O241	O24	0.323200	0.901620	0.454440
