data_BETHEP_clean_PM
_symmetry_space_group_name_H-M	'P1'
_cell_length_a	19.294500
_cell_length_b	19.294500
_cell_length_c	19.294500
_cell_angle_alpha	90.000000
_cell_angle_beta	90.000000
_cell_angle_gamma	90.000000
_symmetry_Int_Tables_number 1

loop_
_symmetry_equiv_pos_as_xyz
'x,y,z'

loop_
_atom_site_label
_atom_site_type_symbol
_atom_site_fract_x
_atom_site_fract_y
_atom_site_fract_z
N11	N1	0.366200	0.413500	0.082000
N21	N2	0.323200	0.404000	0.135300
N31	N3	0.633800	0.586500	0.082000
N41	N4	0.676800	0.596000	0.135300
N51	N5	0.633800	0.413500	0.918000
N61	N6	0.676800	0.404000	0.864700
N71	N7	0.366200	0.586500	0.918000
N81	N8	0.323200	0.596000	0.864700
N91	N9	0.082000	0.366200	0.413500
N101	N10	0.135300	0.323200	0.404000
N111	N11	0.082000	0.633800	0.586500
N121	N12	0.135300	0.676800	0.596000
N131	N13	0.918000	0.633800	0.413500
N141	N14	0.864700	0.676800	0.404000
N151	N15	0.918000	0.366200	0.586500
N161	N16	0.864700	0.323200	0.596000
N171	N17	0.413500	0.082000	0.366200
N181	N18	0.404000	0.135300	0.323200
N191	N19	0.586500	0.082000	0.633800
N201	N20	0.596000	0.135300	0.676800
N211	N21	0.413500	0.918000	0.633800
N221	N22	0.404000	0.864700	0.676800
N231	N23	0.586500	0.918000	0.366200
N241	N24	0.596000	0.864700	0.323200
N251	N25	0.413500	0.366200	0.918000
N261	N26	0.404000	0.323200	0.864700
N271	N27	0.586500	0.633800	0.918000
N281	N28	0.596000	0.676800	0.864700
N291	N29	0.413500	0.633800	0.082000
N301	N30	0.404000	0.676800	0.135300
N311	N31	0.586500	0.366200	0.082000
N321	N32	0.596000	0.323200	0.135300
N331	N33	0.366200	0.082000	0.586500
N341	N34	0.323200	0.135300	0.596000
N351	N35	0.633800	0.082000	0.413500
N361	N36	0.676800	0.135300	0.404000
N371	N37	0.633800	0.918000	0.586500
N381	N38	0.676800	0.864700	0.596000
N391	N39	0.366200	0.918000	0.413500
N401	N40	0.323200	0.864700	0.404000
N411	N41	0.082000	0.413500	0.633800
N421	N42	0.135300	0.404000	0.676800
N431	N43	0.082000	0.586500	0.366200
N441	N44	0.135300	0.596000	0.323200
N451	N45	0.918000	0.413500	0.366200
N461	N46	0.864700	0.404000	0.323200
N471	N47	0.918000	0.586500	0.633800
N481	N48	0.864700	0.596000	0.676800
N491	N49	0.633800	0.586500	0.918000
N501	N50	0.676800	0.596000	0.864700
N511	N51	0.366200	0.413500	0.918000
N521	N52	0.323200	0.404000	0.864700
N531	N53	0.366200	0.586500	0.082000
N541	N54	0.323200	0.596000	0.135300
N551	N55	0.633800	0.413500	0.082000
N561	N56	0.676800	0.404000	0.135300
N571	N57	0.918000	0.633800	0.586500
N581	N58	0.864700	0.676800	0.596000
N591	N59	0.918000	0.366200	0.413500
N601	N60	0.864700	0.323200	0.404000
N611	N61	0.082000	0.366200	0.586500
N621	N62	0.135300	0.323200	0.596000
N631	N63	0.082000	0.633800	0.413500
N641	N64	0.135300	0.676800	0.404000
N651	N65	0.586500	0.918000	0.633800
N661	N66	0.596000	0.864700	0.676800
N671	N67	0.413500	0.918000	0.366200
N681	N68	0.404000	0.864700	0.323200
N691	N69	0.586500	0.082000	0.366200
N701	N70	0.596000	0.135300	0.323200
N711	N71	0.413500	0.082000	0.633800
N721	N72	0.404000	0.135300	0.676800
N731	N73	0.586500	0.633800	0.082000
N741	N74	0.596000	0.676800	0.135300
N751	N75	0.413500	0.366200	0.082000
N761	N76	0.404000	0.323200	0.135300
N771	N77	0.586500	0.366200	0.918000
N781	N78	0.596000	0.323200	0.864700
N791	N79	0.413500	0.633800	0.918000
N801	N80	0.404000	0.676800	0.864700
N811	N81	0.633800	0.918000	0.413500
N821	N82	0.676800	0.864700	0.404000
N831	N83	0.366200	0.918000	0.586500
N841	N84	0.323200	0.864700	0.596000
N851	N85	0.366200	0.082000	0.413500
N861	N86	0.323200	0.135300	0.404000
N871	N87	0.633800	0.082000	0.586500
N881	N88	0.676800	0.135300	0.596000
N891	N89	0.918000	0.586500	0.366200
N901	N90	0.864700	0.596000	0.323200
N911	N91	0.918000	0.413500	0.633800
N921	N92	0.864700	0.404000	0.676800
N931	N93	0.082000	0.586500	0.633800
N941	N94	0.135300	0.596000	0.676800
N951	N95	0.082000	0.413500	0.366200
N961	N96	0.135300	0.404000	0.323200
Cd11	Cd1	0.354740	0.500000	0.000000
Cl11	Cl1	0.229300	0.500000	0.000000
Cd21	Cd2	0.645260	0.500000	0.000000
Cl21	Cl2	0.770700	0.500000	0.000000
Cd31	Cd3	0.000000	0.354740	0.500000
Cl31	Cl3	0.000000	0.229300	0.500000
Cd41	Cd4	0.000000	0.645260	0.500000
Cl41	Cl4	0.000000	0.770700	0.500000
Cd51	Cd5	0.500000	0.000000	0.354740
Cl51	Cl5	0.500000	0.000000	0.229300
Cd61	Cd6	0.500000	0.000000	0.645260
Cl61	Cl6	0.500000	0.000000	0.770700
Cd71	Cd7	0.500000	0.354740	0.000000
Cl71	Cl7	0.500000	0.229300	0.000000
Cd81	Cd8	0.500000	0.645260	0.000000
Cl81	Cl8	0.500000	0.770700	0.000000
Cd91	Cd9	0.354740	0.000000	0.500000
Cl91	Cl9	0.229300	0.000000	0.500000
Cd101	Cd10	0.645260	0.000000	0.500000
Cl101	Cl10	0.770700	0.000000	0.500000
Cd111	Cd11	0.000000	0.500000	0.645260
Cl111	Cl11	0.000000	0.500000	0.770700
Cd121	Cd12	0.000000	0.500000	0.354740
Cl121	Cl12	0.000000	0.500000	0.229300
C11	C1	0.347500	0.347500	0.167800
C21	C2	0.315700	0.315700	0.228000
C31	C3	0.652500	0.652500	0.167800
C41	C4	0.684300	0.684300	0.228000
C51	C5	0.652500	0.347500	0.832200
C61	C6	0.684300	0.315700	0.772000
C71	C7	0.347500	0.652500	0.832200
C81	C8	0.315700	0.684300	0.772000
C91	C9	0.167800	0.347500	0.347500
C101	C10	0.228000	0.315700	0.315700
C111	C11	0.167800	0.652500	0.652500
C121	C12	0.228000	0.684300	0.684300
C131	C13	0.832200	0.652500	0.347500
C141	C14	0.772000	0.684300	0.315700
C151	C15	0.832200	0.347500	0.652500
C161	C16	0.772000	0.315700	0.684300
C171	C17	0.347500	0.167800	0.347500
C181	C18	0.315700	0.228000	0.315700
C191	C19	0.652500	0.167800	0.652500
C201	C20	0.684300	0.228000	0.684300
C211	C21	0.347500	0.832200	0.652500
C221	C22	0.315700	0.772000	0.684300
C231	C23	0.652500	0.832200	0.347500
C241	C24	0.684300	0.772000	0.315700
C251	C25	0.347500	0.347500	0.832200
C261	C26	0.315700	0.315700	0.772000
C271	C27	0.652500	0.652500	0.832200
C281	C28	0.684300	0.684300	0.772000
C291	C29	0.347500	0.652500	0.167800
C301	C30	0.315700	0.684300	0.228000
C311	C31	0.652500	0.347500	0.167800
C321	C32	0.684300	0.315700	0.228000
C331	C33	0.347500	0.167800	0.652500
C341	C34	0.315700	0.228000	0.684300
C351	C35	0.652500	0.167800	0.347500
C361	C36	0.684300	0.228000	0.315700
C371	C37	0.652500	0.832200	0.652500
C381	C38	0.684300	0.772000	0.684300
C391	C39	0.347500	0.832200	0.347500
C401	C40	0.315700	0.772000	0.315700
C411	C41	0.167800	0.347500	0.652500
C421	C42	0.228000	0.315700	0.684300
C431	C43	0.167800	0.652500	0.347500
C441	C44	0.228000	0.684300	0.315700
C451	C45	0.832200	0.347500	0.347500
C461	C46	0.772000	0.315700	0.315700
C471	C47	0.832200	0.652500	0.652500
C481	C48	0.772000	0.684300	0.684300
C491	C49	0.257600	0.345900	0.257600
H11	H1	0.238700	0.385900	0.238700
C501	C50	0.742400	0.654100	0.257600
H21	H2	0.761300	0.614100	0.238700
C511	C51	0.742400	0.345900	0.742400
H31	H3	0.761300	0.385900	0.761300
C521	C52	0.257600	0.654100	0.742400
H41	H4	0.238700	0.614100	0.761300
C531	C53	0.257600	0.257600	0.345900
H51	H5	0.238700	0.238700	0.385900
C541	C54	0.257600	0.742400	0.654100
H61	H6	0.238700	0.761300	0.614100
C551	C55	0.742400	0.742400	0.345900
H71	H7	0.761300	0.761300	0.385900
C561	C56	0.742400	0.257600	0.654100
H81	H8	0.761300	0.238700	0.614100
C571	C57	0.345900	0.257600	0.257600
H91	H9	0.385900	0.238700	0.238700
C581	C58	0.654100	0.257600	0.742400
H101	H10	0.614100	0.238700	0.761300
C591	C59	0.345900	0.742400	0.742400
H111	H11	0.385900	0.761300	0.761300
C601	C60	0.654100	0.742400	0.257600
H121	H12	0.614100	0.761300	0.238700
C611	C61	0.345900	0.257600	0.742400
H131	H13	0.385900	0.238700	0.761300
C621	C62	0.654100	0.742400	0.742400
H141	H14	0.614100	0.761300	0.761300
C631	C63	0.345900	0.742400	0.257600
H151	H15	0.385900	0.761300	0.238700
C641	C64	0.654100	0.257600	0.257600
H161	H16	0.614100	0.238700	0.238700
C651	C65	0.257600	0.257600	0.654100
H171	H17	0.238700	0.238700	0.614100
C661	C66	0.742400	0.257600	0.345900
H181	H18	0.761300	0.238700	0.385900
C671	C67	0.742400	0.742400	0.654100
H191	H19	0.761300	0.761300	0.614100
C681	C68	0.257600	0.742400	0.345900
H201	H20	0.238700	0.761300	0.385900
C691	C69	0.257600	0.345900	0.742400
H211	H21	0.238700	0.385900	0.761300
C701	C70	0.257600	0.654100	0.257600
H221	H22	0.238700	0.614100	0.238700
C711	C71	0.742400	0.345900	0.257600
H231	H23	0.761300	0.385900	0.238700
C721	C72	0.742400	0.654100	0.742400
H241	H24	0.761300	0.614100	0.761300
Cd131	Cd13	0.244300	0.500000	0.146000
Cd141	Cd14	0.755700	0.500000	0.146000
Cd151	Cd15	0.755700	0.500000	0.854000
Cd161	Cd16	0.244300	0.500000	0.854000
Cd171	Cd17	0.146000	0.244300	0.500000
Cd181	Cd18	0.146000	0.755700	0.500000
Cd191	Cd19	0.854000	0.755700	0.500000
Cd201	Cd20	0.854000	0.244300	0.500000
Cd211	Cd21	0.500000	0.146000	0.244300
Cd221	Cd22	0.500000	0.146000	0.755700
Cd231	Cd23	0.500000	0.854000	0.755700
Cd241	Cd24	0.500000	0.854000	0.244300
Cd251	Cd25	0.500000	0.244300	0.854000
Cd261	Cd26	0.500000	0.755700	0.854000
Cd271	Cd27	0.500000	0.755700	0.146000
Cd281	Cd28	0.500000	0.244300	0.146000
Cd291	Cd29	0.244300	0.146000	0.500000
Cd301	Cd30	0.755700	0.146000	0.500000
Cd311	Cd31	0.755700	0.854000	0.500000
Cd321	Cd32	0.244300	0.854000	0.500000
Cd331	Cd33	0.146000	0.500000	0.755700
Cd341	Cd34	0.146000	0.500000	0.244300
Cd351	Cd35	0.854000	0.500000	0.244300
Cd361	Cd36	0.854000	0.500000	0.755700
