data_BEVQUP_clean_PM
_symmetry_space_group_name_H-M	'P1'
_cell_length_a	9.150200
_cell_length_b	9.303900
_cell_length_c	9.303900
_cell_angle_alpha	76.006600
_cell_angle_beta	60.544800
_cell_angle_gamma	60.544800
_symmetry_Int_Tables_number 1

loop_
_symmetry_equiv_pos_as_xyz
'x,y,z'

loop_
_atom_site_label
_atom_site_type_symbol
_atom_site_fract_x
_atom_site_fract_y
_atom_site_fract_z
Rb11	Rb1	0.125000	0.750000	0.750000
Rb21	Rb2	0.875000	0.250000	0.250000
Y11	Y1	0.625000	0.750000	0.750000
Y21	Y2	0.375000	0.250000	0.250000
C11	C1	0.606000	0.974000	0.984000
C21	C2	0.064000	0.526000	0.516000
C31	C3	0.590000	0.016000	0.474000
C41	C4	0.580000	0.484000	0.026000
C51	C5	0.394000	0.026000	0.016000
C61	C6	0.936000	0.474000	0.484000
C71	C7	0.410000	0.984000	0.526000
C81	C8	0.420000	0.516000	0.974000
O11	O1	0.726500	0.883000	0.857000
O21	O2	0.638200	0.137000	0.957000
O31	O3	0.966500	0.617000	0.643000
O41	O4	0.232200	0.363000	0.543000
O51	O5	0.583500	0.143000	0.383000
O61	O6	0.595200	0.043000	0.637000
O71	O7	0.609500	0.357000	0.117000
O81	O8	0.775200	0.457000	0.863000
O91	O9	0.273500	0.117000	0.143000
O101	O10	0.361800	0.863000	0.043000
O111	O11	0.033500	0.383000	0.357000
O121	O12	0.767800	0.637000	0.457000
O131	O13	0.416500	0.857000	0.617000
O141	O14	0.404800	0.957000	0.363000
O151	O15	0.390500	0.643000	0.883000
O161	O16	0.224800	0.543000	0.137000
