data_BEXPAX_clean_PM
_symmetry_space_group_name_H-M	'P1'
_cell_length_a	8.524000
_cell_length_b	17.213900
_cell_length_c	17.213900
_cell_angle_alpha	120.000000
_cell_angle_beta	90.000000
_cell_angle_gamma	90.000000
_symmetry_Int_Tables_number 1

loop_
_symmetry_equiv_pos_as_xyz
'x,y,z'

loop_
_atom_site_label
_atom_site_type_symbol
_atom_site_fract_x
_atom_site_fract_y
_atom_site_fract_z
Ni11	Ni1	0.666670	0.474660	0.474660
Ni21	Ni2	0.333330	0.000000	0.525340
Ni31	Ni3	0.000000	0.525340	0.000000
H11	H1	0.337200	0.234500	0.533600
H21	H2	0.547400	0.192500	0.306500
H31	H3	0.469300	0.043900	0.236000
H41	H4	0.003870	0.299100	0.765500
H51	H5	0.214070	0.114000	0.807500
H61	H6	0.135970	0.192100	0.956100
H71	H7	0.670530	0.466400	0.700900
H81	H8	0.880730	0.693500	0.886000
H91	H9	0.802630	0.764000	0.807900
H101	H10	0.662800	0.700900	0.466400
H111	H11	0.452600	0.886000	0.693500
H121	H12	0.530700	0.807900	0.764000
H131	H13	0.996130	0.533600	0.234500
H141	H14	0.785930	0.306500	0.192500
H151	H15	0.864030	0.236000	0.043900
H161	H16	0.329470	0.765500	0.299100
H171	H17	0.119270	0.807500	0.114000
H181	H18	0.197370	0.956100	0.192100
C11	C1	0.451500	0.228160	0.427340
C21	C2	0.363800	0.196080	0.473900
C31	C3	0.358300	0.047920	0.341920
C41	C4	0.490400	0.171100	0.337930
C51	C5	0.316400	0.107070	0.431400
C61	C6	0.443500	0.081900	0.296000
C71	C7	0.502300	0.324100	0.473580
C81	C8	0.118170	0.199180	0.771840
C91	C9	0.030470	0.277820	0.803920
C101	C10	0.024970	0.294000	0.952080
C111	C11	0.157070	0.166830	0.828900
C121	C12	0.983070	0.324330	0.892930
C131	C13	0.110170	0.214100	0.918100
C141	C14	0.168970	0.149480	0.675900
C151	C15	0.784830	0.572660	0.800820
C161	C16	0.697130	0.526100	0.722180
C171	C17	0.691630	0.658080	0.706000
C181	C18	0.823730	0.662070	0.833170
C191	C19	0.649730	0.568600	0.675670
C201	C20	0.776830	0.704000	0.785900
C211	C21	0.835630	0.526420	0.850520
C221	C22	0.548500	0.800820	0.572660
C231	C23	0.636200	0.722180	0.526100
C241	C24	0.641700	0.706000	0.658080
C251	C25	0.509600	0.833170	0.662070
C261	C26	0.683600	0.675670	0.568600
C271	C27	0.556500	0.785900	0.704000
C281	C28	0.497700	0.850520	0.526420
C291	C29	0.881830	0.427340	0.228160
C301	C30	0.969530	0.473900	0.196080
C311	C31	0.975030	0.341920	0.047920
C321	C32	0.842930	0.337930	0.171100
C331	C33	0.016930	0.431400	0.107070
C341	C34	0.889830	0.296000	0.081900
C351	C35	0.831030	0.473580	0.324100
C361	C36	0.215170	0.771840	0.199180
C371	C37	0.302870	0.803920	0.277820
C381	C38	0.308370	0.952080	0.294000
C391	C39	0.176270	0.828900	0.166830
C401	C40	0.350270	0.892930	0.324330
C411	C41	0.223170	0.918100	0.214100
C421	C42	0.164370	0.675900	0.149480
O11	O1	0.470700	0.372350	0.557320
O21	O2	0.229100	0.076680	0.477230
O31	O3	0.573500	0.351160	0.428650
O41	O4	0.137370	0.184970	0.627650
O51	O5	0.895770	0.400550	0.923320
O61	O6	0.240170	0.077490	0.648840
O71	O7	0.804030	0.442680	0.815030
O81	O8	0.562430	0.522770	0.599450
O91	O9	0.906830	0.571350	0.922510
O101	O10	0.529300	0.815030	0.442680
O111	O11	0.770900	0.599450	0.522770
O121	O12	0.426500	0.922510	0.571350
O131	O13	0.862630	0.557320	0.372350
O141	O14	0.104230	0.477230	0.076680
O151	O15	0.759830	0.428650	0.351160
O161	O16	0.195970	0.627650	0.184970
O171	O17	0.437570	0.923320	0.400550
O181	O18	0.093170	0.648840	0.077490
