data_BEXRIG_clean_PM
_symmetry_space_group_name_H-M	'P1'
_cell_length_a	14.119200
_cell_length_b	16.654500
_cell_length_c	21.583300
_cell_angle_alpha	90.000000
_cell_angle_beta	90.000000
_cell_angle_gamma	90.000000
_symmetry_Int_Tables_number 1

loop_
_symmetry_equiv_pos_as_xyz
'x,y,z'

loop_
_atom_site_label
_atom_site_type_symbol
_atom_site_fract_x
_atom_site_fract_y
_atom_site_fract_z
Ni11	Ni1	0.874120	0.268980	0.923330
Ni21	Ni2	0.036890	0.270030	0.598680
N11	N1	0.828280	0.246610	0.834440
C11	C1	0.812920	0.244430	0.782320
N21	N2	0.908760	0.260210	0.643860
C21	C2	0.854800	0.251980	0.682620
N31	N3	0.787590	0.241960	0.723720
N41	N4	0.009510	0.282650	0.882310
C31	C3	0.060610	0.290960	0.841020
N51	N5	0.094700	0.285910	0.687180
C41	C4	0.104360	0.291290	0.739880
N61	N6	0.126210	0.300440	0.799050
N71	N7	0.929650	0.287470	0.012180
C51	C5	0.996100	0.276880	0.041470
N81	N8	0.231220	0.243000	0.051100
C61	C6	0.152600	0.253390	0.061520
N91	N9	0.064980	0.265010	0.080640
N101	N10	0.853860	0.390630	0.913990
C71	C7	0.845480	0.458990	0.907470
N111	N11	0.932690	0.647870	0.894510
C81	C8	0.886000	0.591870	0.897120
N121	N12	0.822770	0.534200	0.898860
N131	N13	0.169720	0.281850	0.556900
C91	C9	0.250000	0.290440	0.550470
N141	N14	0.462170	0.249450	0.482600
C101	C10	0.400500	0.273420	0.512050
N151	N15	0.340700	0.306980	0.550550
N161	N16	0.978400	0.893210	0.915850
C111	C11	0.952400	0.950990	0.941280
N171	N17	0.895360	0.147700	0.938900
C121	C12	0.909740	0.082490	0.953520
N181	N18	0.925320	0.010570	0.976070
Ni31	Ni3	0.625880	0.731020	0.423330
Ni41	Ni4	0.463110	0.729970	0.098680
N191	N19	0.671720	0.753390	0.334440
C131	C13	0.687080	0.755570	0.282320
N201	N20	0.591240	0.739790	0.143860
C141	C14	0.645200	0.748020	0.182620
N211	N21	0.712410	0.758040	0.223720
N221	N22	0.490490	0.717350	0.382310
C151	C15	0.439390	0.709040	0.341020
N231	N23	0.405300	0.714090	0.187180
C161	C16	0.395640	0.708710	0.239880
N241	N24	0.373790	0.699560	0.299050
N251	N25	0.570350	0.712530	0.512180
C171	C17	0.503900	0.723120	0.541470
N261	N26	0.268780	0.757000	0.551100
C181	C18	0.347400	0.746610	0.561520
N271	N27	0.435020	0.734990	0.580640
N281	N28	0.646140	0.609370	0.413990
C191	C19	0.654520	0.541010	0.407470
N291	N29	0.567310	0.352130	0.394510
C201	C20	0.614000	0.408130	0.397120
N301	N30	0.677230	0.465800	0.398860
N311	N31	0.330280	0.718150	0.056900
C211	C21	0.250000	0.709560	0.050470
N321	N32	0.037830	0.750550	0.982600
C221	C22	0.099500	0.726580	0.012050
N331	N33	0.159300	0.693020	0.050550
N341	N34	0.521600	0.106790	0.415850
C231	C23	0.547600	0.049010	0.441280
N351	N35	0.604640	0.852300	0.438900
C241	C24	0.590260	0.917510	0.453520
N361	N36	0.574680	0.989430	0.476070
Ni51	Ni5	0.125880	0.768980	0.576670
Ni61	Ni6	0.963110	0.770030	0.901320
N371	N37	0.171720	0.746610	0.665560
C251	C25	0.187080	0.744430	0.717680
N381	N38	0.091240	0.760210	0.856140
C261	C26	0.145200	0.751980	0.817380
N391	N39	0.212410	0.741960	0.776280
N401	N40	0.990490	0.782650	0.617690
C271	C27	0.939390	0.790960	0.658980
N411	N41	0.905300	0.785910	0.812820
C281	C28	0.895640	0.791290	0.760120
N421	N42	0.873790	0.800440	0.700950
N431	N43	0.070350	0.787470	0.487820
C291	C29	0.003900	0.776880	0.458530
N441	N44	0.768780	0.743000	0.448900
C301	C30	0.847400	0.753390	0.438480
N451	N45	0.935020	0.765010	0.419360
N461	N46	0.146140	0.890630	0.586010
C311	C31	0.154520	0.958990	0.592530
N471	N47	0.067310	0.147870	0.605490
C321	C32	0.114000	0.091870	0.602880
N481	N48	0.177230	0.034200	0.601140
N491	N49	0.830280	0.781850	0.943100
C331	C33	0.750000	0.790440	0.949530
N501	N50	0.537830	0.749450	0.017400
C341	C34	0.599500	0.773420	0.987950
N511	N51	0.659300	0.806980	0.949450
N521	N52	0.021600	0.393210	0.584150
C351	C35	0.047600	0.450990	0.558720
N531	N53	0.104640	0.647700	0.561100
C361	C36	0.090260	0.582490	0.546480
N541	N54	0.074680	0.510570	0.523930
Ni71	Ni7	0.374120	0.231020	0.076670
Ni81	Ni8	0.536890	0.229970	0.401320
N551	N55	0.328280	0.253390	0.165560
C371	C37	0.312920	0.255570	0.217680
N561	N56	0.408760	0.239790	0.356140
C381	C38	0.354800	0.248020	0.317380
N571	N57	0.287590	0.258040	0.276280
N581	N58	0.509510	0.217350	0.117690
C391	C39	0.560610	0.209040	0.158980
N591	N59	0.594700	0.214090	0.312820
C401	C40	0.604360	0.208710	0.260120
N601	N60	0.626210	0.199560	0.200950
N611	N61	0.429650	0.212530	0.987820
C411	C41	0.496100	0.223120	0.958530
N621	N62	0.731220	0.257000	0.948900
C421	C42	0.652600	0.246610	0.938480
N631	N63	0.564980	0.234990	0.919360
N641	N64	0.353860	0.109370	0.086010
C431	C43	0.345480	0.041010	0.092530
N651	N65	0.432690	0.852130	0.105490
C441	C44	0.386000	0.908130	0.102880
N661	N66	0.322770	0.965800	0.101140
N671	N67	0.669720	0.218150	0.443100
C451	C45	0.750000	0.209560	0.449530
N681	N68	0.962170	0.250550	0.517400
C461	C46	0.900500	0.226580	0.487950
N691	N69	0.840700	0.193020	0.449450
N701	N70	0.478400	0.606790	0.084150
C471	C47	0.452400	0.549010	0.058720
N711	N71	0.395360	0.352300	0.061100
C481	C48	0.409740	0.417510	0.046480
N721	N72	0.425320	0.489430	0.023930
