data_BEXRUT_clean_PM
_symmetry_space_group_name_H-M	'P1'
_cell_length_a	12.231500
_cell_length_b	12.442800
_cell_length_c	17.748300
_cell_angle_alpha	90.000000
_cell_angle_beta	90.000000
_cell_angle_gamma	112.510000
_symmetry_Int_Tables_number 1

loop_
_symmetry_equiv_pos_as_xyz
'x,y,z'

loop_
_atom_site_label
_atom_site_type_symbol
_atom_site_fract_x
_atom_site_fract_y
_atom_site_fract_z
Ni11	Ni1	0.154370	0.061030	0.295520
Ni21	Ni2	0.345630	0.938970	0.795520
Ni31	Ni3	0.845630	0.938970	0.704480
Ni41	Ni4	0.654370	0.061030	0.204480
Ni51	Ni5	0.000000	0.500000	0.500000
Ni61	Ni6	0.500000	0.500000	0.000000
H11	H1	0.747200	0.376100	0.321300
H21	H2	0.469100	0.410600	0.215700
H31	H3	0.650200	0.642100	0.376000
H41	H4	0.433600	0.588800	0.233100
H51	H5	0.510300	0.684700	0.293300
H61	H6	0.351200	0.731400	0.270600
H71	H7	0.068900	0.714100	0.396300
H81	H8	0.211500	0.483800	0.427600
H91	H9	0.752800	0.623900	0.821300
H101	H10	0.030900	0.589400	0.715700
H111	H11	0.849800	0.357900	0.876000
H121	H12	0.066400	0.411200	0.733100
H131	H13	0.989700	0.315300	0.793300
H141	H14	0.148800	0.268600	0.770600
H151	H15	0.431100	0.285900	0.896300
H161	H16	0.288500	0.516200	0.927600
H171	H17	0.252800	0.623900	0.678700
H181	H18	0.530900	0.589400	0.784300
H191	H19	0.349800	0.357900	0.624000
H201	H20	0.566400	0.411200	0.766900
H211	H21	0.489700	0.315300	0.706700
H221	H22	0.648800	0.268600	0.729400
H231	H23	0.931100	0.285900	0.603700
H241	H24	0.788500	0.516200	0.572400
H251	H25	0.247200	0.376100	0.178700
H261	H26	0.969100	0.410600	0.284300
H271	H27	0.150200	0.642100	0.124000
H281	H28	0.933600	0.588800	0.266900
H291	H29	0.010300	0.684700	0.206700
H301	H30	0.851200	0.731400	0.229400
H311	H31	0.568900	0.714100	0.103700
H321	H32	0.711500	0.483800	0.072400
C11	C1	0.808100	0.553500	0.417100
C21	C2	0.713600	0.515600	0.358200
C31	C3	0.696200	0.416800	0.314600
C41	C4	0.605900	0.377000	0.261800
C51	C5	0.531700	0.437400	0.251400
C61	C6	0.549800	0.537200	0.293400
C71	C7	0.639500	0.574800	0.346900
C81	C8	0.587300	0.268800	0.218300
C91	C9	0.467700	0.600300	0.284500
C101	C10	0.295800	0.601700	0.348100
C111	C11	0.294800	0.696300	0.309100
C121	C12	0.208100	0.739500	0.327800
C131	C13	0.126700	0.683700	0.383100
C141	C14	0.210200	0.550200	0.401800
C151	C15	0.207100	0.846300	0.289300
C161	C16	0.691900	0.446500	0.917100
C171	C17	0.786400	0.484400	0.858200
C181	C18	0.803800	0.583200	0.814600
C191	C19	0.894100	0.623000	0.761800
C201	C20	0.968300	0.562600	0.751400
C211	C21	0.950200	0.462800	0.793400
C221	C22	0.860500	0.425200	0.846900
C231	C23	0.912700	0.731200	0.718300
C241	C24	0.032300	0.399700	0.784500
C251	C25	0.204200	0.398300	0.848100
C261	C26	0.205200	0.303700	0.809100
C271	C27	0.291900	0.260500	0.827800
C281	C28	0.373300	0.316300	0.883100
C291	C29	0.289800	0.449800	0.901800
C301	C30	0.292900	0.153700	0.789300
C311	C31	0.191900	0.446500	0.582900
C321	C32	0.286400	0.484400	0.641800
C331	C33	0.303800	0.583200	0.685400
C341	C34	0.394100	0.623000	0.738200
C351	C35	0.468300	0.562600	0.748600
C361	C36	0.450200	0.462800	0.706600
C371	C37	0.360500	0.425200	0.653100
C381	C38	0.412700	0.731200	0.781700
C391	C39	0.532300	0.399700	0.715500
C401	C40	0.704200	0.398300	0.651900
C411	C41	0.705200	0.303700	0.690900
C421	C42	0.791900	0.260500	0.672200
C431	C43	0.873300	0.316300	0.616900
C441	C44	0.789800	0.449800	0.598200
C451	C45	0.792900	0.153700	0.710700
C461	C46	0.308100	0.553500	0.082900
C471	C47	0.213600	0.515600	0.141800
C481	C48	0.196200	0.416800	0.185400
C491	C49	0.105900	0.377000	0.238200
C501	C50	0.031700	0.437400	0.248600
C511	C51	0.049800	0.537200	0.206600
C521	C52	0.139500	0.574800	0.153100
C531	C53	0.087300	0.268800	0.281700
C541	C54	0.967700	0.600300	0.215500
C551	C55	0.795800	0.601700	0.151900
C561	C56	0.794800	0.696300	0.190900
C571	C57	0.708100	0.739500	0.172200
C581	C58	0.626700	0.683700	0.116900
C591	C59	0.710200	0.550200	0.098200
C601	C60	0.707100	0.846300	0.210700
N11	N1	0.125700	0.588700	0.419170
N21	N2	0.374300	0.411300	0.919170
N31	N3	0.874300	0.411300	0.580830
N41	N4	0.625700	0.588700	0.080830
O11	O1	0.871000	0.494400	0.423860
O21	O2	0.817700	0.640700	0.457180
O31	O3	0.501600	0.231600	0.172010
O41	O4	0.660900	0.222200	0.229830
O51	O5	0.376600	0.551200	0.339580
O61	O6	0.149400	0.898400	0.320610
O71	O7	0.265600	0.875700	0.228590
O81	O8	0.629000	0.505600	0.923860
O91	O9	0.682300	0.359300	0.957180
O101	O10	0.998400	0.768400	0.672010
O111	O11	0.839100	0.777800	0.729830
O121	O12	0.123400	0.448800	0.839580
O131	O13	0.350600	0.101600	0.820610
O141	O14	0.234400	0.124300	0.728590
O151	O15	0.129000	0.505600	0.576140
O161	O16	0.182300	0.359300	0.542820
O171	O17	0.498400	0.768400	0.827990
O181	O18	0.339100	0.777800	0.770170
O191	O19	0.623400	0.448800	0.660420
O201	O20	0.850600	0.101600	0.679390
O211	O21	0.734400	0.124300	0.771410
O221	O22	0.371000	0.494400	0.076140
O231	O23	0.317700	0.640700	0.042820
O241	O24	0.001600	0.231600	0.327990
O251	O25	0.160900	0.222200	0.270170
O261	O26	0.876600	0.551200	0.160420
O271	O27	0.649400	0.898400	0.179390
O281	O28	0.765600	0.875700	0.271410
