data_BEXSII_clean_PM
_symmetry_space_group_name_H-M	'P1'
_cell_length_a	11.641600
_cell_length_b	14.951700
_cell_length_c	16.610800
_cell_angle_alpha	90.000000
_cell_angle_beta	93.893000
_cell_angle_gamma	90.000000
_symmetry_Int_Tables_number 1

loop_
_symmetry_equiv_pos_as_xyz
'x,y,z'

loop_
_atom_site_label
_atom_site_type_symbol
_atom_site_fract_x
_atom_site_fract_y
_atom_site_fract_z
Cu11	Cu1	0.396770	0.036300	0.008650
Cu21	Cu2	0.103230	0.536300	0.491350
Cu31	Cu3	0.603230	0.963700	0.991350
Cu41	Cu4	0.896770	0.463700	0.508650
Cu51	Cu5	0.500000	0.500000	0.000000
Cu61	Cu6	0.000000	0.000000	0.500000
H11	H1	0.254600	0.494700	0.736000
H21	H2	0.952200	0.362300	0.744300
H31	H3	0.183300	0.356800	0.937300
H41	H4	0.008000	0.267900	0.938700
H51	H5	0.929500	0.254100	0.855900
H61	H6	0.792700	0.204000	0.929900
H71	H7	0.482900	0.304100	0.982400
H81	H8	0.737300	0.471200	0.949700
H91	H9	0.245400	0.994700	0.764000
H101	H10	0.547800	0.862300	0.755700
H111	H11	0.316700	0.856800	0.562700
H121	H12	0.492000	0.767900	0.561300
H131	H13	0.570500	0.754100	0.644100
H141	H14	0.707300	0.704000	0.570100
H151	H15	0.017100	0.804100	0.517600
H161	H16	0.762700	0.971200	0.550300
H171	H17	0.745400	0.505300	0.264000
H181	H18	0.047800	0.637700	0.255700
H191	H19	0.816700	0.643200	0.062700
H201	H20	0.992000	0.732100	0.061300
H211	H21	0.070500	0.745900	0.144100
H221	H22	0.207300	0.796000	0.070100
H231	H23	0.517100	0.695900	0.017600
H241	H24	0.262700	0.528800	0.050300
H251	H25	0.754600	0.005300	0.236000
H261	H26	0.452200	0.137700	0.244300
H271	H27	0.683300	0.143200	0.437300
H281	H28	0.508000	0.232100	0.438700
H291	H29	0.429500	0.245900	0.355900
H301	H30	0.292700	0.296000	0.429900
H311	H31	0.982900	0.195900	0.482400
H321	H32	0.237300	0.028800	0.449700
C11	C1	0.345200	0.463270	0.884600
C21	C2	0.234500	0.430680	0.843030
C31	C3	0.203600	0.458700	0.764390
C41	C4	0.097400	0.433330	0.727850
C51	C5	0.024600	0.379480	0.769610
C61	C6	0.054900	0.350270	0.847040
C71	C7	0.161200	0.376290	0.884060
C81	C8	0.061400	0.461670	0.643560
C91	C9	0.969800	0.298920	0.891500
C101	C10	0.783600	0.340970	0.935200
C111	C11	0.744000	0.253370	0.939130
C121	C12	0.629300	0.241090	0.957250
C131	C13	0.560900	0.313770	0.971200
C141	C14	0.709300	0.411590	0.951520
C151	C15	0.582100	0.148880	0.965520
C161	C16	0.154800	0.963270	0.615400
C171	C17	0.265500	0.930680	0.656970
C181	C18	0.296400	0.958700	0.735610
C191	C19	0.402600	0.933330	0.772150
C201	C20	0.475400	0.879480	0.730390
C211	C21	0.445100	0.850270	0.652960
C221	C22	0.338800	0.876290	0.615940
C231	C23	0.438600	0.961670	0.856440
C241	C24	0.530200	0.798920	0.608500
C251	C25	0.716400	0.840970	0.564800
C261	C26	0.756000	0.753370	0.560870
C271	C27	0.870700	0.741090	0.542750
C281	C28	0.939100	0.813770	0.528800
C291	C29	0.790700	0.911590	0.548480
C301	C30	0.917900	0.648880	0.534480
C311	C31	0.654800	0.536730	0.115400
C321	C32	0.765500	0.569320	0.156970
C331	C33	0.796400	0.541300	0.235610
C341	C34	0.902600	0.566670	0.272150
C351	C35	0.975400	0.620520	0.230390
C361	C36	0.945100	0.649730	0.152960
C371	C37	0.838800	0.623710	0.115940
C381	C38	0.938600	0.538330	0.356440
C391	C39	0.030200	0.701080	0.108500
C401	C40	0.216400	0.659030	0.064800
C411	C41	0.256000	0.746630	0.060870
C421	C42	0.370700	0.758910	0.042750
C431	C43	0.439100	0.686230	0.028800
C441	C44	0.290700	0.588410	0.048480
C451	C45	0.417900	0.851120	0.034480
C461	C46	0.845200	0.036730	0.384600
C471	C47	0.734500	0.069320	0.343030
C481	C48	0.703600	0.041300	0.264390
C491	C49	0.597400	0.066670	0.227850
C501	C50	0.524600	0.120520	0.269610
C511	C51	0.554900	0.149730	0.347040
C521	C52	0.661200	0.123710	0.384060
C531	C53	0.561400	0.038330	0.143560
C541	C54	0.469800	0.201080	0.391500
C551	C55	0.283600	0.159030	0.435200
C561	C56	0.244000	0.246630	0.439130
C571	C57	0.129300	0.258910	0.457250
C581	C58	0.060900	0.186230	0.471200
C591	C59	0.209300	0.088410	0.451520
C601	C60	0.082100	0.351120	0.465520
N11	N1	0.600920	0.397880	0.969490
N21	N2	0.899080	0.897880	0.530510
N31	N3	0.399080	0.602120	0.030510
N41	N4	0.100920	0.102120	0.469490
O11	O1	0.364130	0.436050	0.957850
O21	O2	0.410100	0.514110	0.850840
O31	O3	0.959380	0.442630	0.619060
O41	O4	0.134420	0.502160	0.604730
O51	O5	0.890080	0.366500	0.916870
O61	O6	0.476300	0.145150	0.977540
O71	O7	0.650200	0.085180	0.961750
O81	O8	0.135870	0.936050	0.542150
O91	O9	0.089900	0.014110	0.649160
O101	O10	0.540620	0.942630	0.880940
O111	O11	0.365580	0.002160	0.895270
O121	O12	0.609920	0.866500	0.583130
O131	O13	0.023700	0.645150	0.522460
O141	O14	0.849800	0.585180	0.538250
O151	O15	0.635870	0.563950	0.042150
O161	O16	0.589900	0.485890	0.149160
O171	O17	0.040620	0.557370	0.380940
O181	O18	0.865580	0.497840	0.395270
O191	O19	0.109920	0.633500	0.083130
O201	O20	0.523700	0.854850	0.022460
O211	O21	0.349800	0.914820	0.038250
O221	O22	0.864130	0.063950	0.457850
O231	O23	0.910100	0.985890	0.350840
O241	O24	0.459380	0.057370	0.119060
O251	O25	0.634420	0.997840	0.104730
O261	O26	0.390080	0.133500	0.416870
O271	O27	0.976300	0.354850	0.477540
O281	O28	0.150200	0.414820	0.461750
