data_BEYSEF_clean_PM
_symmetry_space_group_name_H-M	'P1'
_cell_length_a	15.818900
_cell_length_b	15.818900
_cell_length_c	15.818900
_cell_angle_alpha	100.845000
_cell_angle_beta	113.949000
_cell_angle_gamma	113.949000
_symmetry_Int_Tables_number 1

loop_
_symmetry_equiv_pos_as_xyz
'x,y,z'

loop_
_atom_site_label
_atom_site_type_symbol
_atom_site_fract_x
_atom_site_fract_y
_atom_site_fract_z
Co11	Co1	0.493150	0.591170	0.022800
Co21	Co2	0.006850	0.029650	0.098020
Co31	Co3	0.431630	0.022800	0.029650
Co41	Co4	0.068370	0.098020	0.591170
Co51	Co5	0.506850	0.408830	0.977200
Co61	Co6	0.993150	0.970350	0.901980
Co71	Co7	0.568370	0.977200	0.970350
Co81	Co8	0.931630	0.901980	0.408830
H11	H1	0.585200	0.785800	0.997200
H21	H2	0.524500	0.521300	0.731800
H31	H3	0.644900	0.554000	0.807500
H41	H4	0.645200	0.683500	0.759700
H51	H5	0.693300	0.722100	0.877200
H61	H6	0.572500	0.689400	0.801700
H71	H7	0.301900	0.888800	0.107900
H81	H8	0.292200	0.622900	0.148500
H91	H9	0.364800	0.605700	0.120300
H101	H10	0.914800	0.912000	0.200600
H111	H11	0.975500	0.707300	0.996800
H121	H12	0.855100	0.662600	0.909100
H131	H13	0.854800	0.614500	0.038300
H141	H14	0.806700	0.683900	0.028800
H151	H15	0.927500	0.729200	0.116900
H161	H16	0.198100	0.306000	0.586900
H171	H17	0.207800	0.356300	0.330700
H181	H18	0.135200	0.255500	0.240900
H191	H19	0.211400	0.997200	0.912000
H201	H20	0.210500	0.731800	0.707300
H211	H21	0.253500	0.807500	0.662600
H221	H22	0.076200	0.759700	0.614500
H231	H23	0.155100	0.877200	0.683900
H241	H24	0.112300	0.801700	0.729200
H251	H25	0.219100	0.107900	0.306000
H261	H26	0.525600	0.148500	0.356300
H271	H27	0.514600	0.120300	0.255500
H281	H28	0.288600	0.200600	0.785800
H291	H29	0.289500	0.996800	0.521300
H301	H30	0.246500	0.909100	0.554000
H311	H31	0.423800	0.038300	0.683500
H321	H32	0.344900	0.028800	0.722100
H331	H33	0.387700	0.116900	0.689400
H341	H34	0.280900	0.586900	0.888800
H351	H35	0.974400	0.330700	0.622900
H361	H36	0.985400	0.240900	0.605700
H371	H37	0.414800	0.214200	0.002800
H381	H38	0.475500	0.478700	0.268200
H391	H39	0.355100	0.446000	0.192500
H401	H40	0.354800	0.316500	0.240300
H411	H41	0.306700	0.277900	0.122800
H421	H42	0.427500	0.310600	0.198300
H431	H43	0.698100	0.111200	0.892100
H441	H44	0.707800	0.377100	0.851500
H451	H45	0.635200	0.394300	0.879700
H461	H46	0.085200	0.088000	0.799400
H471	H47	0.024500	0.292700	0.003200
H481	H48	0.144900	0.337400	0.090900
H491	H49	0.145200	0.385500	0.961700
H501	H50	0.193300	0.316100	0.971200
H511	H51	0.072500	0.270800	0.883100
H521	H52	0.801900	0.694000	0.413100
H531	H53	0.792200	0.643700	0.669300
H541	H54	0.864800	0.744500	0.759100
H551	H55	0.788600	0.002800	0.088000
H561	H56	0.789500	0.268200	0.292700
H571	H57	0.746500	0.192500	0.337400
H581	H58	0.923800	0.240300	0.385500
H591	H59	0.844900	0.122800	0.316100
H601	H60	0.887700	0.198300	0.270800
H611	H61	0.780900	0.892100	0.694000
H621	H62	0.474400	0.851500	0.643700
H631	H63	0.485400	0.879700	0.744500
H641	H64	0.711400	0.799400	0.214200
H651	H65	0.710500	0.003200	0.478700
H661	H66	0.753500	0.090900	0.446000
H671	H67	0.576200	0.961700	0.316500
H681	H68	0.655100	0.971200	0.277900
H691	H69	0.612300	0.883100	0.310600
H701	H70	0.719100	0.413100	0.111200
H711	H71	0.025600	0.669300	0.377100
H721	H72	0.014600	0.759100	0.394300
C11	C1	0.539450	0.790040	0.018270
C21	C2	0.431750	0.757270	0.072020
C31	C3	0.360860	0.722260	0.106600
C41	C4	0.558480	0.543370	0.874970
C51	C5	0.588290	0.567510	0.800220
C61	C6	0.628400	0.675400	0.810600
C71	C7	0.449640	0.843540	0.054400
C81	C8	0.337120	0.856210	0.099070
C91	C9	0.960550	0.978820	0.250590
C101	C10	0.068250	0.140270	0.325520
C111	C11	0.139140	0.245740	0.361400
C121	C12	0.941520	0.816490	0.984890
C131	C13	0.911710	0.711930	0.979220
C141	C14	0.871600	0.682200	0.047000
C151	C15	0.050360	0.104760	0.393900
C161	C16	0.162880	0.261950	0.519090
C171	C17	0.228230	0.018270	0.978820
C181	C18	0.314750	0.072020	0.140270
C191	C19	0.384340	0.106600	0.245740
C201	C20	0.331600	0.874970	0.816490
C211	C21	0.232710	0.800220	0.711930
C221	C22	0.135200	0.810600	0.682200
C231	C23	0.210860	0.054400	0.104760
C241	C24	0.242860	0.099070	0.261950
C251	C25	0.271770	0.250590	0.790040
C261	C26	0.185250	0.325520	0.757270
C271	C27	0.115660	0.361400	0.722260
C281	C28	0.168400	0.984890	0.543370
C291	C29	0.267290	0.979220	0.567510
C301	C30	0.364800	0.047000	0.675400
C311	C31	0.289140	0.393900	0.843540
C321	C32	0.257140	0.519090	0.856210
C331	C33	0.460550	0.209960	0.981730
C341	C34	0.568250	0.242730	0.927980
C351	C35	0.639140	0.277740	0.893400
C361	C36	0.441520	0.456630	0.125030
C371	C37	0.411710	0.432490	0.199780
C381	C38	0.371600	0.324600	0.189400
C391	C39	0.550360	0.156460	0.945600
C401	C40	0.662880	0.143790	0.900930
C411	C41	0.039450	0.021180	0.749410
C421	C42	0.931750	0.859730	0.674480
C431	C43	0.860860	0.754260	0.638600
C441	C44	0.058480	0.183510	0.015110
C451	C45	0.088290	0.288070	0.020780
C461	C46	0.128400	0.317800	0.953000
C471	C47	0.949640	0.895240	0.606100
C481	C48	0.837120	0.738050	0.480910
C491	C49	0.771770	0.981730	0.021180
C501	C50	0.685250	0.927980	0.859730
C511	C51	0.615660	0.893400	0.754260
C521	C52	0.668400	0.125030	0.183510
C531	C53	0.767290	0.199780	0.288070
C541	C54	0.864800	0.189400	0.317800
C551	C55	0.789140	0.945600	0.895240
C561	C56	0.757140	0.900930	0.738050
C571	C57	0.728230	0.749410	0.209960
C581	C58	0.814750	0.674480	0.242730
C591	C59	0.884340	0.638600	0.277740
C601	C60	0.831600	0.015110	0.456630
C611	C61	0.732710	0.020780	0.432490
C621	C62	0.635200	0.953000	0.324600
C631	C63	0.710860	0.606100	0.156460
C641	C64	0.742860	0.480910	0.143790
N11	N1	0.490480	0.722300	0.047900
N21	N2	0.336350	0.640550	0.127620
N31	N3	0.314180	0.774980	0.119260
N41	N4	0.519010	0.865030	0.020440
N51	N5	0.403800	0.897230	0.067830
N61	N6	0.009520	0.057420	0.231820
N71	N7	0.163650	0.291270	0.304200
N81	N8	0.185820	0.305080	0.460800
N91	N9	0.980990	0.001430	0.346020
N101	N10	0.096200	0.164030	0.493430
N111	N11	0.325600	0.047900	0.057420
N121	N12	0.487070	0.127620	0.291270
N131	N13	0.344280	0.119260	0.305080
N141	N14	0.155410	0.020440	0.001430
N151	N15	0.170600	0.067830	0.164030
N161	N16	0.174400	0.231820	0.722300
N171	N17	0.012930	0.304200	0.640550
N181	N18	0.155720	0.460800	0.774980
N191	N19	0.344590	0.346020	0.865030
N201	N20	0.329400	0.493430	0.897230
N211	N21	0.509520	0.277700	0.952100
N221	N22	0.663650	0.359450	0.872380
N231	N23	0.685820	0.225020	0.880740
N241	N24	0.480990	0.134970	0.979560
N251	N25	0.596200	0.102770	0.932170
N261	N26	0.990480	0.942580	0.768180
N271	N27	0.836350	0.708730	0.695800
N281	N28	0.814180	0.694920	0.539200
N291	N29	0.019010	0.998570	0.653980
N301	N30	0.903800	0.835970	0.506570
N311	N31	0.674400	0.952100	0.942580
N321	N32	0.512930	0.872380	0.708730
N331	N33	0.655720	0.880740	0.694920
N341	N34	0.844590	0.979560	0.998570
N351	N35	0.829400	0.932170	0.835970
N361	N36	0.825600	0.768180	0.277700
N371	N37	0.987070	0.695800	0.359450
N381	N38	0.844280	0.539200	0.225020
N391	N39	0.655410	0.653980	0.134970
N401	N40	0.670600	0.506570	0.102770
O11	O1	0.536330	0.598960	0.917190
O21	O2	0.555280	0.466550	0.889330
O31	O3	0.963670	0.880860	0.062630
O41	O4	0.944720	0.834050	0.911270
O51	O5	0.318230	0.917190	0.880860
O61	O6	0.422780	0.889330	0.834050
O71	O7	0.181770	0.062630	0.598960
O81	O8	0.077220	0.911270	0.466550
O91	O9	0.463670	0.401040	0.082810
O101	O10	0.444720	0.533450	0.110670
O111	O11	0.036330	0.119140	0.937370
O121	O12	0.055280	0.165950	0.088730
O131	O13	0.681770	0.082810	0.119140
O141	O14	0.577220	0.110670	0.165950
O151	O15	0.818230	0.937370	0.401040
O161	O16	0.922780	0.088730	0.533450
