data_BICPUA_clean_PM
_symmetry_space_group_name_H-M	'P1'
_cell_length_a	19.848000
_cell_length_b	19.848000
_cell_length_c	27.853000
_cell_angle_alpha	90.000000
_cell_angle_beta	90.000000
_cell_angle_gamma	120.000000
_symmetry_Int_Tables_number 1

loop_
_symmetry_equiv_pos_as_xyz
'x,y,z'

loop_
_atom_site_label
_atom_site_type_symbol
_atom_site_fract_x
_atom_site_fract_y
_atom_site_fract_z
Yb11	Yb1	0.580330	0.214600	0.750000
Yb21	Yb2	0.634270	0.419670	0.750000
Yb31	Yb3	0.785400	0.365730	0.750000
Yb41	Yb4	0.365730	0.785400	0.250000
Yb51	Yb5	0.214600	0.580330	0.250000
Yb61	Yb6	0.419670	0.634270	0.250000
H11	H1	0.840800	0.246300	0.866400
H21	H2	0.865500	0.179400	0.924000
H31	H3	0.642400	0.015400	0.922100
H41	H4	0.619200	0.083900	0.863700
H51	H5	0.879900	0.075200	0.945000
H61	H6	0.405500	0.159200	0.866400
H71	H7	0.313900	0.134500	0.924000
H81	H8	0.373000	0.357600	0.922100
H91	H9	0.464700	0.380800	0.863700
H101	H10	0.195300	0.120100	0.945000
H111	H11	0.753700	0.594500	0.866400
H121	H12	0.820600	0.686100	0.924000
H131	H13	0.984600	0.627000	0.922100
H141	H14	0.916100	0.535300	0.863700
H151	H15	0.924800	0.804700	0.945000
H161	H16	0.840800	0.246300	0.633600
H171	H17	0.865500	0.179400	0.576000
H181	H18	0.642400	0.015400	0.577900
H191	H19	0.619200	0.083900	0.636300
H201	H20	0.879900	0.075200	0.555000
H211	H21	0.405500	0.159200	0.633600
H221	H22	0.313900	0.134500	0.576000
H231	H23	0.373000	0.357600	0.577900
H241	H24	0.464700	0.380800	0.636300
H251	H25	0.195300	0.120100	0.555000
H261	H26	0.753700	0.594500	0.633600
H271	H27	0.820600	0.686100	0.576000
H281	H28	0.984600	0.627000	0.577900
H291	H29	0.916100	0.535300	0.636300
H301	H30	0.924800	0.804700	0.555000
H311	H31	0.594500	0.753700	0.133600
H321	H32	0.686100	0.820600	0.076000
H331	H33	0.627000	0.984600	0.077900
H341	H34	0.535300	0.916100	0.136300
H351	H35	0.804700	0.924800	0.055000
H361	H36	0.246300	0.840800	0.133600
H371	H37	0.179400	0.865500	0.076000
H381	H38	0.015400	0.642400	0.077900
H391	H39	0.083900	0.619200	0.136300
H401	H40	0.075200	0.879900	0.055000
H411	H41	0.159200	0.405500	0.133600
H421	H42	0.134500	0.313900	0.076000
H431	H43	0.357600	0.373000	0.077900
H441	H44	0.380800	0.464700	0.136300
H451	H45	0.120100	0.195300	0.055000
H461	H46	0.594500	0.753700	0.366400
H471	H47	0.686100	0.820600	0.424000
H481	H48	0.627000	0.984600	0.422100
H491	H49	0.535300	0.916100	0.363700
H501	H50	0.804700	0.924800	0.445000
H511	H51	0.246300	0.840800	0.366400
H521	H52	0.179400	0.865500	0.424000
H531	H53	0.015400	0.642400	0.422100
H541	H54	0.083900	0.619200	0.363700
H551	H55	0.075200	0.879900	0.445000
H561	H56	0.159200	0.405500	0.366400
H571	H57	0.134500	0.313900	0.424000
H581	H58	0.357600	0.373000	0.422100
H591	H59	0.380800	0.464700	0.363700
H601	H60	0.120100	0.195300	0.445000
H611	H61	0.668400	0.000000	0.000000
H621	H62	0.331600	0.331600	0.000000
H631	H63	0.000000	0.668400	0.000000
H641	H64	0.668400	0.000000	0.500000
H651	H65	0.331600	0.331600	0.500000
H661	H66	0.000000	0.668400	0.500000
H671	H67	0.000000	0.116800	0.000000
H681	H68	0.116800	0.000000	0.000000
H691	H69	0.883200	0.883200	0.000000
H701	H70	0.000000	0.116800	0.500000
H711	H71	0.116800	0.000000	0.500000
H721	H72	0.883200	0.883200	0.500000
C11	C1	0.711500	0.214300	0.819500
C21	C2	0.727400	0.170800	0.858500
C31	C3	0.800400	0.199000	0.877400
C41	C4	0.815300	0.159400	0.912100
C51	C5	0.756800	0.090800	0.929100
C61	C6	0.683100	0.062300	0.910800
C71	C7	0.669300	0.103300	0.875600
C81	C8	0.771600	0.044300	0.965800
C91	C9	0.841100	0.044600	0.966900
C101	C10	0.502800	0.288500	0.819500
C111	C11	0.443400	0.272600	0.858500
C121	C12	0.398600	0.199600	0.877400
C131	C13	0.344100	0.184700	0.912100
C141	C14	0.334000	0.243200	0.929100
C151	C15	0.379200	0.316900	0.910800
C161	C16	0.434000	0.330700	0.875600
C171	C17	0.272700	0.228400	0.965800
C181	C18	0.203500	0.158900	0.966900
C191	C19	0.785700	0.497200	0.819500
C201	C20	0.829200	0.556600	0.858500
C211	C21	0.801000	0.601400	0.877400
C221	C22	0.840600	0.655900	0.912100
C231	C23	0.909200	0.666000	0.929100
C241	C24	0.937700	0.620800	0.910800
C251	C25	0.896700	0.566000	0.875600
C261	C26	0.955700	0.727300	0.965800
C271	C27	0.955400	0.796500	0.966900
C281	C28	0.711500	0.214300	0.680500
C291	C29	0.727400	0.170800	0.641500
C301	C30	0.800400	0.199000	0.622600
C311	C31	0.815300	0.159400	0.587900
C321	C32	0.756800	0.090800	0.570900
C331	C33	0.683100	0.062300	0.589200
C341	C34	0.669300	0.103300	0.624400
C351	C35	0.771600	0.044300	0.534200
C361	C36	0.841100	0.044600	0.533100
C371	C37	0.502800	0.288500	0.680500
C381	C38	0.443400	0.272600	0.641500
C391	C39	0.398600	0.199600	0.622600
C401	C40	0.344100	0.184700	0.587900
C411	C41	0.334000	0.243200	0.570900
C421	C42	0.379200	0.316900	0.589200
C431	C43	0.434000	0.330700	0.624400
C441	C44	0.272700	0.228400	0.534200
C451	C45	0.203500	0.158900	0.533100
C461	C46	0.785700	0.497200	0.680500
C471	C47	0.829200	0.556600	0.641500
C481	C48	0.801000	0.601400	0.622600
C491	C49	0.840600	0.655900	0.587900
C501	C50	0.909200	0.666000	0.570900
C511	C51	0.937700	0.620800	0.589200
C521	C52	0.896700	0.566000	0.624400
C531	C53	0.955700	0.727300	0.534200
C541	C54	0.955400	0.796500	0.533100
C551	C55	0.497200	0.785700	0.180500
C561	C56	0.556600	0.829200	0.141500
C571	C57	0.601400	0.801000	0.122600
C581	C58	0.655900	0.840600	0.087900
C591	C59	0.666000	0.909200	0.070900
C601	C60	0.620800	0.937700	0.089200
C611	C61	0.566000	0.896700	0.124400
C621	C62	0.727300	0.955700	0.034200
C631	C63	0.796500	0.955400	0.033100
C641	C64	0.214300	0.711500	0.180500
C651	C65	0.170800	0.727400	0.141500
C661	C66	0.199000	0.800400	0.122600
C671	C67	0.159400	0.815300	0.087900
C681	C68	0.090800	0.756800	0.070900
C691	C69	0.062300	0.683100	0.089200
C701	C70	0.103300	0.669300	0.124400
C711	C71	0.044300	0.771600	0.034200
C721	C72	0.044600	0.841100	0.033100
C731	C73	0.288500	0.502800	0.180500
C741	C74	0.272600	0.443400	0.141500
C751	C75	0.199600	0.398600	0.122600
C761	C76	0.184700	0.344100	0.087900
C771	C77	0.243200	0.334000	0.070900
C781	C78	0.316900	0.379200	0.089200
C791	C79	0.330700	0.434000	0.124400
C801	C80	0.228400	0.272700	0.034200
C811	C81	0.158900	0.203500	0.033100
C821	C82	0.497200	0.785700	0.319500
C831	C83	0.556600	0.829200	0.358500
C841	C84	0.601400	0.801000	0.377400
C851	C85	0.655900	0.840600	0.412100
C861	C86	0.666000	0.909200	0.429100
C871	C87	0.620800	0.937700	0.410800
C881	C88	0.566000	0.896700	0.375600
C891	C89	0.727300	0.955700	0.465800
C901	C90	0.796500	0.955400	0.466900
C911	C91	0.214300	0.711500	0.319500
C921	C92	0.170800	0.727400	0.358500
C931	C93	0.199000	0.800400	0.377400
C941	C94	0.159400	0.815300	0.412100
C951	C95	0.090800	0.756800	0.429100
C961	C96	0.062300	0.683100	0.410800
C971	C97	0.103300	0.669300	0.375600
C981	C98	0.044300	0.771600	0.465800
C991	C99	0.044600	0.841100	0.466900
C1001	C100	0.288500	0.502800	0.319500
C1011	C101	0.272600	0.443400	0.358500
C1021	C102	0.199600	0.398600	0.377400
C1031	C103	0.184700	0.344100	0.412100
C1041	C104	0.243200	0.334000	0.429100
C1051	C105	0.316900	0.379200	0.410800
C1061	C106	0.330700	0.434000	0.375600
C1071	C107	0.228400	0.272700	0.465800
C1081	C108	0.158900	0.203500	0.466900
C1091	C109	0.715200	0.000000	0.000000
C1101	C110	0.854500	0.000000	0.000000
C1111	C111	0.930100	0.000000	0.000000
C1121	C112	0.284800	0.284800	0.000000
C1131	C113	0.145500	0.145500	0.000000
C1141	C114	0.069900	0.069900	0.000000
C1151	C115	0.000000	0.715200	0.000000
C1161	C116	0.000000	0.854500	0.000000
C1171	C117	0.000000	0.930100	0.000000
C1181	C118	0.715200	0.000000	0.500000
C1191	C119	0.854500	0.000000	0.500000
C1201	C120	0.930100	0.000000	0.500000
C1211	C121	0.284800	0.284800	0.500000
C1221	C122	0.145500	0.145500	0.500000
C1231	C123	0.069900	0.069900	0.500000
C1241	C124	0.000000	0.715200	0.500000
C1251	C125	0.000000	0.854500	0.500000
C1261	C126	0.000000	0.930100	0.500000
C1271	C127	0.000000	0.069900	0.000000
C1281	C128	0.069900	0.000000	0.000000
C1291	C129	0.930100	0.930100	0.000000
C1301	C130	0.000000	0.069900	0.500000
C1311	C131	0.069900	0.000000	0.500000
C1321	C132	0.930100	0.930100	0.500000
O11	O1	0.643800	0.186400	0.804900
O21	O2	0.768900	0.278700	0.805400
O31	O3	0.542600	0.356200	0.804900
O41	O4	0.509800	0.231100	0.805400
O51	O5	0.813600	0.457400	0.804900
O61	O6	0.721300	0.490200	0.805400
O71	O7	0.643800	0.186400	0.695100
O81	O8	0.768900	0.278700	0.694600
O91	O9	0.542600	0.356200	0.695100
O101	O10	0.509800	0.231100	0.694600
O111	O11	0.813600	0.457400	0.695100
O121	O12	0.721300	0.490200	0.694600
O131	O13	0.457400	0.813600	0.195100
O141	O14	0.490200	0.721300	0.194600
O151	O15	0.186400	0.643800	0.195100
O161	O16	0.278700	0.768900	0.194600
O171	O17	0.356200	0.542600	0.195100
O181	O18	0.231100	0.509800	0.194600
O191	O19	0.457400	0.813600	0.304900
O201	O20	0.490200	0.721300	0.305400
O211	O21	0.186400	0.643800	0.304900
O221	O22	0.278700	0.768900	0.305400
O231	O23	0.356200	0.542600	0.304900
O241	O24	0.231100	0.509800	0.305400
O251	O25	0.666670	0.333340	0.750000
O261	O26	0.333330	0.666660	0.250000
