data_BIFKEI_clean_PM
_symmetry_space_group_name_H-M	'P1'
_cell_length_a	12.287000
_cell_length_b	12.916000
_cell_length_c	18.199000
_cell_angle_alpha	86.733000
_cell_angle_beta	70.443000
_cell_angle_gamma	80.146000
_symmetry_Int_Tables_number 1

loop_
_symmetry_equiv_pos_as_xyz
'x,y,z'

loop_
_atom_site_label
_atom_site_type_symbol
_atom_site_fract_x
_atom_site_fract_y
_atom_site_fract_z
Cu11	Cu1	0.470700	0.368550	0.838540
Cu21	Cu2	0.724280	0.222620	0.837460
Cu31	Cu3	0.644410	0.254280	0.675210
Cu41	Cu4	0.529300	0.631450	0.161460
Cu51	Cu5	0.275720	0.777380	0.162540
Cu61	Cu6	0.355590	0.745720	0.324790
H11	H1	0.254300	0.271900	0.899700
H21	H2	0.056200	0.323400	0.965200
H31	H3	0.111100	0.619000	0.976800
H41	H4	0.309200	0.567500	0.911200
H51	H5	0.484700	0.109000	0.694800
H61	H6	0.420500	0.001100	0.625800
H71	H7	0.641200	0.094100	0.424800
H81	H8	0.705400	0.202100	0.493800
H91	H9	0.913500	0.225400	0.562000
H101	H10	0.059300	0.325100	0.501700
H111	H11	0.819600	0.587900	0.548000
H121	H12	0.673800	0.488200	0.608300
H131	H13	0.812200	0.040400	0.587000
H141	H14	0.944700	0.030200	0.764800
H151	H15	0.694300	0.268200	0.020600
H161	H16	0.373700	0.421200	0.025800
H171	H17	0.674000	0.380000	0.763000
H181	H18	0.292500	0.512200	0.766500
H191	H19	0.507300	0.398900	0.561300
H201	H20	0.730300	0.042900	0.929000
H211	H21	0.822300	0.952600	0.013700
H221	H22	0.075100	0.120700	0.916900
H231	H23	0.934400	0.240200	0.880500
H241	H24	0.745700	0.728100	0.100300
H251	H25	0.943800	0.676600	0.034800
H261	H26	0.888900	0.381000	0.023200
H271	H27	0.690800	0.432500	0.088800
H281	H28	0.515300	0.891000	0.305200
H291	H29	0.579500	0.998900	0.374200
H301	H30	0.358800	0.905900	0.575200
H311	H31	0.294600	0.797900	0.506200
H321	H32	0.086500	0.774600	0.438000
H331	H33	0.940700	0.674900	0.498300
H341	H34	0.180400	0.412100	0.452000
H351	H35	0.326200	0.511800	0.391700
H361	H36	0.187800	0.959600	0.413000
H371	H37	0.055300	0.969800	0.235200
H381	H38	0.305700	0.731800	0.979400
H391	H39	0.626300	0.578800	0.974200
H401	H40	0.326000	0.620000	0.237000
H411	H41	0.707500	0.487800	0.233500
H421	H42	0.492700	0.601100	0.438700
H431	H43	0.269700	0.957100	0.071000
H441	H44	0.177700	0.047400	0.986300
H451	H45	0.924900	0.879300	0.083100
H461	H46	0.065600	0.759800	0.119500
C11	C1	0.225600	0.341500	0.915100
C21	C2	0.106900	0.372300	0.954400
C31	C3	0.064000	0.476300	0.977500
C41	C4	0.139800	0.549500	0.961300
C51	C5	0.258500	0.518600	0.922000
C61	C6	0.516100	0.106000	0.640700
C71	C7	0.477600	0.041400	0.599300
C81	C8	0.524500	0.036900	0.518500
C91	C9	0.609800	0.097100	0.478900
C101	C10	0.648300	0.161800	0.520300
C111	C11	0.894700	0.298000	0.559200
C121	C12	0.982000	0.357800	0.523100
C131	C13	0.953900	0.466400	0.518800
C141	C14	0.838400	0.515200	0.550800
C151	C15	0.751100	0.455500	0.586900
C161	C16	0.825100	0.056900	0.632200
C171	C17	0.908800	0.999500	0.663600
C181	C18	0.900000	0.051200	0.732600
C191	C19	0.630500	0.297200	0.005400
C201	C20	0.522800	0.352700	0.054300
C211	C21	0.449400	0.383700	0.008300
C221	C22	0.358100	0.480700	0.727000
C231	C23	0.375300	0.496000	0.643300
C241	C24	0.472000	0.415000	0.613900
C251	C25	0.795200	0.066000	0.933800
C261	C26	0.853900	0.007000	0.982400
C271	C27	0.963500	0.033600	0.981300
C281	C28	0.998000	0.109000	0.931600
C291	C29	0.917700	0.174000	0.900000
C301	C30	0.774400	0.658500	0.084900
C311	C31	0.893100	0.627700	0.045600
C321	C32	0.936000	0.523700	0.022500
C331	C33	0.860200	0.450500	0.038700
C341	C34	0.741500	0.481400	0.078000
C351	C35	0.483900	0.894000	0.359300
C361	C36	0.522400	0.958600	0.400700
C371	C37	0.475500	0.963100	0.481500
C381	C38	0.390200	0.902900	0.521100
C391	C39	0.351700	0.838200	0.479700
C401	C40	0.105300	0.702000	0.440800
C411	C41	0.018000	0.642200	0.476900
C421	C42	0.046100	0.533600	0.481200
C431	C43	0.161600	0.484800	0.449200
C441	C44	0.248900	0.544500	0.413100
C451	C45	0.174900	0.943100	0.367800
C461	C46	0.091200	0.000500	0.336400
C471	C47	0.100000	0.948800	0.267400
C481	C48	0.369500	0.702800	0.994600
C491	C49	0.477200	0.647300	0.945700
C501	C50	0.550600	0.616300	0.991700
C511	C51	0.641900	0.519300	0.273000
C521	C52	0.624700	0.504000	0.356700
C531	C53	0.528000	0.585000	0.386100
C541	C54	0.204800	0.934000	0.066200
C551	C55	0.146100	0.993000	0.017600
C561	C56	0.036500	0.966400	0.018700
C571	C57	0.002000	0.891000	0.068400
C581	C58	0.082300	0.826000	0.100000
N11	N1	0.301400	0.414600	0.899000
N21	N2	0.601400	0.166200	0.601200
N31	N3	0.779200	0.346900	0.591100
N41	N4	0.810800	0.140500	0.743900
N51	N5	0.764600	0.144100	0.681900
N61	N6	0.511700	0.347400	0.931100
N71	N7	0.623700	0.293900	0.929300
N81	N8	0.512400	0.359200	0.676500
N91	N9	0.444600	0.418100	0.739700
N101	N10	0.826200	0.147200	0.897500
N111	N11	0.698600	0.585400	0.101000
N121	N12	0.398600	0.833800	0.398800
N131	N13	0.220800	0.653100	0.408900
N141	N14	0.189200	0.859500	0.256100
N151	N15	0.235400	0.855900	0.318100
N161	N16	0.488300	0.652600	0.068900
N171	N17	0.376300	0.706100	0.070700
N181	N18	0.487600	0.640800	0.323500
N191	N19	0.555400	0.581900	0.260300
N201	N20	0.173800	0.852800	0.102500
Cl11	Cl1	0.489000	0.368500	0.150800
Cl21	Cl2	0.007000	0.900600	0.617800
Cl31	Cl3	0.299400	0.558300	0.595700
Cl41	Cl4	0.511000	0.631500	0.849200
Cl51	Cl5	0.993000	0.099400	0.382200
Cl61	Cl6	0.700600	0.441700	0.404300
O11	O1	0.635700	0.317700	0.777000
O21	O2	0.364300	0.682300	0.223000
