data_BIJDUV_clean_PM
_symmetry_space_group_name_H-M	'P1'
_cell_length_a	16.762200
_cell_length_b	34.441900
_cell_length_c	18.447300
_cell_angle_alpha	90.000000
_cell_angle_beta	90.000000
_cell_angle_gamma	90.000000
_symmetry_Int_Tables_number 1

loop_
_symmetry_equiv_pos_as_xyz
'x,y,z'

loop_
_atom_site_label
_atom_site_type_symbol
_atom_site_fract_x
_atom_site_fract_y
_atom_site_fract_z
Ti11	Ti1	0.346910	0.177750	0.829960
Ti21	Ti2	0.224860	0.161740	0.672040
Ti31	Ti3	0.653090	0.822250	0.829960
Ti41	Ti4	0.775140	0.838260	0.672040
Ti51	Ti5	0.846910	0.322250	0.170040
Ti61	Ti6	0.724860	0.338260	0.327960
Ti71	Ti7	0.153090	0.677750	0.170040
Ti81	Ti8	0.275140	0.661740	0.327960
Cd11	Cd1	0.377310	0.005810	0.250160
Cd21	Cd2	0.622690	0.994190	0.250160
Cd31	Cd3	0.877310	0.494190	0.749840
Cd41	Cd4	0.122690	0.505810	0.749840
Cd51	Cd5	0.500000	0.000000	0.410600
Cd61	Cd6	0.000000	0.500000	0.589400
H11	H1	0.341300	0.052600	0.006800
H21	H2	0.452800	0.126700	0.141100
H31	H3	0.522100	0.217200	0.147100
H41	H4	0.534300	0.172100	0.151100
H51	H5	0.450400	0.190100	0.167500
H61	H6	0.576600	0.215800	0.018200
H71	H7	0.535200	0.190000	0.959200
H81	H8	0.585400	0.170500	0.020900
H91	H9	0.446500	0.247200	0.050000
H101	H10	0.371900	0.221400	0.067400
H111	H11	0.406200	0.222700	0.988400
H121	H12	0.377900	0.094600	0.849900
H131	H13	0.307400	0.071000	0.884500
H141	H14	0.238400	0.138400	0.961100
H151	H15	0.181100	0.079200	0.940600
H161	H16	0.132700	0.095300	0.874400
H171	H17	0.043100	0.093100	0.972000
H181	H18	0.103400	0.114800	0.023000
H191	H19	0.007400	0.158200	0.987400
H201	H20	0.022000	0.148200	0.905500
H211	H21	0.085200	0.207900	0.931900
H221	H22	0.134200	0.188400	0.994800
H231	H23	0.149600	0.169800	0.846300
H241	H24	0.164200	0.246900	0.876700
H251	H25	0.190700	0.228400	0.803200
H261	H26	0.179000	0.309700	0.836200
H271	H27	0.396700	0.355200	0.802700
H281	H28	0.582200	0.269500	0.873100
H291	H29	0.501900	0.246800	0.883000
H301	H30	0.513700	0.287200	0.920600
H311	H31	0.592400	0.326800	0.798400
H321	H32	0.527400	0.347100	0.846500
H331	H33	0.517200	0.345700	0.762000
H341	H34	0.563100	0.268000	0.735700
H351	H35	0.484600	0.284900	0.701900
H361	H36	0.482300	0.245700	0.745100
H371	H37	0.086200	0.428200	0.834400
H381	H38	0.147200	0.369900	0.863900
H391	H39	0.331400	0.396600	0.733700
H401	H40	0.270400	0.454900	0.704200
H411	H41	0.174900	0.077600	0.373800
H421	H42	0.360400	0.050700	0.502300
H431	H43	0.050500	0.185400	0.452000
H441	H44	0.139000	0.181800	0.425300
H451	H45	0.119500	0.179600	0.508300
H461	H46	0.982300	0.125100	0.506700
H471	H47	0.054200	0.120200	0.560300
H481	H48	0.028800	0.085600	0.510000
H491	H49	0.005100	0.127500	0.370100
H501	H50	0.048100	0.087300	0.377400
H511	H51	0.091800	0.122200	0.340000
H521	H52	0.359500	0.156400	0.536500
H531	H53	0.497800	0.153900	0.629400
H541	H54	0.482000	0.124300	0.566000
H551	H55	0.492300	0.173500	0.481700
H561	H56	0.570700	0.171600	0.527800
H571	H57	0.531900	0.236000	0.512500
H581	H58	0.528800	0.225200	0.595400
H591	H59	0.394100	0.225400	0.501800
H601	H60	0.408700	0.256200	0.563200
H611	H61	0.395300	0.206500	0.653400
H621	H62	0.290100	0.246500	0.697200
H631	H63	0.301500	0.268500	0.623500
H641	H64	0.208500	0.317800	0.630300
H651	H65	0.976900	0.296500	0.670500
H661	H66	0.000200	0.215400	0.801600
H671	H67	0.040900	0.182500	0.756000
H681	H68	0.949300	0.180400	0.772900
H691	H69	0.924400	0.173600	0.639500
H701	H70	0.016100	0.177100	0.624200
H711	H71	0.955900	0.205000	0.585000
H721	H72	0.899400	0.258900	0.738300
H731	H73	0.855900	0.221400	0.710900
H741	H74	0.882800	0.253300	0.655400
H751	H75	0.137000	0.434700	0.556200
H761	H76	0.169700	0.370400	0.579500
H771	H77	0.963400	0.356800	0.687400
H781	H78	0.930700	0.421000	0.664200
H791	H79	0.299700	0.081900	0.654100
H801	H80	0.381500	0.082900	0.613100
H811	H81	0.658700	0.947400	0.006800
H821	H82	0.547200	0.873300	0.141100
H831	H83	0.477900	0.782800	0.147100
H841	H84	0.465700	0.827900	0.151100
H851	H85	0.549600	0.809900	0.167500
H861	H86	0.423400	0.784200	0.018200
H871	H87	0.464800	0.810000	0.959200
H881	H88	0.414600	0.829500	0.020900
H891	H89	0.553500	0.752800	0.050000
H901	H90	0.628100	0.778600	0.067400
H911	H91	0.593800	0.777300	0.988400
H921	H92	0.622100	0.905400	0.849900
H931	H93	0.692600	0.929000	0.884500
H941	H94	0.761600	0.861600	0.961100
H951	H95	0.818900	0.920800	0.940600
H961	H96	0.867300	0.904700	0.874400
H971	H97	0.956900	0.906900	0.972000
H981	H98	0.896600	0.885200	0.023000
H991	H99	0.992600	0.841800	0.987400
H1001	H100	0.978000	0.851800	0.905500
H1011	H101	0.914800	0.792100	0.931900
H1021	H102	0.865800	0.811600	0.994800
H1031	H103	0.850400	0.830200	0.846300
H1041	H104	0.835800	0.753100	0.876700
H1051	H105	0.809300	0.771600	0.803200
H1061	H106	0.821000	0.690300	0.836200
H1071	H107	0.603300	0.644800	0.802700
H1081	H108	0.417800	0.730500	0.873100
H1091	H109	0.498100	0.753200	0.883000
H1101	H110	0.486300	0.712800	0.920600
H1111	H111	0.407600	0.673200	0.798400
H1121	H112	0.472600	0.652900	0.846500
H1131	H113	0.482800	0.654300	0.762000
H1141	H114	0.436900	0.732000	0.735700
H1151	H115	0.515400	0.715100	0.701900
H1161	H116	0.517700	0.754300	0.745100
H1171	H117	0.913800	0.571800	0.834400
H1181	H118	0.852800	0.630100	0.863900
H1191	H119	0.668600	0.603400	0.733700
H1201	H120	0.729600	0.545100	0.704200
H1211	H121	0.825100	0.922400	0.373800
H1221	H122	0.639600	0.949300	0.502300
H1231	H123	0.949500	0.814600	0.452000
H1241	H124	0.861000	0.818200	0.425300
H1251	H125	0.880500	0.820400	0.508300
H1261	H126	0.017700	0.874900	0.506700
H1271	H127	0.945800	0.879800	0.560300
H1281	H128	0.971200	0.914400	0.510000
H1291	H129	0.994900	0.872500	0.370100
H1301	H130	0.951900	0.912700	0.377400
H1311	H131	0.908200	0.877800	0.340000
H1321	H132	0.640500	0.843600	0.536500
H1331	H133	0.502200	0.846100	0.629400
H1341	H134	0.518000	0.875700	0.566000
H1351	H135	0.507700	0.826500	0.481700
H1361	H136	0.429300	0.828400	0.527800
H1371	H137	0.468100	0.764000	0.512500
H1381	H138	0.471200	0.774800	0.595400
H1391	H139	0.605900	0.774600	0.501800
H1401	H140	0.591300	0.743800	0.563200
H1411	H141	0.604700	0.793500	0.653400
H1421	H142	0.709900	0.753500	0.697200
H1431	H143	0.698500	0.731500	0.623500
H1441	H144	0.791500	0.682200	0.630300
H1451	H145	0.023100	0.703500	0.670500
H1461	H146	0.999800	0.784600	0.801600
H1471	H147	0.959100	0.817500	0.756000
H1481	H148	0.050700	0.819600	0.772900
H1491	H149	0.075600	0.826400	0.639500
H1501	H150	0.983900	0.822900	0.624200
H1511	H151	0.044100	0.795000	0.585000
H1521	H152	0.100600	0.741100	0.738300
H1531	H153	0.144100	0.778600	0.710900
H1541	H154	0.117200	0.746700	0.655400
H1551	H155	0.863000	0.565300	0.556200
H1561	H156	0.830300	0.629600	0.579500
H1571	H157	0.036600	0.643200	0.687400
H1581	H158	0.069300	0.579000	0.664200
H1591	H159	0.700300	0.918100	0.654100
H1601	H160	0.618500	0.917100	0.613100
H1611	H161	0.841300	0.447400	0.993200
H1621	H162	0.952800	0.373300	0.858900
H1631	H163	0.022100	0.282800	0.852900
H1641	H164	0.034300	0.327900	0.848900
H1651	H165	0.950400	0.309900	0.832500
H1661	H166	0.076600	0.284200	0.981800
H1671	H167	0.035200	0.310000	0.040800
H1681	H168	0.085400	0.329500	0.979100
H1691	H169	0.946500	0.252800	0.950000
H1701	H170	0.871900	0.278600	0.932600
H1711	H171	0.906200	0.277300	0.011600
H1721	H172	0.877900	0.405400	0.150100
H1731	H173	0.807400	0.429000	0.115500
H1741	H174	0.738400	0.361600	0.038900
H1751	H175	0.681100	0.420800	0.059400
H1761	H176	0.632700	0.404700	0.125600
H1771	H177	0.543100	0.406900	0.028000
H1781	H178	0.603400	0.385200	0.977000
H1791	H179	0.507400	0.341800	0.012600
H1801	H180	0.522000	0.351800	0.094500
H1811	H181	0.585200	0.292100	0.068100
H1821	H182	0.634200	0.311600	0.005200
H1831	H183	0.649600	0.330200	0.153700
H1841	H184	0.664200	0.253100	0.123300
H1851	H185	0.690700	0.271600	0.196800
H1861	H186	0.679000	0.190300	0.163800
H1871	H187	0.896700	0.144800	0.197300
H1881	H188	0.082200	0.230500	0.126900
H1891	H189	0.001900	0.253200	0.117000
H1901	H190	0.013700	0.212800	0.079400
H1911	H191	0.092400	0.173200	0.201600
H1921	H192	0.027400	0.152900	0.153500
H1931	H193	0.017200	0.154300	0.238000
H1941	H194	0.063100	0.232000	0.264300
H1951	H195	0.984600	0.215100	0.298100
H1961	H196	0.982300	0.254300	0.254900
H1971	H197	0.586200	0.071800	0.165600
H1981	H198	0.647200	0.130100	0.136100
H1991	H199	0.831400	0.103400	0.266300
H2001	H200	0.770400	0.045100	0.295800
H2011	H201	0.674900	0.422400	0.626200
H2021	H202	0.860400	0.449300	0.497700
H2031	H203	0.550500	0.314600	0.548000
H2041	H204	0.639000	0.318200	0.574700
H2051	H205	0.619500	0.320400	0.491700
H2061	H206	0.482300	0.374900	0.493300
H2071	H207	0.554200	0.379800	0.439700
H2081	H208	0.528800	0.414400	0.490000
H2091	H209	0.505100	0.372500	0.629900
H2101	H210	0.548100	0.412700	0.622600
H2111	H211	0.591800	0.377800	0.660000
H2121	H212	0.859500	0.343600	0.463500
H2131	H213	0.997800	0.346100	0.370600
H2141	H214	0.982000	0.375700	0.434000
H2151	H215	0.992300	0.326500	0.518300
H2161	H216	0.070700	0.328400	0.472200
H2171	H217	0.031900	0.264000	0.487500
H2181	H218	0.028800	0.274800	0.404600
H2191	H219	0.894100	0.274600	0.498200
H2201	H220	0.908700	0.243800	0.436800
H2211	H221	0.895300	0.293500	0.346600
H2221	H222	0.790100	0.253500	0.302800
H2231	H223	0.801500	0.231500	0.376500
H2241	H224	0.708500	0.182200	0.369700
H2251	H225	0.476900	0.203500	0.329500
H2261	H226	0.500200	0.284600	0.198400
H2271	H227	0.540900	0.317500	0.244000
H2281	H228	0.449300	0.319600	0.227100
H2291	H229	0.424400	0.326400	0.360500
H2301	H230	0.516100	0.322900	0.375800
H2311	H231	0.455900	0.295000	0.415000
H2321	H232	0.399400	0.241100	0.261700
H2331	H233	0.355900	0.278600	0.289100
H2341	H234	0.382800	0.246700	0.344600
H2351	H235	0.637000	0.065300	0.443800
H2361	H236	0.669700	0.129600	0.420500
H2371	H237	0.463400	0.143200	0.312600
H2381	H238	0.430700	0.079000	0.335800
H2391	H239	0.799700	0.418100	0.345900
H2401	H240	0.881500	0.417100	0.386900
H2411	H241	0.158700	0.552600	0.993200
H2421	H242	0.047200	0.626700	0.858900
H2431	H243	0.977900	0.717200	0.852900
H2441	H244	0.965700	0.672100	0.848900
H2451	H245	0.049600	0.690100	0.832500
H2461	H246	0.923400	0.715800	0.981800
H2471	H247	0.964800	0.690000	0.040800
H2481	H248	0.914600	0.670500	0.979100
H2491	H249	0.053500	0.747200	0.950000
H2501	H250	0.128100	0.721400	0.932600
H2511	H251	0.093800	0.722700	0.011600
H2521	H252	0.122100	0.594600	0.150100
H2531	H253	0.192600	0.571000	0.115500
H2541	H254	0.261600	0.638400	0.038900
H2551	H255	0.318900	0.579200	0.059400
H2561	H256	0.367300	0.595300	0.125600
H2571	H257	0.456900	0.593100	0.028000
H2581	H258	0.396600	0.614800	0.977000
H2591	H259	0.492600	0.658200	0.012600
H2601	H260	0.478000	0.648200	0.094500
H2611	H261	0.414800	0.707900	0.068100
H2621	H262	0.365800	0.688400	0.005200
H2631	H263	0.350400	0.669800	0.153700
H2641	H264	0.335800	0.746900	0.123300
H2651	H265	0.309300	0.728400	0.196800
H2661	H266	0.321000	0.809700	0.163800
H2671	H267	0.103300	0.855200	0.197300
H2681	H268	0.917800	0.769500	0.126900
H2691	H269	0.998100	0.746800	0.117000
H2701	H270	0.986300	0.787200	0.079400
H2711	H271	0.907600	0.826800	0.201600
H2721	H272	0.972600	0.847100	0.153500
H2731	H273	0.982800	0.845700	0.238000
H2741	H274	0.936900	0.768000	0.264300
H2751	H275	0.015400	0.784900	0.298100
H2761	H276	0.017700	0.745700	0.254900
H2771	H277	0.413800	0.928200	0.165600
H2781	H278	0.352800	0.869900	0.136100
H2791	H279	0.168600	0.896600	0.266300
H2801	H280	0.229600	0.954900	0.295800
H2811	H281	0.325100	0.577600	0.626200
H2821	H282	0.139600	0.550700	0.497700
H2831	H283	0.449500	0.685400	0.548000
H2841	H284	0.361000	0.681800	0.574700
H2851	H285	0.380500	0.679600	0.491700
H2861	H286	0.517700	0.625100	0.493300
H2871	H287	0.445800	0.620200	0.439700
H2881	H288	0.471200	0.585600	0.490000
H2891	H289	0.494900	0.627500	0.629900
H2901	H290	0.451900	0.587300	0.622600
H2911	H291	0.408200	0.622200	0.660000
H2921	H292	0.140500	0.656400	0.463500
H2931	H293	0.002200	0.653900	0.370600
H2941	H294	0.018000	0.624300	0.434000
H2951	H295	0.007700	0.673500	0.518300
H2961	H296	0.929300	0.671600	0.472200
H2971	H297	0.968100	0.736000	0.487500
H2981	H298	0.971200	0.725200	0.404600
H2991	H299	0.105900	0.725400	0.498200
H3001	H300	0.091300	0.756200	0.436800
H3011	H301	0.104700	0.706500	0.346600
H3021	H302	0.209900	0.746500	0.302800
H3031	H303	0.198500	0.768500	0.376500
H3041	H304	0.291500	0.817800	0.369700
H3051	H305	0.523100	0.796500	0.329500
H3061	H306	0.499800	0.715400	0.198400
H3071	H307	0.459100	0.682500	0.244000
H3081	H308	0.550700	0.680400	0.227100
H3091	H309	0.575600	0.673600	0.360500
H3101	H310	0.483900	0.677100	0.375800
H3111	H311	0.544100	0.705000	0.415000
H3121	H312	0.600600	0.758900	0.261700
H3131	H313	0.644100	0.721400	0.289100
H3141	H314	0.617200	0.753300	0.344600
H3151	H315	0.363000	0.934700	0.443800
H3161	H316	0.330300	0.870400	0.420500
H3171	H317	0.536600	0.856800	0.312600
H3181	H318	0.569300	0.921000	0.335800
H3191	H319	0.200300	0.581900	0.345900
H3201	H320	0.118500	0.582900	0.386900
C11	C1	0.393000	0.056100	0.141700
C21	C2	0.396600	0.085130	0.083000
C31	C3	0.364700	0.076680	0.015300
C41	C4	0.367700	0.104200	0.960200
C51	C5	0.402700	0.140170	0.973000
C61	C6	0.434500	0.148610	0.040700
C71	C7	0.431500	0.121100	0.095700
C81	C8	0.475100	0.188900	0.056800
C91	C9	0.497600	0.192400	0.138500
C101	C10	0.550100	0.191500	0.009300
C111	C11	0.419700	0.223300	0.038900
C121	C12	0.334400	0.095900	0.884400
C131	C13	0.213800	0.134700	0.913400
C141	C14	0.154100	0.101900	0.921600
C151	C15	0.083700	0.113200	0.973600
C161	C16	0.047900	0.151100	0.952300
C171	C17	0.110600	0.184000	0.947500
C181	C18	0.174500	0.172600	0.894100
C191	C19	0.209800	0.236800	0.850300
C201	C20	0.267500	0.269870	0.838500
C211	C21	0.233900	0.306600	0.831700
C221	C22	0.282300	0.338560	0.818300
C231	C23	0.364300	0.333820	0.811600
C241	C24	0.397900	0.297100	0.818400
C251	C25	0.349600	0.265130	0.831800
C261	C26	0.490800	0.292600	0.810400
C271	C27	0.525400	0.272100	0.878200
C281	C28	0.536300	0.331800	0.803700
C291	C29	0.506600	0.270900	0.742200
C301	C30	0.135400	0.421900	0.814200
C311	C31	0.171900	0.386900	0.831900
C321	C32	0.245400	0.377400	0.801700
C331	C33	0.282300	0.402900	0.753900
C341	C34	0.245700	0.437900	0.736200
C351	C35	0.307400	0.033600	0.371000
C361	C36	0.272200	0.059860	0.429500
C371	C37	0.202900	0.081000	0.416900
C381	C38	0.175500	0.107100	0.468600
C391	C39	0.217300	0.112110	0.533000
C401	C40	0.286600	0.091000	0.545600
C411	C41	0.314000	0.064900	0.493900
C421	C42	0.091000	0.128000	0.454600
C431	C43	0.101000	0.173100	0.460600
C441	C44	0.033700	0.113300	0.513400
C451	C45	0.055400	0.115000	0.377800
C461	C46	0.383000	0.160800	0.584400
C471	C47	0.474500	0.151000	0.581500
C481	C48	0.514300	0.177900	0.529700
C491	C49	0.505200	0.220000	0.548400
C501	C50	0.416400	0.229200	0.549800
C511	C51	0.371900	0.202500	0.605300
C521	C52	0.270400	0.248700	0.648000
C531	C53	0.184800	0.261180	0.650000
C541	C54	0.167800	0.300400	0.641300
C551	C55	0.089900	0.313640	0.648900
C561	C56	0.029000	0.287660	0.665300
C571	C57	0.046100	0.248440	0.674100
C581	C58	0.124000	0.235200	0.666400
C591	C59	0.975000	0.220400	0.691400
C601	C60	0.993100	0.197500	0.762200
C611	C61	0.967100	0.191300	0.629300
C621	C62	0.896200	0.240300	0.699800
C631	C63	0.102200	0.419070	0.582500
C641	C64	0.121800	0.380600	0.596500
C651	C65	0.069800	0.357230	0.635800
C661	C66	0.998200	0.372400	0.661100
C671	C67	0.978600	0.410900	0.647200
C681	C68	0.329600	0.095200	0.616700
C691	C69	0.607000	0.943900	0.141700
C701	C70	0.603400	0.914870	0.083000
C711	C71	0.635300	0.923320	0.015300
C721	C72	0.632300	0.895800	0.960200
C731	C73	0.597300	0.859830	0.973000
C741	C74	0.565500	0.851390	0.040700
C751	C75	0.568500	0.878900	0.095700
C761	C76	0.524900	0.811100	0.056800
C771	C77	0.502400	0.807600	0.138500
C781	C78	0.449900	0.808500	0.009300
C791	C79	0.580300	0.776700	0.038900
C801	C80	0.665600	0.904100	0.884400
C811	C81	0.786200	0.865300	0.913400
C821	C82	0.845900	0.898100	0.921600
C831	C83	0.916300	0.886800	0.973600
C841	C84	0.952100	0.848900	0.952300
C851	C85	0.889400	0.816000	0.947500
C861	C86	0.825500	0.827400	0.894100
C871	C87	0.790200	0.763200	0.850300
C881	C88	0.732500	0.730130	0.838500
C891	C89	0.766100	0.693400	0.831700
C901	C90	0.717700	0.661440	0.818300
C911	C91	0.635700	0.666180	0.811600
C921	C92	0.602100	0.702900	0.818400
C931	C93	0.650400	0.734870	0.831800
C941	C94	0.509200	0.707400	0.810400
C951	C95	0.474600	0.727900	0.878200
C961	C96	0.463700	0.668200	0.803700
C971	C97	0.493400	0.729100	0.742200
C981	C98	0.864600	0.578100	0.814200
C991	C99	0.828100	0.613100	0.831900
C1001	C100	0.754600	0.622600	0.801700
C1011	C101	0.717700	0.597100	0.753900
C1021	C102	0.754300	0.562100	0.736200
C1031	C103	0.692600	0.966400	0.371000
C1041	C104	0.727800	0.940140	0.429500
C1051	C105	0.797100	0.919000	0.416900
C1061	C106	0.824500	0.892900	0.468600
C1071	C107	0.782700	0.887890	0.533000
C1081	C108	0.713400	0.909000	0.545600
C1091	C109	0.686000	0.935100	0.493900
C1101	C110	0.909000	0.872000	0.454600
C1111	C111	0.899000	0.826900	0.460600
C1121	C112	0.966300	0.886700	0.513400
C1131	C113	0.944600	0.885000	0.377800
C1141	C114	0.617000	0.839200	0.584400
C1151	C115	0.525500	0.849000	0.581500
C1161	C116	0.485700	0.822100	0.529700
C1171	C117	0.494800	0.780000	0.548400
C1181	C118	0.583600	0.770800	0.549800
C1191	C119	0.628100	0.797500	0.605300
C1201	C120	0.729600	0.751300	0.648000
C1211	C121	0.815200	0.738820	0.650000
C1221	C122	0.832200	0.699600	0.641300
C1231	C123	0.910100	0.686360	0.648900
C1241	C124	0.971000	0.712340	0.665300
C1251	C125	0.953900	0.751560	0.674100
C1261	C126	0.876000	0.764800	0.666400
C1271	C127	0.025000	0.779600	0.691400
C1281	C128	0.006900	0.802500	0.762200
C1291	C129	0.032900	0.808700	0.629300
C1301	C130	0.103800	0.759700	0.699800
C1311	C131	0.897800	0.580930	0.582500
C1321	C132	0.878200	0.619400	0.596500
C1331	C133	0.930200	0.642770	0.635800
C1341	C134	0.001800	0.627600	0.661100
C1351	C135	0.021400	0.589100	0.647200
C1361	C136	0.670400	0.904800	0.616700
C1371	C137	0.893000	0.443900	0.858300
C1381	C138	0.896600	0.414870	0.917000
C1391	C139	0.864700	0.423320	0.984700
C1401	C140	0.867700	0.395800	0.039800
C1411	C141	0.902700	0.359830	0.027000
C1421	C142	0.934500	0.351390	0.959300
C1431	C143	0.931500	0.378900	0.904300
C1441	C144	0.975100	0.311100	0.943200
C1451	C145	0.997600	0.307600	0.861500
C1461	C146	0.050100	0.308500	0.990700
C1471	C147	0.919700	0.276700	0.961100
C1481	C148	0.834400	0.404100	0.115600
C1491	C149	0.713800	0.365300	0.086600
C1501	C150	0.654100	0.398100	0.078400
C1511	C151	0.583700	0.386800	0.026400
C1521	C152	0.547900	0.348900	0.047700
C1531	C153	0.610600	0.316000	0.052500
C1541	C154	0.674500	0.327400	0.105900
C1551	C155	0.709800	0.263200	0.149700
C1561	C156	0.767500	0.230130	0.161500
C1571	C157	0.733900	0.193400	0.168300
C1581	C158	0.782300	0.161440	0.181700
C1591	C159	0.864300	0.166180	0.188400
C1601	C160	0.897900	0.202900	0.181600
C1611	C161	0.849600	0.234870	0.168200
C1621	C162	0.990800	0.207400	0.189600
C1631	C163	0.025400	0.227900	0.121800
C1641	C164	0.036300	0.168200	0.196300
C1651	C165	0.006600	0.229100	0.257800
C1661	C166	0.635400	0.078100	0.185800
C1671	C167	0.671900	0.113100	0.168100
C1681	C168	0.745400	0.122600	0.198300
C1691	C169	0.782300	0.097100	0.246100
C1701	C170	0.745700	0.062100	0.263800
C1711	C171	0.807400	0.466400	0.629000
C1721	C172	0.772200	0.440140	0.570500
C1731	C173	0.702900	0.419000	0.583100
C1741	C174	0.675500	0.392900	0.531400
C1751	C175	0.717300	0.387890	0.467000
C1761	C176	0.786600	0.409000	0.454400
C1771	C177	0.814000	0.435100	0.506100
C1781	C178	0.591000	0.372000	0.545400
C1791	C179	0.601000	0.326900	0.539400
C1801	C180	0.533700	0.386700	0.486600
C1811	C181	0.555400	0.385000	0.622200
C1821	C182	0.883000	0.339200	0.415600
C1831	C183	0.974500	0.349000	0.418500
C1841	C184	0.014300	0.322100	0.470300
C1851	C185	0.005200	0.280000	0.451600
C1861	C186	0.916400	0.270800	0.450200
C1871	C187	0.871900	0.297500	0.394700
C1881	C188	0.770400	0.251300	0.352000
C1891	C189	0.684800	0.238820	0.350000
C1901	C190	0.667800	0.199600	0.358700
C1911	C191	0.589900	0.186360	0.351100
C1921	C192	0.529000	0.212340	0.334700
C1931	C193	0.546100	0.251560	0.325900
C1941	C194	0.624000	0.264800	0.333600
C1951	C195	0.475000	0.279600	0.308600
C1961	C196	0.493100	0.302500	0.237800
C1971	C197	0.467100	0.308700	0.370700
C1981	C198	0.396200	0.259700	0.300200
C1991	C199	0.602200	0.080930	0.417500
C2001	C200	0.621800	0.119400	0.403500
C2011	C201	0.569800	0.142770	0.364200
C2021	C202	0.498200	0.127600	0.338900
C2031	C203	0.478600	0.089100	0.352800
C2041	C204	0.829600	0.404800	0.383300
C2051	C205	0.107000	0.556100	0.858300
C2061	C206	0.103400	0.585130	0.917000
C2071	C207	0.135300	0.576680	0.984700
C2081	C208	0.132300	0.604200	0.039800
C2091	C209	0.097300	0.640170	0.027000
C2101	C210	0.065500	0.648610	0.959300
C2111	C211	0.068500	0.621100	0.904300
C2121	C212	0.024900	0.688900	0.943200
C2131	C213	0.002400	0.692400	0.861500
C2141	C214	0.949900	0.691500	0.990700
C2151	C215	0.080300	0.723300	0.961100
C2161	C216	0.165600	0.595900	0.115600
C2171	C217	0.286200	0.634700	0.086600
C2181	C218	0.345900	0.601900	0.078400
C2191	C219	0.416300	0.613200	0.026400
C2201	C220	0.452100	0.651100	0.047700
C2211	C221	0.389400	0.684000	0.052500
C2221	C222	0.325500	0.672600	0.105900
C2231	C223	0.290200	0.736800	0.149700
C2241	C224	0.232500	0.769870	0.161500
C2251	C225	0.266100	0.806600	0.168300
C2261	C226	0.217700	0.838560	0.181700
C2271	C227	0.135700	0.833820	0.188400
C2281	C228	0.102100	0.797100	0.181600
C2291	C229	0.150400	0.765130	0.168200
C2301	C230	0.009200	0.792600	0.189600
C2311	C231	0.974600	0.772100	0.121800
C2321	C232	0.963700	0.831800	0.196300
C2331	C233	0.993400	0.770900	0.257800
C2341	C234	0.364600	0.921900	0.185800
C2351	C235	0.328100	0.886900	0.168100
C2361	C236	0.254600	0.877400	0.198300
C2371	C237	0.217700	0.902900	0.246100
C2381	C238	0.254300	0.937900	0.263800
C2391	C239	0.192600	0.533600	0.629000
C2401	C240	0.227800	0.559860	0.570500
C2411	C241	0.297100	0.581000	0.583100
C2421	C242	0.324500	0.607100	0.531400
C2431	C243	0.282700	0.612110	0.467000
C2441	C244	0.213400	0.591000	0.454400
C2451	C245	0.186000	0.564900	0.506100
C2461	C246	0.409000	0.628000	0.545400
C2471	C247	0.399000	0.673100	0.539400
C2481	C248	0.466300	0.613300	0.486600
C2491	C249	0.444600	0.615000	0.622200
C2501	C250	0.117000	0.660800	0.415600
C2511	C251	0.025500	0.651000	0.418500
C2521	C252	0.985700	0.677900	0.470300
C2531	C253	0.994800	0.720000	0.451600
C2541	C254	0.083600	0.729200	0.450200
C2551	C255	0.128100	0.702500	0.394700
C2561	C256	0.229600	0.748700	0.352000
C2571	C257	0.315200	0.761180	0.350000
C2581	C258	0.332200	0.800400	0.358700
C2591	C259	0.410100	0.813640	0.351100
C2601	C260	0.471000	0.787660	0.334700
C2611	C261	0.453900	0.748440	0.325900
C2621	C262	0.376000	0.735200	0.333600
C2631	C263	0.525000	0.720400	0.308600
C2641	C264	0.506900	0.697500	0.237800
C2651	C265	0.532900	0.691300	0.370700
C2661	C266	0.603800	0.740300	0.300200
C2671	C267	0.397800	0.919070	0.417500
C2681	C268	0.378200	0.880600	0.403500
C2691	C269	0.430200	0.857230	0.364200
C2701	C270	0.501800	0.872400	0.338900
C2711	C271	0.521400	0.910900	0.352800
C2721	C272	0.170400	0.595200	0.383300
Br11	Br1	0.500000	0.000000	0.550570
Br21	Br2	0.000000	0.500000	0.449430
N11	N1	0.279000	0.126000	0.862900
N21	N2	0.238900	0.203400	0.888300
N31	N3	0.340700	0.136800	0.638500
N41	N4	0.282300	0.210600	0.609900
N51	N5	0.172300	0.447400	0.766400
N61	N6	0.030600	0.434220	0.607900
N71	N7	0.721000	0.874000	0.862900
N81	N8	0.761100	0.796600	0.888300
N91	N9	0.659300	0.863200	0.638500
N101	N10	0.717700	0.789400	0.609900
N111	N11	0.827700	0.552600	0.766400
N121	N12	0.969400	0.565780	0.607900
N131	N13	0.779000	0.374000	0.137100
N141	N14	0.738900	0.296600	0.111700
N151	N15	0.840700	0.363200	0.361500
N161	N16	0.782300	0.289400	0.390100
N171	N17	0.672300	0.052600	0.233600
N181	N18	0.530600	0.065780	0.392100
N191	N19	0.221000	0.626000	0.137100
N201	N20	0.261100	0.703400	0.111700
N211	N21	0.159300	0.636800	0.361500
N221	N22	0.217700	0.710600	0.390100
N231	N23	0.327700	0.947400	0.233600
N241	N24	0.469400	0.934220	0.392100
O11	O1	0.419900	0.064600	0.201500
O21	O2	0.360100	0.024600	0.131700
O31	O3	0.400000	0.167300	0.920100
O41	O4	0.379500	0.229300	0.831300
O51	O5	0.281900	0.178960	0.750200
O61	O6	0.367600	0.012900	0.383500
O71	O7	0.274800	0.034300	0.307300
O81	O8	0.192300	0.138100	0.581600
O91	O9	0.139700	0.196930	0.676400
O101	O10	0.580100	0.935400	0.201500
O111	O11	0.639900	0.975400	0.131700
O121	O12	0.600000	0.832700	0.920100
O131	O13	0.620500	0.770700	0.831300
O141	O14	0.718100	0.821040	0.750200
O151	O15	0.632400	0.987100	0.383500
O161	O16	0.725200	0.965700	0.307300
O171	O17	0.807700	0.861900	0.581600
O181	O18	0.860300	0.803070	0.676400
O191	O19	0.919900	0.435400	0.798500
O201	O20	0.860100	0.475400	0.868300
O211	O21	0.900000	0.332700	0.079900
O221	O22	0.879500	0.270700	0.168700
O231	O23	0.781900	0.321040	0.249800
O241	O24	0.867600	0.487100	0.616500
O251	O25	0.774800	0.465700	0.692700
O261	O26	0.692300	0.361900	0.418400
O271	O27	0.639700	0.303070	0.323600
O281	O28	0.080100	0.564600	0.798500
O291	O29	0.139900	0.524600	0.868300
O301	O30	0.100000	0.667300	0.079900
O311	O31	0.120500	0.729300	0.168700
O321	O32	0.218100	0.678960	0.249800
O331	O33	0.132400	0.512900	0.616500
O341	O34	0.225200	0.534300	0.692700
O351	O35	0.307700	0.638100	0.418400
O361	O36	0.360300	0.696930	0.323600
O371	O37	0.500000	0.000000	0.281800
O381	O38	0.000000	0.500000	0.718200
