data_BIMDIL_clean_PM
_symmetry_space_group_name_H-M	'P1'
_cell_length_a	8.467100
_cell_length_b	8.467100
_cell_length_c	14.443700
_cell_angle_alpha	90.000000
_cell_angle_beta	90.000000
_cell_angle_gamma	90.000000
_symmetry_Int_Tables_number 1

loop_
_symmetry_equiv_pos_as_xyz
'x,y,z'

loop_
_atom_site_label
_atom_site_type_symbol
_atom_site_fract_x
_atom_site_fract_y
_atom_site_fract_z
Cu11	Cu1	0.500000	0.853000	0.000000
Cu21	Cu2	0.500000	0.147000	0.000000
Cu31	Cu3	0.147000	0.500000	0.500000
Cu41	Cu4	0.853000	0.500000	0.500000
H11	H1	0.755900	0.850000	0.710500
H21	H2	0.244100	0.150000	0.710500
H31	H3	0.150000	0.755900	0.210500
H41	H4	0.850000	0.244100	0.210500
H51	H5	0.244100	0.850000	0.289500
H61	H6	0.755900	0.150000	0.289500
H71	H7	0.850000	0.755900	0.789500
H81	H8	0.150000	0.244100	0.789500
H91	H9	0.244100	0.150000	0.289500
H101	H10	0.755900	0.850000	0.289500
H111	H11	0.850000	0.244100	0.789500
H121	H12	0.150000	0.755900	0.789500
H131	H13	0.755900	0.150000	0.710500
H141	H14	0.244100	0.850000	0.710500
H151	H15	0.150000	0.244100	0.210500
H161	H16	0.850000	0.755900	0.210500
H171	H17	0.000000	0.094700	0.913200
H181	H18	0.000000	0.905300	0.913200
H191	H19	0.905300	0.000000	0.413200
H201	H20	0.094700	0.000000	0.413200
H211	H21	0.000000	0.094700	0.086800
H221	H22	0.000000	0.905300	0.086800
H231	H23	0.094700	0.000000	0.586800
H241	H24	0.905300	0.000000	0.586800
C11	C1	0.712300	0.000000	0.878300
C21	C2	0.850900	0.000000	0.811100
C31	C3	0.287700	0.000000	0.878300
C41	C4	0.149100	0.000000	0.811100
C51	C5	0.000000	0.712300	0.378300
C61	C6	0.000000	0.850900	0.311100
C71	C7	0.000000	0.287700	0.378300
C81	C8	0.000000	0.149100	0.311100
C91	C9	0.287700	0.000000	0.121700
C101	C10	0.149100	0.000000	0.188900
C111	C11	0.712300	0.000000	0.121700
C121	C12	0.850900	0.000000	0.188900
C131	C13	0.000000	0.712300	0.621700
C141	C14	0.000000	0.850900	0.688900
C151	C15	0.000000	0.287700	0.621700
C161	C16	0.000000	0.149100	0.688900
C171	C17	0.851400	0.851400	0.750000
C181	C18	0.148600	0.148600	0.750000
C191	C19	0.148600	0.851400	0.250000
C201	C20	0.851400	0.148600	0.250000
C211	C21	0.148600	0.148600	0.250000
C221	C22	0.851400	0.851400	0.250000
C231	C23	0.851400	0.148600	0.750000
C241	C24	0.148600	0.851400	0.750000
C251	C25	0.000000	0.000000	0.873000
C261	C26	0.000000	0.000000	0.373000
C271	C27	0.000000	0.000000	0.127000
C281	C28	0.000000	0.000000	0.627000
O11	O1	0.661800	0.868300	0.905800
O21	O2	0.338200	0.131700	0.905800
O31	O3	0.131700	0.661800	0.405800
O41	O4	0.868300	0.338200	0.405800
O51	O5	0.338200	0.868300	0.094200
O61	O6	0.661800	0.131700	0.094200
O71	O7	0.868300	0.661800	0.594200
O81	O8	0.131700	0.338200	0.594200
O91	O9	0.338200	0.131700	0.094200
O101	O10	0.661800	0.868300	0.094200
O111	O11	0.868300	0.338200	0.594200
O121	O12	0.131700	0.661800	0.594200
O131	O13	0.661800	0.131700	0.905800
O141	O14	0.338200	0.868300	0.905800
O151	O15	0.131700	0.338200	0.405800
O161	O16	0.868300	0.661800	0.405800
