data_BINDAF_manual_PM
_symmetry_space_group_name_H-M	'P1'
_cell_length_a	22.039000
_cell_length_b	22.039000
_cell_length_c	22.039000
_cell_angle_alpha	90.000000
_cell_angle_beta	90.000000
_cell_angle_gamma	90.000000
_symmetry_Int_Tables_number 1

loop_
_symmetry_equiv_pos_as_xyz
'x,y,z'

loop_
_atom_site_label
_atom_site_type_symbol
_atom_site_fract_x
_atom_site_fract_y
_atom_site_fract_z
H11	H1	0.351990	0.859090	0.200780
C21	C2	0.281640	0.049840	0.874240
H31	H3	0.261560	0.026880	0.832470
C41	C4	0.330090	0.025050	0.902560
H51	H5	0.353310	0.983430	0.882440
H61	H6	0.648010	0.140910	0.200780
C71	C7	0.718360	0.950160	0.874240
H81	H8	0.738440	0.973120	0.832470
C91	C9	0.669910	0.974950	0.902560
H101	H10	0.646690	0.016570	0.882440
H111	H11	0.648010	0.859090	0.799220
C121	C12	0.718360	0.049840	0.125760
H131	H13	0.738440	0.026880	0.167530
C141	C14	0.669910	0.025050	0.097440
H151	H15	0.646690	0.983430	0.117560
H161	H16	0.351990	0.140910	0.799220
C171	C17	0.281640	0.950160	0.125760
H181	H18	0.261560	0.973120	0.167530
C191	C19	0.330090	0.974950	0.097440
H201	H20	0.353310	0.016570	0.117560
H211	H21	0.200780	0.351990	0.859090
C221	C22	0.874240	0.281640	0.049840
H231	H23	0.832470	0.261560	0.026880
C241	C24	0.902560	0.330090	0.025050
H251	H25	0.882440	0.353310	0.983430
H261	H26	0.200780	0.648010	0.140910
C271	C27	0.874240	0.718360	0.950160
H281	H28	0.832470	0.738440	0.973120
C291	C29	0.902560	0.669910	0.974950
H301	H30	0.882440	0.646690	0.016570
H311	H31	0.799220	0.648010	0.859090
C321	C32	0.125760	0.718360	0.049840
H331	H33	0.167530	0.738440	0.026880
C341	C34	0.097440	0.669910	0.025050
H351	H35	0.117560	0.646690	0.983430
H361	H36	0.799220	0.351990	0.140910
C371	C37	0.125760	0.281640	0.950160
H381	H38	0.167530	0.261560	0.973120
C391	C39	0.097440	0.330090	0.974950
H401	H40	0.117560	0.353310	0.016570
H411	H41	0.859090	0.200780	0.351990
C421	C42	0.049840	0.874240	0.281640
H431	H43	0.026880	0.832470	0.261560
C441	C44	0.025050	0.902560	0.330090
H451	H45	0.983430	0.882440	0.353310
H461	H46	0.140910	0.200780	0.648010
C471	C47	0.950160	0.874240	0.718360
H481	H48	0.973120	0.832470	0.738440
C491	C49	0.974950	0.902560	0.669910
H501	H50	0.016570	0.882440	0.646690
H511	H51	0.859090	0.799220	0.648010
C521	C52	0.049840	0.125760	0.718360
H531	H53	0.026880	0.167530	0.738440
C541	C54	0.025050	0.097440	0.669910
H551	H55	0.983430	0.117560	0.646690
H561	H56	0.140910	0.799220	0.351990
C571	C57	0.950160	0.125760	0.281640
H581	H58	0.973120	0.167530	0.261560
C591	C59	0.974950	0.097440	0.330090
H601	H60	0.016570	0.117560	0.353310
H611	H61	0.859110	0.351680	0.200620
C621	C62	0.049840	0.281640	0.874240
H631	H63	0.026880	0.261560	0.832470
C641	C64	0.025050	0.330090	0.902560
H651	H65	0.983430	0.353310	0.882440
H661	H66	0.140890	0.648320	0.200620
C671	C67	0.950160	0.718360	0.874240
H681	H68	0.973120	0.738440	0.832470
C691	C69	0.974950	0.669910	0.902560
H701	H70	0.016570	0.646690	0.882440
H711	H71	0.859110	0.648320	0.799380
C721	C72	0.049840	0.718360	0.125760
H731	H73	0.026880	0.738440	0.167530
C741	C74	0.025050	0.669910	0.097440
H751	H75	0.983430	0.646690	0.117560
H761	H76	0.140890	0.351680	0.799380
C771	C77	0.950160	0.281640	0.125760
H781	H78	0.973120	0.261560	0.167530
C791	C79	0.974950	0.330090	0.097440
H801	H80	0.016570	0.353310	0.117560
H811	H81	0.351680	0.200620	0.859110
C821	C82	0.281640	0.874240	0.049840
H831	H83	0.261560	0.832470	0.026880
C841	C84	0.330090	0.902560	0.025050
H851	H85	0.353310	0.882440	0.983430
H861	H86	0.648320	0.200620	0.140890
C871	C87	0.718360	0.874240	0.950160
H881	H88	0.738440	0.832470	0.973120
C891	C89	0.669910	0.902560	0.974950
H901	H90	0.646690	0.882440	0.016570
H911	H91	0.648320	0.799380	0.859110
C921	C92	0.718360	0.125760	0.049840
H931	H93	0.738440	0.167530	0.026880
C941	C94	0.669910	0.097440	0.025050
H951	H95	0.646690	0.117560	0.983430
H961	H96	0.351680	0.799380	0.140890
C971	C97	0.281640	0.125760	0.950160
H981	H98	0.261560	0.167530	0.973120
C991	C99	0.330090	0.097440	0.974950
H1001	H100	0.353310	0.117560	0.016570
H1011	H101	0.200620	0.859110	0.351680
C1021	C102	0.874240	0.049840	0.281640
H1031	H103	0.832470	0.026880	0.261560
C1041	C104	0.902560	0.025050	0.330090
H1051	H105	0.882440	0.983430	0.353310
H1061	H106	0.200620	0.140890	0.648320
C1071	C107	0.874240	0.950160	0.718360
H1081	H108	0.832470	0.973120	0.738440
C1091	C109	0.902560	0.974950	0.669910
H1101	H110	0.882440	0.016570	0.646690
H1111	H111	0.799380	0.859110	0.648320
C1121	C112	0.125760	0.049840	0.718360
H1131	H113	0.167530	0.026880	0.738440
C1141	C114	0.097440	0.025050	0.669910
H1151	H115	0.117560	0.983430	0.646690
H1161	H116	0.799380	0.140890	0.351680
C1171	C117	0.125760	0.950160	0.281640
H1181	H118	0.167530	0.973120	0.261560
C1191	C119	0.097440	0.974950	0.330090
H1201	H120	0.117560	0.016570	0.353310
Ni1211	Ni121	0.423860	0.000000	0.000000
Ni1221	Ni122	0.576140	0.000000	0.000000
Ni1231	Ni123	0.000000	0.423860	0.000000
Ni1241	Ni124	0.000000	0.576140	0.000000
Ni1251	Ni125	0.000000	0.000000	0.423860
Ni1261	Ni126	0.000000	0.000000	0.576140
O1271	O127	0.472980	0.938050	0.061950
N1281	N128	0.352480	0.046770	0.953230
C1291	C129	0.298260	0.777820	0.222180
O1301	O130	0.406510	0.783000	0.217000
C1311	C131	0.203120	0.131340	0.868660
O1321	O132	0.573430	0.935520	0.064480
C1331	C133	0.521720	0.917740	0.082260
C1341	C134	0.353120	0.808150	0.191850
C1351	C135	0.256950	0.103300	0.896700
C1361	C136	0.520200	0.870190	0.129810
C1371	C137	0.463750	0.850660	0.149340
H1381	H138	0.420830	0.871080	0.128920
C1391	C139	0.459340	0.804650	0.195350
C1401	C140	0.511400	0.782280	0.217720
H1411	H141	0.510240	0.745710	0.254290
C1421	C142	0.568500	0.801090	0.198910
H1431	H143	0.610860	0.780100	0.219900
C1441	C144	0.571600	0.846500	0.153500
H1451	H145	0.617730	0.863050	0.136950
O1461	O146	0.527020	0.061950	0.061950
N1471	N147	0.647520	0.953230	0.953230
C1481	C148	0.701740	0.222180	0.222180
O1491	O149	0.593490	0.217000	0.217000
C1501	C150	0.796880	0.868660	0.868660
O1511	O151	0.426570	0.064480	0.064480
C1521	C152	0.478280	0.082260	0.082260
C1531	C153	0.646880	0.191850	0.191850
C1541	C154	0.743050	0.896700	0.896700
C1551	C155	0.479800	0.129810	0.129810
C1561	C156	0.536250	0.149340	0.149340
H1571	H157	0.579170	0.128920	0.128920
C1581	C158	0.540660	0.195350	0.195350
C1591	C159	0.488600	0.217720	0.217720
H1601	H160	0.489760	0.254290	0.254290
C1611	C161	0.431500	0.198910	0.198910
H1621	H162	0.389140	0.219900	0.219900
C1631	C163	0.428400	0.153500	0.153500
H1641	H164	0.382270	0.136950	0.136950
O1651	O165	0.527020	0.938050	0.938050
N1661	N166	0.647520	0.046770	0.046770
C1671	C167	0.701740	0.777820	0.777820
O1681	O168	0.593490	0.783000	0.783000
C1691	C169	0.796880	0.131340	0.131340
O1701	O170	0.426570	0.935520	0.935520
C1711	C171	0.478280	0.917740	0.917740
C1721	C172	0.646880	0.808150	0.808150
C1731	C173	0.743050	0.103300	0.103300
C1741	C174	0.479800	0.870190	0.870190
C1751	C175	0.536250	0.850660	0.850660
H1761	H176	0.579170	0.871080	0.871080
C1771	C177	0.540660	0.804650	0.804650
C1781	C178	0.488600	0.782280	0.782280
H1791	H179	0.489760	0.745710	0.745710
C1801	C180	0.431500	0.801090	0.801090
H1811	H181	0.389140	0.780100	0.780100
C1821	C182	0.428400	0.846500	0.846500
H1831	H183	0.382270	0.863050	0.863050
O1841	O184	0.472980	0.061950	0.938050
N1851	N185	0.352480	0.953230	0.046770
C1861	C186	0.298260	0.222180	0.777820
O1871	O187	0.406510	0.217000	0.783000
C1881	C188	0.203120	0.868660	0.131340
O1891	O189	0.573430	0.064480	0.935520
C1901	C190	0.521720	0.082260	0.917740
C1911	C191	0.353120	0.191850	0.808150
C1921	C192	0.256950	0.896700	0.103300
C1931	C193	0.520200	0.129810	0.870190
C1941	C194	0.463750	0.149340	0.850660
H1951	H195	0.420830	0.128920	0.871080
C1961	C196	0.459340	0.195350	0.804650
C1971	C197	0.511400	0.217720	0.782280
H1981	H198	0.510240	0.254290	0.745710
C1991	C199	0.568500	0.198910	0.801090
H2001	H200	0.610860	0.219900	0.780100
C2011	C201	0.571600	0.153500	0.846500
H2021	H202	0.617730	0.136950	0.863050
O2031	O203	0.061950	0.472980	0.938050
N2041	N204	0.953230	0.352480	0.046770
C2051	C205	0.222180	0.298260	0.777820
O2061	O206	0.217000	0.406510	0.783000
C2071	C207	0.868660	0.203120	0.131340
O2081	O208	0.064480	0.573430	0.935520
C2091	C209	0.082260	0.521720	0.917740
C2101	C210	0.191850	0.353120	0.808150
C2111	C211	0.896700	0.256950	0.103300
C2121	C212	0.129810	0.520200	0.870190
C2131	C213	0.149340	0.463750	0.850660
H2141	H214	0.128920	0.420830	0.871080
C2151	C215	0.195350	0.459340	0.804650
C2161	C216	0.217720	0.511400	0.782280
H2171	H217	0.254290	0.510240	0.745710
C2181	C218	0.198910	0.568500	0.801090
H2191	H219	0.219900	0.610860	0.780100
C2201	C220	0.153500	0.571600	0.846500
H2211	H221	0.136950	0.617730	0.863050
O2221	O222	0.061950	0.527020	0.061950
N2231	N223	0.953230	0.647520	0.953230
C2241	C224	0.222180	0.701740	0.222180
O2251	O225	0.217000	0.593490	0.217000
C2261	C226	0.868660	0.796880	0.868660
O2271	O227	0.064480	0.426570	0.064480
C2281	C228	0.082260	0.478280	0.082260
C2291	C229	0.191850	0.646880	0.191850
C2301	C230	0.896700	0.743050	0.896700
C2311	C231	0.129810	0.479800	0.129810
C2321	C232	0.149340	0.536250	0.149340
H2331	H233	0.128920	0.579170	0.128920
C2341	C234	0.195350	0.540660	0.195350
C2351	C235	0.217720	0.488600	0.217720
H2361	H236	0.254290	0.489760	0.254290
C2371	C237	0.198910	0.431500	0.198910
H2381	H238	0.219900	0.389140	0.219900
C2391	C239	0.153500	0.428400	0.153500
H2401	H240	0.136950	0.382270	0.136950
O2411	O241	0.938050	0.527020	0.938050
N2421	N242	0.046770	0.647520	0.046770
C2431	C243	0.777820	0.701740	0.777820
O2441	O244	0.783000	0.593490	0.783000
C2451	C245	0.131340	0.796880	0.131340
O2461	O246	0.935520	0.426570	0.935520
C2471	C247	0.917740	0.478280	0.917740
C2481	C248	0.808150	0.646880	0.808150
C2491	C249	0.103300	0.743050	0.103300
C2501	C250	0.870190	0.479800	0.870190
C2511	C251	0.850660	0.536250	0.850660
H2521	H252	0.871080	0.579170	0.871080
C2531	C253	0.804650	0.540660	0.804650
C2541	C254	0.782280	0.488600	0.782280
H2551	H255	0.745710	0.489760	0.745710
C2561	C256	0.801090	0.431500	0.801090
H2571	H257	0.780100	0.389140	0.780100
C2581	C258	0.846500	0.428400	0.846500
H2591	H259	0.863050	0.382270	0.863050
O2601	O260	0.938050	0.472980	0.061950
N2611	N261	0.046770	0.352480	0.953230
C2621	C262	0.777820	0.298260	0.222180
O2631	O263	0.783000	0.406510	0.217000
C2641	C264	0.131340	0.203120	0.868660
O2651	O265	0.935520	0.573430	0.064480
C2661	C266	0.917740	0.521720	0.082260
C2671	C267	0.808150	0.353120	0.191850
C2681	C268	0.103300	0.256950	0.896700
C2691	C269	0.870190	0.520200	0.129810
C2701	C270	0.850660	0.463750	0.149340
H2711	H271	0.871080	0.420830	0.128920
C2721	C272	0.804650	0.459340	0.195350
C2731	C273	0.782280	0.511400	0.217720
H2741	H274	0.745710	0.510240	0.254290
C2751	C275	0.801090	0.568500	0.198910
H2761	H276	0.780100	0.610860	0.219900
C2771	C277	0.846500	0.571600	0.153500
H2781	H278	0.863050	0.617730	0.136950
O2791	O279	0.938050	0.061950	0.472980
N2801	N280	0.046770	0.953230	0.352480
C2811	C281	0.777820	0.222180	0.298260
O2821	O282	0.783000	0.217000	0.406510
C2831	C283	0.131340	0.868660	0.203120
O2841	O284	0.935520	0.064480	0.573430
C2851	C285	0.917740	0.082260	0.521720
C2861	C286	0.808150	0.191850	0.353120
C2871	C287	0.103300	0.896700	0.256950
C2881	C288	0.870190	0.129810	0.520200
C2891	C289	0.850660	0.149340	0.463750
H2901	H290	0.871080	0.128920	0.420830
C2911	C291	0.804650	0.195350	0.459340
C2921	C292	0.782280	0.217720	0.511400
H2931	H293	0.745710	0.254290	0.510240
C2941	C294	0.801090	0.198910	0.568500
H2951	H295	0.780100	0.219900	0.610860
C2961	C296	0.846500	0.153500	0.571600
H2971	H297	0.863050	0.136950	0.617730
O2981	O298	0.061950	0.061950	0.527020
N2991	N299	0.953230	0.953230	0.647520
C3001	C300	0.222180	0.222180	0.701740
O3011	O301	0.217000	0.217000	0.593490
C3021	C302	0.868660	0.868660	0.796880
O3031	O303	0.064480	0.064480	0.426570
C3041	C304	0.082260	0.082260	0.478280
C3051	C305	0.191850	0.191850	0.646880
C3061	C306	0.896700	0.896700	0.743050
C3071	C307	0.129810	0.129810	0.479800
C3081	C308	0.149340	0.149340	0.536250
H3091	H309	0.128920	0.128920	0.579170
C3101	C310	0.195350	0.195350	0.540660
C3111	C311	0.217720	0.217720	0.488600
H3121	H312	0.254290	0.254290	0.489760
C3131	C313	0.198910	0.198910	0.431500
H3141	H314	0.219900	0.219900	0.389140
C3151	C315	0.153500	0.153500	0.428400
H3161	H316	0.136950	0.136950	0.382270
O3171	O317	0.938050	0.938050	0.527020
N3181	N318	0.046770	0.046770	0.647520
C3191	C319	0.777820	0.777820	0.701740
O3201	O320	0.783000	0.783000	0.593490
C3211	C321	0.131340	0.131340	0.796880
O3221	O322	0.935520	0.935520	0.426570
C3231	C323	0.917740	0.917740	0.478280
C3241	C324	0.808150	0.808150	0.646880
C3251	C325	0.103300	0.103300	0.743050
C3261	C326	0.870190	0.870190	0.479800
C3271	C327	0.850660	0.850660	0.536250
H3281	H328	0.871080	0.871080	0.579170
C3291	C329	0.804650	0.804650	0.540660
C3301	C330	0.782280	0.782280	0.488600
H3311	H331	0.745710	0.745710	0.489760
C3321	C332	0.801090	0.801090	0.431500
H3331	H333	0.780100	0.780100	0.389140
C3341	C334	0.846500	0.846500	0.428400
H3351	H335	0.863050	0.863050	0.382270
O3361	O336	0.061950	0.938050	0.472980
N3371	N337	0.953230	0.046770	0.352480
C3381	C338	0.222180	0.777820	0.298260
O3391	O339	0.217000	0.783000	0.406510
C3401	C340	0.868660	0.131340	0.203120
O3411	O341	0.064480	0.935520	0.573430
C3421	C342	0.082260	0.917740	0.521720
C3431	C343	0.191850	0.808150	0.353120
C3441	C344	0.896700	0.103300	0.256950
C3451	C345	0.129810	0.870190	0.520200
C3461	C346	0.149340	0.850660	0.463750
H3471	H347	0.128920	0.871080	0.420830
C3481	C348	0.195350	0.804650	0.459340
C3491	C349	0.217720	0.782280	0.511400
H3501	H350	0.254290	0.745710	0.510240
C3511	C351	0.198910	0.801090	0.568500
H3521	H352	0.219900	0.780100	0.610860
C3531	C353	0.153500	0.846500	0.571600
H3541	H354	0.136950	0.863050	0.617730
C3551	C355	0.273630	0.726370	0.196140
C3561	C356	0.301720	0.698280	0.139870
C3571	C357	0.726370	0.273630	0.196140
C3581	C358	0.698280	0.301720	0.139870
C3591	C359	0.726370	0.726370	0.803860
C3601	C360	0.698280	0.698280	0.860130
C3611	C361	0.273630	0.273630	0.803860
C3621	C362	0.301720	0.301720	0.860130
C3631	C363	0.196140	0.273630	0.726370
C3641	C364	0.139870	0.301720	0.698280
C3651	C365	0.196140	0.726370	0.273630
C3661	C366	0.139870	0.698280	0.301720
C3671	C367	0.803860	0.726370	0.726370
C3681	C368	0.860130	0.698280	0.698280
C3691	C369	0.803860	0.273630	0.273630
C3701	C370	0.860130	0.301720	0.301720
C3711	C371	0.726370	0.196140	0.273630
C3721	C372	0.698280	0.139870	0.301720
C3731	C373	0.273630	0.196140	0.726370
C3741	C374	0.301720	0.139870	0.698280
C3751	C375	0.726370	0.803860	0.726370
C3761	C376	0.698280	0.860130	0.698280
C3771	C377	0.273630	0.803860	0.273630
C3781	C378	0.301720	0.860130	0.301720
N3791	N379	0.180250	0.180250	0.894890
N3801	N380	0.819750	0.819750	0.894890
N3811	N381	0.819750	0.180250	0.105110
N3821	N382	0.180250	0.819750	0.105110
N3831	N383	0.894890	0.180250	0.180250
N3841	N384	0.894890	0.819750	0.819750
N3851	N385	0.105110	0.819750	0.180250
N3861	N386	0.105110	0.180250	0.819750
N3871	N387	0.180250	0.894890	0.180250
N3881	N388	0.819750	0.894890	0.819750
N3891	N389	0.180250	0.105110	0.819750
N3901	N390	0.819750	0.105110	0.180250
H3911	H391	0.281490	0.720310	0.097670
H3921	H392	0.291900	0.647500	0.139210
H3931	H393	0.352870	0.705940	0.140480
H3941	H394	0.675520	0.264790	0.111690
H3951	H395	0.735190	0.324580	0.111750
H3961	H396	0.663030	0.336880	0.153910
H3971	H397	0.706970	0.647290	0.860120
H3981	H398	0.647310	0.707080	0.860180
H3991	H399	0.719460	0.719370	0.902340
H4001	H400	0.336020	0.337810	0.846100
H4011	H401	0.325610	0.265000	0.887640
H4021	H402	0.264630	0.323440	0.888910
H4031	H403	0.101430	0.267110	0.698400
H4041	H404	0.150140	0.315910	0.649610
H4051	H405	0.125780	0.343240	0.725730
H4061	H406	0.150140	0.649610	0.315910
H4071	H407	0.101430	0.698400	0.267110
H4081	H408	0.125780	0.725730	0.343240
H4091	H409	0.860150	0.707030	0.647300
H4101	H410	0.860150	0.647300	0.707030
H4111	H411	0.902340	0.719420	0.719420
H4121	H412	0.888280	0.324530	0.264800
H4131	H413	0.888280	0.264800	0.324530
H4141	H414	0.846090	0.336920	0.336920
H4151	H415	0.735190	0.111750	0.324580
H4161	H416	0.675520	0.111690	0.264790
H4171	H417	0.663030	0.153910	0.336880
H4181	H418	0.291900	0.139210	0.647500
H4191	H419	0.281490	0.097670	0.720310
H4201	H420	0.352870	0.140480	0.705940
H4211	H421	0.647310	0.860180	0.707080
H4221	H422	0.706970	0.860120	0.647290
H4231	H423	0.719460	0.902340	0.719370
H4241	H424	0.325610	0.887640	0.265000
H4251	H425	0.336020	0.846100	0.337810
H4261	H426	0.264630	0.888910	0.323440
