data_BINROH_clean_PM
_symmetry_space_group_name_H-M	'P1'
_cell_length_a	32.990000
_cell_length_b	32.990000
_cell_length_c	32.990000
_cell_angle_alpha	90.000000
_cell_angle_beta	90.000000
_cell_angle_gamma	90.000000
_symmetry_Int_Tables_number 1

loop_
_symmetry_equiv_pos_as_xyz
'x,y,z'

loop_
_atom_site_label
_atom_site_type_symbol
_atom_site_fract_x
_atom_site_fract_y
_atom_site_fract_z
O11	O1	0.966660	0.300430	0.718210
O21	O2	0.035750	0.300100	0.718020
C11	C1	0.001970	0.313680	0.710570
C21	C2	0.000940	0.351460	0.682940
C31	C3	0.967150	0.367630	0.671600
H11	H1	0.942900	0.356200	0.680400
C41	C4	0.965770	0.402900	0.645600
C51	C5	0.002070	0.418660	0.632030
C61	C6	0.038190	0.402370	0.645190
H21	H2	0.062500	0.414300	0.637400
C71	C7	0.038620	0.367860	0.670330
H31	H3	0.063000	0.356200	0.678400
C81	C8	0.928980	0.421230	0.633070
H41	H4	0.904400	0.411000	0.642400
C91	C9	0.929280	0.453500	0.607560
H51	H5	0.904900	0.465000	0.599500
C101	C10	0.966000	0.469780	0.593150
C111	C11	0.000730	0.453400	0.605360
H61	H6	0.025000	0.464700	0.596400
C121	C12	0.965520	0.503060	0.563580
C131	C13	0.936060	0.503970	0.533500
H71	H7	0.915800	0.484400	0.533300
O31	O3	0.533340	0.199570	0.718210
O41	O4	0.464250	0.199900	0.718020
C141	C14	0.498030	0.186320	0.710570
C151	C15	0.499060	0.148540	0.682940
C161	C16	0.532850	0.132370	0.671600
H81	H8	0.557100	0.143800	0.680400
C171	C17	0.534230	0.097100	0.645600
C181	C18	0.497930	0.081340	0.632030
C191	C19	0.461810	0.097630	0.645190
H91	H9	0.437500	0.085700	0.637400
C201	C20	0.461380	0.132140	0.670330
H101	H10	0.437000	0.143800	0.678400
C211	C21	0.571020	0.078770	0.633070
H111	H11	0.595600	0.089000	0.642400
C221	C22	0.570720	0.046500	0.607560
H121	H12	0.595100	0.035000	0.599500
C231	C23	0.534000	0.030220	0.593150
C241	C24	0.499270	0.046600	0.605360
H131	H13	0.475000	0.035300	0.596400
C251	C25	0.534480	0.996940	0.563580
C261	C26	0.563940	0.996030	0.533500
H141	H14	0.584200	0.015600	0.533300
O51	O5	0.533340	0.300430	0.781790
O61	O6	0.464250	0.300100	0.781980
C271	C27	0.498030	0.313680	0.789430
C281	C28	0.499060	0.351460	0.817060
C291	C29	0.532850	0.367630	0.828400
H151	H15	0.557100	0.356200	0.819600
C301	C30	0.534230	0.402900	0.854400
C311	C31	0.497930	0.418660	0.867970
C321	C32	0.461810	0.402370	0.854810
H161	H16	0.437500	0.414300	0.862600
C331	C33	0.461380	0.367860	0.829670
H171	H17	0.437000	0.356200	0.821600
C341	C34	0.571020	0.421230	0.866930
H181	H18	0.595600	0.411000	0.857600
C351	C35	0.570720	0.453500	0.892440
H191	H19	0.595100	0.465000	0.900500
C361	C36	0.534000	0.469780	0.906850
C371	C37	0.499270	0.453400	0.894640
H201	H20	0.475000	0.464700	0.903600
C381	C38	0.534480	0.503060	0.936420
C391	C39	0.563940	0.503970	0.966500
H211	H21	0.584200	0.484400	0.966700
O71	O7	0.966660	0.199570	0.781790
O81	O8	0.035750	0.199900	0.781980
C401	C40	0.001970	0.186320	0.789430
C411	C41	0.000940	0.148540	0.817060
C421	C42	0.967150	0.132370	0.828400
H221	H22	0.942900	0.143800	0.819600
C431	C43	0.965770	0.097100	0.854400
C441	C44	0.002070	0.081340	0.867970
C451	C45	0.038190	0.097630	0.854810
H231	H23	0.062500	0.085700	0.862600
C461	C46	0.038620	0.132140	0.829670
H241	H24	0.063000	0.143800	0.821600
C471	C47	0.928980	0.078770	0.866930
H251	H25	0.904400	0.089000	0.857600
C481	C48	0.929280	0.046500	0.892440
H261	H26	0.904900	0.035000	0.900500
C491	C49	0.966000	0.030220	0.906850
C501	C50	0.000730	0.046600	0.894640
H271	H27	0.025000	0.035300	0.903600
C511	C51	0.965520	0.996940	0.936420
C521	C52	0.936060	0.996030	0.966500
H281	H28	0.915800	0.015600	0.966700
O91	O9	0.718210	0.966660	0.300430
O101	O10	0.718020	0.035750	0.300100
C531	C53	0.710570	0.001970	0.313680
C541	C54	0.682940	0.000940	0.351460
C551	C55	0.671600	0.967150	0.367630
H291	H29	0.680400	0.942900	0.356200
C561	C56	0.645600	0.965770	0.402900
C571	C57	0.632030	0.002070	0.418660
C581	C58	0.645190	0.038190	0.402370
H301	H30	0.637400	0.062500	0.414300
C591	C59	0.670330	0.038620	0.367860
H311	H31	0.678400	0.063000	0.356200
C601	C60	0.633070	0.928980	0.421230
H321	H32	0.642400	0.904400	0.411000
C611	C61	0.607560	0.929280	0.453500
H331	H33	0.599500	0.904900	0.465000
C621	C62	0.593150	0.966000	0.469780
C631	C63	0.605360	0.000730	0.453400
H341	H34	0.596400	0.025000	0.464700
C641	C64	0.563580	0.965520	0.503060
C651	C65	0.533500	0.936060	0.503970
H351	H35	0.533300	0.915800	0.484400
O111	O11	0.718210	0.533340	0.199570
O121	O12	0.718020	0.464250	0.199900
C661	C66	0.710570	0.498030	0.186320
C671	C67	0.682940	0.499060	0.148540
C681	C68	0.671600	0.532850	0.132370
H361	H36	0.680400	0.557100	0.143800
C691	C69	0.645600	0.534230	0.097100
C701	C70	0.632030	0.497930	0.081340
C711	C71	0.645190	0.461810	0.097630
H371	H37	0.637400	0.437500	0.085700
C721	C72	0.670330	0.461380	0.132140
H381	H38	0.678400	0.437000	0.143800
C731	C73	0.633070	0.571020	0.078770
H391	H39	0.642400	0.595600	0.089000
C741	C74	0.607560	0.570720	0.046500
H401	H40	0.599500	0.595100	0.035000
C751	C75	0.593150	0.534000	0.030220
C761	C76	0.605360	0.499270	0.046600
H411	H41	0.596400	0.475000	0.035300
C771	C77	0.563580	0.534480	0.996940
C781	C78	0.533500	0.563940	0.996030
H421	H42	0.533300	0.584200	0.015600
O131	O13	0.781790	0.533340	0.300430
O141	O14	0.781980	0.464250	0.300100
C791	C79	0.789430	0.498030	0.313680
C801	C80	0.817060	0.499060	0.351460
C811	C81	0.828400	0.532850	0.367630
H431	H43	0.819600	0.557100	0.356200
C821	C82	0.854400	0.534230	0.402900
C831	C83	0.867970	0.497930	0.418660
C841	C84	0.854810	0.461810	0.402370
H441	H44	0.862600	0.437500	0.414300
C851	C85	0.829670	0.461380	0.367860
H451	H45	0.821600	0.437000	0.356200
C861	C86	0.866930	0.571020	0.421230
H461	H46	0.857600	0.595600	0.411000
C871	C87	0.892440	0.570720	0.453500
H471	H47	0.900500	0.595100	0.465000
C881	C88	0.906850	0.534000	0.469780
C891	C89	0.894640	0.499270	0.453400
H481	H48	0.903600	0.475000	0.464700
C901	C90	0.936420	0.534480	0.503060
C911	C91	0.966500	0.563940	0.503970
H491	H49	0.966700	0.584200	0.484400
O151	O15	0.781790	0.966660	0.199570
O161	O16	0.781980	0.035750	0.199900
C921	C92	0.789430	0.001970	0.186320
C931	C93	0.817060	0.000940	0.148540
C941	C94	0.828400	0.967150	0.132370
H501	H50	0.819600	0.942900	0.143800
C951	C95	0.854400	0.965770	0.097100
C961	C96	0.867970	0.002070	0.081340
C971	C97	0.854810	0.038190	0.097630
H511	H51	0.862600	0.062500	0.085700
C981	C98	0.829670	0.038620	0.132140
H521	H52	0.821600	0.063000	0.143800
C991	C99	0.866930	0.928980	0.078770
H531	H53	0.857600	0.904400	0.089000
C1001	C100	0.892440	0.929280	0.046500
H541	H54	0.900500	0.904900	0.035000
C1011	C101	0.906850	0.966000	0.030220
C1021	C102	0.894640	0.000730	0.046600
H551	H55	0.903600	0.025000	0.035300
C1031	C103	0.936420	0.965520	0.996940
C1041	C104	0.966500	0.936060	0.996030
H561	H56	0.966700	0.915800	0.015600
O171	O17	0.300430	0.718210	0.966660
O181	O18	0.300100	0.718020	0.035750
C1051	C105	0.313680	0.710570	0.001970
C1061	C106	0.351460	0.682940	0.000940
C1071	C107	0.367630	0.671600	0.967150
H571	H57	0.356200	0.680400	0.942900
C1081	C108	0.402900	0.645600	0.965770
C1091	C109	0.418660	0.632030	0.002070
C1101	C110	0.402370	0.645190	0.038190
H581	H58	0.414300	0.637400	0.062500
C1111	C111	0.367860	0.670330	0.038620
H591	H59	0.356200	0.678400	0.063000
C1121	C112	0.421230	0.633070	0.928980
H601	H60	0.411000	0.642400	0.904400
C1131	C113	0.453500	0.607560	0.929280
H611	H61	0.465000	0.599500	0.904900
C1141	C114	0.469780	0.593150	0.966000
C1151	C115	0.453400	0.605360	0.000730
H621	H62	0.464700	0.596400	0.025000
C1161	C116	0.503060	0.563580	0.965520
C1171	C117	0.503970	0.533500	0.936060
H631	H63	0.484400	0.533300	0.915800
O191	O19	0.199570	0.718210	0.533340
O201	O20	0.199900	0.718020	0.464250
C1181	C118	0.186320	0.710570	0.498030
C1191	C119	0.148540	0.682940	0.499060
C1201	C120	0.132370	0.671600	0.532850
H641	H64	0.143800	0.680400	0.557100
C1211	C121	0.097100	0.645600	0.534230
C1221	C122	0.081340	0.632030	0.497930
C1231	C123	0.097630	0.645190	0.461810
H651	H65	0.085700	0.637400	0.437500
C1241	C124	0.132140	0.670330	0.461380
H661	H66	0.143800	0.678400	0.437000
C1251	C125	0.078770	0.633070	0.571020
H671	H67	0.089000	0.642400	0.595600
C1261	C126	0.046500	0.607560	0.570720
H681	H68	0.035000	0.599500	0.595100
C1271	C127	0.030220	0.593150	0.534000
C1281	C128	0.046600	0.605360	0.499270
H691	H69	0.035300	0.596400	0.475000
C1291	C129	0.996940	0.563580	0.534480
C1301	C130	0.996030	0.533500	0.563940
H701	H70	0.015600	0.533300	0.584200
O211	O21	0.300430	0.781790	0.533340
O221	O22	0.300100	0.781980	0.464250
C1311	C131	0.313680	0.789430	0.498030
C1321	C132	0.351460	0.817060	0.499060
C1331	C133	0.367630	0.828400	0.532850
H711	H71	0.356200	0.819600	0.557100
C1341	C134	0.402900	0.854400	0.534230
C1351	C135	0.418660	0.867970	0.497930
C1361	C136	0.402370	0.854810	0.461810
H721	H72	0.414300	0.862600	0.437500
C1371	C137	0.367860	0.829670	0.461380
H731	H73	0.356200	0.821600	0.437000
C1381	C138	0.421230	0.866930	0.571020
H741	H74	0.411000	0.857600	0.595600
C1391	C139	0.453500	0.892440	0.570720
H751	H75	0.465000	0.900500	0.595100
C1401	C140	0.469780	0.906850	0.534000
C1411	C141	0.453400	0.894640	0.499270
H761	H76	0.464700	0.903600	0.475000
C1421	C142	0.503060	0.936420	0.534480
C1431	C143	0.503970	0.966500	0.563940
H771	H77	0.484400	0.966700	0.584200
O231	O23	0.199570	0.781790	0.966660
O241	O24	0.199900	0.781980	0.035750
C1441	C144	0.186320	0.789430	0.001970
C1451	C145	0.148540	0.817060	0.000940
C1461	C146	0.132370	0.828400	0.967150
H781	H78	0.143800	0.819600	0.942900
C1471	C147	0.097100	0.854400	0.965770
C1481	C148	0.081340	0.867970	0.002070
C1491	C149	0.097630	0.854810	0.038190
H791	H79	0.085700	0.862600	0.062500
C1501	C150	0.132140	0.829670	0.038620
H801	H80	0.143800	0.821600	0.063000
C1511	C151	0.078770	0.866930	0.928980
H811	H81	0.089000	0.857600	0.904400
C1521	C152	0.046500	0.892440	0.929280
H821	H82	0.035000	0.900500	0.904900
C1531	C153	0.030220	0.906850	0.966000
C1541	C154	0.046600	0.894640	0.000730
H831	H83	0.035300	0.903600	0.025000
C1551	C155	0.996940	0.936420	0.965520
C1561	C156	0.996030	0.966500	0.936060
H841	H84	0.015600	0.966700	0.915800
O251	O25	0.699570	0.033340	0.218210
O261	O26	0.699900	0.964250	0.218020
C1571	C157	0.686320	0.998030	0.210570
C1581	C158	0.648540	0.999060	0.182940
C1591	C159	0.632370	0.032850	0.171600
H851	H85	0.643800	0.057100	0.180400
C1601	C160	0.597100	0.034230	0.145600
C1611	C161	0.581340	0.997930	0.132030
C1621	C162	0.597630	0.961810	0.145190
H861	H86	0.585700	0.937500	0.137400
C1631	C163	0.632140	0.961380	0.170330
H871	H87	0.643800	0.937000	0.178400
C1641	C164	0.578770	0.071020	0.133070
H881	H88	0.589000	0.095600	0.142400
C1651	C165	0.546500	0.070720	0.107560
H891	H89	0.535000	0.095100	0.099500
C1661	C166	0.530220	0.034000	0.093150
C1671	C167	0.546600	0.999270	0.105360
H901	H90	0.535300	0.975000	0.096400
C1681	C168	0.496940	0.034480	0.063580
C1691	C169	0.496030	0.063940	0.033500
H911	H91	0.515600	0.084200	0.033300
O271	O27	0.800430	0.466660	0.218210
O281	O28	0.800100	0.535750	0.218020
C1701	C170	0.813680	0.501970	0.210570
C1711	C171	0.851460	0.500940	0.182940
C1721	C172	0.867630	0.467150	0.171600
H921	H92	0.856200	0.442900	0.180400
C1731	C173	0.902900	0.465770	0.145600
C1741	C174	0.918660	0.502070	0.132030
C1751	C175	0.902370	0.538190	0.145190
H931	H93	0.914300	0.562500	0.137400
C1761	C176	0.867860	0.538620	0.170330
H941	H94	0.856200	0.563000	0.178400
C1771	C177	0.921230	0.428980	0.133070
H951	H95	0.911000	0.404400	0.142400
C1781	C178	0.953500	0.429280	0.107560
H961	H96	0.965000	0.404900	0.099500
C1791	C179	0.969780	0.466000	0.093150
C1801	C180	0.953400	0.500730	0.105360
H971	H97	0.964700	0.525000	0.096400
C1811	C181	0.003060	0.465520	0.063580
C1821	C182	0.003970	0.436060	0.033500
H981	H98	0.984400	0.415800	0.033300
O291	O29	0.699570	0.466660	0.281790
O301	O30	0.699900	0.535750	0.281980
C1831	C183	0.686320	0.501970	0.289430
C1841	C184	0.648540	0.500940	0.317060
C1851	C185	0.632370	0.467150	0.328400
H991	H99	0.643800	0.442900	0.319600
C1861	C186	0.597100	0.465770	0.354400
C1871	C187	0.581340	0.502070	0.367970
C1881	C188	0.597630	0.538190	0.354810
H1001	H100	0.585700	0.562500	0.362600
C1891	C189	0.632140	0.538620	0.329670
H1011	H101	0.643800	0.563000	0.321600
C1901	C190	0.578770	0.428980	0.366930
H1021	H102	0.589000	0.404400	0.357600
C1911	C191	0.546500	0.429280	0.392440
H1031	H103	0.535000	0.404900	0.400500
C1921	C192	0.530220	0.466000	0.406850
C1931	C193	0.546600	0.500730	0.394640
H1041	H104	0.535300	0.525000	0.403600
C1941	C194	0.496940	0.465520	0.436420
C1951	C195	0.496030	0.436060	0.466500
H1051	H105	0.515600	0.415800	0.466700
O311	O31	0.800430	0.033340	0.281790
O321	O32	0.800100	0.964250	0.281980
C1961	C196	0.813680	0.998030	0.289430
C1971	C197	0.851460	0.999060	0.317060
C1981	C198	0.867630	0.032850	0.328400
H1061	H106	0.856200	0.057100	0.319600
C1991	C199	0.902900	0.034230	0.354400
C2001	C200	0.918660	0.997930	0.367970
C2011	C201	0.902370	0.961810	0.354810
H1071	H107	0.914300	0.937500	0.362600
C2021	C202	0.867860	0.961380	0.329670
H1081	H108	0.856200	0.937000	0.321600
C2031	C203	0.921230	0.071020	0.366930
H1091	H109	0.911000	0.095600	0.357600
C2041	C204	0.953500	0.070720	0.392440
H1101	H110	0.965000	0.095100	0.400500
C2051	C205	0.969780	0.034000	0.406850
C2061	C206	0.953400	0.999270	0.394640
H1111	H111	0.964700	0.975000	0.403600
C2071	C207	0.003060	0.034480	0.436420
C2081	C208	0.003970	0.063940	0.466500
H1121	H112	0.984400	0.084200	0.466700
O331	O33	0.033340	0.281790	0.800430
O341	O34	0.964250	0.281980	0.800100
C2091	C209	0.998030	0.289430	0.813680
C2101	C210	0.999060	0.317060	0.851460
C2111	C211	0.032850	0.328400	0.867630
H1131	H113	0.057100	0.319600	0.856200
C2121	C212	0.034230	0.354400	0.902900
C2131	C213	0.997930	0.367970	0.918660
C2141	C214	0.961810	0.354810	0.902370
H1141	H114	0.937500	0.362600	0.914300
C2151	C215	0.961380	0.329670	0.867860
H1151	H115	0.937000	0.321600	0.856200
C2161	C216	0.071020	0.366930	0.921230
H1161	H116	0.095600	0.357600	0.911000
C2171	C217	0.070720	0.392440	0.953500
H1171	H117	0.095100	0.400500	0.965000
C2181	C218	0.034000	0.406850	0.969780
C2191	C219	0.999270	0.394640	0.953400
H1181	H118	0.975000	0.403600	0.964700
C2201	C220	0.034480	0.436420	0.003060
C2211	C221	0.063940	0.466500	0.003970
H1191	H119	0.084200	0.466700	0.984400
O351	O35	0.466660	0.281790	0.699570
O361	O36	0.535750	0.281980	0.699900
C2221	C222	0.501970	0.289430	0.686320
C2231	C223	0.500940	0.317060	0.648540
C2241	C224	0.467150	0.328400	0.632370
H1201	H120	0.442900	0.319600	0.643800
C2251	C225	0.465770	0.354400	0.597100
C2261	C226	0.502070	0.367970	0.581340
C2271	C227	0.538190	0.354810	0.597630
H1211	H121	0.562500	0.362600	0.585700
C2281	C228	0.538620	0.329670	0.632140
H1221	H122	0.563000	0.321600	0.643800
C2291	C229	0.428980	0.366930	0.578770
H1231	H123	0.404400	0.357600	0.589000
C2301	C230	0.429280	0.392440	0.546500
H1241	H124	0.404900	0.400500	0.535000
C2311	C231	0.466000	0.406850	0.530220
C2321	C232	0.500730	0.394640	0.546600
H1251	H125	0.525000	0.403600	0.535300
C2331	C233	0.465520	0.436420	0.496940
C2341	C234	0.436060	0.466500	0.496030
H1261	H126	0.415800	0.466700	0.515600
O371	O37	0.466660	0.218210	0.800430
O381	O38	0.535750	0.218020	0.800100
C2351	C235	0.501970	0.210570	0.813680
C2361	C236	0.500940	0.182940	0.851460
C2371	C237	0.467150	0.171600	0.867630
H1271	H127	0.442900	0.180400	0.856200
C2381	C238	0.465770	0.145600	0.902900
C2391	C239	0.502070	0.132030	0.918660
C2401	C240	0.538190	0.145190	0.902370
H1281	H128	0.562500	0.137400	0.914300
C2411	C241	0.538620	0.170330	0.867860
H1291	H129	0.563000	0.178400	0.856200
C2421	C242	0.428980	0.133070	0.921230
H1301	H130	0.404400	0.142400	0.911000
C2431	C243	0.429280	0.107560	0.953500
H1311	H131	0.404900	0.099500	0.965000
C2441	C244	0.466000	0.093150	0.969780
C2451	C245	0.500730	0.105360	0.953400
H1321	H132	0.525000	0.096400	0.964700
C2461	C246	0.465520	0.063580	0.003060
C2471	C247	0.436060	0.033500	0.003970
H1331	H133	0.415800	0.033300	0.984400
O391	O39	0.033340	0.218210	0.699570
O401	O40	0.964250	0.218020	0.699900
C2481	C248	0.998030	0.210570	0.686320
C2491	C249	0.999060	0.182940	0.648540
C2501	C250	0.032850	0.171600	0.632370
H1341	H134	0.057100	0.180400	0.643800
C2511	C251	0.034230	0.145600	0.597100
C2521	C252	0.997930	0.132030	0.581340
C2531	C253	0.961810	0.145190	0.597630
H1351	H135	0.937500	0.137400	0.585700
C2541	C254	0.961380	0.170330	0.632140
H1361	H136	0.937000	0.178400	0.643800
C2551	C255	0.071020	0.133070	0.578770
H1371	H137	0.095600	0.142400	0.589000
C2561	C256	0.070720	0.107560	0.546500
H1381	H138	0.095100	0.099500	0.535000
C2571	C257	0.034000	0.093150	0.530220
C2581	C258	0.999270	0.105360	0.546600
H1391	H139	0.975000	0.096400	0.535300
C2591	C259	0.034480	0.063580	0.496940
C2601	C260	0.063940	0.033500	0.496030
H1401	H140	0.084200	0.033300	0.515600
O411	O41	0.281790	0.699570	0.466660
O421	O42	0.281980	0.699900	0.535750
C2611	C261	0.289430	0.686320	0.501970
C2621	C262	0.317060	0.648540	0.500940
C2631	C263	0.328400	0.632370	0.467150
H1411	H141	0.319600	0.643800	0.442900
C2641	C264	0.354400	0.597100	0.465770
C2651	C265	0.367970	0.581340	0.502070
C2661	C266	0.354810	0.597630	0.538190
H1421	H142	0.362600	0.585700	0.562500
C2671	C267	0.329670	0.632140	0.538620
H1431	H143	0.321600	0.643800	0.563000
C2681	C268	0.366930	0.578770	0.428980
H1441	H144	0.357600	0.589000	0.404400
C2691	C269	0.392440	0.546500	0.429280
H1451	H145	0.400500	0.535000	0.404900
C2701	C270	0.406850	0.530220	0.466000
C2711	C271	0.394640	0.546600	0.500730
H1461	H146	0.403600	0.535300	0.525000
C2721	C272	0.436420	0.496940	0.465520
C2731	C273	0.466500	0.496030	0.436060
H1471	H147	0.466700	0.515600	0.415800
O431	O43	0.281790	0.800430	0.033340
O441	O44	0.281980	0.800100	0.964250
C2741	C274	0.289430	0.813680	0.998030
C2751	C275	0.317060	0.851460	0.999060
C2761	C276	0.328400	0.867630	0.032850
H1481	H148	0.319600	0.856200	0.057100
C2771	C277	0.354400	0.902900	0.034230
C2781	C278	0.367970	0.918660	0.997930
C2791	C279	0.354810	0.902370	0.961810
H1491	H149	0.362600	0.914300	0.937500
C2801	C280	0.329670	0.867860	0.961380
H1501	H150	0.321600	0.856200	0.937000
C2811	C281	0.366930	0.921230	0.071020
H1511	H151	0.357600	0.911000	0.095600
C2821	C282	0.392440	0.953500	0.070720
H1521	H152	0.400500	0.965000	0.095100
C2831	C283	0.406850	0.969780	0.034000
C2841	C284	0.394640	0.953400	0.999270
H1531	H153	0.403600	0.964700	0.975000
C2851	C285	0.436420	0.003060	0.034480
C2861	C286	0.466500	0.003970	0.063940
H1541	H154	0.466700	0.984400	0.084200
O451	O45	0.218210	0.699570	0.033340
O461	O46	0.218020	0.699900	0.964250
C2871	C287	0.210570	0.686320	0.998030
C2881	C288	0.182940	0.648540	0.999060
C2891	C289	0.171600	0.632370	0.032850
H1551	H155	0.180400	0.643800	0.057100
C2901	C290	0.145600	0.597100	0.034230
C2911	C291	0.132030	0.581340	0.997930
C2921	C292	0.145190	0.597630	0.961810
H1561	H156	0.137400	0.585700	0.937500
C2931	C293	0.170330	0.632140	0.961380
H1571	H157	0.178400	0.643800	0.937000
C2941	C294	0.133070	0.578770	0.071020
H1581	H158	0.142400	0.589000	0.095600
C2951	C295	0.107560	0.546500	0.070720
H1591	H159	0.099500	0.535000	0.095100
C2961	C296	0.093150	0.530220	0.034000
C2971	C297	0.105360	0.546600	0.999270
H1601	H160	0.096400	0.535300	0.975000
C2981	C298	0.063580	0.496940	0.034480
C2991	C299	0.033500	0.496030	0.063940
H1611	H161	0.033300	0.515600	0.084200
O471	O47	0.218210	0.800430	0.466660
O481	O48	0.218020	0.800100	0.535750
C3001	C300	0.210570	0.813680	0.501970
C3011	C301	0.182940	0.851460	0.500940
C3021	C302	0.171600	0.867630	0.467150
H1621	H162	0.180400	0.856200	0.442900
C3031	C303	0.145600	0.902900	0.465770
C3041	C304	0.132030	0.918660	0.502070
C3051	C305	0.145190	0.902370	0.538190
H1631	H163	0.137400	0.914300	0.562500
C3061	C306	0.170330	0.867860	0.538620
H1641	H164	0.178400	0.856200	0.563000
C3071	C307	0.133070	0.921230	0.428980
H1651	H165	0.142400	0.911000	0.404400
C3081	C308	0.107560	0.953500	0.429280
H1661	H166	0.099500	0.965000	0.404900
C3091	C309	0.093150	0.969780	0.466000
C3101	C310	0.105360	0.953400	0.500730
H1671	H167	0.096400	0.964700	0.525000
C3111	C311	0.063580	0.003060	0.465520
C3121	C312	0.033500	0.003970	0.436060
H1681	H168	0.033300	0.984400	0.415800
Cu11	Cu1	0.960260	0.250000	0.750000
Cu21	Cu2	0.539740	0.250000	0.750000
Cu31	Cu3	0.750000	0.960260	0.250000
Cu41	Cu4	0.750000	0.539740	0.250000
Cu51	Cu5	0.250000	0.750000	0.960260
Cu61	Cu6	0.250000	0.750000	0.539740
Cu71	Cu7	0.750000	0.039740	0.250000
Cu81	Cu8	0.750000	0.460260	0.250000
Cu91	Cu9	0.039740	0.250000	0.750000
Cu101	Cu10	0.460260	0.250000	0.750000
Cu111	Cu11	0.250000	0.750000	0.460260
Cu121	Cu12	0.250000	0.750000	0.039740
O491	O49	0.300430	0.966660	0.781790
O501	O50	0.300100	0.035750	0.781980
C3131	C313	0.313680	0.001970	0.789430
C3141	C314	0.351460	0.000940	0.817060
C3151	C315	0.367630	0.967150	0.828400
H1691	H169	0.356200	0.942900	0.819600
C3161	C316	0.402900	0.965770	0.854400
C3171	C317	0.418660	0.002070	0.867970
C3181	C318	0.402370	0.038190	0.854810
H1701	H170	0.414300	0.062500	0.862600
C3191	C319	0.367860	0.038620	0.829670
H1711	H171	0.356200	0.063000	0.821600
C3201	C320	0.421230	0.928980	0.866930
H1721	H172	0.411000	0.904400	0.857600
C3211	C321	0.453500	0.929280	0.892440
H1731	H173	0.465000	0.904900	0.900500
C3221	C322	0.469780	0.966000	0.906850
C3231	C323	0.453400	0.000730	0.894640
H1741	H174	0.464700	0.025000	0.903600
C3241	C324	0.503060	0.965520	0.936420
C3251	C325	0.503970	0.936060	0.966500
H1751	H175	0.484400	0.915800	0.966700
O511	O51	0.199570	0.533340	0.781790
O521	O52	0.199900	0.464250	0.781980
C3261	C326	0.186320	0.498030	0.789430
C3271	C327	0.148540	0.499060	0.817060
C3281	C328	0.132370	0.532850	0.828400
H1761	H176	0.143800	0.557100	0.819600
C3291	C329	0.097100	0.534230	0.854400
C3301	C330	0.081340	0.497930	0.867970
C3311	C331	0.097630	0.461810	0.854810
H1771	H177	0.085700	0.437500	0.862600
C3321	C332	0.132140	0.461380	0.829670
H1781	H178	0.143800	0.437000	0.821600
C3331	C333	0.078770	0.571020	0.866930
H1791	H179	0.089000	0.595600	0.857600
C3341	C334	0.046500	0.570720	0.892440
H1801	H180	0.035000	0.595100	0.900500
C3351	C335	0.030220	0.534000	0.906850
C3361	C336	0.046600	0.499270	0.894640
H1811	H181	0.035300	0.475000	0.903600
C3371	C337	0.996940	0.534480	0.936420
C3381	C338	0.996030	0.563940	0.966500
H1821	H182	0.015600	0.584200	0.966700
O531	O53	0.300430	0.533340	0.718210
O541	O54	0.300100	0.464250	0.718020
C3391	C339	0.313680	0.498030	0.710570
C3401	C340	0.351460	0.499060	0.682940
C3411	C341	0.367630	0.532850	0.671600
H1831	H183	0.356200	0.557100	0.680400
C3421	C342	0.402900	0.534230	0.645600
C3431	C343	0.418660	0.497930	0.632030
C3441	C344	0.402370	0.461810	0.645190
H1841	H184	0.414300	0.437500	0.637400
C3451	C345	0.367860	0.461380	0.670330
H1851	H185	0.356200	0.437000	0.678400
C3461	C346	0.421230	0.571020	0.633070
H1861	H186	0.411000	0.595600	0.642400
C3471	C347	0.453500	0.570720	0.607560
H1871	H187	0.465000	0.595100	0.599500
C3481	C348	0.469780	0.534000	0.593150
C3491	C349	0.453400	0.499270	0.605360
H1881	H188	0.464700	0.475000	0.596400
C3501	C350	0.503060	0.534480	0.563580
C3511	C351	0.503970	0.563940	0.533500
H1891	H189	0.484400	0.584200	0.533300
O551	O55	0.199570	0.966660	0.718210
O561	O56	0.199900	0.035750	0.718020
C3521	C352	0.186320	0.001970	0.710570
C3531	C353	0.148540	0.000940	0.682940
C3541	C354	0.132370	0.967150	0.671600
H1901	H190	0.143800	0.942900	0.680400
C3551	C355	0.097100	0.965770	0.645600
C3561	C356	0.081340	0.002070	0.632030
C3571	C357	0.097630	0.038190	0.645190
H1911	H191	0.085700	0.062500	0.637400
C3581	C358	0.132140	0.038620	0.670330
H1921	H192	0.143800	0.063000	0.678400
C3591	C359	0.078770	0.928980	0.633070
H1931	H193	0.089000	0.904400	0.642400
C3601	C360	0.046500	0.929280	0.607560
H1941	H194	0.035000	0.904900	0.599500
C3611	C361	0.030220	0.966000	0.593150
C3621	C362	0.046600	0.000730	0.605360
H1951	H195	0.035300	0.025000	0.596400
C3631	C363	0.996940	0.965520	0.563580
C3641	C364	0.996030	0.936060	0.533500
H1961	H196	0.015600	0.915800	0.533300
O571	O57	0.966660	0.718210	0.199570
O581	O58	0.035750	0.718020	0.199900
C3651	C365	0.001970	0.710570	0.186320
C3661	C366	0.000940	0.682940	0.148540
C3671	C367	0.967150	0.671600	0.132370
H1971	H197	0.942900	0.680400	0.143800
C3681	C368	0.965770	0.645600	0.097100
C3691	C369	0.002070	0.632030	0.081340
C3701	C370	0.038190	0.645190	0.097630
H1981	H198	0.062500	0.637400	0.085700
C3711	C371	0.038620	0.670330	0.132140
H1991	H199	0.063000	0.678400	0.143800
C3721	C372	0.928980	0.633070	0.078770
H2001	H200	0.904400	0.642400	0.089000
C3731	C373	0.929280	0.607560	0.046500
H2011	H201	0.904900	0.599500	0.035000
C3741	C374	0.966000	0.593150	0.030220
C3751	C375	0.000730	0.605360	0.046600
H2021	H202	0.025000	0.596400	0.035300
C3761	C376	0.965520	0.563580	0.996940
C3771	C377	0.936060	0.533500	0.996030
H2031	H203	0.915800	0.533300	0.015600
O591	O59	0.533340	0.718210	0.300430
O601	O60	0.464250	0.718020	0.300100
C3781	C378	0.498030	0.710570	0.313680
C3791	C379	0.499060	0.682940	0.351460
C3801	C380	0.532850	0.671600	0.367630
H2041	H204	0.557100	0.680400	0.356200
C3811	C381	0.534230	0.645600	0.402900
C3821	C382	0.497930	0.632030	0.418660
C3831	C383	0.461810	0.645190	0.402370
H2051	H205	0.437500	0.637400	0.414300
C3841	C384	0.461380	0.670330	0.367860
H2061	H206	0.437000	0.678400	0.356200
C3851	C385	0.571020	0.633070	0.421230
H2071	H207	0.595600	0.642400	0.411000
C3861	C386	0.570720	0.607560	0.453500
H2081	H208	0.595100	0.599500	0.465000
C3871	C387	0.534000	0.593150	0.469780
C3881	C388	0.499270	0.605360	0.453400
H2091	H209	0.475000	0.596400	0.464700
C3891	C389	0.534480	0.563580	0.503060
C3901	C390	0.563940	0.533500	0.503970
H2101	H210	0.584200	0.533300	0.484400
O611	O61	0.533340	0.781790	0.199570
O621	O62	0.464250	0.781980	0.199900
C3911	C391	0.498030	0.789430	0.186320
C3921	C392	0.499060	0.817060	0.148540
C3931	C393	0.532850	0.828400	0.132370
H2111	H211	0.557100	0.819600	0.143800
C3941	C394	0.534230	0.854400	0.097100
C3951	C395	0.497930	0.867970	0.081340
C3961	C396	0.461810	0.854810	0.097630
H2121	H212	0.437500	0.862600	0.085700
C3971	C397	0.461380	0.829670	0.132140
H2131	H213	0.437000	0.821600	0.143800
C3981	C398	0.571020	0.866930	0.078770
H2141	H214	0.595600	0.857600	0.089000
C3991	C399	0.570720	0.892440	0.046500
H2151	H215	0.595100	0.900500	0.035000
C4001	C400	0.534000	0.906850	0.030220
C4011	C401	0.499270	0.894640	0.046600
H2161	H216	0.475000	0.903600	0.035300
C4021	C402	0.534480	0.936420	0.996940
C4031	C403	0.563940	0.966500	0.996030
H2171	H217	0.584200	0.966700	0.015600
O631	O63	0.966660	0.781790	0.300430
O641	O64	0.035750	0.781980	0.300100
C4041	C404	0.001970	0.789430	0.313680
C4051	C405	0.000940	0.817060	0.351460
C4061	C406	0.967150	0.828400	0.367630
H2181	H218	0.942900	0.819600	0.356200
C4071	C407	0.965770	0.854400	0.402900
C4081	C408	0.002070	0.867970	0.418660
C4091	C409	0.038190	0.854810	0.402370
H2191	H219	0.062500	0.862600	0.414300
C4101	C410	0.038620	0.829670	0.367860
H2201	H220	0.063000	0.821600	0.356200
C4111	C411	0.928980	0.866930	0.421230
H2211	H221	0.904400	0.857600	0.411000
C4121	C412	0.929280	0.892440	0.453500
H2221	H222	0.904900	0.900500	0.465000
C4131	C413	0.966000	0.906850	0.469780
C4141	C414	0.000730	0.894640	0.453400
H2231	H223	0.025000	0.903600	0.464700
C4151	C415	0.965520	0.936420	0.503060
C4161	C416	0.936060	0.966500	0.503970
H2241	H224	0.915800	0.966700	0.484400
O651	O65	0.718210	0.300430	0.533340
O661	O66	0.718020	0.300100	0.464250
C4171	C417	0.710570	0.313680	0.498030
C4181	C418	0.682940	0.351460	0.499060
C4191	C419	0.671600	0.367630	0.532850
H2251	H225	0.680400	0.356200	0.557100
C4201	C420	0.645600	0.402900	0.534230
C4211	C421	0.632030	0.418660	0.497930
C4221	C422	0.645190	0.402370	0.461810
H2261	H226	0.637400	0.414300	0.437500
C4231	C423	0.670330	0.367860	0.461380
H2271	H227	0.678400	0.356200	0.437000
C4241	C424	0.633070	0.421230	0.571020
H2281	H228	0.642400	0.411000	0.595600
C4251	C425	0.607560	0.453500	0.570720
H2291	H229	0.599500	0.465000	0.595100
C4261	C426	0.593150	0.469780	0.534000
C4271	C427	0.605360	0.453400	0.499270
H2301	H230	0.596400	0.464700	0.475000
C4281	C428	0.563580	0.503060	0.534480
C4291	C429	0.533500	0.503970	0.563940
H2311	H231	0.533300	0.484400	0.584200
O671	O67	0.718210	0.199570	0.966660
O681	O68	0.718020	0.199900	0.035750
C4301	C430	0.710570	0.186320	0.001970
C4311	C431	0.682940	0.148540	0.000940
C4321	C432	0.671600	0.132370	0.967150
H2321	H232	0.680400	0.143800	0.942900
C4331	C433	0.645600	0.097100	0.965770
C4341	C434	0.632030	0.081340	0.002070
C4351	C435	0.645190	0.097630	0.038190
H2331	H233	0.637400	0.085700	0.062500
C4361	C436	0.670330	0.132140	0.038620
H2341	H234	0.678400	0.143800	0.063000
C4371	C437	0.633070	0.078770	0.928980
H2351	H235	0.642400	0.089000	0.904400
C4381	C438	0.607560	0.046500	0.929280
H2361	H236	0.599500	0.035000	0.904900
C4391	C439	0.593150	0.030220	0.966000
C4401	C440	0.605360	0.046600	0.000730
H2371	H237	0.596400	0.035300	0.025000
C4411	C441	0.563580	0.996940	0.965520
C4421	C442	0.533500	0.996030	0.936060
H2381	H238	0.533300	0.015600	0.915800
O691	O69	0.781790	0.300430	0.966660
O701	O70	0.781980	0.300100	0.035750
C4431	C443	0.789430	0.313680	0.001970
C4441	C444	0.817060	0.351460	0.000940
C4451	C445	0.828400	0.367630	0.967150
H2391	H239	0.819600	0.356200	0.942900
C4461	C446	0.854400	0.402900	0.965770
C4471	C447	0.867970	0.418660	0.002070
C4481	C448	0.854810	0.402370	0.038190
H2401	H240	0.862600	0.414300	0.062500
C4491	C449	0.829670	0.367860	0.038620
H2411	H241	0.821600	0.356200	0.063000
C4501	C450	0.866930	0.421230	0.928980
H2421	H242	0.857600	0.411000	0.904400
C4511	C451	0.892440	0.453500	0.929280
H2431	H243	0.900500	0.465000	0.904900
C4521	C452	0.906850	0.469780	0.966000
C4531	C453	0.894640	0.453400	0.000730
H2441	H244	0.903600	0.464700	0.025000
C4541	C454	0.936420	0.503060	0.965520
C4551	C455	0.966500	0.503970	0.936060
H2451	H245	0.966700	0.484400	0.915800
O711	O71	0.781790	0.199570	0.533340
O721	O72	0.781980	0.199900	0.464250
C4561	C456	0.789430	0.186320	0.498030
C4571	C457	0.817060	0.148540	0.499060
C4581	C458	0.828400	0.132370	0.532850
H2461	H246	0.819600	0.143800	0.557100
C4591	C459	0.854400	0.097100	0.534230
C4601	C460	0.867970	0.081340	0.497930
C4611	C461	0.854810	0.097630	0.461810
H2471	H247	0.862600	0.085700	0.437500
C4621	C462	0.829670	0.132140	0.461380
H2481	H248	0.821600	0.143800	0.437000
C4631	C463	0.866930	0.078770	0.571020
H2491	H249	0.857600	0.089000	0.595600
C4641	C464	0.892440	0.046500	0.570720
H2501	H250	0.900500	0.035000	0.595100
C4651	C465	0.906850	0.030220	0.534000
C4661	C466	0.894640	0.046600	0.499270
H2511	H251	0.903600	0.035300	0.475000
C4671	C467	0.936420	0.996940	0.534480
C4681	C468	0.966500	0.996030	0.563940
H2521	H252	0.966700	0.015600	0.584200
O731	O73	0.033340	0.699570	0.281790
O741	O74	0.964250	0.699900	0.281980
C4691	C469	0.998030	0.686320	0.289430
C4701	C470	0.999060	0.648540	0.317060
C4711	C471	0.032850	0.632370	0.328400
H2531	H253	0.057100	0.643800	0.319600
C4721	C472	0.034230	0.597100	0.354400
C4731	C473	0.997930	0.581340	0.367970
C4741	C474	0.961810	0.597630	0.354810
H2541	H254	0.937500	0.585700	0.362600
C4751	C475	0.961380	0.632140	0.329670
H2551	H255	0.937000	0.643800	0.321600
C4761	C476	0.071020	0.578770	0.366930
H2561	H256	0.095600	0.589000	0.357600
C4771	C477	0.070720	0.546500	0.392440
H2571	H257	0.095100	0.535000	0.400500
C4781	C478	0.034000	0.530220	0.406850
C4791	C479	0.999270	0.546600	0.394640
H2581	H258	0.975000	0.535300	0.403600
C4801	C480	0.034480	0.496940	0.436420
C4811	C481	0.063940	0.496030	0.466500
H2591	H259	0.084200	0.515600	0.466700
O751	O75	0.466660	0.800430	0.281790
O761	O76	0.535750	0.800100	0.281980
C4821	C482	0.501970	0.813680	0.289430
C4831	C483	0.500940	0.851460	0.317060
C4841	C484	0.467150	0.867630	0.328400
H2601	H260	0.442900	0.856200	0.319600
C4851	C485	0.465770	0.902900	0.354400
C4861	C486	0.502070	0.918660	0.367970
C4871	C487	0.538190	0.902370	0.354810
H2611	H261	0.562500	0.914300	0.362600
C4881	C488	0.538620	0.867860	0.329670
H2621	H262	0.563000	0.856200	0.321600
C4891	C489	0.428980	0.921230	0.366930
H2631	H263	0.404400	0.911000	0.357600
C4901	C490	0.429280	0.953500	0.392440
H2641	H264	0.404900	0.965000	0.400500
C4911	C491	0.466000	0.969780	0.406850
C4921	C492	0.500730	0.953400	0.394640
H2651	H265	0.525000	0.964700	0.403600
C4931	C493	0.465520	0.003060	0.436420
C4941	C494	0.436060	0.003970	0.466500
H2661	H266	0.415800	0.984400	0.466700
O771	O77	0.466660	0.699570	0.218210
O781	O78	0.535750	0.699900	0.218020
C4951	C495	0.501970	0.686320	0.210570
C4961	C496	0.500940	0.648540	0.182940
C4971	C497	0.467150	0.632370	0.171600
H2671	H267	0.442900	0.643800	0.180400
C4981	C498	0.465770	0.597100	0.145600
C4991	C499	0.502070	0.581340	0.132030
C5001	C500	0.538190	0.597630	0.145190
H2681	H268	0.562500	0.585700	0.137400
C5011	C501	0.538620	0.632140	0.170330
H2691	H269	0.563000	0.643800	0.178400
C5021	C502	0.428980	0.578770	0.133070
H2701	H270	0.404400	0.589000	0.142400
C5031	C503	0.429280	0.546500	0.107560
H2711	H271	0.404900	0.535000	0.099500
C5041	C504	0.466000	0.530220	0.093150
C5051	C505	0.500730	0.546600	0.105360
H2721	H272	0.525000	0.535300	0.096400
C5061	C506	0.465520	0.496940	0.063580
C5071	C507	0.436060	0.496030	0.033500
H2731	H273	0.415800	0.515600	0.033300
O791	O79	0.033340	0.800430	0.218210
O801	O80	0.964250	0.800100	0.218020
C5081	C508	0.998030	0.813680	0.210570
C5091	C509	0.999060	0.851460	0.182940
C5101	C510	0.032850	0.867630	0.171600
H2741	H274	0.057100	0.856200	0.180400
C5111	C511	0.034230	0.902900	0.145600
C5121	C512	0.997930	0.918660	0.132030
C5131	C513	0.961810	0.902370	0.145190
H2751	H275	0.937500	0.914300	0.137400
C5141	C514	0.961380	0.867860	0.170330
H2761	H276	0.937000	0.856200	0.178400
C5151	C515	0.071020	0.921230	0.133070
H2771	H277	0.095600	0.911000	0.142400
C5161	C516	0.070720	0.953500	0.107560
H2781	H278	0.095100	0.965000	0.099500
C5171	C517	0.034000	0.969780	0.093150
C5181	C518	0.999270	0.953400	0.105360
H2791	H279	0.975000	0.964700	0.096400
C5191	C519	0.034480	0.003060	0.063580
C5201	C520	0.063940	0.003970	0.033500
H2801	H280	0.084200	0.984400	0.033300
O811	O81	0.281790	0.033340	0.699570
O821	O82	0.281980	0.964250	0.699900
C5211	C521	0.289430	0.998030	0.686320
C5221	C522	0.317060	0.999060	0.648540
C5231	C523	0.328400	0.032850	0.632370
H2811	H281	0.319600	0.057100	0.643800
C5241	C524	0.354400	0.034230	0.597100
C5251	C525	0.367970	0.997930	0.581340
C5261	C526	0.354810	0.961810	0.597630
H2821	H282	0.362600	0.937500	0.585700
C5271	C527	0.329670	0.961380	0.632140
H2831	H283	0.321600	0.937000	0.643800
C5281	C528	0.366930	0.071020	0.578770
H2841	H284	0.357600	0.095600	0.589000
C5291	C529	0.392440	0.070720	0.546500
H2851	H285	0.400500	0.095100	0.535000
C5301	C530	0.406850	0.034000	0.530220
C5311	C531	0.394640	0.999270	0.546600
H2861	H286	0.403600	0.975000	0.535300
C5321	C532	0.436420	0.034480	0.496940
C5331	C533	0.466500	0.063940	0.496030
H2871	H287	0.466700	0.084200	0.515600
O831	O83	0.281790	0.466660	0.800430
O841	O84	0.281980	0.535750	0.800100
C5341	C534	0.289430	0.501970	0.813680
C5351	C535	0.317060	0.500940	0.851460
C5361	C536	0.328400	0.467150	0.867630
H2881	H288	0.319600	0.442900	0.856200
C5371	C537	0.354400	0.465770	0.902900
C5381	C538	0.367970	0.502070	0.918660
C5391	C539	0.354810	0.538190	0.902370
H2891	H289	0.362600	0.562500	0.914300
C5401	C540	0.329670	0.538620	0.867860
H2901	H290	0.321600	0.563000	0.856200
C5411	C541	0.366930	0.428980	0.921230
H2911	H291	0.357600	0.404400	0.911000
C5421	C542	0.392440	0.429280	0.953500
H2921	H292	0.400500	0.404900	0.965000
C5431	C543	0.406850	0.466000	0.969780
C5441	C544	0.394640	0.500730	0.953400
H2931	H293	0.403600	0.525000	0.964700
C5451	C545	0.436420	0.465520	0.003060
C5461	C546	0.466500	0.436060	0.003970
H2941	H294	0.466700	0.415800	0.984400
O851	O85	0.218210	0.466660	0.699570
O861	O86	0.218020	0.535750	0.699900
C5471	C547	0.210570	0.501970	0.686320
C5481	C548	0.182940	0.500940	0.648540
C5491	C549	0.171600	0.467150	0.632370
H2951	H295	0.180400	0.442900	0.643800
C5501	C550	0.145600	0.465770	0.597100
C5511	C551	0.132030	0.502070	0.581340
C5521	C552	0.145190	0.538190	0.597630
H2961	H296	0.137400	0.562500	0.585700
C5531	C553	0.170330	0.538620	0.632140
H2971	H297	0.178400	0.563000	0.643800
C5541	C554	0.133070	0.428980	0.578770
H2981	H298	0.142400	0.404400	0.589000
C5551	C555	0.107560	0.429280	0.546500
H2991	H299	0.099500	0.404900	0.535000
C5561	C556	0.093150	0.466000	0.530220
C5571	C557	0.105360	0.500730	0.546600
H3001	H300	0.096400	0.525000	0.535300
C5581	C558	0.063580	0.465520	0.496940
C5591	C559	0.033500	0.436060	0.496030
H3011	H301	0.033300	0.415800	0.515600
O871	O87	0.218210	0.033340	0.800430
O881	O88	0.218020	0.964250	0.800100
C5601	C560	0.210570	0.998030	0.813680
C5611	C561	0.182940	0.999060	0.851460
C5621	C562	0.171600	0.032850	0.867630
H3021	H302	0.180400	0.057100	0.856200
C5631	C563	0.145600	0.034230	0.902900
C5641	C564	0.132030	0.997930	0.918660
C5651	C565	0.145190	0.961810	0.902370
H3031	H303	0.137400	0.937500	0.914300
C5661	C566	0.170330	0.961380	0.867860
H3041	H304	0.178400	0.937000	0.856200
C5671	C567	0.133070	0.071020	0.921230
H3051	H305	0.142400	0.095600	0.911000
C5681	C568	0.107560	0.070720	0.953500
H3061	H306	0.099500	0.095100	0.965000
C5691	C569	0.093150	0.034000	0.969780
C5701	C570	0.105360	0.999270	0.953400
H3071	H307	0.096400	0.975000	0.964700
C5711	C571	0.063580	0.034480	0.003060
C5721	C572	0.033500	0.063940	0.003970
H3081	H308	0.033300	0.084200	0.984400
O891	O89	0.699570	0.281790	0.033340
O901	O90	0.699900	0.281980	0.964250
C5731	C573	0.686320	0.289430	0.998030
C5741	C574	0.648540	0.317060	0.999060
C5751	C575	0.632370	0.328400	0.032850
H3091	H309	0.643800	0.319600	0.057100
C5761	C576	0.597100	0.354400	0.034230
C5771	C577	0.581340	0.367970	0.997930
C5781	C578	0.597630	0.354810	0.961810
H3101	H310	0.585700	0.362600	0.937500
C5791	C579	0.632140	0.329670	0.961380
H3111	H311	0.643800	0.321600	0.937000
C5801	C580	0.578770	0.366930	0.071020
H3121	H312	0.589000	0.357600	0.095600
C5811	C581	0.546500	0.392440	0.070720
H3131	H313	0.535000	0.400500	0.095100
C5821	C582	0.530220	0.406850	0.034000
C5831	C583	0.546600	0.394640	0.999270
H3141	H314	0.535300	0.403600	0.975000
C5841	C584	0.496940	0.436420	0.034480
C5851	C585	0.496030	0.466500	0.063940
H3151	H315	0.515600	0.466700	0.084200
O911	O91	0.800430	0.281790	0.466660
O921	O92	0.800100	0.281980	0.535750
C5861	C586	0.813680	0.289430	0.501970
C5871	C587	0.851460	0.317060	0.500940
C5881	C588	0.867630	0.328400	0.467150
H3161	H316	0.856200	0.319600	0.442900
C5891	C589	0.902900	0.354400	0.465770
C5901	C590	0.918660	0.367970	0.502070
C5911	C591	0.902370	0.354810	0.538190
H3171	H317	0.914300	0.362600	0.562500
C5921	C592	0.867860	0.329670	0.538620
H3181	H318	0.856200	0.321600	0.563000
C5931	C593	0.921230	0.366930	0.428980
H3191	H319	0.911000	0.357600	0.404400
C5941	C594	0.953500	0.392440	0.429280
H3201	H320	0.965000	0.400500	0.404900
C5951	C595	0.969780	0.406850	0.466000
C5961	C596	0.953400	0.394640	0.500730
H3211	H321	0.964700	0.403600	0.525000
C5971	C597	0.003060	0.436420	0.465520
C5981	C598	0.003970	0.466500	0.436060
H3221	H322	0.984400	0.466700	0.415800
O931	O93	0.699570	0.218210	0.466660
O941	O94	0.699900	0.218020	0.535750
C5991	C599	0.686320	0.210570	0.501970
C6001	C600	0.648540	0.182940	0.500940
C6011	C601	0.632370	0.171600	0.467150
H3231	H323	0.643800	0.180400	0.442900
C6021	C602	0.597100	0.145600	0.465770
C6031	C603	0.581340	0.132030	0.502070
C6041	C604	0.597630	0.145190	0.538190
H3241	H324	0.585700	0.137400	0.562500
C6051	C605	0.632140	0.170330	0.538620
H3251	H325	0.643800	0.178400	0.563000
C6061	C606	0.578770	0.133070	0.428980
H3261	H326	0.589000	0.142400	0.404400
C6071	C607	0.546500	0.107560	0.429280
H3271	H327	0.535000	0.099500	0.404900
C6081	C608	0.530220	0.093150	0.466000
C6091	C609	0.546600	0.105360	0.500730
H3281	H328	0.535300	0.096400	0.525000
C6101	C610	0.496940	0.063580	0.465520
C6111	C611	0.496030	0.033500	0.436060
H3291	H329	0.515600	0.033300	0.415800
O951	O95	0.800430	0.218210	0.033340
O961	O96	0.800100	0.218020	0.964250
C6121	C612	0.813680	0.210570	0.998030
C6131	C613	0.851460	0.182940	0.999060
C6141	C614	0.867630	0.171600	0.032850
H3301	H330	0.856200	0.180400	0.057100
C6151	C615	0.902900	0.145600	0.034230
C6161	C616	0.918660	0.132030	0.997930
C6171	C617	0.902370	0.145190	0.961810
H3311	H331	0.914300	0.137400	0.937500
C6181	C618	0.867860	0.170330	0.961380
H3321	H332	0.856200	0.178400	0.937000
C6191	C619	0.921230	0.133070	0.071020
H3331	H333	0.911000	0.142400	0.095600
C6201	C620	0.953500	0.107560	0.070720
H3341	H334	0.965000	0.099500	0.095100
C6211	C621	0.969780	0.093150	0.034000
C6221	C622	0.953400	0.105360	0.999270
H3351	H335	0.964700	0.096400	0.975000
C6231	C623	0.003060	0.063580	0.034480
C6241	C624	0.003970	0.033500	0.063940
H3361	H336	0.984400	0.033300	0.084200
Cu131	Cu13	0.250000	0.960260	0.750000
Cu141	Cu14	0.250000	0.539740	0.750000
Cu151	Cu15	0.960260	0.750000	0.250000
Cu161	Cu16	0.539740	0.750000	0.250000
Cu171	Cu17	0.750000	0.250000	0.539740
Cu181	Cu18	0.750000	0.250000	0.960260
Cu191	Cu19	0.039740	0.750000	0.250000
Cu201	Cu20	0.460260	0.750000	0.250000
Cu211	Cu21	0.250000	0.039740	0.750000
Cu221	Cu22	0.250000	0.460260	0.750000
Cu231	Cu23	0.750000	0.250000	0.039740
Cu241	Cu24	0.750000	0.250000	0.460260
