data_BINRUN_clean_PM
_symmetry_space_group_name_H-M	'P1'
_cell_length_a	32.864300
_cell_length_b	32.864300
_cell_length_c	32.864300
_cell_angle_alpha	90.000000
_cell_angle_beta	90.000000
_cell_angle_gamma	90.000000
_symmetry_Int_Tables_number 1

loop_
_symmetry_equiv_pos_as_xyz
'x,y,z'

loop_
_atom_site_label
_atom_site_type_symbol
_atom_site_fract_x
_atom_site_fract_y
_atom_site_fract_z
O11	O1	0.216070	0.798490	0.028700
O21	O2	0.215490	0.799700	0.960380
C11	C1	0.205830	0.812930	0.994740
C21	C2	0.179870	0.850590	0.996040
C31	C3	0.169780	0.867650	0.032490
H11	H1	0.179000	0.855300	0.057000
C41	C4	0.146190	0.902870	0.034390
C51	C5	0.135010	0.921090	0.070610
H21	H2	0.145100	0.910500	0.095500
C61	C6	0.109310	0.954510	0.071150
H31	H3	0.102000	0.966400	0.096500
C71	C7	0.094260	0.970800	0.035610
C81	C8	0.104290	0.953160	0.999230
H41	H4	0.093100	0.964000	0.974900
C91	C9	0.130490	0.919630	0.996700
C101	C10	0.142290	0.901150	0.960220
H51	H5	0.133800	0.913000	0.935300
C111	C11	0.165230	0.867200	0.959050
H61	H6	0.171500	0.854600	0.933800
C121	C12	0.064630	0.005060	0.035710
C131	C13	0.065560	0.034880	0.006140
H71	H7	0.086700	0.035000	0.986500
O31	O3	0.283930	0.701510	0.028700
O41	O4	0.284510	0.700300	0.960380
C141	C14	0.294170	0.687070	0.994740
C151	C15	0.320130	0.649410	0.996040
C161	C16	0.330220	0.632350	0.032490
H81	H8	0.321000	0.644700	0.057000
C171	C17	0.353810	0.597130	0.034390
C181	C18	0.364990	0.578910	0.070610
H91	H9	0.354900	0.589500	0.095500
C191	C19	0.390690	0.545490	0.071150
H101	H10	0.398000	0.533600	0.096500
C201	C20	0.405740	0.529200	0.035610
C211	C21	0.395710	0.546840	0.999230
H111	H11	0.406900	0.536000	0.974900
C221	C22	0.369510	0.580370	0.996700
C231	C23	0.357710	0.598850	0.960220
H121	H12	0.366200	0.587000	0.935300
C241	C24	0.334770	0.632800	0.959050
H131	H13	0.328500	0.645400	0.933800
C251	C25	0.435370	0.494940	0.035710
C261	C26	0.434440	0.465120	0.006140
H141	H14	0.413300	0.465000	0.986500
O51	O5	0.283930	0.798490	0.471300
O61	O6	0.284510	0.799700	0.539620
C271	C27	0.294170	0.812930	0.505260
C281	C28	0.320130	0.850590	0.503960
C291	C29	0.330220	0.867650	0.467510
H151	H15	0.321000	0.855300	0.443000
C301	C30	0.353810	0.902870	0.465610
C311	C31	0.364990	0.921090	0.429390
H161	H16	0.354900	0.910500	0.404500
C321	C32	0.390690	0.954510	0.428850
H171	H17	0.398000	0.966400	0.403500
C331	C33	0.405740	0.970800	0.464390
C341	C34	0.395710	0.953160	0.500770
H181	H18	0.406900	0.964000	0.525100
C351	C35	0.369510	0.919630	0.503300
C361	C36	0.357710	0.901150	0.539780
H191	H19	0.366200	0.913000	0.564700
C371	C37	0.334770	0.867200	0.540950
H201	H20	0.328500	0.854600	0.566200
C381	C38	0.435370	0.005060	0.464290
C391	C39	0.434440	0.034880	0.493860
H211	H21	0.413300	0.035000	0.513500
O71	O7	0.216070	0.701510	0.471300
O81	O8	0.215490	0.700300	0.539620
C401	C40	0.205830	0.687070	0.505260
C411	C41	0.179870	0.649410	0.503960
C421	C42	0.169780	0.632350	0.467510
H221	H22	0.179000	0.644700	0.443000
C431	C43	0.146190	0.597130	0.465610
C441	C44	0.135010	0.578910	0.429390
H231	H23	0.145100	0.589500	0.404500
C451	C45	0.109310	0.545490	0.428850
H241	H24	0.102000	0.533600	0.403500
C461	C46	0.094260	0.529200	0.464390
C471	C47	0.104290	0.546840	0.500770
H251	H25	0.093100	0.536000	0.525100
C481	C48	0.130490	0.580370	0.503300
C491	C49	0.142290	0.598850	0.539780
H261	H26	0.133800	0.587000	0.564700
C501	C50	0.165230	0.632800	0.540950
H271	H27	0.171500	0.645400	0.566200
C511	C51	0.064630	0.494940	0.464290
C521	C52	0.065560	0.465120	0.493860
H281	H28	0.086700	0.465000	0.513500
O91	O9	0.028700	0.216070	0.798490
O101	O10	0.960380	0.215490	0.799700
C531	C53	0.994740	0.205830	0.812930
C541	C54	0.996040	0.179870	0.850590
C551	C55	0.032490	0.169780	0.867650
H291	H29	0.057000	0.179000	0.855300
C561	C56	0.034390	0.146190	0.902870
C571	C57	0.070610	0.135010	0.921090
H301	H30	0.095500	0.145100	0.910500
C581	C58	0.071150	0.109310	0.954510
H311	H31	0.096500	0.102000	0.966400
C591	C59	0.035610	0.094260	0.970800
C601	C60	0.999230	0.104290	0.953160
H321	H32	0.974900	0.093100	0.964000
C611	C61	0.996700	0.130490	0.919630
C621	C62	0.960220	0.142290	0.901150
H331	H33	0.935300	0.133800	0.913000
C631	C63	0.959050	0.165230	0.867200
H341	H34	0.933800	0.171500	0.854600
C641	C64	0.035710	0.064630	0.005060
C651	C65	0.006140	0.065560	0.034880
H351	H35	0.986500	0.086700	0.035000
O111	O11	0.028700	0.283930	0.701510
O121	O12	0.960380	0.284510	0.700300
C661	C66	0.994740	0.294170	0.687070
C671	C67	0.996040	0.320130	0.649410
C681	C68	0.032490	0.330220	0.632350
H361	H36	0.057000	0.321000	0.644700
C691	C69	0.034390	0.353810	0.597130
C701	C70	0.070610	0.364990	0.578910
H371	H37	0.095500	0.354900	0.589500
C711	C71	0.071150	0.390690	0.545490
H381	H38	0.096500	0.398000	0.533600
C721	C72	0.035610	0.405740	0.529200
C731	C73	0.999230	0.395710	0.546840
H391	H39	0.974900	0.406900	0.536000
C741	C74	0.996700	0.369510	0.580370
C751	C75	0.960220	0.357710	0.598850
H401	H40	0.935300	0.366200	0.587000
C761	C76	0.959050	0.334770	0.632800
H411	H41	0.933800	0.328500	0.645400
C771	C77	0.035710	0.435370	0.494940
C781	C78	0.006140	0.434440	0.465120
H421	H42	0.986500	0.413300	0.465000
O131	O13	0.471300	0.283930	0.798490
O141	O14	0.539620	0.284510	0.799700
C791	C79	0.505260	0.294170	0.812930
C801	C80	0.503960	0.320130	0.850590
C811	C81	0.467510	0.330220	0.867650
H431	H43	0.443000	0.321000	0.855300
C821	C82	0.465610	0.353810	0.902870
C831	C83	0.429390	0.364990	0.921090
H441	H44	0.404500	0.354900	0.910500
C841	C84	0.428850	0.390690	0.954510
H451	H45	0.403500	0.398000	0.966400
C851	C85	0.464390	0.405740	0.970800
C861	C86	0.500770	0.395710	0.953160
H461	H46	0.525100	0.406900	0.964000
C871	C87	0.503300	0.369510	0.919630
C881	C88	0.539780	0.357710	0.901150
H471	H47	0.564700	0.366200	0.913000
C891	C89	0.540950	0.334770	0.867200
H481	H48	0.566200	0.328500	0.854600
C901	C90	0.464290	0.435370	0.005060
C911	C91	0.493860	0.434440	0.034880
H491	H49	0.513500	0.413300	0.035000
O151	O15	0.471300	0.216070	0.701510
O161	O16	0.539620	0.215490	0.700300
C921	C92	0.505260	0.205830	0.687070
C931	C93	0.503960	0.179870	0.649410
C941	C94	0.467510	0.169780	0.632350
H501	H50	0.443000	0.179000	0.644700
C951	C95	0.465610	0.146190	0.597130
C961	C96	0.429390	0.135010	0.578910
H511	H51	0.404500	0.145100	0.589500
C971	C97	0.428850	0.109310	0.545490
H521	H52	0.403500	0.102000	0.533600
C981	C98	0.464390	0.094260	0.529200
C991	C99	0.500770	0.104290	0.546840
H531	H53	0.525100	0.093100	0.536000
C1001	C100	0.503300	0.130490	0.580370
C1011	C101	0.539780	0.142290	0.598850
H541	H54	0.564700	0.133800	0.587000
C1021	C102	0.540950	0.165230	0.632800
H551	H55	0.566200	0.171500	0.645400
C1031	C103	0.464290	0.064630	0.494940
C1041	C104	0.493860	0.065560	0.465120
H561	H56	0.513500	0.086700	0.465000
O171	O17	0.798490	0.028700	0.216070
O181	O18	0.799700	0.960380	0.215490
C1051	C105	0.812930	0.994740	0.205830
C1061	C106	0.850590	0.996040	0.179870
C1071	C107	0.867650	0.032490	0.169780
H571	H57	0.855300	0.057000	0.179000
C1081	C108	0.902870	0.034390	0.146190
C1091	C109	0.921090	0.070610	0.135010
H581	H58	0.910500	0.095500	0.145100
C1101	C110	0.954510	0.071150	0.109310
H591	H59	0.966400	0.096500	0.102000
C1111	C111	0.970800	0.035610	0.094260
C1121	C112	0.953160	0.999230	0.104290
H601	H60	0.964000	0.974900	0.093100
C1131	C113	0.919630	0.996700	0.130490
C1141	C114	0.901150	0.960220	0.142290
H611	H61	0.913000	0.935300	0.133800
C1151	C115	0.867200	0.959050	0.165230
H621	H62	0.854600	0.933800	0.171500
C1161	C116	0.005060	0.035710	0.064630
C1171	C117	0.034880	0.006140	0.065560
H631	H63	0.035000	0.986500	0.086700
O191	O19	0.701510	0.028700	0.283930
O201	O20	0.700300	0.960380	0.284510
C1181	C118	0.687070	0.994740	0.294170
C1191	C119	0.649410	0.996040	0.320130
C1201	C120	0.632350	0.032490	0.330220
H641	H64	0.644700	0.057000	0.321000
C1211	C121	0.597130	0.034390	0.353810
C1221	C122	0.578910	0.070610	0.364990
H651	H65	0.589500	0.095500	0.354900
C1231	C123	0.545490	0.071150	0.390690
H661	H66	0.533600	0.096500	0.398000
C1241	C124	0.529200	0.035610	0.405740
C1251	C125	0.546840	0.999230	0.395710
H671	H67	0.536000	0.974900	0.406900
C1261	C126	0.580370	0.996700	0.369510
C1271	C127	0.598850	0.960220	0.357710
H681	H68	0.587000	0.935300	0.366200
C1281	C128	0.632800	0.959050	0.334770
H691	H69	0.645400	0.933800	0.328500
C1291	C129	0.494940	0.035710	0.435370
C1301	C130	0.465120	0.006140	0.434440
H701	H70	0.465000	0.986500	0.413300
O211	O21	0.798490	0.471300	0.283930
O221	O22	0.799700	0.539620	0.284510
C1311	C131	0.812930	0.505260	0.294170
C1321	C132	0.850590	0.503960	0.320130
C1331	C133	0.867650	0.467510	0.330220
H711	H71	0.855300	0.443000	0.321000
C1341	C134	0.902870	0.465610	0.353810
C1351	C135	0.921090	0.429390	0.364990
H721	H72	0.910500	0.404500	0.354900
C1361	C136	0.954510	0.428850	0.390690
H731	H73	0.966400	0.403500	0.398000
C1371	C137	0.970800	0.464390	0.405740
C1381	C138	0.953160	0.500770	0.395710
H741	H74	0.964000	0.525100	0.406900
C1391	C139	0.919630	0.503300	0.369510
C1401	C140	0.901150	0.539780	0.357710
H751	H75	0.913000	0.564700	0.366200
C1411	C141	0.867200	0.540950	0.334770
H761	H76	0.854600	0.566200	0.328500
C1421	C142	0.005060	0.464290	0.435370
C1431	C143	0.034880	0.493860	0.434440
H771	H77	0.035000	0.513500	0.413300
O231	O23	0.701510	0.471300	0.216070
O241	O24	0.700300	0.539620	0.215490
C1441	C144	0.687070	0.505260	0.205830
C1451	C145	0.649410	0.503960	0.179870
C1461	C146	0.632350	0.467510	0.169780
H781	H78	0.644700	0.443000	0.179000
C1471	C147	0.597130	0.465610	0.146190
C1481	C148	0.578910	0.429390	0.135010
H791	H79	0.589500	0.404500	0.145100
C1491	C149	0.545490	0.428850	0.109310
H801	H80	0.533600	0.403500	0.102000
C1501	C150	0.529200	0.464390	0.094260
C1511	C151	0.546840	0.500770	0.104290
H811	H81	0.536000	0.525100	0.093100
C1521	C152	0.580370	0.503300	0.130490
C1531	C153	0.598850	0.539780	0.142290
H821	H82	0.587000	0.564700	0.133800
C1541	C154	0.632800	0.540950	0.165230
H831	H83	0.645400	0.566200	0.171500
C1551	C155	0.494940	0.464290	0.064630
C1561	C156	0.465120	0.493860	0.065560
H841	H84	0.465000	0.513500	0.086700
O251	O25	0.201510	0.783930	0.528700
O261	O26	0.200300	0.784510	0.460380
C1571	C157	0.187070	0.794170	0.494740
C1581	C158	0.149410	0.820130	0.496040
C1591	C159	0.132350	0.830220	0.532490
H851	H85	0.144700	0.821000	0.557000
C1601	C160	0.097130	0.853810	0.534390
C1611	C161	0.078910	0.864990	0.570610
H861	H86	0.089500	0.854900	0.595500
C1621	C162	0.045490	0.890690	0.571150
H871	H87	0.033600	0.898000	0.596500
C1631	C163	0.029200	0.905740	0.535610
C1641	C164	0.046840	0.895710	0.499230
H881	H88	0.036000	0.906900	0.474900
C1651	C165	0.080370	0.869510	0.496700
C1661	C166	0.098850	0.857710	0.460220
H891	H89	0.087000	0.866200	0.435300
C1671	C167	0.132800	0.834770	0.459050
H901	H90	0.145400	0.828500	0.433800
C1681	C168	0.994940	0.935370	0.535710
C1691	C169	0.965120	0.934440	0.506140
H911	H91	0.965000	0.913300	0.486500
O271	O27	0.298490	0.716070	0.528700
O281	O28	0.299700	0.715490	0.460380
C1701	C170	0.312930	0.705830	0.494740
C1711	C171	0.350590	0.679870	0.496040
C1721	C172	0.367650	0.669780	0.532490
H921	H92	0.355300	0.679000	0.557000
C1731	C173	0.402870	0.646190	0.534390
C1741	C174	0.421090	0.635010	0.570610
H931	H93	0.410500	0.645100	0.595500
C1751	C175	0.454510	0.609310	0.571150
H941	H94	0.466400	0.602000	0.596500
C1761	C176	0.470800	0.594260	0.535610
C1771	C177	0.453160	0.604290	0.499230
H951	H95	0.464000	0.593100	0.474900
C1781	C178	0.419630	0.630490	0.496700
C1791	C179	0.401150	0.642290	0.460220
H961	H96	0.413000	0.633800	0.435300
C1801	C180	0.367200	0.665230	0.459050
H971	H97	0.354600	0.671500	0.433800
C1811	C181	0.505060	0.564630	0.535710
C1821	C182	0.534880	0.565560	0.506140
H981	H98	0.535000	0.586700	0.486500
O291	O29	0.201510	0.716070	0.971300
O301	O30	0.200300	0.715490	0.039620
C1831	C183	0.187070	0.705830	0.005260
C1841	C184	0.149410	0.679870	0.003960
C1851	C185	0.132350	0.669780	0.967510
H991	H99	0.144700	0.679000	0.943000
C1861	C186	0.097130	0.646190	0.965610
C1871	C187	0.078910	0.635010	0.929390
H1001	H100	0.089500	0.645100	0.904500
C1881	C188	0.045490	0.609310	0.928850
H1011	H101	0.033600	0.602000	0.903500
C1891	C189	0.029200	0.594260	0.964390
C1901	C190	0.046840	0.604290	0.000770
H1021	H102	0.036000	0.593100	0.025100
C1911	C191	0.080370	0.630490	0.003300
C1921	C192	0.098850	0.642290	0.039780
H1031	H103	0.087000	0.633800	0.064700
C1931	C193	0.132800	0.665230	0.040950
H1041	H104	0.145400	0.671500	0.066200
C1941	C194	0.994940	0.564630	0.964290
C1951	C195	0.965120	0.565560	0.993860
H1051	H105	0.965000	0.586700	0.013500
O311	O31	0.298490	0.783930	0.971300
O321	O32	0.299700	0.784510	0.039620
C1961	C196	0.312930	0.794170	0.005260
C1971	C197	0.350590	0.820130	0.003960
C1981	C198	0.367650	0.830220	0.967510
H1061	H106	0.355300	0.821000	0.943000
C1991	C199	0.402870	0.853810	0.965610
C2001	C200	0.421090	0.864990	0.929390
H1071	H107	0.410500	0.854900	0.904500
C2011	C201	0.454510	0.890690	0.928850
H1081	H108	0.466400	0.898000	0.903500
C2021	C202	0.470800	0.905740	0.964390
C2031	C203	0.453160	0.895710	0.000770
H1091	H109	0.464000	0.906900	0.025100
C2041	C204	0.419630	0.869510	0.003300
C2051	C205	0.401150	0.857710	0.039780
H1101	H110	0.413000	0.866200	0.064700
C2061	C206	0.367200	0.834770	0.040950
H1111	H111	0.354600	0.828500	0.066200
C2071	C207	0.505060	0.935370	0.964290
C2081	C208	0.534880	0.934440	0.993860
H1121	H112	0.535000	0.913300	0.013500
O331	O33	0.783930	0.971300	0.298490
O341	O34	0.784510	0.039620	0.299700
C2091	C209	0.794170	0.005260	0.312930
C2101	C210	0.820130	0.003960	0.350590
C2111	C211	0.830220	0.967510	0.367650
H1131	H113	0.821000	0.943000	0.355300
C2121	C212	0.853810	0.965610	0.402870
C2131	C213	0.864990	0.929390	0.421090
H1141	H114	0.854900	0.904500	0.410500
C2141	C214	0.890690	0.928850	0.454510
H1151	H115	0.898000	0.903500	0.466400
C2151	C215	0.905740	0.964390	0.470800
C2161	C216	0.895710	0.000770	0.453160
H1161	H116	0.906900	0.025100	0.464000
C2171	C217	0.869510	0.003300	0.419630
C2181	C218	0.857710	0.039780	0.401150
H1171	H117	0.866200	0.064700	0.413000
C2191	C219	0.834770	0.040950	0.367200
H1181	H118	0.828500	0.066200	0.354600
C2201	C220	0.935370	0.964290	0.505060
C2211	C221	0.934440	0.993860	0.534880
H1191	H119	0.913300	0.013500	0.535000
O351	O35	0.716070	0.971300	0.201510
O361	O36	0.715490	0.039620	0.200300
C2221	C222	0.705830	0.005260	0.187070
C2231	C223	0.679870	0.003960	0.149410
C2241	C224	0.669780	0.967510	0.132350
H1201	H120	0.679000	0.943000	0.144700
C2251	C225	0.646190	0.965610	0.097130
C2261	C226	0.635010	0.929390	0.078910
H1211	H121	0.645100	0.904500	0.089500
C2271	C227	0.609310	0.928850	0.045490
H1221	H122	0.602000	0.903500	0.033600
C2281	C228	0.594260	0.964390	0.029200
C2291	C229	0.604290	0.000770	0.046840
H1231	H123	0.593100	0.025100	0.036000
C2301	C230	0.630490	0.003300	0.080370
C2311	C231	0.642290	0.039780	0.098850
H1241	H124	0.633800	0.064700	0.087000
C2321	C232	0.665230	0.040950	0.132800
H1251	H125	0.671500	0.066200	0.145400
C2331	C233	0.564630	0.964290	0.994940
C2341	C234	0.565560	0.993860	0.965120
H1261	H126	0.586700	0.013500	0.965000
O371	O37	0.716070	0.528700	0.298490
O381	O38	0.715490	0.460380	0.299700
C2351	C235	0.705830	0.494740	0.312930
C2361	C236	0.679870	0.496040	0.350590
C2371	C237	0.669780	0.532490	0.367650
H1271	H127	0.679000	0.557000	0.355300
C2381	C238	0.646190	0.534390	0.402870
C2391	C239	0.635010	0.570610	0.421090
H1281	H128	0.645100	0.595500	0.410500
C2401	C240	0.609310	0.571150	0.454510
H1291	H129	0.602000	0.596500	0.466400
C2411	C241	0.594260	0.535610	0.470800
C2421	C242	0.604290	0.499230	0.453160
H1301	H130	0.593100	0.474900	0.464000
C2431	C243	0.630490	0.496700	0.419630
C2441	C244	0.642290	0.460220	0.401150
H1311	H131	0.633800	0.435300	0.413000
C2451	C245	0.665230	0.459050	0.367200
H1321	H132	0.671500	0.433800	0.354600
C2461	C246	0.564630	0.535710	0.505060
C2471	C247	0.565560	0.506140	0.534880
H1331	H133	0.586700	0.486500	0.535000
O391	O39	0.783930	0.528700	0.201510
O401	O40	0.784510	0.460380	0.200300
C2481	C248	0.794170	0.494740	0.187070
C2491	C249	0.820130	0.496040	0.149410
C2501	C250	0.830220	0.532490	0.132350
H1341	H134	0.821000	0.557000	0.144700
C2511	C251	0.853810	0.534390	0.097130
C2521	C252	0.864990	0.570610	0.078910
H1351	H135	0.854900	0.595500	0.089500
C2531	C253	0.890690	0.571150	0.045490
H1361	H136	0.898000	0.596500	0.033600
C2541	C254	0.905740	0.535610	0.029200
C2551	C255	0.895710	0.499230	0.046840
H1371	H137	0.906900	0.474900	0.036000
C2561	C256	0.869510	0.496700	0.080370
C2571	C257	0.857710	0.460220	0.098850
H1381	H138	0.866200	0.435300	0.087000
C2581	C258	0.834770	0.459050	0.132800
H1391	H139	0.828500	0.433800	0.145400
C2591	C259	0.935370	0.535710	0.994940
C2601	C260	0.934440	0.506140	0.965120
H1401	H140	0.913300	0.486500	0.965000
O411	O41	0.971300	0.201510	0.716070
O421	O42	0.039620	0.200300	0.715490
C2611	C261	0.005260	0.187070	0.705830
C2621	C262	0.003960	0.149410	0.679870
C2631	C263	0.967510	0.132350	0.669780
H1411	H141	0.943000	0.144700	0.679000
C2641	C264	0.965610	0.097130	0.646190
C2651	C265	0.929390	0.078910	0.635010
H1421	H142	0.904500	0.089500	0.645100
C2661	C266	0.928850	0.045490	0.609310
H1431	H143	0.903500	0.033600	0.602000
C2671	C267	0.964390	0.029200	0.594260
C2681	C268	0.000770	0.046840	0.604290
H1441	H144	0.025100	0.036000	0.593100
C2691	C269	0.003300	0.080370	0.630490
C2701	C270	0.039780	0.098850	0.642290
H1451	H145	0.064700	0.087000	0.633800
C2711	C271	0.040950	0.132800	0.665230
H1461	H146	0.066200	0.145400	0.671500
C2721	C272	0.964290	0.994940	0.564630
C2731	C273	0.993860	0.965120	0.565560
H1471	H147	0.013500	0.965000	0.586700
O431	O43	0.971300	0.298490	0.783930
O441	O44	0.039620	0.299700	0.784510
C2741	C274	0.005260	0.312930	0.794170
C2751	C275	0.003960	0.350590	0.820130
C2761	C276	0.967510	0.367650	0.830220
H1481	H148	0.943000	0.355300	0.821000
C2771	C277	0.965610	0.402870	0.853810
C2781	C278	0.929390	0.421090	0.864990
H1491	H149	0.904500	0.410500	0.854900
C2791	C279	0.928850	0.454510	0.890690
H1501	H150	0.903500	0.466400	0.898000
C2801	C280	0.964390	0.470800	0.905740
C2811	C281	0.000770	0.453160	0.895710
H1511	H151	0.025100	0.464000	0.906900
C2821	C282	0.003300	0.419630	0.869510
C2831	C283	0.039780	0.401150	0.857710
H1521	H152	0.064700	0.413000	0.866200
C2841	C284	0.040950	0.367200	0.834770
H1531	H153	0.066200	0.354600	0.828500
C2851	C285	0.964290	0.505060	0.935370
C2861	C286	0.993860	0.534880	0.934440
H1541	H154	0.013500	0.535000	0.913300
O451	O45	0.528700	0.201510	0.783930
O461	O46	0.460380	0.200300	0.784510
C2871	C287	0.494740	0.187070	0.794170
C2881	C288	0.496040	0.149410	0.820130
C2891	C289	0.532490	0.132350	0.830220
H1551	H155	0.557000	0.144700	0.821000
C2901	C290	0.534390	0.097130	0.853810
C2911	C291	0.570610	0.078910	0.864990
H1561	H156	0.595500	0.089500	0.854900
C2921	C292	0.571150	0.045490	0.890690
H1571	H157	0.596500	0.033600	0.898000
C2931	C293	0.535610	0.029200	0.905740
C2941	C294	0.499230	0.046840	0.895710
H1581	H158	0.474900	0.036000	0.906900
C2951	C295	0.496700	0.080370	0.869510
C2961	C296	0.460220	0.098850	0.857710
H1591	H159	0.435300	0.087000	0.866200
C2971	C297	0.459050	0.132800	0.834770
H1601	H160	0.433800	0.145400	0.828500
C2981	C298	0.535710	0.994940	0.935370
C2991	C299	0.506140	0.965120	0.934440
H1611	H161	0.486500	0.965000	0.913300
O471	O47	0.528700	0.298490	0.716070
O481	O48	0.460380	0.299700	0.715490
C3001	C300	0.494740	0.312930	0.705830
C3011	C301	0.496040	0.350590	0.679870
C3021	C302	0.532490	0.367650	0.669780
H1621	H162	0.557000	0.355300	0.679000
C3031	C303	0.534390	0.402870	0.646190
C3041	C304	0.570610	0.421090	0.635010
H1631	H163	0.595500	0.410500	0.645100
C3051	C305	0.571150	0.454510	0.609310
H1641	H164	0.596500	0.466400	0.602000
C3061	C306	0.535610	0.470800	0.594260
C3071	C307	0.499230	0.453160	0.604290
H1651	H165	0.474900	0.464000	0.593100
C3081	C308	0.496700	0.419630	0.630490
C3091	C309	0.460220	0.401150	0.642290
H1661	H166	0.435300	0.413000	0.633800
C3101	C310	0.459050	0.367200	0.665230
H1671	H167	0.433800	0.354600	0.671500
C3111	C311	0.535710	0.505060	0.564630
C3121	C312	0.506140	0.534880	0.565560
H1681	H168	0.486500	0.535000	0.586700
Zn11	Zn1	0.250000	0.750000	0.045880
Zn21	Zn2	0.250000	0.750000	0.454120
Zn31	Zn3	0.045880	0.250000	0.750000
Zn41	Zn4	0.454120	0.250000	0.750000
Zn51	Zn5	0.750000	0.045880	0.250000
Zn61	Zn6	0.750000	0.454120	0.250000
Zn71	Zn7	0.250000	0.750000	0.545880
Zn81	Zn8	0.250000	0.750000	0.954120
Zn91	Zn9	0.750000	0.954120	0.250000
Zn101	Zn10	0.750000	0.545880	0.250000
Zn111	Zn11	0.954120	0.250000	0.750000
Zn121	Zn12	0.545880	0.250000	0.750000
O491	O49	0.798490	0.216070	0.471300
O501	O50	0.799700	0.215490	0.539620
C3131	C313	0.812930	0.205830	0.505260
C3141	C314	0.850590	0.179870	0.503960
C3151	C315	0.867650	0.169780	0.467510
H1691	H169	0.855300	0.179000	0.443000
C3161	C316	0.902870	0.146190	0.465610
C3171	C317	0.921090	0.135010	0.429390
H1701	H170	0.910500	0.145100	0.404500
C3181	C318	0.954510	0.109310	0.428850
H1711	H171	0.966400	0.102000	0.403500
C3191	C319	0.970800	0.094260	0.464390
C3201	C320	0.953160	0.104290	0.500770
H1721	H172	0.964000	0.093100	0.525100
C3211	C321	0.919630	0.130490	0.503300
C3221	C322	0.901150	0.142290	0.539780
H1731	H173	0.913000	0.133800	0.564700
C3231	C323	0.867200	0.165230	0.540950
H1741	H174	0.854600	0.171500	0.566200
C3241	C324	0.005060	0.064630	0.464290
C3251	C325	0.034880	0.065560	0.493860
H1751	H175	0.035000	0.086700	0.513500
O511	O51	0.701510	0.283930	0.471300
O521	O52	0.700300	0.284510	0.539620
C3261	C326	0.687070	0.294170	0.505260
C3271	C327	0.649410	0.320130	0.503960
C3281	C328	0.632350	0.330220	0.467510
H1761	H176	0.644700	0.321000	0.443000
C3291	C329	0.597130	0.353810	0.465610
C3301	C330	0.578910	0.364990	0.429390
H1771	H177	0.589500	0.354900	0.404500
C3311	C331	0.545490	0.390690	0.428850
H1781	H178	0.533600	0.398000	0.403500
C3321	C332	0.529200	0.405740	0.464390
C3331	C333	0.546840	0.395710	0.500770
H1791	H179	0.536000	0.406900	0.525100
C3341	C334	0.580370	0.369510	0.503300
C3351	C335	0.598850	0.357710	0.539780
H1801	H180	0.587000	0.366200	0.564700
C3361	C336	0.632800	0.334770	0.540950
H1811	H181	0.645400	0.328500	0.566200
C3371	C337	0.494940	0.435370	0.464290
C3381	C338	0.465120	0.434440	0.493860
H1821	H182	0.465000	0.413300	0.513500
O531	O53	0.798490	0.283930	0.028700
O541	O54	0.799700	0.284510	0.960380
C3391	C339	0.812930	0.294170	0.994740
C3401	C340	0.850590	0.320130	0.996040
C3411	C341	0.867650	0.330220	0.032490
H1831	H183	0.855300	0.321000	0.057000
C3421	C342	0.902870	0.353810	0.034390
C3431	C343	0.921090	0.364990	0.070610
H1841	H184	0.910500	0.354900	0.095500
C3441	C344	0.954510	0.390690	0.071150
H1851	H185	0.966400	0.398000	0.096500
C3451	C345	0.970800	0.405740	0.035610
C3461	C346	0.953160	0.395710	0.999230
H1861	H186	0.964000	0.406900	0.974900
C3471	C347	0.919630	0.369510	0.996700
C3481	C348	0.901150	0.357710	0.960220
H1871	H187	0.913000	0.366200	0.935300
C3491	C349	0.867200	0.334770	0.959050
H1881	H188	0.854600	0.328500	0.933800
C3501	C350	0.005060	0.435370	0.035710
C3511	C351	0.034880	0.434440	0.006140
H1891	H189	0.035000	0.413300	0.986500
O551	O55	0.701510	0.216070	0.028700
O561	O56	0.700300	0.215490	0.960380
C3521	C352	0.687070	0.205830	0.994740
C3531	C353	0.649410	0.179870	0.996040
C3541	C354	0.632350	0.169780	0.032490
H1901	H190	0.644700	0.179000	0.057000
C3551	C355	0.597130	0.146190	0.034390
C3561	C356	0.578910	0.135010	0.070610
H1911	H191	0.589500	0.145100	0.095500
C3571	C357	0.545490	0.109310	0.071150
H1921	H192	0.533600	0.102000	0.096500
C3581	C358	0.529200	0.094260	0.035610
C3591	C359	0.546840	0.104290	0.999230
H1931	H193	0.536000	0.093100	0.974900
C3601	C360	0.580370	0.130490	0.996700
C3611	C361	0.598850	0.142290	0.960220
H1941	H194	0.587000	0.133800	0.935300
C3621	C362	0.632800	0.165230	0.959050
H1951	H195	0.645400	0.171500	0.933800
C3631	C363	0.494940	0.064630	0.035710
C3641	C364	0.465120	0.065560	0.006140
H1961	H196	0.465000	0.086700	0.986500
O571	O57	0.216070	0.028700	0.701510
O581	O58	0.215490	0.960380	0.700300
C3651	C365	0.205830	0.994740	0.687070
C3661	C366	0.179870	0.996040	0.649410
C3671	C367	0.169780	0.032490	0.632350
H1971	H197	0.179000	0.057000	0.644700
C3681	C368	0.146190	0.034390	0.597130
C3691	C369	0.135010	0.070610	0.578910
H1981	H198	0.145100	0.095500	0.589500
C3701	C370	0.109310	0.071150	0.545490
H1991	H199	0.102000	0.096500	0.533600
C3711	C371	0.094260	0.035610	0.529200
C3721	C372	0.104290	0.999230	0.546840
H2001	H200	0.093100	0.974900	0.536000
C3731	C373	0.130490	0.996700	0.580370
C3741	C374	0.142290	0.960220	0.598850
H2011	H201	0.133800	0.935300	0.587000
C3751	C375	0.165230	0.959050	0.632800
H2021	H202	0.171500	0.933800	0.645400
C3761	C376	0.064630	0.035710	0.494940
C3771	C377	0.065560	0.006140	0.465120
H2031	H203	0.086700	0.986500	0.465000
O591	O59	0.283930	0.028700	0.798490
O601	O60	0.284510	0.960380	0.799700
C3781	C378	0.294170	0.994740	0.812930
C3791	C379	0.320130	0.996040	0.850590
C3801	C380	0.330220	0.032490	0.867650
H2041	H204	0.321000	0.057000	0.855300
C3811	C381	0.353810	0.034390	0.902870
C3821	C382	0.364990	0.070610	0.921090
H2051	H205	0.354900	0.095500	0.910500
C3831	C383	0.390690	0.071150	0.954510
H2061	H206	0.398000	0.096500	0.966400
C3841	C384	0.405740	0.035610	0.970800
C3851	C385	0.395710	0.999230	0.953160
H2071	H207	0.406900	0.974900	0.964000
C3861	C386	0.369510	0.996700	0.919630
C3871	C387	0.357710	0.960220	0.901150
H2081	H208	0.366200	0.935300	0.913000
C3881	C388	0.334770	0.959050	0.867200
H2091	H209	0.328500	0.933800	0.854600
C3891	C389	0.435370	0.035710	0.005060
C3901	C390	0.434440	0.006140	0.034880
H2101	H210	0.413300	0.986500	0.035000
O611	O61	0.283930	0.471300	0.701510
O621	O62	0.284510	0.539620	0.700300
C3911	C391	0.294170	0.505260	0.687070
C3921	C392	0.320130	0.503960	0.649410
C3931	C393	0.330220	0.467510	0.632350
H2111	H211	0.321000	0.443000	0.644700
C3941	C394	0.353810	0.465610	0.597130
C3951	C395	0.364990	0.429390	0.578910
H2121	H212	0.354900	0.404500	0.589500
C3961	C396	0.390690	0.428850	0.545490
H2131	H213	0.398000	0.403500	0.533600
C3971	C397	0.405740	0.464390	0.529200
C3981	C398	0.395710	0.500770	0.546840
H2141	H214	0.406900	0.525100	0.536000
C3991	C399	0.369510	0.503300	0.580370
C4001	C400	0.357710	0.539780	0.598850
H2151	H215	0.366200	0.564700	0.587000
C4011	C401	0.334770	0.540950	0.632800
H2161	H216	0.328500	0.566200	0.645400
C4021	C402	0.435370	0.464290	0.494940
C4031	C403	0.434440	0.493860	0.465120
H2171	H217	0.413300	0.513500	0.465000
O631	O63	0.216070	0.471300	0.798490
O641	O64	0.215490	0.539620	0.799700
C4041	C404	0.205830	0.505260	0.812930
C4051	C405	0.179870	0.503960	0.850590
C4061	C406	0.169780	0.467510	0.867650
H2181	H218	0.179000	0.443000	0.855300
C4071	C407	0.146190	0.465610	0.902870
C4081	C408	0.135010	0.429390	0.921090
H2191	H219	0.145100	0.404500	0.910500
C4091	C409	0.109310	0.428850	0.954510
H2201	H220	0.102000	0.403500	0.966400
C4101	C410	0.094260	0.464390	0.970800
C4111	C411	0.104290	0.500770	0.953160
H2211	H221	0.093100	0.525100	0.964000
C4121	C412	0.130490	0.503300	0.919630
C4131	C413	0.142290	0.539780	0.901150
H2221	H222	0.133800	0.564700	0.913000
C4141	C414	0.165230	0.540950	0.867200
H2231	H223	0.171500	0.566200	0.854600
C4151	C415	0.064630	0.464290	0.005060
C4161	C416	0.065560	0.493860	0.034880
H2241	H224	0.086700	0.513500	0.035000
O651	O65	0.028700	0.798490	0.283930
O661	O66	0.960380	0.799700	0.284510
C4171	C417	0.994740	0.812930	0.294170
C4181	C418	0.996040	0.850590	0.320130
C4191	C419	0.032490	0.867650	0.330220
H2251	H225	0.057000	0.855300	0.321000
C4201	C420	0.034390	0.902870	0.353810
C4211	C421	0.070610	0.921090	0.364990
H2261	H226	0.095500	0.910500	0.354900
C4221	C422	0.071150	0.954510	0.390690
H2271	H227	0.096500	0.966400	0.398000
C4231	C423	0.035610	0.970800	0.405740
C4241	C424	0.999230	0.953160	0.395710
H2281	H228	0.974900	0.964000	0.406900
C4251	C425	0.996700	0.919630	0.369510
C4261	C426	0.960220	0.901150	0.357710
H2291	H229	0.935300	0.913000	0.366200
C4271	C427	0.959050	0.867200	0.334770
H2301	H230	0.933800	0.854600	0.328500
C4281	C428	0.035710	0.005060	0.435370
C4291	C429	0.006140	0.034880	0.434440
H2311	H231	0.986500	0.035000	0.413300
O671	O67	0.028700	0.701510	0.216070
O681	O68	0.960380	0.700300	0.215490
C4301	C430	0.994740	0.687070	0.205830
C4311	C431	0.996040	0.649410	0.179870
C4321	C432	0.032490	0.632350	0.169780
H2321	H232	0.057000	0.644700	0.179000
C4331	C433	0.034390	0.597130	0.146190
C4341	C434	0.070610	0.578910	0.135010
H2331	H233	0.095500	0.589500	0.145100
C4351	C435	0.071150	0.545490	0.109310
H2341	H234	0.096500	0.533600	0.102000
C4361	C436	0.035610	0.529200	0.094260
C4371	C437	0.999230	0.546840	0.104290
H2351	H235	0.974900	0.536000	0.093100
C4381	C438	0.996700	0.580370	0.130490
C4391	C439	0.960220	0.598850	0.142290
H2361	H236	0.935300	0.587000	0.133800
C4401	C440	0.959050	0.632800	0.165230
H2371	H237	0.933800	0.645400	0.171500
C4411	C441	0.035710	0.494940	0.064630
C4421	C442	0.006140	0.465120	0.065560
H2381	H238	0.986500	0.465000	0.086700
O691	O69	0.471300	0.798490	0.216070
O701	O70	0.539620	0.799700	0.215490
C4431	C443	0.505260	0.812930	0.205830
C4441	C444	0.503960	0.850590	0.179870
C4451	C445	0.467510	0.867650	0.169780
H2391	H239	0.443000	0.855300	0.179000
C4461	C446	0.465610	0.902870	0.146190
C4471	C447	0.429390	0.921090	0.135010
H2401	H240	0.404500	0.910500	0.145100
C4481	C448	0.428850	0.954510	0.109310
H2411	H241	0.403500	0.966400	0.102000
C4491	C449	0.464390	0.970800	0.094260
C4501	C450	0.500770	0.953160	0.104290
H2421	H242	0.525100	0.964000	0.093100
C4511	C451	0.503300	0.919630	0.130490
C4521	C452	0.539780	0.901150	0.142290
H2431	H243	0.564700	0.913000	0.133800
C4531	C453	0.540950	0.867200	0.165230
H2441	H244	0.566200	0.854600	0.171500
C4541	C454	0.464290	0.005060	0.064630
C4551	C455	0.493860	0.034880	0.065560
H2451	H245	0.513500	0.035000	0.086700
O711	O71	0.471300	0.701510	0.283930
O721	O72	0.539620	0.700300	0.284510
C4561	C456	0.505260	0.687070	0.294170
C4571	C457	0.503960	0.649410	0.320130
C4581	C458	0.467510	0.632350	0.330220
H2461	H246	0.443000	0.644700	0.321000
C4591	C459	0.465610	0.597130	0.353810
C4601	C460	0.429390	0.578910	0.364990
H2471	H247	0.404500	0.589500	0.354900
C4611	C461	0.428850	0.545490	0.390690
H2481	H248	0.403500	0.533600	0.398000
C4621	C462	0.464390	0.529200	0.405740
C4631	C463	0.500770	0.546840	0.395710
H2491	H249	0.525100	0.536000	0.406900
C4641	C464	0.503300	0.580370	0.369510
C4651	C465	0.539780	0.598850	0.357710
H2501	H250	0.564700	0.587000	0.366200
C4661	C466	0.540950	0.632800	0.334770
H2511	H251	0.566200	0.645400	0.328500
C4671	C467	0.464290	0.494940	0.435370
C4681	C468	0.493860	0.465120	0.434440
H2521	H252	0.513500	0.465000	0.413300
O731	O73	0.783930	0.201510	0.971300
O741	O74	0.784510	0.200300	0.039620
C4691	C469	0.794170	0.187070	0.005260
C4701	C470	0.820130	0.149410	0.003960
C4711	C471	0.830220	0.132350	0.967510
H2531	H253	0.821000	0.144700	0.943000
C4721	C472	0.853810	0.097130	0.965610
C4731	C473	0.864990	0.078910	0.929390
H2541	H254	0.854900	0.089500	0.904500
C4741	C474	0.890690	0.045490	0.928850
H2551	H255	0.898000	0.033600	0.903500
C4751	C475	0.905740	0.029200	0.964390
C4761	C476	0.895710	0.046840	0.000770
H2561	H256	0.906900	0.036000	0.025100
C4771	C477	0.869510	0.080370	0.003300
C4781	C478	0.857710	0.098850	0.039780
H2571	H257	0.866200	0.087000	0.064700
C4791	C479	0.834770	0.132800	0.040950
H2581	H258	0.828500	0.145400	0.066200
C4801	C480	0.935370	0.994940	0.964290
C4811	C481	0.934440	0.965120	0.993860
H2591	H259	0.913300	0.965000	0.013500
O751	O75	0.716070	0.298490	0.971300
O761	O76	0.715490	0.299700	0.039620
C4821	C482	0.705830	0.312930	0.005260
C4831	C483	0.679870	0.350590	0.003960
C4841	C484	0.669780	0.367650	0.967510
H2601	H260	0.679000	0.355300	0.943000
C4851	C485	0.646190	0.402870	0.965610
C4861	C486	0.635010	0.421090	0.929390
H2611	H261	0.645100	0.410500	0.904500
C4871	C487	0.609310	0.454510	0.928850
H2621	H262	0.602000	0.466400	0.903500
C4881	C488	0.594260	0.470800	0.964390
C4891	C489	0.604290	0.453160	0.000770
H2631	H263	0.593100	0.464000	0.025100
C4901	C490	0.630490	0.419630	0.003300
C4911	C491	0.642290	0.401150	0.039780
H2641	H264	0.633800	0.413000	0.064700
C4921	C492	0.665230	0.367200	0.040950
H2651	H265	0.671500	0.354600	0.066200
C4931	C493	0.564630	0.505060	0.964290
C4941	C494	0.565560	0.534880	0.993860
H2661	H266	0.586700	0.535000	0.013500
O771	O77	0.716070	0.201510	0.528700
O781	O78	0.715490	0.200300	0.460380
C4951	C495	0.705830	0.187070	0.494740
C4961	C496	0.679870	0.149410	0.496040
C4971	C497	0.669780	0.132350	0.532490
H2671	H267	0.679000	0.144700	0.557000
C4981	C498	0.646190	0.097130	0.534390
C4991	C499	0.635010	0.078910	0.570610
H2681	H268	0.645100	0.089500	0.595500
C5001	C500	0.609310	0.045490	0.571150
H2691	H269	0.602000	0.033600	0.596500
C5011	C501	0.594260	0.029200	0.535610
C5021	C502	0.604290	0.046840	0.499230
H2701	H270	0.593100	0.036000	0.474900
C5031	C503	0.630490	0.080370	0.496700
C5041	C504	0.642290	0.098850	0.460220
H2711	H271	0.633800	0.087000	0.435300
C5051	C505	0.665230	0.132800	0.459050
H2721	H272	0.671500	0.145400	0.433800
C5061	C506	0.564630	0.994940	0.535710
C5071	C507	0.565560	0.965120	0.506140
H2731	H273	0.586700	0.965000	0.486500
O791	O79	0.783930	0.298490	0.528700
O801	O80	0.784510	0.299700	0.460380
C5081	C508	0.794170	0.312930	0.494740
C5091	C509	0.820130	0.350590	0.496040
C5101	C510	0.830220	0.367650	0.532490
H2741	H274	0.821000	0.355300	0.557000
C5111	C511	0.853810	0.402870	0.534390
C5121	C512	0.864990	0.421090	0.570610
H2751	H275	0.854900	0.410500	0.595500
C5131	C513	0.890690	0.454510	0.571150
H2761	H276	0.898000	0.466400	0.596500
C5141	C514	0.905740	0.470800	0.535610
C5151	C515	0.895710	0.453160	0.499230
H2771	H277	0.906900	0.464000	0.474900
C5161	C516	0.869510	0.419630	0.496700
C5171	C517	0.857710	0.401150	0.460220
H2781	H278	0.866200	0.413000	0.435300
C5181	C518	0.834770	0.367200	0.459050
H2791	H279	0.828500	0.354600	0.433800
C5191	C519	0.935370	0.505060	0.535710
C5201	C520	0.934440	0.534880	0.506140
H2801	H280	0.913300	0.535000	0.486500
O811	O81	0.971300	0.783930	0.201510
O821	O82	0.039620	0.784510	0.200300
C5211	C521	0.005260	0.794170	0.187070
C5221	C522	0.003960	0.820130	0.149410
C5231	C523	0.967510	0.830220	0.132350
H2811	H281	0.943000	0.821000	0.144700
C5241	C524	0.965610	0.853810	0.097130
C5251	C525	0.929390	0.864990	0.078910
H2821	H282	0.904500	0.854900	0.089500
C5261	C526	0.928850	0.890690	0.045490
H2831	H283	0.903500	0.898000	0.033600
C5271	C527	0.964390	0.905740	0.029200
C5281	C528	0.000770	0.895710	0.046840
H2841	H284	0.025100	0.906900	0.036000
C5291	C529	0.003300	0.869510	0.080370
C5301	C530	0.039780	0.857710	0.098850
H2851	H285	0.064700	0.866200	0.087000
C5311	C531	0.040950	0.834770	0.132800
H2861	H286	0.066200	0.828500	0.145400
C5321	C532	0.964290	0.935370	0.994940
C5331	C533	0.993860	0.934440	0.965120
H2871	H287	0.013500	0.913300	0.965000
O831	O83	0.971300	0.716070	0.298490
O841	O84	0.039620	0.715490	0.299700
C5341	C534	0.005260	0.705830	0.312930
C5351	C535	0.003960	0.679870	0.350590
C5361	C536	0.967510	0.669780	0.367650
H2881	H288	0.943000	0.679000	0.355300
C5371	C537	0.965610	0.646190	0.402870
C5381	C538	0.929390	0.635010	0.421090
H2891	H289	0.904500	0.645100	0.410500
C5391	C539	0.928850	0.609310	0.454510
H2901	H290	0.903500	0.602000	0.466400
C5401	C540	0.964390	0.594260	0.470800
C5411	C541	0.000770	0.604290	0.453160
H2911	H291	0.025100	0.593100	0.464000
C5421	C542	0.003300	0.630490	0.419630
C5431	C543	0.039780	0.642290	0.401150
H2921	H292	0.064700	0.633800	0.413000
C5441	C544	0.040950	0.665230	0.367200
H2931	H293	0.066200	0.671500	0.354600
C5451	C545	0.964290	0.564630	0.505060
C5461	C546	0.993860	0.565560	0.534880
H2941	H294	0.013500	0.586700	0.535000
O851	O85	0.528700	0.716070	0.201510
O861	O86	0.460380	0.715490	0.200300
C5471	C547	0.494740	0.705830	0.187070
C5481	C548	0.496040	0.679870	0.149410
C5491	C549	0.532490	0.669780	0.132350
H2951	H295	0.557000	0.679000	0.144700
C5501	C550	0.534390	0.646190	0.097130
C5511	C551	0.570610	0.635010	0.078910
H2961	H296	0.595500	0.645100	0.089500
C5521	C552	0.571150	0.609310	0.045490
H2971	H297	0.596500	0.602000	0.033600
C5531	C553	0.535610	0.594260	0.029200
C5541	C554	0.499230	0.604290	0.046840
H2981	H298	0.474900	0.593100	0.036000
C5551	C555	0.496700	0.630490	0.080370
C5561	C556	0.460220	0.642290	0.098850
H2991	H299	0.435300	0.633800	0.087000
C5571	C557	0.459050	0.665230	0.132800
H3001	H300	0.433800	0.671500	0.145400
C5581	C558	0.535710	0.564630	0.994940
C5591	C559	0.506140	0.565560	0.965120
H3011	H301	0.486500	0.586700	0.965000
O871	O87	0.528700	0.783930	0.298490
O881	O88	0.460380	0.784510	0.299700
C5601	C560	0.494740	0.794170	0.312930
C5611	C561	0.496040	0.820130	0.350590
C5621	C562	0.532490	0.830220	0.367650
H3021	H302	0.557000	0.821000	0.355300
C5631	C563	0.534390	0.853810	0.402870
C5641	C564	0.570610	0.864990	0.421090
H3031	H303	0.595500	0.854900	0.410500
C5651	C565	0.571150	0.890690	0.454510
H3041	H304	0.596500	0.898000	0.466400
C5661	C566	0.535610	0.905740	0.470800
C5671	C567	0.499230	0.895710	0.453160
H3051	H305	0.474900	0.906900	0.464000
C5681	C568	0.496700	0.869510	0.419630
C5691	C569	0.460220	0.857710	0.401150
H3061	H306	0.435300	0.866200	0.413000
C5701	C570	0.459050	0.834770	0.367200
H3071	H307	0.433800	0.828500	0.354600
C5711	C571	0.535710	0.935370	0.505060
C5721	C572	0.506140	0.934440	0.534880
H3081	H308	0.486500	0.913300	0.535000
O891	O89	0.201510	0.971300	0.783930
O901	O90	0.200300	0.039620	0.784510
C5731	C573	0.187070	0.005260	0.794170
C5741	C574	0.149410	0.003960	0.820130
C5751	C575	0.132350	0.967510	0.830220
H3091	H309	0.144700	0.943000	0.821000
C5761	C576	0.097130	0.965610	0.853810
C5771	C577	0.078910	0.929390	0.864990
H3101	H310	0.089500	0.904500	0.854900
C5781	C578	0.045490	0.928850	0.890690
H3111	H311	0.033600	0.903500	0.898000
C5791	C579	0.029200	0.964390	0.905740
C5801	C580	0.046840	0.000770	0.895710
H3121	H312	0.036000	0.025100	0.906900
C5811	C581	0.080370	0.003300	0.869510
C5821	C582	0.098850	0.039780	0.857710
H3131	H313	0.087000	0.064700	0.866200
C5831	C583	0.132800	0.040950	0.834770
H3141	H314	0.145400	0.066200	0.828500
C5841	C584	0.994940	0.964290	0.935370
C5851	C585	0.965120	0.993860	0.934440
H3151	H315	0.965000	0.013500	0.913300
O911	O91	0.298490	0.971300	0.716070
O921	O92	0.299700	0.039620	0.715490
C5861	C586	0.312930	0.005260	0.705830
C5871	C587	0.350590	0.003960	0.679870
C5881	C588	0.367650	0.967510	0.669780
H3161	H316	0.355300	0.943000	0.679000
C5891	C589	0.402870	0.965610	0.646190
C5901	C590	0.421090	0.929390	0.635010
H3171	H317	0.410500	0.904500	0.645100
C5911	C591	0.454510	0.928850	0.609310
H3181	H318	0.466400	0.903500	0.602000
C5921	C592	0.470800	0.964390	0.594260
C5931	C593	0.453160	0.000770	0.604290
H3191	H319	0.464000	0.025100	0.593100
C5941	C594	0.419630	0.003300	0.630490
C5951	C595	0.401150	0.039780	0.642290
H3201	H320	0.413000	0.064700	0.633800
C5961	C596	0.367200	0.040950	0.665230
H3211	H321	0.354600	0.066200	0.671500
C5971	C597	0.505060	0.964290	0.564630
C5981	C598	0.534880	0.993860	0.565560
H3221	H322	0.535000	0.013500	0.586700
O931	O93	0.201510	0.528700	0.716070
O941	O94	0.200300	0.460380	0.715490
C5991	C599	0.187070	0.494740	0.705830
C6001	C600	0.149410	0.496040	0.679870
C6011	C601	0.132350	0.532490	0.669780
H3231	H323	0.144700	0.557000	0.679000
C6021	C602	0.097130	0.534390	0.646190
C6031	C603	0.078910	0.570610	0.635010
H3241	H324	0.089500	0.595500	0.645100
C6041	C604	0.045490	0.571150	0.609310
H3251	H325	0.033600	0.596500	0.602000
C6051	C605	0.029200	0.535610	0.594260
C6061	C606	0.046840	0.499230	0.604290
H3261	H326	0.036000	0.474900	0.593100
C6071	C607	0.080370	0.496700	0.630490
C6081	C608	0.098850	0.460220	0.642290
H3271	H327	0.087000	0.435300	0.633800
C6091	C609	0.132800	0.459050	0.665230
H3281	H328	0.145400	0.433800	0.671500
C6101	C610	0.994940	0.535710	0.564630
C6111	C611	0.965120	0.506140	0.565560
H3291	H329	0.965000	0.486500	0.586700
O951	O95	0.298490	0.528700	0.783930
O961	O96	0.299700	0.460380	0.784510
C6121	C612	0.312930	0.494740	0.794170
C6131	C613	0.350590	0.496040	0.820130
C6141	C614	0.367650	0.532490	0.830220
H3301	H330	0.355300	0.557000	0.821000
C6151	C615	0.402870	0.534390	0.853810
C6161	C616	0.421090	0.570610	0.864990
H3311	H331	0.410500	0.595500	0.854900
C6171	C617	0.454510	0.571150	0.890690
H3321	H332	0.466400	0.596500	0.898000
C6181	C618	0.470800	0.535610	0.905740
C6191	C619	0.453160	0.499230	0.895710
H3331	H333	0.464000	0.474900	0.906900
C6201	C620	0.419630	0.496700	0.869510
C6211	C621	0.401150	0.460220	0.857710
H3341	H334	0.413000	0.435300	0.866200
C6221	C622	0.367200	0.459050	0.834770
H3351	H335	0.354600	0.433800	0.828500
C6231	C623	0.505060	0.535710	0.935370
C6241	C624	0.534880	0.506140	0.934440
H3361	H336	0.535000	0.486500	0.913300
Zn131	Zn13	0.750000	0.250000	0.454120
Zn141	Zn14	0.750000	0.250000	0.045880
Zn151	Zn15	0.250000	0.045880	0.750000
Zn161	Zn16	0.250000	0.454120	0.750000
Zn171	Zn17	0.045880	0.750000	0.250000
Zn181	Zn18	0.454120	0.750000	0.250000
Zn191	Zn19	0.750000	0.250000	0.954120
Zn201	Zn20	0.750000	0.250000	0.545880
Zn211	Zn21	0.954120	0.750000	0.250000
Zn221	Zn22	0.545880	0.750000	0.250000
Zn231	Zn23	0.250000	0.954120	0.750000
Zn241	Zn24	0.250000	0.545880	0.750000
