data_BINSAU_clean_PM
_symmetry_space_group_name_H-M	'P1'
_cell_length_a	33.511800
_cell_length_b	33.511800
_cell_length_c	33.511800
_cell_angle_alpha	90.000000
_cell_angle_beta	90.000000
_cell_angle_gamma	90.000000
_symmetry_Int_Tables_number 1

loop_
_symmetry_equiv_pos_as_xyz
'x,y,z'

loop_
_atom_site_label
_atom_site_type_symbol
_atom_site_fract_x
_atom_site_fract_y
_atom_site_fract_z
Mn11	Mn1	0.951060	0.250000	0.750000
Mn21	Mn2	0.750000	0.548940	0.250000
Mn31	Mn3	0.451060	0.250000	0.750000
Mn41	Mn4	0.250000	0.750000	0.451060
Mn51	Mn5	0.048940	0.250000	0.750000
Mn61	Mn6	0.250000	0.750000	0.951060
Mn71	Mn7	0.750000	0.951060	0.250000
Mn81	Mn8	0.750000	0.048940	0.250000
Mn91	Mn9	0.750000	0.451060	0.250000
Mn101	Mn10	0.250000	0.750000	0.048940
Mn111	Mn11	0.250000	0.750000	0.548940
Mn121	Mn12	0.548940	0.250000	0.750000
H11	H1	0.409000	0.866200	0.900400
H21	H2	0.323800	0.646500	0.945800
H31	H3	0.409100	0.536400	0.097300
H41	H4	0.825500	0.935400	0.356900
H51	H5	0.023100	0.039500	0.594300
H61	H6	0.353500	0.676200	0.445800
H71	H7	0.527400	0.582800	0.485200
H81	H8	0.960500	0.523100	0.405700
H91	H9	0.027400	0.514800	0.417200
H101	H10	0.539500	0.523100	0.094300
H111	H11	0.014800	0.527400	0.917200
H121	H12	0.591000	0.099600	0.366200
H131	H13	0.463600	0.590900	0.597300
H141	H14	0.514800	0.082800	0.472600
H151	H15	0.089200	0.638200	0.057400
H161	H16	0.036400	0.909100	0.597300
H171	H17	0.039500	0.905700	0.476900
H181	H18	0.594300	0.476900	0.460500
H191	H19	0.057400	0.410800	0.861800
H201	H20	0.935400	0.143100	0.674500
H211	H21	0.445800	0.353500	0.676200
H221	H22	0.646500	0.945800	0.323800
H231	H23	0.409100	0.963600	0.402700
H241	H24	0.361800	0.910800	0.557400
H251	H25	0.097300	0.409100	0.536400
H261	H26	0.866200	0.900400	0.409000
H271	H27	0.138200	0.589200	0.557400
H281	H28	0.402700	0.409100	0.963600
H291	H29	0.643100	0.435400	0.174500
H301	H30	0.138200	0.910800	0.942600
H311	H31	0.589200	0.557400	0.138200
H321	H32	0.143100	0.674500	0.935400
H331	H33	0.676200	0.054200	0.146500
H341	H34	0.039500	0.594300	0.023100
H351	H35	0.099600	0.133800	0.909000
H361	H36	0.861800	0.442600	0.089200
H371	H37	0.027400	0.985200	0.082800
H381	H38	0.942600	0.361800	0.589200
H391	H39	0.972600	0.582800	0.014800
H401	H40	0.409000	0.633800	0.599600
H411	H41	0.597300	0.463600	0.590900
H421	H42	0.674500	0.935400	0.143100
H431	H43	0.900400	0.409000	0.866200
H441	H44	0.472600	0.514800	0.082800
H451	H45	0.905700	0.476900	0.039500
H461	H46	0.463600	0.909100	0.902700
H471	H47	0.064600	0.174500	0.856900
H481	H48	0.853500	0.554200	0.323800
H491	H49	0.094300	0.960500	0.976900
H501	H50	0.825500	0.564600	0.143100
H511	H51	0.976900	0.094300	0.960500
H521	H52	0.057400	0.089200	0.638200
H531	H53	0.356900	0.674500	0.564600
H541	H54	0.594300	0.023100	0.039500
H551	H55	0.557400	0.361800	0.910800
H561	H56	0.564600	0.356900	0.674500
H571	H57	0.910800	0.942600	0.138200
H581	H58	0.460500	0.594300	0.476900
H591	H59	0.599600	0.409000	0.633800
H601	H60	0.909000	0.400400	0.366200
H611	H61	0.435400	0.325500	0.856900
H621	H62	0.960500	0.976900	0.094300
H631	H63	0.853500	0.945800	0.176200
H641	H64	0.590900	0.902700	0.036400
H651	H65	0.023100	0.460500	0.905700
H661	H66	0.909100	0.597300	0.036400
H671	H67	0.945800	0.176200	0.853500
H681	H68	0.133800	0.909000	0.099600
H691	H69	0.174500	0.856900	0.064600
H701	H70	0.097300	0.090900	0.963600
H711	H71	0.866200	0.599600	0.091000
H721	H72	0.646500	0.554200	0.176200
H731	H73	0.476900	0.460500	0.594300
H741	H74	0.638200	0.057400	0.089200
H751	H75	0.557400	0.138200	0.589200
H761	H76	0.597300	0.036400	0.909100
H771	H77	0.133800	0.591000	0.400400
H781	H78	0.094300	0.539500	0.523100
H791	H79	0.146500	0.823800	0.445800
H801	H80	0.633800	0.599600	0.409000
H811	H81	0.325500	0.643100	0.064600
H821	H82	0.036400	0.590900	0.902700
H831	H83	0.972600	0.917200	0.485200
H841	H84	0.143100	0.825500	0.564600
H851	H85	0.485200	0.972600	0.917200
H861	H86	0.176200	0.853500	0.945800
H871	H87	0.676200	0.445800	0.353500
H881	H88	0.176200	0.646500	0.554200
H891	H89	0.564600	0.143100	0.825500
H901	H90	0.902700	0.463600	0.909100
H911	H91	0.323800	0.853500	0.554200
H921	H92	0.442600	0.089200	0.861800
H931	H93	0.514800	0.417200	0.027400
H941	H94	0.900400	0.091000	0.633800
H951	H95	0.917200	0.014800	0.527400
H961	H96	0.591000	0.400400	0.133800
H971	H97	0.014800	0.972600	0.582800
H981	H98	0.963600	0.097300	0.090900
H991	H99	0.445800	0.146500	0.823800
H1001	H100	0.146500	0.676200	0.054200
H1011	H101	0.633800	0.900400	0.091000
H1021	H102	0.902700	0.036400	0.590900
H1031	H103	0.054200	0.353500	0.823800
H1041	H104	0.361800	0.589200	0.942600
H1051	H105	0.861800	0.057400	0.410800
H1061	H106	0.554200	0.176200	0.646500
H1071	H107	0.985200	0.417200	0.472600
H1081	H108	0.554200	0.323800	0.853500
H1091	H109	0.366200	0.909000	0.400400
H1101	H110	0.527400	0.917200	0.014800
H1111	H111	0.856900	0.435400	0.325500
H1121	H112	0.985200	0.082800	0.027400
H1131	H113	0.963600	0.402700	0.409100
H1141	H114	0.910800	0.557400	0.361800
H1151	H115	0.091000	0.866200	0.599600
H1161	H116	0.090900	0.963600	0.097300
H1171	H117	0.476900	0.039500	0.905700
H1181	H118	0.442600	0.410800	0.638200
H1191	H119	0.417200	0.027400	0.514800
H1201	H120	0.090900	0.536400	0.402700
H1211	H121	0.400400	0.133800	0.591000
H1221	H122	0.523100	0.405700	0.960500
H1231	H123	0.823800	0.445800	0.146500
H1241	H124	0.945800	0.323800	0.646500
H1251	H125	0.909100	0.902700	0.463600
H1261	H126	0.582800	0.485200	0.527400
H1271	H127	0.917200	0.485200	0.972600
H1281	H128	0.589200	0.942600	0.361800
H1291	H129	0.405700	0.960500	0.523100
H1301	H130	0.082800	0.027400	0.985200
H1311	H131	0.582800	0.014800	0.972600
H1321	H132	0.823800	0.054200	0.353500
H1331	H133	0.366200	0.591000	0.099600
H1341	H134	0.674500	0.564600	0.356900
H1351	H135	0.460500	0.905700	0.023100
H1361	H136	0.942600	0.138200	0.910800
H1371	H137	0.417200	0.472600	0.985200
H1381	H138	0.472600	0.985200	0.417200
H1391	H139	0.082800	0.472600	0.514800
H1401	H140	0.405700	0.539500	0.976900
H1411	H141	0.064600	0.325500	0.643100
H1421	H142	0.099600	0.366200	0.591000
H1431	H143	0.400400	0.366200	0.909000
H1441	H144	0.356900	0.825500	0.935400
H1451	H145	0.089200	0.861800	0.442600
H1461	H146	0.402700	0.090900	0.536400
H1471	H147	0.523100	0.094300	0.539500
H1481	H148	0.410800	0.861800	0.057400
H1491	H149	0.485200	0.527400	0.582800
H1501	H150	0.856900	0.064600	0.174500
H1511	H151	0.325500	0.856900	0.435400
H1521	H152	0.091000	0.633800	0.900400
H1531	H153	0.935400	0.356900	0.825500
H1541	H154	0.174500	0.643100	0.435400
H1551	H155	0.976900	0.405700	0.539500
H1561	H156	0.643100	0.064600	0.325500
H1571	H157	0.909000	0.099600	0.133800
H1581	H158	0.536400	0.097300	0.409100
H1591	H159	0.410800	0.638200	0.442600
H1601	H160	0.353500	0.823800	0.054200
H1611	H161	0.638200	0.442600	0.410800
H1621	H162	0.590900	0.597300	0.463600
H1631	H163	0.054200	0.146500	0.676200
H1641	H164	0.905700	0.023100	0.460500
H1651	H165	0.539500	0.976900	0.405700
H1661	H166	0.536400	0.402700	0.090900
H1671	H167	0.599600	0.091000	0.866200
H1681	H168	0.435400	0.174500	0.643100
C11	C1	0.910970	0.963970	0.467830
C21	C2	0.032170	0.589030	0.963970
C31	C3	0.397340	0.950170	0.498380
C41	C4	0.925310	0.419400	0.873840
C51	C5	0.497880	0.129000	0.583280
C61	C6	0.993730	0.350270	0.820990
C71	C7	0.039940	0.166400	0.867460
C81	C8	0.134050	0.667670	0.030550
C91	C9	0.560060	0.533730	0.500770
C101	C10	0.134050	0.832330	0.469450
C111	C11	0.367460	0.666400	0.539940
C121	C12	0.858910	0.960860	0.401340
C131	C13	0.314970	0.706340	0.508870
C141	C14	0.600470	0.573540	0.452120
C151	C15	0.649730	0.006270	0.320990
C161	C16	0.916720	0.497880	0.371000
C171	C17	0.583280	0.497880	0.129000
C181	C18	0.814970	0.491130	0.293660
C191	C19	0.960860	0.401340	0.858910
C201	C20	0.508870	0.314970	0.706340
C211	C21	0.580600	0.425310	0.126160
C221	C22	0.373840	0.919400	0.425310
C231	C23	0.500770	0.560060	0.533730
C241	C24	0.574690	0.419400	0.626160
C251	C25	0.497880	0.371000	0.916720
C261	C26	0.439940	0.499230	0.033730
C271	C27	0.416720	0.629000	0.502120
C281	C28	0.503960	0.528910	0.562000
C291	C29	0.399440	0.644150	0.467510
C301	C30	0.667670	0.469450	0.365950
C311	C31	0.416720	0.871000	0.997880
C321	C32	0.098660	0.641090	0.960860
C331	C33	0.502120	0.416720	0.629000
C341	C34	0.419400	0.873840	0.925310
C351	C35	0.089030	0.532170	0.463970
C361	C36	0.463970	0.410970	0.967830
C371	C37	0.460860	0.358910	0.901340
C381	C38	0.938000	0.996040	0.528910
C391	C39	0.850270	0.493730	0.320990
C401	C40	0.897340	0.998380	0.450170
C411	C41	0.871000	0.502120	0.083280
C421	C42	0.867460	0.039940	0.166400
C431	C43	0.503960	0.971090	0.938000
C441	C44	0.425310	0.373840	0.919400
C451	C45	0.100470	0.547880	0.426460
C461	C46	0.926460	0.452120	0.899530
C471	C47	0.899530	0.926460	0.452120
C481	C48	0.493730	0.179010	0.649730
C491	C49	0.580600	0.074690	0.373840
C501	C50	0.532170	0.463970	0.089030
C511	C51	0.049830	0.602660	0.998380
C521	C52	0.897340	0.501620	0.049830
C531	C53	0.530550	0.167670	0.634050
C541	C54	0.047880	0.899530	0.573540
C551	C55	0.333600	0.632540	0.039940
C561	C56	0.600560	0.532490	0.144150
C571	C57	0.967510	0.355850	0.600560
C581	C58	0.419400	0.626160	0.574690
C591	C59	0.993730	0.149730	0.679010
C601	C60	0.089030	0.967830	0.036030
C611	C61	0.355850	0.600560	0.967510
C621	C62	0.950170	0.001620	0.102660
C631	C63	0.502120	0.083280	0.871000
C641	C64	0.036030	0.410970	0.532170
C651	C65	0.466270	0.439940	0.000770
C661	C66	0.539940	0.367460	0.666400
C671	C67	0.006270	0.320990	0.649730
C681	C68	0.030550	0.365950	0.832330
C691	C69	0.401340	0.858910	0.960860
C701	C70	0.547880	0.426460	0.100470
C711	C71	0.626160	0.925310	0.080600
C721	C72	0.074690	0.373840	0.580600
C731	C73	0.003960	0.062000	0.028910
C741	C74	0.871000	0.997880	0.416720
C751	C75	0.685030	0.008870	0.293660
C761	C76	0.533730	0.999230	0.939940
C771	C77	0.899530	0.573540	0.047880
C781	C78	0.626160	0.574690	0.419400
C791	C79	0.008870	0.293660	0.685030
C801	C80	0.967510	0.144150	0.899440
C811	C81	0.032490	0.399440	0.855850
C821	C82	0.865950	0.530550	0.332330
C831	C83	0.644150	0.032490	0.100560
C841	C84	0.500770	0.939940	0.966270
C851	C85	0.539940	0.132540	0.833600
C861	C86	0.100560	0.644150	0.032490
C871	C87	0.996040	0.971090	0.562000
C881	C88	0.950170	0.498380	0.397340
C891	C89	0.036030	0.089030	0.967830
C901	C90	0.547880	0.073540	0.399530
C911	C91	0.998380	0.450170	0.897340
C921	C92	0.910970	0.536030	0.032170
C931	C93	0.991130	0.314970	0.793660
C941	C94	0.501620	0.049830	0.897340
C951	C95	0.679010	0.993730	0.149730
C961	C96	0.166400	0.867460	0.039940
C971	C97	0.293660	0.685030	0.008870
C981	C98	0.028910	0.496040	0.438000
C991	C99	0.493730	0.320990	0.850270
C1001	C100	0.997880	0.416720	0.871000
C1011	C101	0.083280	0.871000	0.502120
C1021	C102	0.832330	0.469450	0.134050
C1031	C103	0.358910	0.901340	0.460860
C1041	C104	0.452120	0.899530	0.926460
C1051	C105	0.365950	0.667670	0.469450
C1061	C106	0.100560	0.855850	0.467510
C1071	C107	0.350270	0.820990	0.993730
C1081	C108	0.832330	0.030550	0.365950
C1091	C109	0.562000	0.503960	0.528910
C1101	C110	0.706340	0.508870	0.314970
C1111	C111	0.629000	0.997880	0.083280
C1121	C112	0.185030	0.706340	0.991130
C1131	C113	0.499230	0.033730	0.439940
C1141	C114	0.074690	0.126160	0.919400
C1151	C115	0.939940	0.966270	0.500770
C1161	C116	0.498380	0.397340	0.950170
C1171	C117	0.499230	0.466270	0.060060
C1181	C118	0.833600	0.960060	0.367460
C1191	C119	0.002120	0.371000	0.583280
C1201	C120	0.320990	0.649730	0.006270
C1211	C121	0.467830	0.910970	0.963970
C1221	C122	0.033730	0.439940	0.499230
C1231	C123	0.367460	0.833600	0.960060
C1241	C124	0.410970	0.967830	0.463970
C1251	C125	0.528910	0.938000	0.996040
C1261	C126	0.926460	0.047880	0.600470
C1271	C127	0.963970	0.032170	0.589030
C1281	C128	0.126160	0.919400	0.074690
C1291	C129	0.969450	0.332330	0.634050
C1301	C130	0.539140	0.098660	0.858910
C1311	C131	0.314970	0.793660	0.991130
C1321	C132	0.028910	0.003960	0.062000
C1331	C133	0.083280	0.629000	0.997880
C1341	C134	0.206340	0.814970	0.008870
C1351	C135	0.426460	0.399530	0.952120
C1361	C136	0.467830	0.589030	0.536030
C1371	C137	0.560060	0.966270	0.999230
C1381	C138	0.469450	0.365950	0.667670
C1391	C139	0.032490	0.100560	0.644150
C1401	C140	0.602660	0.501620	0.450170
C1411	C141	0.060060	0.499230	0.466270
C1421	C142	0.865950	0.969450	0.167670
C1431	C143	0.073540	0.100470	0.952120
C1441	C144	0.925310	0.080600	0.626160
C1451	C145	0.960860	0.098660	0.641090
C1461	C146	0.600470	0.926460	0.047880
C1471	C147	0.438000	0.471090	0.003960
C1481	C148	0.073540	0.399530	0.547880
C1491	C149	0.355850	0.899440	0.532490
C1501	C150	0.001620	0.102660	0.950170
C1511	C151	0.532490	0.355850	0.899440
C1521	C152	0.293660	0.814970	0.491130
C1531	C153	0.899440	0.967510	0.144150
C1541	C154	0.179010	0.850270	0.006270
C1551	C155	0.858910	0.539140	0.098660
C1561	C156	0.102660	0.950170	0.001620
C1571	C157	0.039140	0.358910	0.598660
C1581	C158	0.793660	0.508870	0.185030
C1591	C159	0.039940	0.333600	0.632540
C1601	C160	0.466270	0.060060	0.499230
C1611	C161	0.467510	0.100560	0.855850
C1621	C162	0.996040	0.528910	0.938000
C1631	C163	0.632540	0.039940	0.333600
C1641	C164	0.132540	0.833600	0.539940
C1651	C165	0.498380	0.102660	0.549830
C1661	C166	0.491130	0.206340	0.685030
C1671	C167	0.971090	0.562000	0.996040
C1681	C168	0.047880	0.600470	0.926460
C1691	C169	0.460860	0.141090	0.598660
C1701	C170	0.574690	0.080600	0.873840
C1711	C171	0.649730	0.493730	0.179010
C1721	C172	0.969450	0.167670	0.865950
C1731	C173	0.919400	0.074690	0.126160
C1741	C174	0.573540	0.047880	0.899530
C1751	C175	0.167670	0.634050	0.530550
C1761	C176	0.679010	0.506270	0.350270
C1771	C177	0.963970	0.467830	0.910970
C1781	C178	0.491130	0.293660	0.814970
C1791	C179	0.006270	0.179010	0.850270
C1801	C180	0.450170	0.897340	0.998380
C1811	C181	0.899440	0.532490	0.355850
C1821	C182	0.062000	0.471090	0.496040
C1831	C183	0.820990	0.993730	0.350270
C1841	C184	0.960060	0.367460	0.833600
C1851	C185	0.901340	0.460860	0.358910
C1861	C186	0.469450	0.134050	0.832330
C1871	C187	0.350270	0.679010	0.506270
C1881	C188	0.365950	0.832330	0.030550
C1891	C189	0.666400	0.960060	0.132540
C1901	C190	0.629000	0.502120	0.416720
C1911	C191	0.166400	0.632540	0.460060
C1921	C192	0.033730	0.060060	0.000770
C1931	C193	0.467510	0.399440	0.644150
C1941	C194	0.793660	0.991130	0.314970
C1951	C195	0.991130	0.185030	0.706340
C1961	C196	0.144150	0.600560	0.532490
C1971	C197	0.589030	0.963970	0.032170
C1981	C198	0.141090	0.901340	0.039140
C1991	C199	0.062000	0.028910	0.003960
C2001	C200	0.060060	0.000770	0.033730
C2011	C201	0.999230	0.939940	0.533730
C2021	C202	0.644150	0.467510	0.399440
C2031	C203	0.833600	0.539940	0.132540
C2041	C204	0.438000	0.028910	0.496040
C2051	C205	0.450170	0.602660	0.501620
C2061	C206	0.589030	0.536030	0.467830
C2071	C207	0.919400	0.425310	0.373840
C2081	C208	0.706340	0.991130	0.185030
C2091	C209	0.532170	0.036030	0.410970
C2101	C210	0.573540	0.452120	0.600470
C2111	C211	0.463970	0.089030	0.532170
C2121	C212	0.938000	0.503960	0.971090
C2131	C213	0.371000	0.583280	0.002120
C2141	C214	0.496040	0.438000	0.028910
C2151	C215	0.100470	0.952120	0.073540
C2161	C216	0.952120	0.073540	0.100470
C2171	C217	0.820990	0.506270	0.149730
C2181	C218	0.399530	0.547880	0.073540
C2191	C219	0.167670	0.865950	0.969450
C2201	C220	0.641090	0.539140	0.401340
C2211	C221	0.685030	0.491130	0.206340
C2221	C222	0.855850	0.467510	0.100560
C2231	C223	0.098660	0.858910	0.539140
C2241	C224	0.080600	0.873840	0.574690
C2251	C225	0.916720	0.002120	0.129000
C2261	C226	0.206340	0.685030	0.491130
C2271	C227	0.901340	0.039140	0.141090
C2281	C228	0.332330	0.634050	0.969450
C2291	C229	0.399530	0.952120	0.426460
C2301	C230	0.039140	0.141090	0.901340
C2311	C231	0.600560	0.967510	0.355850
C2321	C232	0.867460	0.460060	0.333600
C2331	C233	0.602660	0.998380	0.049830
C2341	C234	0.528910	0.562000	0.503960
C2351	C235	0.471090	0.496040	0.062000
C2361	C236	0.873840	0.925310	0.419400
C2371	C237	0.332330	0.865950	0.530550
C2381	C238	0.501620	0.450170	0.602660
C2391	C239	0.814970	0.008870	0.206340
C2401	C240	0.126160	0.580600	0.425310
C2411	C241	0.536030	0.032170	0.910970
C2421	C242	0.149730	0.820990	0.506270
C2431	C243	0.634050	0.530550	0.167670
C2441	C244	0.508870	0.185030	0.793660
C2451	C245	0.460060	0.333600	0.867460
C2461	C246	0.966270	0.999230	0.560060
C2471	C247	0.939940	0.533730	0.999230
C2481	C248	0.000770	0.033730	0.060060
C2491	C249	0.971090	0.938000	0.503960
C2501	C250	0.080600	0.626160	0.925310
C2511	C251	0.132540	0.666400	0.960060
C2521	C252	0.144150	0.899440	0.967510
C2531	C253	0.410970	0.532170	0.036030
C2541	C254	0.000770	0.466270	0.439940
C2551	C255	0.149730	0.679010	0.993730
C2561	C256	0.967830	0.463970	0.410970
C2571	C257	0.855850	0.032490	0.399440
C2581	C258	0.460060	0.166400	0.632540
C2591	C259	0.532490	0.144150	0.600560
C2601	C260	0.536030	0.467830	0.589030
C2611	C261	0.032170	0.910970	0.536030
C2621	C262	0.666400	0.539940	0.367460
C2631	C263	0.049830	0.897340	0.501620
C2641	C264	0.598660	0.039140	0.358910
C2651	C265	0.496040	0.062000	0.471090
C2661	C266	0.185030	0.793660	0.508870
C2671	C267	0.598660	0.460860	0.141090
C2681	C268	0.530550	0.332330	0.865950
C2691	C269	0.008870	0.206340	0.814970
C2701	C270	0.141090	0.598660	0.460860
C2711	C271	0.129000	0.916720	0.002120
C2721	C272	0.426460	0.100470	0.547880
C2731	C273	0.952120	0.426460	0.399530
C2741	C274	0.632540	0.460060	0.166400
C2751	C275	0.549830	0.001620	0.397340
C2761	C276	0.506270	0.350270	0.679010
C2771	C277	0.439940	0.000770	0.466270
C2781	C278	0.967830	0.036030	0.089030
C2791	C279	0.873840	0.574690	0.080600
C2801	C280	0.001620	0.397340	0.549830
C2811	C281	0.998380	0.049830	0.602660
C2821	C282	0.320990	0.850270	0.493730
C2831	C283	0.102660	0.549830	0.498380
C2841	C284	0.667670	0.030550	0.134050
C2851	C285	0.003960	0.438000	0.471090
C2861	C286	0.549830	0.498380	0.102660
C2871	C287	0.452120	0.600470	0.573540
C2881	C288	0.997880	0.083280	0.629000
C2891	C289	0.583280	0.002120	0.371000
C2901	C290	0.399440	0.855850	0.032490
C2911	C291	0.358910	0.598660	0.039140
C2921	C292	0.179010	0.649730	0.493730
C2931	C293	0.850270	0.006270	0.179010
C2941	C294	0.471090	0.003960	0.438000
C2951	C295	0.129000	0.583280	0.497880
C2961	C296	0.966270	0.500770	0.939940
C2971	C297	0.401340	0.641090	0.539140
C2981	C298	0.999230	0.560060	0.966270
C2991	C299	0.506270	0.149730	0.820990
C3001	C300	0.371000	0.916720	0.497880
C3011	C301	0.641090	0.960860	0.098660
C3021	C302	0.373840	0.580600	0.074690
C3031	C303	0.539140	0.401340	0.641090
C3041	C304	0.634050	0.969450	0.332330
C3051	C305	0.562000	0.996040	0.971090
C3061	C306	0.425310	0.126160	0.580600
C3071	C307	0.002120	0.129000	0.916720
C3081	C308	0.533730	0.500770	0.560060
C3091	C309	0.397340	0.549830	0.001620
C3101	C310	0.960060	0.132540	0.666400
C3111	C311	0.030550	0.134050	0.667670
C3121	C312	0.333600	0.867460	0.460060
O11	O1	0.284640	0.698180	0.042440
O21	O2	0.801820	0.457560	0.284640
O31	O3	0.299910	0.782870	0.023690
O41	O4	0.523690	0.282870	0.799910
O51	O5	0.542440	0.198180	0.784640
O61	O6	0.457560	0.215360	0.698180
O71	O7	0.301820	0.715360	0.542440
O81	O8	0.023690	0.200090	0.717130
O91	O9	0.700090	0.976310	0.282870
O101	O10	0.215360	0.698180	0.457560
O111	O11	0.023690	0.299910	0.782870
O121	O12	0.698180	0.042440	0.284640
O131	O13	0.200090	0.782870	0.476310
O141	O14	0.784640	0.957560	0.301820
O151	O15	0.542440	0.301820	0.715360
O161	O16	0.717130	0.023690	0.200090
O171	O17	0.715360	0.957560	0.198180
O181	O18	0.282870	0.799910	0.523690
O191	O19	0.198180	0.715360	0.957560
O201	O20	0.976310	0.282870	0.700090
O211	O21	0.476310	0.299910	0.717130
O221	O22	0.299910	0.717130	0.476310
O231	O23	0.700090	0.523690	0.217130
O241	O24	0.715360	0.542440	0.301820
O251	O25	0.476310	0.200090	0.782870
O261	O26	0.282870	0.700090	0.976310
O271	O27	0.799910	0.976310	0.217130
O281	O28	0.217130	0.799910	0.976310
O291	O29	0.217130	0.700090	0.523690
O301	O30	0.198180	0.784640	0.542440
O311	O31	0.801820	0.042440	0.215360
O321	O32	0.301820	0.784640	0.957560
O331	O33	0.717130	0.476310	0.299910
O341	O34	0.042440	0.215360	0.801820
O351	O35	0.782870	0.476310	0.200090
O361	O36	0.784640	0.542440	0.198180
O371	O37	0.698180	0.457560	0.215360
O381	O38	0.523690	0.217130	0.700090
O391	O39	0.457560	0.284640	0.801820
O401	O40	0.284640	0.801820	0.457560
O411	O41	0.957560	0.198180	0.715360
O421	O42	0.782870	0.023690	0.299910
O431	O43	0.976310	0.217130	0.799910
O441	O44	0.042440	0.284640	0.698180
O451	O45	0.957560	0.301820	0.784640
O461	O46	0.200090	0.717130	0.023690
O471	O47	0.799910	0.523690	0.282870
O481	O48	0.215360	0.801820	0.042440
Mn131	Mn13	0.250000	0.548940	0.750000
Mn141	Mn14	0.250000	0.048940	0.750000
Mn151	Mn15	0.250000	0.951060	0.750000
Mn161	Mn16	0.951060	0.750000	0.250000
Mn171	Mn17	0.250000	0.451060	0.750000
Mn181	Mn18	0.451060	0.750000	0.250000
Mn191	Mn19	0.750000	0.250000	0.951060
Mn201	Mn20	0.548940	0.750000	0.250000
Mn211	Mn21	0.048940	0.750000	0.250000
Mn221	Mn22	0.750000	0.250000	0.048940
Mn231	Mn23	0.750000	0.250000	0.548940
Mn241	Mn24	0.750000	0.250000	0.451060
H1691	H169	0.176200	0.945800	0.646500
H1701	H170	0.909100	0.463600	0.597300
H1711	H171	0.353500	0.445800	0.823800
H1721	H172	0.138200	0.942600	0.589200
H1731	H173	0.325500	0.064600	0.856900
H1741	H174	0.064600	0.643100	0.174500
H1751	H175	0.409000	0.599600	0.866200
H1761	H176	0.905700	0.039500	0.023100
H1771	H177	0.823800	0.353500	0.445800
H1781	H178	0.536400	0.090900	0.097300
H1791	H179	0.090900	0.097300	0.536400
H1801	H180	0.902700	0.590900	0.463600
H1811	H181	0.402700	0.536400	0.409100
H1821	H182	0.409000	0.900400	0.633800
H1831	H183	0.054200	0.823800	0.146500
H1841	H184	0.356900	0.564600	0.825500
H1851	H185	0.564600	0.674500	0.143100
H1861	H186	0.366200	0.400400	0.591000
H1871	H187	0.036400	0.902700	0.909100
H1881	H188	0.638200	0.410800	0.057400
H1891	H189	0.823800	0.146500	0.054200
H1901	H190	0.460500	0.023100	0.594300
H1911	H191	0.023100	0.594300	0.460500
H1921	H192	0.476900	0.905700	0.460500
H1931	H193	0.485200	0.582800	0.972600
H1941	H194	0.039500	0.023100	0.905700
H1951	H195	0.036400	0.597300	0.590900
H1961	H196	0.402700	0.963600	0.090900
H1971	H197	0.960500	0.094300	0.523100
H1981	H198	0.356900	0.935400	0.674500
H1991	H199	0.591000	0.133800	0.099600
H2001	H200	0.057400	0.638200	0.410800
H2011	H201	0.539500	0.405700	0.523100
H2021	H202	0.054200	0.676200	0.353500
H2031	H203	0.589200	0.361800	0.557400
H2041	H204	0.014800	0.582800	0.527400
H2051	H205	0.091000	0.599600	0.633800
H2061	H206	0.094300	0.523100	0.960500
H2071	H207	0.972600	0.014800	0.917200
H2081	H208	0.405700	0.523100	0.539500
H2091	H209	0.557400	0.589200	0.361800
H2101	H210	0.442600	0.861800	0.410800
H2111	H211	0.476900	0.594300	0.039500
H2121	H212	0.133800	0.400400	0.909000
H2131	H213	0.910800	0.361800	0.942600
H2141	H214	0.589200	0.138200	0.942600
H2151	H215	0.366200	0.099600	0.909000
H2161	H216	0.825500	0.143100	0.935400
H2171	H217	0.472600	0.082800	0.985200
H2181	H218	0.945800	0.646500	0.176200
H2191	H219	0.590900	0.036400	0.597300
H2201	H220	0.917200	0.972600	0.014800
H2211	H221	0.591000	0.366200	0.400400
H2221	H222	0.176200	0.554200	0.853500
H2231	H223	0.599600	0.866200	0.409000
H2241	H224	0.435400	0.856900	0.174500
H2251	H225	0.985200	0.027400	0.417200
H2261	H226	0.866200	0.409000	0.599600
H2271	H227	0.935400	0.825500	0.143100
H2281	H228	0.972600	0.485200	0.582800
H2291	H229	0.361800	0.557400	0.589200
H2301	H230	0.445800	0.823800	0.353500
H2311	H231	0.089200	0.442600	0.638200
H2321	H232	0.594300	0.460500	0.023100
H2331	H233	0.910800	0.138200	0.557400
H2341	H234	0.905700	0.460500	0.476900
H2351	H235	0.523100	0.539500	0.405700
H2361	H236	0.643100	0.174500	0.064600
H2371	H237	0.463600	0.597300	0.909100
H2381	H238	0.527400	0.014800	0.582800
H2391	H239	0.143100	0.935400	0.825500
H2401	H240	0.825500	0.356900	0.564600
H2411	H241	0.676200	0.353500	0.054200
H2421	H242	0.094300	0.976900	0.539500
H2431	H243	0.582800	0.972600	0.485200
H2441	H244	0.325500	0.435400	0.643100
H2451	H245	0.554200	0.646500	0.323800
H2461	H246	0.405700	0.976900	0.960500
H2471	H247	0.554200	0.853500	0.176200
H2481	H248	0.976900	0.960500	0.405700
H2491	H249	0.909100	0.036400	0.902700
H2501	H250	0.091000	0.900400	0.866200
H2511	H251	0.590900	0.463600	0.902700
H2521	H252	0.064600	0.856900	0.325500
H2531	H253	0.536400	0.409100	0.402700
H2541	H254	0.539500	0.094300	0.976900
H2551	H255	0.597300	0.909100	0.463600
H2561	H256	0.633800	0.409000	0.900400
H2571	H257	0.057400	0.861800	0.089200
H2581	H258	0.014800	0.917200	0.972600
H2591	H259	0.514800	0.027400	0.082800
H2601	H260	0.527400	0.485200	0.917200
H2611	H261	0.942600	0.910800	0.361800
H2621	H262	0.976900	0.539500	0.094300
H2631	H263	0.143100	0.564600	0.674500
H2641	H264	0.900400	0.866200	0.091000
H2651	H265	0.410800	0.442600	0.861800
H2661	H266	0.039500	0.476900	0.594300
H2671	H267	0.353500	0.054200	0.676200
H2681	H268	0.023100	0.905700	0.039500
H2691	H269	0.463600	0.902700	0.590900
H2701	H270	0.082800	0.985200	0.472600
H2711	H271	0.138200	0.557400	0.910800
H2721	H272	0.594300	0.039500	0.476900
H2731	H273	0.442600	0.638200	0.089200
H2741	H274	0.323800	0.554200	0.646500
H2751	H275	0.417200	0.985200	0.027400
H2761	H276	0.861800	0.089200	0.057400
H2771	H277	0.090900	0.402700	0.963600
H2781	H278	0.902700	0.909100	0.036400
H2791	H279	0.935400	0.674500	0.356900
H2801	H280	0.861800	0.410800	0.442600
H2811	H281	0.417200	0.514800	0.472600
H2821	H282	0.942600	0.589200	0.138200
H2831	H283	0.633800	0.091000	0.599600
H2841	H284	0.027400	0.082800	0.514800
H2851	H285	0.146500	0.445800	0.676200
H2861	H286	0.557400	0.910800	0.138200
H2871	H287	0.909000	0.133800	0.400400
H2881	H288	0.174500	0.435400	0.856900
H2891	H289	0.909000	0.366200	0.099600
H2901	H290	0.853500	0.176200	0.554200
H2911	H291	0.643100	0.325500	0.435400
H2921	H292	0.676200	0.146500	0.445800
H2931	H293	0.674500	0.356900	0.935400
H2941	H294	0.089200	0.057400	0.861800
H2951	H295	0.133800	0.099600	0.591000
H2961	H296	0.400400	0.909000	0.133800
H2971	H297	0.027400	0.417200	0.985200
H2981	H298	0.856900	0.325500	0.064600
H2991	H299	0.514800	0.472600	0.417200
H3001	H300	0.097300	0.536400	0.090900
H3011	H301	0.174500	0.064600	0.643100
H3021	H302	0.099600	0.591000	0.133800
H3031	H303	0.445800	0.676200	0.146500
H3041	H304	0.097300	0.963600	0.409100
H3051	H305	0.409100	0.097300	0.963600
H3061	H306	0.963600	0.409100	0.097300
H3071	H307	0.361800	0.942600	0.910800
H3081	H308	0.638200	0.089200	0.442600
H3091	H309	0.472600	0.417200	0.514800
H3101	H310	0.599600	0.633800	0.091000
H3111	H311	0.963600	0.090900	0.402700
H3121	H312	0.409100	0.402700	0.536400
H3131	H313	0.485200	0.917200	0.527400
H3141	H314	0.646500	0.323800	0.554200
H3151	H315	0.564600	0.825500	0.356900
H3161	H316	0.323800	0.945800	0.853500
H3171	H317	0.523100	0.960500	0.094300
H3181	H318	0.900400	0.633800	0.409000
H3191	H319	0.582800	0.527400	0.014800
H3201	H320	0.985200	0.472600	0.082800
H3211	H321	0.410800	0.057400	0.638200
H3221	H322	0.099600	0.909000	0.366200
H3231	H323	0.400400	0.591000	0.366200
H3241	H324	0.082800	0.514800	0.027400
H3251	H325	0.597300	0.590900	0.036400
H3261	H326	0.853500	0.323800	0.945800
H3271	H327	0.435400	0.643100	0.325500
H3281	H328	0.146500	0.054200	0.823800
H3291	H329	0.960500	0.405700	0.976900
H3301	H330	0.460500	0.476900	0.905700
H3311	H331	0.945800	0.853500	0.323800
H3321	H332	0.646500	0.176200	0.945800
H3331	H333	0.856900	0.174500	0.435400
H3341	H334	0.866200	0.091000	0.900400
H3351	H335	0.674500	0.143100	0.564600
H3361	H336	0.917200	0.527400	0.485200
C3131	C313	0.132540	0.960060	0.833600
C3141	C314	0.320990	0.006270	0.850270
C3151	C315	0.008870	0.814970	0.293660
C3161	C316	0.793660	0.185030	0.991130
C3171	C317	0.397340	0.001620	0.950170
C3181	C318	0.496040	0.471090	0.438000
C3191	C319	0.950170	0.102660	0.498380
C3201	C320	0.467510	0.644150	0.100560
C3211	C321	0.049830	0.501620	0.602660
C3221	C322	0.873840	0.080600	0.925310
C3231	C323	0.539140	0.858910	0.401340
C3241	C324	0.999230	0.966270	0.939940
C3251	C325	0.039940	0.632540	0.166400
C3261	C326	0.925310	0.626160	0.419400
C3271	C327	0.536030	0.910970	0.467830
C3281	C328	0.600470	0.047880	0.573540
C3291	C329	0.641090	0.401340	0.960860
C3301	C330	0.926460	0.899530	0.047880
C3311	C331	0.460860	0.598660	0.358910
C3321	C332	0.166400	0.460060	0.867460
C3331	C333	0.871000	0.083280	0.997880
C3341	C334	0.996040	0.562000	0.528910
C3351	C335	0.897340	0.450170	0.501620
C3361	C336	0.897340	0.049830	0.998380
C3371	C337	0.858910	0.098660	0.960860
C3381	C338	0.901340	0.141090	0.460860
C3391	C339	0.373840	0.074690	0.919400
C3401	C340	0.899440	0.144150	0.532490
C3411	C341	0.574690	0.626160	0.080600
C3421	C342	0.960860	0.858910	0.098660
C3431	C343	0.399530	0.073540	0.952120
C3441	C344	0.355850	0.532490	0.600560
C3451	C345	0.855850	0.100560	0.032490
C3461	C346	0.049830	0.998380	0.897340
C3471	C347	0.047880	0.926460	0.899530
C3481	C348	0.916720	0.129000	0.497880
C3491	C349	0.969450	0.634050	0.167670
C3501	C350	0.583280	0.129000	0.002120
C3511	C351	0.820990	0.149730	0.993730
C3521	C352	0.508870	0.793660	0.314970
C3531	C353	0.144150	0.967510	0.600560
C3541	C354	0.501620	0.602660	0.049830
C3551	C355	0.450170	0.998380	0.602660
C3561	C356	0.206340	0.008870	0.685030
C3571	C357	0.916720	0.371000	0.002120
C3581	C358	0.102660	0.498380	0.950170
C3591	C359	0.367460	0.539940	0.833600
C3601	C360	0.939940	0.999230	0.966270
C3611	C361	0.967830	0.089030	0.463970
C3621	C362	0.333600	0.039940	0.867460
C3631	C363	0.589030	0.467830	0.963970
C3641	C364	0.600470	0.452120	0.926460
C3651	C365	0.371000	0.002120	0.916720
C3661	C366	0.134050	0.469450	0.667670
C3671	C367	0.533730	0.560060	0.999230
C3681	C368	0.000770	0.439940	0.033730
C3691	C369	0.871000	0.416720	0.502120
C3701	C370	0.706340	0.314970	0.991130
C3711	C371	0.493730	0.649730	0.320990
C3721	C372	0.039140	0.901340	0.358910
C3731	C373	0.560060	0.500770	0.966270
C3741	C374	0.425310	0.580600	0.373840
C3751	C375	0.028910	0.438000	0.003960
C3761	C376	0.562000	0.971090	0.503960
C3771	C377	0.666400	0.367460	0.960060
C3781	C378	0.469450	0.667670	0.134050
C3791	C379	0.580600	0.126160	0.074690
C3801	C380	0.649730	0.320990	0.493730
C3811	C381	0.580600	0.373840	0.425310
C3821	C382	0.008870	0.685030	0.206340
C3831	C383	0.502120	0.629000	0.083280
C3841	C384	0.134050	0.030550	0.832330
C3851	C385	0.185030	0.508870	0.706340
C3861	C386	0.399440	0.032490	0.644150
C3871	C387	0.100470	0.073540	0.547880
C3881	C388	0.644150	0.100560	0.467510
C3891	C389	0.167670	0.530550	0.865950
C3901	C390	0.410970	0.036030	0.967830
C3911	C391	0.539940	0.833600	0.367460
C3921	C392	0.502120	0.871000	0.416720
C3931	C393	0.100470	0.426460	0.952120
C3941	C394	0.466270	0.499230	0.439940
C3951	C395	0.498380	0.950170	0.102660
C3961	C396	0.149730	0.506270	0.679010
C3971	C397	0.855850	0.399440	0.467510
C3981	C398	0.634050	0.332330	0.530550
C3991	C399	0.997880	0.871000	0.083280
C4001	C400	0.467510	0.855850	0.399440
C4011	C401	0.598660	0.141090	0.039140
C4021	C402	0.314970	0.508870	0.793660
C4031	C403	0.706340	0.185030	0.508870
C4041	C404	0.589030	0.032170	0.536030
C4051	C405	0.185030	0.991130	0.793660
C4061	C406	0.960060	0.833600	0.132540
C4071	C407	0.463970	0.532170	0.410970
C4081	C408	0.530550	0.865950	0.167670
C4091	C409	0.355850	0.967510	0.899440
C4101	C410	0.991130	0.706340	0.314970
C4111	C411	0.963970	0.589030	0.467830
C4121	C412	0.471090	0.438000	0.496040
C4131	C413	0.416720	0.502120	0.871000
C4141	C414	0.491130	0.685030	0.293660
C4151	C415	0.549830	0.397340	0.498380
C4161	C416	0.960860	0.641090	0.401340
C4171	C417	0.401340	0.960860	0.641090
C4181	C418	0.410970	0.463970	0.532170
C4191	C419	0.466270	0.000770	0.060060
C4201	C420	0.873840	0.419400	0.574690
C4211	C421	0.000770	0.060060	0.466270
C4221	C422	0.919400	0.126160	0.425310
C4231	C423	0.499230	0.060060	0.033730
C4241	C424	0.003960	0.028910	0.438000
C4251	C425	0.001620	0.549830	0.102660
C4261	C426	0.080600	0.574690	0.626160
C4271	C427	0.426460	0.547880	0.399530
C4281	C428	0.320990	0.493730	0.649730
C4291	C429	0.089030	0.463970	0.967830
C4301	C430	0.074690	0.919400	0.373840
C4311	C431	0.060060	0.466270	0.000770
C4321	C432	0.365950	0.030550	0.667670
C4331	C433	0.573540	0.600470	0.047880
C4341	C434	0.419400	0.574690	0.873840
C4351	C435	0.963970	0.910970	0.032170
C4361	C436	0.532170	0.089030	0.036030
C4371	C437	0.573540	0.899530	0.452120
C4381	C438	0.493730	0.850270	0.179010
C4391	C439	0.547880	0.399530	0.426460
C4401	C440	0.002120	0.916720	0.371000
C4411	C441	0.450170	0.501620	0.897340
C4421	C442	0.685030	0.293660	0.491130
C4431	C443	0.501620	0.897340	0.450170
C4441	C444	0.532490	0.600560	0.355850
C4451	C445	0.006270	0.850270	0.320990
C4461	C446	0.439940	0.033730	0.000770
C4471	C447	0.036030	0.532170	0.089030
C4481	C448	0.560060	0.999230	0.533730
C4491	C449	0.033730	0.000770	0.439940
C4501	C450	0.460060	0.632540	0.333600
C4511	C451	0.998380	0.602660	0.450170
C4521	C452	0.950170	0.397340	0.001620
C4531	C453	0.497880	0.916720	0.129000
C4541	C454	0.179010	0.006270	0.649730
C4551	C455	0.350270	0.506270	0.820990
C4561	C456	0.419400	0.925310	0.626160
C4571	C457	0.850270	0.320990	0.006270
C4581	C458	0.993730	0.679010	0.350270
C4591	C459	0.358910	0.039140	0.901340
C4601	C460	0.549830	0.102660	0.001620
C4611	C461	0.100560	0.032490	0.855850
C4621	C462	0.602660	0.450170	0.998380
C4631	C463	0.002120	0.583280	0.129000
C4641	C464	0.426460	0.952120	0.100470
C4651	C465	0.166400	0.039940	0.632540
C4661	C466	0.062000	0.003960	0.471090
C4671	C467	0.685030	0.206340	0.008870
C4681	C468	0.293660	0.491130	0.685030
C4691	C469	0.991130	0.793660	0.185030
C4701	C470	0.073540	0.547880	0.100470
C4711	C471	0.679010	0.350270	0.993730
C4721	C472	0.500770	0.966270	0.560060
C4731	C473	0.530550	0.634050	0.332330
C4741	C474	0.899530	0.452120	0.573540
C4751	C475	0.634050	0.167670	0.969450
C4761	C476	0.439940	0.466270	0.499230
C4771	C477	0.832330	0.134050	0.030550
C4781	C478	0.452120	0.926460	0.600470
C4791	C479	0.925310	0.873840	0.080600
C4801	C480	0.971090	0.503960	0.562000
C4811	C481	0.820990	0.350270	0.506270
C4821	C482	0.919400	0.373840	0.074690
C4831	C483	0.997880	0.629000	0.416720
C4841	C484	0.939940	0.500770	0.533730
C4851	C485	0.500770	0.533730	0.939940
C4861	C486	0.206340	0.491130	0.814970
C4871	C487	0.460060	0.867460	0.166400
C4881	C488	0.129000	0.002120	0.583280
C4891	C489	0.598660	0.358910	0.460860
C4901	C490	0.833600	0.367460	0.539940
C4911	C491	0.032490	0.855850	0.100560
C4921	C492	0.998380	0.897340	0.049830
C4931	C493	0.583280	0.371000	0.497880
C4941	C494	0.028910	0.062000	0.496040
C4951	C495	0.499230	0.439940	0.466270
C4961	C496	0.083280	0.997880	0.871000
C4971	C497	0.626160	0.419400	0.925310
C4981	C498	0.899440	0.355850	0.967510
C4991	C499	0.910970	0.032170	0.963970
C5001	C500	0.452120	0.573540	0.899530
C5011	C501	0.966270	0.939940	0.999230
C5021	C502	0.999230	0.533730	0.560060
C5031	C503	0.425310	0.919400	0.126160
C5041	C504	0.032170	0.963970	0.910970
C5051	C505	0.102660	0.001620	0.549830
C5061	C506	0.629000	0.416720	0.997880
C5071	C507	0.971090	0.996040	0.938000
C5081	C508	0.080600	0.925310	0.873840
C5091	C509	0.602660	0.049830	0.501620
C5101	C510	0.003960	0.471090	0.062000
C5111	C511	0.098660	0.960860	0.858910
C5121	C512	0.910970	0.467830	0.536030
C5131	C513	0.865950	0.332330	0.969450
C5141	C514	0.149730	0.993730	0.820990
C5151	C515	0.850270	0.179010	0.493730
C5161	C516	0.098660	0.539140	0.641090
C5171	C517	0.083280	0.502120	0.629000
C5181	C518	0.367460	0.960060	0.666400
C5191	C519	0.469450	0.832330	0.365950
C5201	C520	0.333600	0.460060	0.632540
C5211	C521	0.858910	0.401340	0.539140
C5221	C522	0.629000	0.083280	0.502120
C5231	C523	0.039940	0.867460	0.333600
C5241	C524	0.491130	0.814970	0.206340
C5251	C525	0.399440	0.467510	0.855850
C5261	C526	0.314970	0.991130	0.706340
C5271	C527	0.508870	0.706340	0.185030
C5281	C528	0.399530	0.426460	0.547880
C5291	C529	0.350270	0.993730	0.679010
C5301	C530	0.060060	0.033730	0.499230
C5311	C531	0.996040	0.938000	0.971090
C5321	C532	0.047880	0.573540	0.600470
C5331	C533	0.632540	0.166400	0.039940
C5341	C534	0.966270	0.560060	0.500770
C5351	C535	0.952120	0.100470	0.426460
C5361	C536	0.926460	0.600470	0.452120
C5371	C537	0.506270	0.820990	0.350270
C5381	C538	0.496040	0.028910	0.062000
C5391	C539	0.632540	0.333600	0.460060
C5401	C540	0.679010	0.149730	0.506270
C5411	C541	0.503960	0.562000	0.971090
C5421	C542	0.332330	0.969450	0.865950
C5431	C543	0.901340	0.358910	0.039140
C5441	C544	0.036030	0.967830	0.410970
C5451	C545	0.089030	0.036030	0.532170
C5461	C546	0.600560	0.144150	0.967510
C5471	C547	0.865950	0.167670	0.530550
C5481	C548	0.373840	0.425310	0.580600
C5491	C549	0.132540	0.539940	0.666400
C5501	C550	0.460860	0.901340	0.141090
C5511	C551	0.503960	0.938000	0.528910
C5521	C552	0.467830	0.963970	0.589030
C5531	C553	0.167670	0.969450	0.634050
C5541	C554	0.814970	0.293660	0.008870
C5551	C555	0.667670	0.365950	0.030550
C5561	C556	0.967830	0.410970	0.036030
C5571	C557	0.062000	0.496040	0.028910
C5581	C558	0.644150	0.399440	0.032490
C5591	C559	0.533730	0.939940	0.500770
C5601	C560	0.033730	0.499230	0.060060
C5611	C561	0.574690	0.873840	0.419400
C5621	C562	0.600560	0.355850	0.532490
C5631	C563	0.032170	0.536030	0.589030
C5641	C564	0.141090	0.039140	0.598660
C5651	C565	0.814970	0.206340	0.491130
C5661	C566	0.141090	0.460860	0.901340
C5671	C567	0.938000	0.971090	0.996040
C5681	C568	0.539940	0.666400	0.132540
C5691	C569	0.030550	0.832330	0.134050
C5701	C570	0.001620	0.950170	0.397340
C5711	C571	0.993730	0.820990	0.149730
C5721	C572	0.030550	0.667670	0.365950
C5731	C573	0.467830	0.536030	0.910970
C5741	C574	0.532490	0.899440	0.144150
C5751	C575	0.506270	0.679010	0.149730
C5761	C576	0.960060	0.666400	0.367460
C5771	C577	0.074690	0.580600	0.126160
C5781	C578	0.641090	0.098660	0.539140
C5791	C579	0.832330	0.365950	0.469450
C5801	C580	0.952120	0.399530	0.073540
C5811	C581	0.073540	0.952120	0.399530
C5821	C582	0.179010	0.493730	0.850270
C5831	C583	0.371000	0.497880	0.583280
C5841	C584	0.471090	0.062000	0.003960
C5851	C585	0.867460	0.333600	0.039940
C5861	C586	0.539140	0.641090	0.098660
C5871	C587	0.528910	0.996040	0.562000
C5881	C588	0.969450	0.865950	0.332330
C5891	C589	0.358910	0.460860	0.598660
C5901	C590	0.536030	0.589030	0.032170
C5911	C591	0.532170	0.410970	0.463970
C5921	C592	0.126160	0.074690	0.580600
C5931	C593	0.332330	0.530550	0.634050
C5941	C594	0.416720	0.997880	0.629000
C5951	C595	0.562000	0.528910	0.996040
C5961	C596	0.793660	0.314970	0.508870
C5971	C597	0.899530	0.047880	0.926460
C5981	C598	0.649730	0.179010	0.006270
C5991	C599	0.463970	0.967830	0.089030
C6001	C600	0.547880	0.100470	0.073540
C6011	C601	0.867460	0.166400	0.460060
C6021	C602	0.039140	0.598660	0.141090
C6031	C603	0.626160	0.080600	0.574690
C6041	C604	0.967510	0.600560	0.144150
C6051	C605	0.938000	0.528910	0.503960
C6061	C606	0.528910	0.503960	0.938000
C6071	C607	0.365950	0.469450	0.832330
C6081	C608	0.006270	0.649730	0.179010
C6091	C609	0.401340	0.539140	0.858910
C6101	C610	0.293660	0.008870	0.814970
C6111	C611	0.144150	0.532490	0.899440
C6121	C612	0.397340	0.498380	0.549830
C6131	C613	0.032490	0.644150	0.399440
C6141	C614	0.129000	0.497880	0.916720
C6151	C615	0.126160	0.425310	0.919400
C6161	C616	0.498380	0.549830	0.397340
C6171	C617	0.100560	0.467510	0.644150
C6181	C618	0.438000	0.003960	0.028910
C6191	C619	0.967510	0.899440	0.355850
C6201	C620	0.666400	0.132540	0.539940
C6211	C621	0.497880	0.583280	0.371000
C6221	C622	0.438000	0.496040	0.471090
C6231	C623	0.833600	0.132540	0.960060
C6241	C624	0.667670	0.134050	0.469450
O491	O49	0.717130	0.299910	0.023690
O501	O50	0.215360	0.042440	0.698180
O511	O51	0.715360	0.198180	0.542440
O521	O52	0.200090	0.023690	0.782870
O531	O53	0.957560	0.715360	0.301820
O541	O54	0.457560	0.698180	0.284640
O551	O55	0.700090	0.282870	0.523690
O561	O56	0.023690	0.717130	0.299910
O571	O57	0.698180	0.215360	0.042440
O581	O58	0.198180	0.957560	0.784640
O591	O59	0.523690	0.700090	0.282870
O601	O60	0.976310	0.799910	0.282870
O611	O61	0.200090	0.476310	0.717130
O621	O62	0.042440	0.698180	0.215360
O631	O63	0.784640	0.301820	0.542440
O641	O64	0.801820	0.215360	0.457560
O651	O65	0.299910	0.023690	0.717130
O661	O66	0.023690	0.782870	0.200090
O671	O67	0.476310	0.782870	0.299910
O681	O68	0.782870	0.299910	0.476310
O691	O69	0.282870	0.976310	0.799910
O701	O70	0.284640	0.042440	0.801820
O711	O71	0.284640	0.457560	0.698180
O721	O72	0.299910	0.476310	0.782870
O731	O73	0.042440	0.801820	0.284640
O741	O74	0.542440	0.715360	0.198180
O751	O75	0.976310	0.700090	0.217130
O761	O76	0.476310	0.717130	0.200090
O771	O77	0.542440	0.784640	0.301820
O781	O78	0.215360	0.457560	0.801820
O791	O79	0.198180	0.542440	0.715360
O801	O80	0.717130	0.200090	0.476310
O811	O81	0.301820	0.542440	0.784640
O821	O82	0.799910	0.217130	0.523690
O831	O83	0.784640	0.198180	0.957560
O841	O84	0.217130	0.976310	0.700090
O851	O85	0.957560	0.784640	0.198180
O861	O86	0.301820	0.957560	0.715360
O871	O87	0.217130	0.523690	0.799910
O881	O88	0.457560	0.801820	0.215360
O891	O89	0.523690	0.799910	0.217130
O901	O90	0.282870	0.523690	0.700090
O911	O91	0.782870	0.200090	0.023690
O921	O92	0.715360	0.301820	0.957560
O931	O93	0.801820	0.284640	0.042440
O941	O94	0.700090	0.217130	0.976310
O951	O95	0.799910	0.282870	0.976310
O961	O96	0.698180	0.284640	0.457560
