data_BIPSUQ_clean_PM
_symmetry_space_group_name_H-M	'P1'
_cell_length_a	33.783100
_cell_length_b	33.783100
_cell_length_c	43.456000
_cell_angle_alpha	90.000000
_cell_angle_beta	90.000000
_cell_angle_gamma	120.000000
_symmetry_Int_Tables_number 1

loop_
_symmetry_equiv_pos_as_xyz
'x,y,z'

loop_
_atom_site_label
_atom_site_type_symbol
_atom_site_fract_x
_atom_site_fract_y
_atom_site_fract_z
O11	O1	0.450370	0.467840	0.538400
O21	O2	0.486500	0.430800	0.520480
O31	O3	0.436500	0.277300	0.559610
O41	O4	0.387000	0.249800	0.597580
C11	C1	0.262000	0.382600	0.695100
C21	C2	0.224600	0.384000	0.685000
C31	C3	0.379110	0.366900	0.601660
C41	C4	0.381700	0.327100	0.600670
H11	H1	0.364500	0.303200	0.614500
C51	C5	0.409800	0.322800	0.579220
C61	C6	0.435330	0.358200	0.558770
H21	H2	0.454300	0.355200	0.544300
C71	C7	0.432710	0.397900	0.559760
C81	C8	0.404600	0.402300	0.581210
H31	H3	0.402800	0.429100	0.581900
C91	C9	0.211400	0.383300	0.652440
H41	H4	0.227800	0.383000	0.635000
C101	C10	0.315600	0.382800	0.734370
H51	H5	0.337500	0.382700	0.721200
C111	C11	0.274300	0.383000	0.725900
C121	C12	0.458900	0.435500	0.536900
C131	C13	0.410900	0.282500	0.578200
C141	C14	0.292600	0.378800	0.669320
C151	C15	0.334200	0.416400	0.661290
H61	H6	0.343800	0.444900	0.670700
C161	C16	0.361800	0.412000	0.639400
H71	H7	0.389900	0.437500	0.633900
C171	C17	0.347600	0.370000	0.625470
C181	C18	0.305900	0.332300	0.633510
H81	H8	0.296300	0.303900	0.624100
C191	C19	0.278390	0.336700	0.655430
H91	H9	0.250200	0.311200	0.660900
O51	O5	0.532160	0.982530	0.538400
O61	O6	0.569200	0.055700	0.520480
O71	O7	0.722700	0.159200	0.559610
O81	O8	0.750200	0.137200	0.597580
C201	C20	0.617400	0.879400	0.695100
C211	C21	0.616000	0.840600	0.685000
C221	C22	0.633100	0.012210	0.601660
C231	C23	0.672900	0.054600	0.600670
H101	H10	0.696800	0.061300	0.614500
C241	C24	0.677200	0.087000	0.579220
C251	C25	0.641800	0.077130	0.558770
H111	H11	0.644800	0.099100	0.544300
C261	C26	0.602100	0.034810	0.559760
C271	C27	0.597700	0.002300	0.581210
H121	H12	0.570900	0.973700	0.581900
C281	C28	0.616700	0.828100	0.652440
H131	H13	0.617000	0.844800	0.635000
C291	C29	0.617200	0.932800	0.734370
H141	H14	0.617300	0.954800	0.721200
C301	C30	0.617000	0.891300	0.725900
C311	C31	0.564500	0.023400	0.536900
C321	C32	0.717500	0.128400	0.578200
C331	C33	0.621200	0.913800	0.669320
C341	C34	0.583600	0.917800	0.661290
H151	H15	0.555100	0.898900	0.670700
C351	C35	0.588000	0.949800	0.639400
H161	H16	0.562500	0.952400	0.633900
C361	C36	0.630000	0.977600	0.625470
C371	C37	0.667700	0.973600	0.633510
H171	H17	0.696100	0.992400	0.624100
C381	C38	0.663300	0.941690	0.655430
H181	H18	0.688800	0.939000	0.660900
O91	O9	0.017470	0.549630	0.538400
O101	O10	0.944300	0.513500	0.520480
O111	O11	0.840800	0.563500	0.559610
O121	O12	0.862800	0.613000	0.597580
C391	C39	0.120600	0.738000	0.695100
C401	C40	0.159400	0.775400	0.685000
C411	C41	0.987790	0.620890	0.601660
C421	C42	0.945400	0.618300	0.600670
H191	H19	0.938700	0.635500	0.614500
C431	C43	0.913000	0.590200	0.579220
C441	C44	0.922870	0.564670	0.558770
H201	H20	0.900900	0.545700	0.544300
C451	C45	0.965190	0.567290	0.559760
C461	C46	0.997700	0.595400	0.581210
H211	H21	0.026300	0.597200	0.581900
C471	C47	0.171900	0.788600	0.652440
H221	H22	0.155200	0.772200	0.635000
C481	C48	0.067200	0.684400	0.734370
H231	H23	0.045200	0.662500	0.721200
C491	C49	0.108700	0.725700	0.725900
C501	C50	0.976600	0.541100	0.536900
C511	C51	0.871600	0.589100	0.578200
C521	C52	0.086200	0.707400	0.669320
C531	C53	0.082200	0.665800	0.661290
H241	H24	0.101100	0.656200	0.670700
C541	C54	0.050200	0.638200	0.639400
H251	H25	0.047600	0.610100	0.633900
C551	C55	0.022400	0.652400	0.625470
C561	C56	0.026400	0.694100	0.633510
H261	H26	0.007600	0.703700	0.624100
C571	C57	0.058310	0.721610	0.655430
H271	H27	0.061000	0.749800	0.660900
O131	O13	0.549630	0.532160	0.038400
O141	O14	0.513500	0.569200	0.020480
O151	O15	0.563500	0.722700	0.059610
O161	O16	0.613000	0.750200	0.097580
C581	C58	0.738000	0.617400	0.195100
C591	C59	0.775400	0.616000	0.185000
C601	C60	0.620890	0.633100	0.101660
C611	C61	0.618300	0.672900	0.100670
H281	H28	0.635500	0.696800	0.114500
C621	C62	0.590200	0.677200	0.079220
C631	C63	0.564670	0.641800	0.058770
H291	H29	0.545700	0.644800	0.044300
C641	C64	0.567290	0.602100	0.059760
C651	C65	0.595400	0.597700	0.081210
H301	H30	0.597200	0.570900	0.081900
C661	C66	0.788600	0.616700	0.152440
H311	H31	0.772200	0.617000	0.135000
C671	C67	0.684400	0.617200	0.234370
H321	H32	0.662500	0.617300	0.221200
C681	C68	0.725700	0.617000	0.225900
C691	C69	0.541100	0.564500	0.036900
C701	C70	0.589100	0.717500	0.078200
C711	C71	0.707400	0.621200	0.169320
C721	C72	0.665800	0.583600	0.161290
H331	H33	0.656200	0.555100	0.170700
C731	C73	0.638200	0.588000	0.139400
H341	H34	0.610100	0.562500	0.133900
C741	C74	0.652400	0.630000	0.125470
C751	C75	0.694100	0.667700	0.133510
H351	H35	0.703700	0.696100	0.124100
C761	C76	0.721610	0.663300	0.155430
H361	H36	0.749800	0.688800	0.160900
O171	O17	0.467840	0.017470	0.038400
O181	O18	0.430800	0.944300	0.020480
O191	O19	0.277300	0.840800	0.059610
O201	O20	0.249800	0.862800	0.097580
C771	C77	0.382600	0.120600	0.195100
C781	C78	0.384000	0.159400	0.185000
C791	C79	0.366900	0.987790	0.101660
C801	C80	0.327100	0.945400	0.100670
H371	H37	0.303200	0.938700	0.114500
C811	C81	0.322800	0.913000	0.079220
C821	C82	0.358200	0.922870	0.058770
H381	H38	0.355200	0.900900	0.044300
C831	C83	0.397900	0.965190	0.059760
C841	C84	0.402300	0.997700	0.081210
H391	H39	0.429100	0.026300	0.081900
C851	C85	0.383300	0.171900	0.152440
H401	H40	0.383000	0.155200	0.135000
C861	C86	0.382800	0.067200	0.234370
H411	H41	0.382700	0.045200	0.221200
C871	C87	0.383000	0.108700	0.225900
C881	C88	0.435500	0.976600	0.036900
C891	C89	0.282500	0.871600	0.078200
C901	C90	0.378800	0.086200	0.169320
C911	C91	0.416400	0.082200	0.161290
H421	H42	0.444900	0.101100	0.170700
C921	C92	0.412000	0.050200	0.139400
H431	H43	0.437500	0.047600	0.133900
C931	C93	0.370000	0.022400	0.125470
C941	C94	0.332300	0.026400	0.133510
H441	H44	0.303900	0.007600	0.124100
C951	C95	0.336700	0.058310	0.155430
H451	H45	0.311200	0.061000	0.160900
O211	O21	0.982530	0.450370	0.038400
O221	O22	0.055700	0.486500	0.020480
O231	O23	0.159200	0.436500	0.059610
O241	O24	0.137200	0.387000	0.097580
C961	C96	0.879400	0.262000	0.195100
C971	C97	0.840600	0.224600	0.185000
C981	C98	0.012210	0.379110	0.101660
C991	C99	0.054600	0.381700	0.100670
H461	H46	0.061300	0.364500	0.114500
C1001	C100	0.087000	0.409800	0.079220
C1011	C101	0.077130	0.435330	0.058770
H471	H47	0.099100	0.454300	0.044300
C1021	C102	0.034810	0.432710	0.059760
C1031	C103	0.002300	0.404600	0.081210
H481	H48	0.973700	0.402800	0.081900
C1041	C104	0.828100	0.211400	0.152440
H491	H49	0.844800	0.227800	0.135000
C1051	C105	0.932800	0.315600	0.234370
H501	H50	0.954800	0.337500	0.221200
C1061	C106	0.891300	0.274300	0.225900
C1071	C107	0.023400	0.458900	0.036900
C1081	C108	0.128400	0.410900	0.078200
C1091	C109	0.913800	0.292600	0.169320
C1101	C110	0.917800	0.334200	0.161290
H511	H51	0.898900	0.343800	0.170700
C1111	C111	0.949800	0.361800	0.139400
H521	H52	0.952400	0.389900	0.133900
C1121	C112	0.977600	0.347600	0.125470
C1131	C113	0.973600	0.305900	0.133510
H531	H53	0.992400	0.296300	0.124100
C1141	C114	0.941690	0.278390	0.155430
H541	H54	0.939000	0.250200	0.160900
O251	O25	0.467840	0.450370	0.461600
O261	O26	0.430800	0.486500	0.479520
O271	O27	0.277300	0.436500	0.440390
O281	O28	0.249800	0.387000	0.402420
C1151	C115	0.382600	0.262000	0.304900
C1161	C116	0.384000	0.224600	0.315000
C1171	C117	0.366900	0.379110	0.398340
C1181	C118	0.327100	0.381700	0.399330
H551	H55	0.303200	0.364500	0.385500
C1191	C119	0.322800	0.409800	0.420780
C1201	C120	0.358200	0.435330	0.441230
H561	H56	0.355200	0.454300	0.455700
C1211	C121	0.397900	0.432710	0.440240
C1221	C122	0.402300	0.404600	0.418790
H571	H57	0.429100	0.402800	0.418100
C1231	C123	0.383300	0.211400	0.347560
H581	H58	0.383000	0.227800	0.365000
C1241	C124	0.382800	0.315600	0.265630
H591	H59	0.382700	0.337500	0.278800
C1251	C125	0.383000	0.274300	0.274100
C1261	C126	0.435500	0.458900	0.463100
C1271	C127	0.282500	0.410900	0.421800
C1281	C128	0.378800	0.292600	0.330680
C1291	C129	0.416400	0.334200	0.338710
H601	H60	0.444900	0.343800	0.329300
C1301	C130	0.412000	0.361800	0.360600
H611	H61	0.437500	0.389900	0.366100
C1311	C131	0.370000	0.347600	0.374530
C1321	C132	0.332300	0.305900	0.366490
H621	H62	0.303900	0.296300	0.375900
C1331	C133	0.336700	0.278390	0.344570
H631	H63	0.311200	0.250200	0.339100
O291	O29	0.982530	0.532160	0.461600
O301	O30	0.055700	0.569200	0.479520
O311	O31	0.159200	0.722700	0.440390
O321	O32	0.137200	0.750200	0.402420
C1341	C134	0.879400	0.617400	0.304900
C1351	C135	0.840600	0.616000	0.315000
C1361	C136	0.012210	0.633100	0.398340
C1371	C137	0.054600	0.672900	0.399330
H641	H64	0.061300	0.696800	0.385500
C1381	C138	0.087000	0.677200	0.420780
C1391	C139	0.077130	0.641800	0.441230
H651	H65	0.099100	0.644800	0.455700
C1401	C140	0.034810	0.602100	0.440240
C1411	C141	0.002300	0.597700	0.418790
H661	H66	0.973700	0.570900	0.418100
C1421	C142	0.828100	0.616700	0.347560
H671	H67	0.844800	0.617000	0.365000
C1431	C143	0.932800	0.617200	0.265630
H681	H68	0.954800	0.617300	0.278800
C1441	C144	0.891300	0.617000	0.274100
C1451	C145	0.023400	0.564500	0.463100
C1461	C146	0.128400	0.717500	0.421800
C1471	C147	0.913800	0.621200	0.330680
C1481	C148	0.917800	0.583600	0.338710
H691	H69	0.898900	0.555100	0.329300
C1491	C149	0.949800	0.588000	0.360600
H701	H70	0.952400	0.562500	0.366100
C1501	C150	0.977600	0.630000	0.374530
C1511	C151	0.973600	0.667700	0.366490
H711	H71	0.992400	0.696100	0.375900
C1521	C152	0.941690	0.663300	0.344570
H721	H72	0.939000	0.688800	0.339100
O331	O33	0.549630	0.017470	0.461600
O341	O34	0.513500	0.944300	0.479520
O351	O35	0.563500	0.840800	0.440390
O361	O36	0.613000	0.862800	0.402420
C1531	C153	0.738000	0.120600	0.304900
C1541	C154	0.775400	0.159400	0.315000
C1551	C155	0.620890	0.987790	0.398340
C1561	C156	0.618300	0.945400	0.399330
H731	H73	0.635500	0.938700	0.385500
C1571	C157	0.590200	0.913000	0.420780
C1581	C158	0.564670	0.922870	0.441230
H741	H74	0.545700	0.900900	0.455700
C1591	C159	0.567290	0.965190	0.440240
C1601	C160	0.595400	0.997700	0.418790
H751	H75	0.597200	0.026300	0.418100
C1611	C161	0.788600	0.171900	0.347560
H761	H76	0.772200	0.155200	0.365000
C1621	C162	0.684400	0.067200	0.265630
H771	H77	0.662500	0.045200	0.278800
C1631	C163	0.725700	0.108700	0.274100
C1641	C164	0.541100	0.976600	0.463100
C1651	C165	0.589100	0.871600	0.421800
C1661	C166	0.707400	0.086200	0.330680
C1671	C167	0.665800	0.082200	0.338710
H781	H78	0.656200	0.101100	0.329300
C1681	C168	0.638200	0.050200	0.360600
H791	H79	0.610100	0.047600	0.366100
C1691	C169	0.652400	0.022400	0.374530
C1701	C170	0.694100	0.026400	0.366490
H801	H80	0.703700	0.007600	0.375900
C1711	C171	0.721610	0.058310	0.344570
H811	H81	0.749800	0.061000	0.339100
O371	O37	0.532160	0.549630	0.961600
O381	O38	0.569200	0.513500	0.979520
O391	O39	0.722700	0.563500	0.940390
O401	O40	0.750200	0.613000	0.902420
C1721	C172	0.617400	0.738000	0.804900
C1731	C173	0.616000	0.775400	0.815000
C1741	C174	0.633100	0.620890	0.898340
C1751	C175	0.672900	0.618300	0.899330
H821	H82	0.696800	0.635500	0.885500
C1761	C176	0.677200	0.590200	0.920780
C1771	C177	0.641800	0.564670	0.941230
H831	H83	0.644800	0.545700	0.955700
C1781	C178	0.602100	0.567290	0.940240
C1791	C179	0.597700	0.595400	0.918790
H841	H84	0.570900	0.597200	0.918100
C1801	C180	0.616700	0.788600	0.847560
H851	H85	0.617000	0.772200	0.865000
C1811	C181	0.617200	0.684400	0.765630
H861	H86	0.617300	0.662500	0.778800
C1821	C182	0.617000	0.725700	0.774100
C1831	C183	0.564500	0.541100	0.963100
C1841	C184	0.717500	0.589100	0.921800
C1851	C185	0.621200	0.707400	0.830680
C1861	C186	0.583600	0.665800	0.838710
H871	H87	0.555100	0.656200	0.829300
C1871	C187	0.588000	0.638200	0.860600
H881	H88	0.562500	0.610100	0.866100
C1881	C188	0.630000	0.652400	0.874530
C1891	C189	0.667700	0.694100	0.866490
H891	H89	0.696100	0.703700	0.875900
C1901	C190	0.663300	0.721610	0.844570
H901	H90	0.688800	0.749800	0.839100
O411	O41	0.017470	0.467840	0.961600
O421	O42	0.944300	0.430800	0.979520
O431	O43	0.840800	0.277300	0.940390
O441	O44	0.862800	0.249800	0.902420
C1911	C191	0.120600	0.382600	0.804900
C1921	C192	0.159400	0.384000	0.815000
C1931	C193	0.987790	0.366900	0.898340
C1941	C194	0.945400	0.327100	0.899330
H911	H91	0.938700	0.303200	0.885500
C1951	C195	0.913000	0.322800	0.920780
C1961	C196	0.922870	0.358200	0.941230
H921	H92	0.900900	0.355200	0.955700
C1971	C197	0.965190	0.397900	0.940240
C1981	C198	0.997700	0.402300	0.918790
H931	H93	0.026300	0.429100	0.918100
C1991	C199	0.171900	0.383300	0.847560
H941	H94	0.155200	0.383000	0.865000
C2001	C200	0.067200	0.382800	0.765630
H951	H95	0.045200	0.382700	0.778800
C2011	C201	0.108700	0.383000	0.774100
C2021	C202	0.976600	0.435500	0.963100
C2031	C203	0.871600	0.282500	0.921800
C2041	C204	0.086200	0.378800	0.830680
C2051	C205	0.082200	0.416400	0.838710
H961	H96	0.101100	0.444900	0.829300
C2061	C206	0.050200	0.412000	0.860600
H971	H97	0.047600	0.437500	0.866100
C2071	C207	0.022400	0.370000	0.874530
C2081	C208	0.026400	0.332300	0.866490
H981	H98	0.007600	0.303900	0.875900
C2091	C209	0.058310	0.336700	0.844570
H991	H99	0.061000	0.311200	0.839100
O451	O45	0.450370	0.982530	0.961600
O461	O46	0.486500	0.055700	0.979520
O471	O47	0.436500	0.159200	0.940390
O481	O48	0.387000	0.137200	0.902420
C2101	C210	0.262000	0.879400	0.804900
C2111	C211	0.224600	0.840600	0.815000
C2121	C212	0.379110	0.012210	0.898340
C2131	C213	0.381700	0.054600	0.899330
H1001	H100	0.364500	0.061300	0.885500
C2141	C214	0.409800	0.087000	0.920780
C2151	C215	0.435330	0.077130	0.941230
H1011	H101	0.454300	0.099100	0.955700
C2161	C216	0.432710	0.034810	0.940240
C2171	C217	0.404600	0.002300	0.918790
H1021	H102	0.402800	0.973700	0.918100
C2181	C218	0.211400	0.828100	0.847560
H1031	H103	0.227800	0.844800	0.865000
C2191	C219	0.315600	0.932800	0.765630
H1041	H104	0.337500	0.954800	0.778800
C2201	C220	0.274300	0.891300	0.774100
C2211	C221	0.458900	0.023400	0.963100
C2221	C222	0.410900	0.128400	0.921800
C2231	C223	0.292600	0.913800	0.830680
C2241	C224	0.334200	0.917800	0.838710
H1051	H105	0.343800	0.898900	0.829300
C2251	C225	0.361800	0.949800	0.860600
H1061	H106	0.389900	0.952400	0.866100
C2261	C226	0.347600	0.977600	0.874530
C2271	C227	0.305900	0.973600	0.866490
H1071	H107	0.296300	0.992400	0.875900
C2281	C228	0.278390	0.941690	0.844570
H1081	H108	0.250200	0.939000	0.839100
O491	O49	0.549630	0.532160	0.461600
O501	O50	0.513500	0.569200	0.479520
O511	O51	0.563500	0.722700	0.440390
O521	O52	0.613000	0.750200	0.402420
C2291	C229	0.738000	0.617400	0.304900
C2301	C230	0.775400	0.616000	0.315000
C2311	C231	0.620890	0.633100	0.398340
C2321	C232	0.618300	0.672900	0.399330
H1091	H109	0.635500	0.696800	0.385500
C2331	C233	0.590200	0.677200	0.420780
C2341	C234	0.564670	0.641800	0.441230
H1101	H110	0.545700	0.644800	0.455700
C2351	C235	0.567290	0.602100	0.440240
C2361	C236	0.595400	0.597700	0.418790
H1111	H111	0.597200	0.570900	0.418100
C2371	C237	0.788600	0.616700	0.347560
H1121	H112	0.772200	0.617000	0.365000
C2381	C238	0.684400	0.617200	0.265630
H1131	H113	0.662500	0.617300	0.278800
C2391	C239	0.725700	0.617000	0.274100
C2401	C240	0.541100	0.564500	0.463100
C2411	C241	0.589100	0.717500	0.421800
C2421	C242	0.707400	0.621200	0.330680
C2431	C243	0.665800	0.583600	0.338710
H1141	H114	0.656200	0.555100	0.329300
C2441	C244	0.638200	0.588000	0.360600
H1151	H115	0.610100	0.562500	0.366100
C2451	C245	0.652400	0.630000	0.374530
C2461	C246	0.694100	0.667700	0.366490
H1161	H116	0.703700	0.696100	0.375900
C2471	C247	0.721610	0.663300	0.344570
H1171	H117	0.749800	0.688800	0.339100
O531	O53	0.467840	0.017470	0.461600
O541	O54	0.430800	0.944300	0.479520
O551	O55	0.277300	0.840800	0.440390
O561	O56	0.249800	0.862800	0.402420
C2481	C248	0.382600	0.120600	0.304900
C2491	C249	0.384000	0.159400	0.315000
C2501	C250	0.366900	0.987790	0.398340
C2511	C251	0.327100	0.945400	0.399330
H1181	H118	0.303200	0.938700	0.385500
C2521	C252	0.322800	0.913000	0.420780
C2531	C253	0.358200	0.922870	0.441230
H1191	H119	0.355200	0.900900	0.455700
C2541	C254	0.397900	0.965190	0.440240
C2551	C255	0.402300	0.997700	0.418790
H1201	H120	0.429100	0.026300	0.418100
C2561	C256	0.383300	0.171900	0.347560
H1211	H121	0.383000	0.155200	0.365000
C2571	C257	0.382800	0.067200	0.265630
H1221	H122	0.382700	0.045200	0.278800
C2581	C258	0.383000	0.108700	0.274100
C2591	C259	0.435500	0.976600	0.463100
C2601	C260	0.282500	0.871600	0.421800
C2611	C261	0.378800	0.086200	0.330680
C2621	C262	0.416400	0.082200	0.338710
H1231	H123	0.444900	0.101100	0.329300
C2631	C263	0.412000	0.050200	0.360600
H1241	H124	0.437500	0.047600	0.366100
C2641	C264	0.370000	0.022400	0.374530
C2651	C265	0.332300	0.026400	0.366490
H1251	H125	0.303900	0.007600	0.375900
C2661	C266	0.336700	0.058310	0.344570
H1261	H126	0.311200	0.061000	0.339100
O571	O57	0.982530	0.450370	0.461600
O581	O58	0.055700	0.486500	0.479520
O591	O59	0.159200	0.436500	0.440390
O601	O60	0.137200	0.387000	0.402420
C2671	C267	0.879400	0.262000	0.304900
C2681	C268	0.840600	0.224600	0.315000
C2691	C269	0.012210	0.379110	0.398340
C2701	C270	0.054600	0.381700	0.399330
H1271	H127	0.061300	0.364500	0.385500
C2711	C271	0.087000	0.409800	0.420780
C2721	C272	0.077130	0.435330	0.441230
H1281	H128	0.099100	0.454300	0.455700
C2731	C273	0.034810	0.432710	0.440240
C2741	C274	0.002300	0.404600	0.418790
H1291	H129	0.973700	0.402800	0.418100
C2751	C275	0.828100	0.211400	0.347560
H1301	H130	0.844800	0.227800	0.365000
C2761	C276	0.932800	0.315600	0.265630
H1311	H131	0.954800	0.337500	0.278800
C2771	C277	0.891300	0.274300	0.274100
C2781	C278	0.023400	0.458900	0.463100
C2791	C279	0.128400	0.410900	0.421800
C2801	C280	0.913800	0.292600	0.330680
C2811	C281	0.917800	0.334200	0.338710
H1321	H132	0.898900	0.343800	0.329300
C2821	C282	0.949800	0.361800	0.360600
H1331	H133	0.952400	0.389900	0.366100
C2831	C283	0.977600	0.347600	0.374530
C2841	C284	0.973600	0.305900	0.366490
H1341	H134	0.992400	0.296300	0.375900
C2851	C285	0.941690	0.278390	0.344570
H1351	H135	0.939000	0.250200	0.339100
O611	O61	0.450370	0.467840	0.961600
O621	O62	0.486500	0.430800	0.979520
O631	O63	0.436500	0.277300	0.940390
O641	O64	0.387000	0.249800	0.902420
C2861	C286	0.262000	0.382600	0.804900
C2871	C287	0.224600	0.384000	0.815000
C2881	C288	0.379110	0.366900	0.898340
C2891	C289	0.381700	0.327100	0.899330
H1361	H136	0.364500	0.303200	0.885500
C2901	C290	0.409800	0.322800	0.920780
C2911	C291	0.435330	0.358200	0.941230
H1371	H137	0.454300	0.355200	0.955700
C2921	C292	0.432710	0.397900	0.940240
C2931	C293	0.404600	0.402300	0.918790
H1381	H138	0.402800	0.429100	0.918100
C2941	C294	0.211400	0.383300	0.847560
H1391	H139	0.227800	0.383000	0.865000
C2951	C295	0.315600	0.382800	0.765630
H1401	H140	0.337500	0.382700	0.778800
C2961	C296	0.274300	0.383000	0.774100
C2971	C297	0.458900	0.435500	0.963100
C2981	C298	0.410900	0.282500	0.921800
C2991	C299	0.292600	0.378800	0.830680
C3001	C300	0.334200	0.416400	0.838710
H1411	H141	0.343800	0.444900	0.829300
C3011	C301	0.361800	0.412000	0.860600
H1421	H142	0.389900	0.437500	0.866100
C3021	C302	0.347600	0.370000	0.874530
C3031	C303	0.305900	0.332300	0.866490
H1431	H143	0.296300	0.303900	0.875900
C3041	C304	0.278390	0.336700	0.844570
H1441	H144	0.250200	0.311200	0.839100
O651	O65	0.532160	0.982530	0.961600
O661	O66	0.569200	0.055700	0.979520
O671	O67	0.722700	0.159200	0.940390
O681	O68	0.750200	0.137200	0.902420
C3051	C305	0.617400	0.879400	0.804900
C3061	C306	0.616000	0.840600	0.815000
C3071	C307	0.633100	0.012210	0.898340
C3081	C308	0.672900	0.054600	0.899330
H1451	H145	0.696800	0.061300	0.885500
C3091	C309	0.677200	0.087000	0.920780
C3101	C310	0.641800	0.077130	0.941230
H1461	H146	0.644800	0.099100	0.955700
C3111	C311	0.602100	0.034810	0.940240
C3121	C312	0.597700	0.002300	0.918790
H1471	H147	0.570900	0.973700	0.918100
C3131	C313	0.616700	0.828100	0.847560
H1481	H148	0.617000	0.844800	0.865000
C3141	C314	0.617200	0.932800	0.765630
H1491	H149	0.617300	0.954800	0.778800
C3151	C315	0.617000	0.891300	0.774100
C3161	C316	0.564500	0.023400	0.963100
C3171	C317	0.717500	0.128400	0.921800
C3181	C318	0.621200	0.913800	0.830680
C3191	C319	0.583600	0.917800	0.838710
H1501	H150	0.555100	0.898900	0.829300
C3201	C320	0.588000	0.949800	0.860600
H1511	H151	0.562500	0.952400	0.866100
C3211	C321	0.630000	0.977600	0.874530
C3221	C322	0.667700	0.973600	0.866490
H1521	H152	0.696100	0.992400	0.875900
C3231	C323	0.663300	0.941690	0.844570
H1531	H153	0.688800	0.939000	0.839100
O691	O69	0.017470	0.549630	0.961600
O701	O70	0.944300	0.513500	0.979520
O711	O71	0.840800	0.563500	0.940390
O721	O72	0.862800	0.613000	0.902420
C3241	C324	0.120600	0.738000	0.804900
C3251	C325	0.159400	0.775400	0.815000
C3261	C326	0.987790	0.620890	0.898340
C3271	C327	0.945400	0.618300	0.899330
H1541	H154	0.938700	0.635500	0.885500
C3281	C328	0.913000	0.590200	0.920780
C3291	C329	0.922870	0.564670	0.941230
H1551	H155	0.900900	0.545700	0.955700
C3301	C330	0.965190	0.567290	0.940240
C3311	C331	0.997700	0.595400	0.918790
H1561	H156	0.026300	0.597200	0.918100
C3321	C332	0.171900	0.788600	0.847560
H1571	H157	0.155200	0.772200	0.865000
C3331	C333	0.067200	0.684400	0.765630
H1581	H158	0.045200	0.662500	0.778800
C3341	C334	0.108700	0.725700	0.774100
C3351	C335	0.976600	0.541100	0.963100
C3361	C336	0.871600	0.589100	0.921800
C3371	C337	0.086200	0.707400	0.830680
C3381	C338	0.082200	0.665800	0.838710
H1591	H159	0.101100	0.656200	0.829300
C3391	C339	0.050200	0.638200	0.860600
H1601	H160	0.047600	0.610100	0.866100
C3401	C340	0.022400	0.652400	0.874530
C3411	C341	0.026400	0.694100	0.866490
H1611	H161	0.007600	0.703700	0.875900
C3421	C342	0.058310	0.721610	0.844570
H1621	H162	0.061000	0.749800	0.839100
O731	O73	0.532160	0.549630	0.538400
O741	O74	0.569200	0.513500	0.520480
O751	O75	0.722700	0.563500	0.559610
O761	O76	0.750200	0.613000	0.597580
C3431	C343	0.617400	0.738000	0.695100
C3441	C344	0.616000	0.775400	0.685000
C3451	C345	0.633100	0.620890	0.601660
C3461	C346	0.672900	0.618300	0.600670
H1631	H163	0.696800	0.635500	0.614500
C3471	C347	0.677200	0.590200	0.579220
C3481	C348	0.641800	0.564670	0.558770
H1641	H164	0.644800	0.545700	0.544300
C3491	C349	0.602100	0.567290	0.559760
C3501	C350	0.597700	0.595400	0.581210
H1651	H165	0.570900	0.597200	0.581900
C3511	C351	0.616700	0.788600	0.652440
H1661	H166	0.617000	0.772200	0.635000
C3521	C352	0.617200	0.684400	0.734370
H1671	H167	0.617300	0.662500	0.721200
C3531	C353	0.617000	0.725700	0.725900
C3541	C354	0.564500	0.541100	0.536900
C3551	C355	0.717500	0.589100	0.578200
C3561	C356	0.621200	0.707400	0.669320
C3571	C357	0.583600	0.665800	0.661290
H1681	H168	0.555100	0.656200	0.670700
C3581	C358	0.588000	0.638200	0.639400
H1691	H169	0.562500	0.610100	0.633900
C3591	C359	0.630000	0.652400	0.625470
C3601	C360	0.667700	0.694100	0.633510
H1701	H170	0.696100	0.703700	0.624100
C3611	C361	0.663300	0.721610	0.655430
H1711	H171	0.688800	0.749800	0.660900
O771	O77	0.017470	0.467840	0.538400
O781	O78	0.944300	0.430800	0.520480
O791	O79	0.840800	0.277300	0.559610
O801	O80	0.862800	0.249800	0.597580
C3621	C362	0.120600	0.382600	0.695100
C3631	C363	0.159400	0.384000	0.685000
C3641	C364	0.987790	0.366900	0.601660
C3651	C365	0.945400	0.327100	0.600670
H1721	H172	0.938700	0.303200	0.614500
C3661	C366	0.913000	0.322800	0.579220
C3671	C367	0.922870	0.358200	0.558770
H1731	H173	0.900900	0.355200	0.544300
C3681	C368	0.965190	0.397900	0.559760
C3691	C369	0.997700	0.402300	0.581210
H1741	H174	0.026300	0.429100	0.581900
C3701	C370	0.171900	0.383300	0.652440
H1751	H175	0.155200	0.383000	0.635000
C3711	C371	0.067200	0.382800	0.734370
H1761	H176	0.045200	0.382700	0.721200
C3721	C372	0.108700	0.383000	0.725900
C3731	C373	0.976600	0.435500	0.536900
C3741	C374	0.871600	0.282500	0.578200
C3751	C375	0.086200	0.378800	0.669320
C3761	C376	0.082200	0.416400	0.661290
H1771	H177	0.101100	0.444900	0.670700
C3771	C377	0.050200	0.412000	0.639400
H1781	H178	0.047600	0.437500	0.633900
C3781	C378	0.022400	0.370000	0.625470
C3791	C379	0.026400	0.332300	0.633510
H1791	H179	0.007600	0.303900	0.624100
C3801	C380	0.058310	0.336700	0.655430
H1801	H180	0.061000	0.311200	0.660900
O811	O81	0.450370	0.982530	0.538400
O821	O82	0.486500	0.055700	0.520480
O831	O83	0.436500	0.159200	0.559610
O841	O84	0.387000	0.137200	0.597580
C3811	C381	0.262000	0.879400	0.695100
C3821	C382	0.224600	0.840600	0.685000
C3831	C383	0.379110	0.012210	0.601660
C3841	C384	0.381700	0.054600	0.600670
H1811	H181	0.364500	0.061300	0.614500
C3851	C385	0.409800	0.087000	0.579220
C3861	C386	0.435330	0.077130	0.558770
H1821	H182	0.454300	0.099100	0.544300
C3871	C387	0.432710	0.034810	0.559760
C3881	C388	0.404600	0.002300	0.581210
H1831	H183	0.402800	0.973700	0.581900
C3891	C389	0.211400	0.828100	0.652440
H1841	H184	0.227800	0.844800	0.635000
C3901	C390	0.315600	0.932800	0.734370
H1851	H185	0.337500	0.954800	0.721200
C3911	C391	0.274300	0.891300	0.725900
C3921	C392	0.458900	0.023400	0.536900
C3931	C393	0.410900	0.128400	0.578200
C3941	C394	0.292600	0.913800	0.669320
C3951	C395	0.334200	0.917800	0.661290
H1861	H186	0.343800	0.898900	0.670700
C3961	C396	0.361800	0.949800	0.639400
H1871	H187	0.389900	0.952400	0.633900
C3971	C397	0.347600	0.977600	0.625470
C3981	C398	0.305900	0.973600	0.633510
H1881	H188	0.296300	0.992400	0.624100
C3991	C399	0.278390	0.941690	0.655430
H1891	H189	0.250200	0.939000	0.660900
O851	O85	0.467840	0.450370	0.038400
O861	O86	0.430800	0.486500	0.020480
O871	O87	0.277300	0.436500	0.059610
O881	O88	0.249800	0.387000	0.097580
C4001	C400	0.382600	0.262000	0.195100
C4011	C401	0.384000	0.224600	0.185000
C4021	C402	0.366900	0.379110	0.101660
C4031	C403	0.327100	0.381700	0.100670
H1901	H190	0.303200	0.364500	0.114500
C4041	C404	0.322800	0.409800	0.079220
C4051	C405	0.358200	0.435330	0.058770
H1911	H191	0.355200	0.454300	0.044300
C4061	C406	0.397900	0.432710	0.059760
C4071	C407	0.402300	0.404600	0.081210
H1921	H192	0.429100	0.402800	0.081900
C4081	C408	0.383300	0.211400	0.152440
H1931	H193	0.383000	0.227800	0.135000
C4091	C409	0.382800	0.315600	0.234370
H1941	H194	0.382700	0.337500	0.221200
C4101	C410	0.383000	0.274300	0.225900
C4111	C411	0.435500	0.458900	0.036900
C4121	C412	0.282500	0.410900	0.078200
C4131	C413	0.378800	0.292600	0.169320
C4141	C414	0.416400	0.334200	0.161290
H1951	H195	0.444900	0.343800	0.170700
C4151	C415	0.412000	0.361800	0.139400
H1961	H196	0.437500	0.389900	0.133900
C4161	C416	0.370000	0.347600	0.125470
C4171	C417	0.332300	0.305900	0.133510
H1971	H197	0.303900	0.296300	0.124100
C4181	C418	0.336700	0.278390	0.155430
H1981	H198	0.311200	0.250200	0.160900
O891	O89	0.982530	0.532160	0.038400
O901	O90	0.055700	0.569200	0.020480
O911	O91	0.159200	0.722700	0.059610
O921	O92	0.137200	0.750200	0.097580
C4191	C419	0.879400	0.617400	0.195100
C4201	C420	0.840600	0.616000	0.185000
C4211	C421	0.012210	0.633100	0.101660
C4221	C422	0.054600	0.672900	0.100670
H1991	H199	0.061300	0.696800	0.114500
C4231	C423	0.087000	0.677200	0.079220
C4241	C424	0.077130	0.641800	0.058770
H2001	H200	0.099100	0.644800	0.044300
C4251	C425	0.034810	0.602100	0.059760
C4261	C426	0.002300	0.597700	0.081210
H2011	H201	0.973700	0.570900	0.081900
C4271	C427	0.828100	0.616700	0.152440
H2021	H202	0.844800	0.617000	0.135000
C4281	C428	0.932800	0.617200	0.234370
H2031	H203	0.954800	0.617300	0.221200
C4291	C429	0.891300	0.617000	0.225900
C4301	C430	0.023400	0.564500	0.036900
C4311	C431	0.128400	0.717500	0.078200
C4321	C432	0.913800	0.621200	0.169320
C4331	C433	0.917800	0.583600	0.161290
H2041	H204	0.898900	0.555100	0.170700
C4341	C434	0.949800	0.588000	0.139400
H2051	H205	0.952400	0.562500	0.133900
C4351	C435	0.977600	0.630000	0.125470
C4361	C436	0.973600	0.667700	0.133510
H2061	H206	0.992400	0.696100	0.124100
C4371	C437	0.941690	0.663300	0.155430
H2071	H207	0.939000	0.688800	0.160900
O931	O93	0.549630	0.017470	0.038400
O941	O94	0.513500	0.944300	0.020480
O951	O95	0.563500	0.840800	0.059610
O961	O96	0.613000	0.862800	0.097580
C4381	C438	0.738000	0.120600	0.195100
C4391	C439	0.775400	0.159400	0.185000
C4401	C440	0.620890	0.987790	0.101660
C4411	C441	0.618300	0.945400	0.100670
H2081	H208	0.635500	0.938700	0.114500
C4421	C442	0.590200	0.913000	0.079220
C4431	C443	0.564670	0.922870	0.058770
H2091	H209	0.545700	0.900900	0.044300
C4441	C444	0.567290	0.965190	0.059760
C4451	C445	0.595400	0.997700	0.081210
H2101	H210	0.597200	0.026300	0.081900
C4461	C446	0.788600	0.171900	0.152440
H2111	H211	0.772200	0.155200	0.135000
C4471	C447	0.684400	0.067200	0.234370
H2121	H212	0.662500	0.045200	0.221200
C4481	C448	0.725700	0.108700	0.225900
C4491	C449	0.541100	0.976600	0.036900
C4501	C450	0.589100	0.871600	0.078200
C4511	C451	0.707400	0.086200	0.169320
C4521	C452	0.665800	0.082200	0.161290
H2131	H213	0.656200	0.101100	0.170700
C4531	C453	0.638200	0.050200	0.139400
H2141	H214	0.610100	0.047600	0.133900
C4541	C454	0.652400	0.022400	0.125470
C4551	C455	0.694100	0.026400	0.133510
H2151	H215	0.703700	0.007600	0.124100
C4561	C456	0.721610	0.058310	0.155430
H2161	H216	0.749800	0.061000	0.160900
Cu11	Cu1	0.478760	0.521240	0.510880
Cu21	Cu2	0.478760	0.957520	0.510880
Cu31	Cu3	0.042480	0.521240	0.510880
Cu41	Cu4	0.521240	0.478760	0.010880
Cu51	Cu5	0.521240	0.042480	0.010880
Cu61	Cu6	0.957520	0.478760	0.010880
Cu71	Cu7	0.521240	0.478760	0.489120
Cu81	Cu8	0.957520	0.478760	0.489120
Cu91	Cu9	0.521240	0.042480	0.489120
Cu101	Cu10	0.478760	0.521240	0.989120
Cu111	Cu11	0.042480	0.521240	0.989120
Cu121	Cu12	0.478760	0.957520	0.989120
Cu131	Cu13	0.382110	0.191050	0.599880
Cu141	Cu14	0.443100	0.221550	0.555860
O971	O97	0.437400	0.218700	0.626400
O981	O98	0.390500	0.195250	0.527300
C4571	C457	0.350900	0.175450	0.536600
H2171	H217	0.327100	0.163550	0.522000
C4581	C458	0.478900	0.239450	0.618400
H2181	H218	0.502300	0.251150	0.633300
O991	O99	0.341000	0.170500	0.564000
O1001	O100	0.487900	0.243950	0.591100
Cu151	Cu15	0.808950	0.191050	0.599880
Cu161	Cu16	0.778450	0.221550	0.555860
O1011	O101	0.781300	0.218700	0.626400
O1021	O102	0.804750	0.195250	0.527300
C4591	C459	0.824550	0.175450	0.536600
H2191	H219	0.836450	0.163550	0.522000
C4601	C460	0.760550	0.239450	0.618400
H2201	H220	0.748850	0.251150	0.633300
O1031	O103	0.829500	0.170500	0.564000
O1041	O104	0.756050	0.243950	0.591100
Cu171	Cu17	0.808950	0.617890	0.599880
Cu181	Cu18	0.778450	0.556900	0.555860
O1051	O105	0.781300	0.562600	0.626400
O1061	O106	0.804750	0.609500	0.527300
C4611	C461	0.824550	0.649100	0.536600
H2211	H221	0.836450	0.672900	0.522000
C4621	C462	0.760550	0.521100	0.618400
H2221	H222	0.748850	0.497700	0.633300
O1071	O107	0.829500	0.659000	0.564000
O1081	O108	0.756050	0.512100	0.591100
Cu191	Cu19	0.617890	0.808950	0.099880
Cu201	Cu20	0.556900	0.778450	0.055860
O1091	O109	0.562600	0.781300	0.126400
O1101	O110	0.609500	0.804750	0.027300
C4631	C463	0.649100	0.824550	0.036600
H2231	H223	0.672900	0.836450	0.022000
C4641	C464	0.521100	0.760550	0.118400
H2241	H224	0.497700	0.748850	0.133300
O1111	O111	0.659000	0.829500	0.064000
O1121	O112	0.512100	0.756050	0.091100
Cu211	Cu21	0.191050	0.808940	0.099880
Cu221	Cu22	0.221550	0.778450	0.055860
O1131	O113	0.218700	0.781300	0.126400
O1141	O114	0.195250	0.804750	0.027300
C4651	C465	0.175450	0.824550	0.036600
H2251	H225	0.163550	0.836450	0.022000
C4661	C466	0.239450	0.760550	0.118400
H2261	H226	0.251150	0.748850	0.133300
O1151	O115	0.170500	0.829500	0.064000
O1161	O116	0.243950	0.756050	0.091100
Cu231	Cu23	0.191060	0.382110	0.099880
Cu241	Cu24	0.221550	0.443100	0.055860
O1171	O117	0.218700	0.437400	0.126400
O1181	O118	0.195250	0.390500	0.027300
C4671	C467	0.175450	0.350900	0.036600
H2271	H227	0.163550	0.327100	0.022000
C4681	C468	0.239450	0.478900	0.118400
H2281	H228	0.251150	0.502300	0.133300
O1191	O119	0.170500	0.341000	0.064000
O1201	O120	0.243950	0.487900	0.091100
Cu251	Cu25	0.191050	0.382110	0.400120
Cu261	Cu26	0.221550	0.443100	0.444140
O1211	O121	0.218700	0.437400	0.373600
O1221	O122	0.195250	0.390500	0.472700
C4691	C469	0.175450	0.350900	0.463400
H2291	H229	0.163550	0.327100	0.478000
C4701	C470	0.239450	0.478900	0.381600
H2301	H230	0.251150	0.502300	0.366700
O1231	O123	0.170500	0.341000	0.436000
O1241	O124	0.243950	0.487900	0.408900
Cu271	Cu27	0.191060	0.808950	0.400120
Cu281	Cu28	0.221550	0.778450	0.444140
O1251	O125	0.218700	0.781300	0.373600
O1261	O126	0.195250	0.804750	0.472700
C4711	C471	0.175450	0.824550	0.463400
H2311	H231	0.163550	0.836450	0.478000
C4721	C472	0.239450	0.760550	0.381600
H2321	H232	0.251150	0.748850	0.366700
O1271	O127	0.170500	0.829500	0.436000
O1281	O128	0.243950	0.756050	0.408900
Cu291	Cu29	0.617890	0.808940	0.400120
Cu301	Cu30	0.556900	0.778450	0.444140
O1291	O129	0.562600	0.781300	0.373600
O1301	O130	0.609500	0.804750	0.472700
C4731	C473	0.649100	0.824550	0.463400
H2331	H233	0.672900	0.836450	0.478000
C4741	C474	0.521100	0.760550	0.381600
H2341	H234	0.497700	0.748850	0.366700
O1311	O131	0.659000	0.829500	0.436000
O1321	O132	0.512100	0.756050	0.408900
Cu311	Cu31	0.808950	0.617890	0.900120
Cu321	Cu32	0.778450	0.556900	0.944140
O1331	O133	0.781300	0.562600	0.873600
O1341	O134	0.804750	0.609500	0.972700
C4751	C475	0.824550	0.649100	0.963400
H2351	H235	0.836450	0.672900	0.978000
C4761	C476	0.760550	0.521100	0.881600
H2361	H236	0.748850	0.497700	0.866700
O1351	O135	0.829500	0.659000	0.936000
O1361	O136	0.756050	0.512100	0.908900
Cu331	Cu33	0.808950	0.191050	0.900120
Cu341	Cu34	0.778450	0.221550	0.944140
O1371	O137	0.781300	0.218700	0.873600
O1381	O138	0.804750	0.195250	0.972700
C4771	C477	0.824550	0.175450	0.963400
H2371	H237	0.836450	0.163550	0.978000
C4781	C478	0.760550	0.239450	0.881600
H2381	H238	0.748850	0.251150	0.866700
O1391	O139	0.829500	0.170500	0.936000
O1401	O140	0.756050	0.243950	0.908900
Cu351	Cu35	0.382110	0.191050	0.900120
Cu361	Cu36	0.443100	0.221550	0.944140
O1411	O141	0.437400	0.218700	0.873600
O1421	O142	0.390500	0.195250	0.972700
C4791	C479	0.350900	0.175450	0.963400
H2391	H239	0.327100	0.163550	0.978000
C4801	C480	0.478900	0.239450	0.881600
H2401	H240	0.502300	0.251150	0.866700
O1431	O143	0.341000	0.170500	0.936000
O1441	O144	0.487900	0.243950	0.908900
N11	N1	0.192300	0.384600	0.704000
N21	N2	0.615400	0.807700	0.704000
N31	N3	0.192300	0.807700	0.704000
N41	N4	0.807700	0.615400	0.204000
N51	N5	0.384600	0.192300	0.204000
N61	N6	0.807700	0.192300	0.204000
N71	N7	0.384600	0.192300	0.296000
N81	N8	0.807700	0.615400	0.296000
N91	N9	0.807700	0.192300	0.296000
N101	N10	0.615400	0.807700	0.796000
N111	N11	0.192300	0.384600	0.796000
N121	N12	0.192300	0.807700	0.796000
N131	N13	0.250800	0.385300	0.750000
N141	N14	0.614700	0.865500	0.750000
N151	N15	0.134500	0.749200	0.750000
N161	N16	0.749200	0.614700	0.250000
N171	N17	0.385300	0.134500	0.250000
N181	N18	0.865500	0.250800	0.250000
N191	N19	0.385300	0.250800	0.250000
N201	N20	0.865500	0.614700	0.250000
N211	N21	0.749200	0.134500	0.250000
N221	N22	0.614700	0.749200	0.750000
N231	N23	0.134500	0.385300	0.750000
N241	N24	0.250800	0.865500	0.750000
Cu371	Cu37	0.191930	0.383850	0.750000
Cu381	Cu38	0.616150	0.808070	0.750000
Cu391	Cu39	0.191930	0.808070	0.750000
Cu401	Cu40	0.808080	0.616150	0.250000
Cu411	Cu41	0.383850	0.191930	0.250000
Cu421	Cu42	0.808080	0.191920	0.250000
