data_BIQFOW_clean_PM
_symmetry_space_group_name_H-M	'P1'
_cell_length_a	11.391000
_cell_length_b	12.414000
_cell_length_c	12.846000
_cell_angle_alpha	71.040000
_cell_angle_beta	68.390000
_cell_angle_gamma	66.880000
_symmetry_Int_Tables_number 1

loop_
_symmetry_equiv_pos_as_xyz
'x,y,z'

loop_
_atom_site_label
_atom_site_type_symbol
_atom_site_fract_x
_atom_site_fract_y
_atom_site_fract_z
Ga11	Ga1	0.395730	0.707950	0.246270
Ga21	Ga2	0.198570	0.721250	0.936430
Ga31	Ga3	0.106350	0.825900	0.256640
Ga41	Ga4	0.316050	0.777470	0.580540
Ga51	Ga5	0.732020	0.929230	0.166110
Ga61	Ga6	0.784850	0.554450	0.335190
P11	P1	0.187460	0.680390	0.482690
P21	P2	0.554220	0.789380	0.349980
P31	P3	0.313540	0.851020	0.020350
P41	P4	0.636850	0.456950	0.230030
P51	P5	0.865330	0.061370	0.248280
P61	P6	0.964790	0.706460	0.170180
F11	F1	0.249000	0.674400	0.231100
F21	F2	0.252700	0.859700	0.273600
O11	O1	0.420100	0.786800	0.085000
O21	O2	0.330800	0.647700	0.409300
O31	O3	0.522500	0.765200	0.256900
O41	O4	0.511700	0.558500	0.214300
O51	O5	0.892900	0.177900	0.168300
O61	O6	0.326300	0.770000	0.943900
O71	O7	0.088500	0.672300	0.072100
O81	O8	0.707400	0.416300	0.115600
O91	O9	0.985800	0.977000	0.288800
O101	O10	0.170500	0.887100	0.094500
O111	O11	0.981800	0.763900	0.248800
O121	O12	0.080800	0.751900	0.419300
O131	O13	0.175700	0.752400	0.566800
O141	O14	0.433800	0.825400	0.450300
O151	O15	0.600500	0.353100	0.326000
O161	O16	0.746900	0.094000	0.352100
O171	O17	0.828800	0.005600	0.180300
O181	O18	0.351000	0.964400	0.940200
O191	O19	0.846500	0.790700	0.121000
O201	O20	0.608500	0.896700	0.300100
O211	O21	0.935900	0.587900	0.238400
O221	O22	0.659700	0.678700	0.396500
O231	O23	0.150500	0.565400	0.554500
O241	O24	0.734500	0.496000	0.253000
Ga71	Ga7	0.604270	0.292050	0.753730
Ga81	Ga8	0.801430	0.278750	0.063570
Ga91	Ga9	0.893650	0.174100	0.743360
Ga101	Ga10	0.683950	0.222530	0.419460
Ga111	Ga11	0.267980	0.070770	0.833890
Ga121	Ga12	0.215150	0.445550	0.664810
P71	P7	0.812540	0.319610	0.517310
P81	P8	0.445780	0.210620	0.650020
P91	P9	0.686460	0.148980	0.979650
P101	P10	0.363150	0.543050	0.769970
P111	P11	0.134670	0.938630	0.751720
P121	P12	0.035210	0.293540	0.829820
F31	F3	0.751000	0.325600	0.768900
F41	F4	0.747300	0.140300	0.726400
O251	O25	0.579900	0.213200	0.915000
O261	O26	0.669200	0.352300	0.590700
O271	O27	0.477500	0.234800	0.743100
O281	O28	0.488300	0.441500	0.785700
O291	O29	0.107100	0.822100	0.831700
O301	O30	0.673700	0.230000	0.056100
O311	O31	0.911500	0.327700	0.927900
O321	O32	0.292600	0.583700	0.884400
O331	O33	0.014200	0.023000	0.711200
O341	O34	0.829500	0.112900	0.905500
O351	O35	0.018200	0.236100	0.751200
O361	O36	0.919200	0.248100	0.580700
O371	O37	0.824300	0.247600	0.433200
O381	O38	0.566200	0.174600	0.549700
O391	O39	0.399500	0.646900	0.674000
O401	O40	0.253100	0.906000	0.647900
O411	O41	0.171200	0.994400	0.819700
O421	O42	0.649000	0.035600	0.059800
O431	O43	0.153500	0.209300	0.879000
O441	O44	0.391500	0.103300	0.699900
O451	O45	0.064100	0.412100	0.761600
O461	O46	0.340300	0.321300	0.603500
O471	O47	0.849500	0.434600	0.445500
O481	O48	0.265500	0.504000	0.747000
