data_BIRMUM_clean_PM
_symmetry_space_group_name_H-M	'P1'
_cell_length_a	21.075000
_cell_length_b	7.023900
_cell_length_c	31.990000
_cell_angle_alpha	90.000000
_cell_angle_beta	104.356000
_cell_angle_gamma	90.000000
_symmetry_Int_Tables_number 1

loop_
_symmetry_equiv_pos_as_xyz
'x,y,z'

loop_
_atom_site_label
_atom_site_type_symbol
_atom_site_fract_x
_atom_site_fract_y
_atom_site_fract_z
Mn11	Mn1	0.300680	0.111290	0.250540
Mn21	Mn2	0.244950	0.602470	0.232690
O11	O1	0.344890	0.015700	0.200620
O21	O2	0.209510	0.134700	0.205090
O31	O3	0.335490	0.406000	0.237800
O41	O4	0.278330	0.763000	0.185500
O51	O5	0.206530	0.035900	0.778830
C11	C1	0.134600	0.080000	0.840990
H11	H1	0.115500	0.006200	0.817000
C21	C2	0.321500	0.873600	0.178170
C31	C3	0.292300	0.582000	0.030450
O61	O6	0.198270	0.426700	0.177200
O71	O7	0.384710	0.016900	0.301990
C41	C4	0.348000	0.827400	0.139730
C51	C5	0.191500	0.180100	0.842380
O81	O8	0.308990	0.799500	0.280080
C61	C6	0.410700	0.882700	0.139170
H21	H2	0.435900	0.954000	0.161700
C71	C7	0.535700	0.850100	0.487010
C81	C8	0.358500	0.862900	0.307640
N11	N1	0.426080	0.404700	0.211910
C91	C9	0.471000	0.887900	0.463430
C101	C10	0.382700	0.758600	0.349040
C111	C11	0.265600	0.399300	0.031570
C121	C12	0.332700	0.679700	0.069250
C131	C13	0.192400	0.298900	0.913420
C141	C14	0.249600	0.591100	0.951970
C151	C15	0.963000	0.379600	0.020150
C161	C16	0.030800	0.368100	0.030940
C171	C17	0.309600	0.724000	0.105170
H31	H3	0.267900	0.684400	0.106300
C181	C18	0.187600	0.252600	0.174480
C191	C19	0.224900	0.406800	0.952910
C201	C20	0.106000	0.090300	0.875630
H41	H4	0.067500	0.023900	0.874800
C211	C21	0.219300	0.289500	0.877990
H51	H5	0.257000	0.358800	0.878300
C221	C22	0.417600	0.861800	0.384820
H61	H6	0.427200	0.989500	0.381800
C231	C23	0.109800	0.299200	0.101480
H71	H7	0.115100	0.429900	0.105500
C241	C24	0.397200	0.732700	0.070030
H81	H8	0.414400	0.701300	0.046800
C251	C25	0.067600	0.231400	0.064260
C261	C26	0.282200	0.673500	0.990330
H91	H9	0.298500	0.796200	0.989600
C271	C27	0.144700	0.174900	0.133280
C281	C28	0.222700	0.171700	0.804990
C291	C29	0.363400	0.415100	0.207240
H101	H10	0.337100	0.430400	0.179400
C301	C30	0.437800	0.773800	0.424850
C311	C31	0.562600	0.963300	0.522940
H111	H11	0.605200	0.937800	0.538600
C321	C32	0.424200	0.580000	0.427660
H121	H12	0.438200	0.518200	0.454100
C331	C33	0.134700	0.199500	0.911520
H131	H13	0.115200	0.206200	0.934500
C341	C34	0.369800	0.567400	0.352840
H141	H14	0.347100	0.499000	0.328900
C351	C35	0.934100	0.512500	0.988970
H151	H15	0.888600	0.521000	0.981200
C361	C36	0.390800	0.478500	0.392270
H161	H16	0.382200	0.349800	0.395000
C371	C37	0.096900	0.911700	0.088250
H171	H17	0.092900	0.781200	0.083400
C381	C38	0.061300	0.037500	0.058280
H181	H18	0.032500	0.990300	0.033600
C391	C39	0.578300	0.704300	0.472730
H191	H19	0.560300	0.579700	0.474100
H201	H20	0.621700	0.709500	0.491300
H211	H21	0.580200	0.730700	0.443600
C401	C40	0.233200	0.316200	0.992900
H221	H22	0.216200	0.194400	0.993500
C411	C41	0.435500	0.830600	0.104590
H231	H23	0.478400	0.862000	0.104700
C421	C42	0.138600	0.981500	0.125680
H241	H24	0.162700	0.897000	0.145900
C431	C43	0.274500	0.283800	0.072380
H251	H25	0.261000	0.154900	0.065200
H261	H26	0.248300	0.337500	0.090100
H271	H27	0.319700	0.285700	0.087900
C441	C44	0.239700	0.713600	0.911130
H281	H28	0.237800	0.845400	0.918600
H291	H29	0.199600	0.677900	0.891100
H301	H30	0.275700	0.694000	0.898200
C451	C45	0.455400	0.404400	0.174890
H311	H31	0.474000	0.281400	0.172300
H321	H32	0.489200	0.499400	0.179000
H331	H33	0.422300	0.432000	0.149000
C461	C46	0.468100	0.371500	0.254700
H341	H34	0.457800	0.461500	0.274600
H351	H35	0.513100	0.386400	0.253900
H361	H36	0.461200	0.244600	0.263800
C471	C47	0.919600	0.261400	0.041300
H371	H37	0.932300	0.280800	0.071900
H381	H38	0.924200	0.129200	0.035000
H391	H39	0.874800	0.299300	0.030300
O91	O9	0.264050	0.296500	0.802700
Mn31	Mn3	0.699320	0.611290	0.249460
Mn41	Mn4	0.755050	0.102470	0.267320
O101	O10	0.655110	0.515700	0.299380
O111	O11	0.790490	0.634700	0.294910
O121	O12	0.664510	0.906000	0.262200
O131	O13	0.721670	0.263000	0.314500
O141	O14	0.793470	0.535900	0.721170
C481	C48	0.865400	0.580000	0.659010
H401	H40	0.884500	0.506200	0.683000
C491	C49	0.678500	0.373600	0.321830
C501	C50	0.707700	0.082000	0.469550
O151	O15	0.801730	0.926700	0.322800
O161	O16	0.615290	0.516900	0.198010
C511	C51	0.652000	0.327400	0.360270
C521	C52	0.808500	0.680100	0.657620
O171	O17	0.691010	0.299500	0.219920
C531	C53	0.589300	0.382700	0.360830
H411	H41	0.564100	0.454000	0.338300
C541	C54	0.464300	0.350100	0.012990
C551	C55	0.641500	0.362900	0.192360
N21	N2	0.573920	0.904700	0.288090
C561	C56	0.529000	0.387900	0.036570
C571	C57	0.617300	0.258600	0.150960
C581	C58	0.734400	0.899300	0.468430
C591	C59	0.667300	0.179700	0.430750
C601	C60	0.807600	0.798900	0.586580
C611	C61	0.750400	0.091100	0.548030
C621	C62	0.037000	0.879600	0.479850
C631	C63	0.969200	0.868100	0.469060
C641	C64	0.690400	0.224000	0.394830
H421	H42	0.732100	0.184400	0.393700
C651	C65	0.812400	0.752600	0.325520
C661	C66	0.775100	0.906800	0.547090
C671	C67	0.894000	0.590300	0.624370
H431	H43	0.932500	0.523900	0.625200
C681	C68	0.780700	0.789500	0.622010
H441	H44	0.743000	0.858800	0.621700
C691	C69	0.582400	0.361800	0.115180
H451	H45	0.572800	0.489500	0.118200
C701	C70	0.890200	0.799200	0.398520
H461	H46	0.884900	0.929900	0.394500
C711	C71	0.602800	0.232700	0.429970
H471	H47	0.585600	0.201300	0.453200
C721	C72	0.932400	0.731400	0.435740
C731	C73	0.717800	0.173500	0.509670
H481	H48	0.701500	0.296200	0.510400
C741	C74	0.855300	0.674900	0.366720
C751	C75	0.777300	0.671700	0.695010
C761	C76	0.636600	0.915100	0.292760
H491	H49	0.662900	0.930400	0.320600
C771	C77	0.562200	0.273800	0.075150
C781	C78	0.437400	0.463300	0.977060
H501	H50	0.394800	0.437800	0.961400
C791	C79	0.575800	0.080000	0.072340
H511	H51	0.561800	0.018200	0.045900
C801	C80	0.865300	0.699500	0.588480
H521	H52	0.884800	0.706200	0.565500
C811	C81	0.630200	0.067400	0.147160
H531	H53	0.652900	0.999000	0.171100
C821	C82	0.065900	0.012500	0.511030
H541	H54	0.111400	0.021000	0.518800
C831	C83	0.609200	0.978500	0.107730
H551	H55	0.617800	0.849800	0.105000
C841	C84	0.903100	0.411700	0.411750
H561	H56	0.907100	0.281200	0.416600
C851	C85	0.938700	0.537500	0.441720
H571	H57	0.967500	0.490300	0.466400
C861	C86	0.421700	0.204300	0.027270
H581	H58	0.439700	0.079700	0.025900
H591	H59	0.378300	0.209500	0.008700
H601	H60	0.419800	0.230700	0.056400
C871	C87	0.766800	0.816200	0.507100
H611	H61	0.783800	0.694400	0.506500
C881	C88	0.564500	0.330600	0.395410
H621	H62	0.521600	0.362000	0.395300
C891	C89	0.861400	0.481500	0.374320
H631	H63	0.837300	0.397000	0.354100
C901	C90	0.725500	0.783800	0.427620
H641	H64	0.739000	0.654900	0.434800
H651	H65	0.751700	0.837500	0.409900
H661	H66	0.680300	0.785700	0.412100
C911	C91	0.760300	0.213600	0.588870
H671	H67	0.762200	0.345400	0.581400
H681	H68	0.800400	0.177900	0.608900
H691	H69	0.724300	0.194000	0.601800
C921	C92	0.544600	0.904400	0.325110
H701	H70	0.526000	0.781400	0.327700
H711	H71	0.510800	0.999400	0.321000
H721	H72	0.577700	0.932000	0.351000
C931	C93	0.531900	0.871500	0.245300
H731	H73	0.542200	0.961500	0.225400
H741	H74	0.486900	0.886400	0.246100
H751	H75	0.538800	0.744600	0.236200
C941	C94	0.080400	0.761400	0.458700
H761	H76	0.067700	0.780800	0.428100
H771	H77	0.075800	0.629200	0.465000
H781	H78	0.125200	0.799300	0.469700
O181	O18	0.735950	0.796500	0.697300
Mn51	Mn5	0.699320	0.888710	0.749460
Mn61	Mn6	0.755050	0.397530	0.767320
O191	O19	0.655110	0.984300	0.799380
O201	O20	0.790490	0.865300	0.794910
O211	O21	0.664510	0.594000	0.762200
O221	O22	0.721670	0.237000	0.814500
O231	O23	0.793470	0.964100	0.221170
C951	C95	0.865400	0.920000	0.159010
H791	H79	0.884500	0.993800	0.183000
C961	C96	0.678500	0.126400	0.821830
C971	C97	0.707700	0.418000	0.969550
O241	O24	0.801730	0.573300	0.822800
O251	O25	0.615290	0.983100	0.698010
C981	C98	0.652000	0.172600	0.860270
C991	C99	0.808500	0.819900	0.157620
O261	O26	0.691010	0.200500	0.719920
C1001	C100	0.589300	0.117300	0.860830
H801	H80	0.564100	0.046000	0.838300
C1011	C101	0.464300	0.149900	0.512990
C1021	C102	0.641500	0.137100	0.692360
N31	N3	0.573920	0.595300	0.788090
C1031	C103	0.529000	0.112100	0.536570
C1041	C104	0.617300	0.241400	0.650960
C1051	C105	0.734400	0.600700	0.968430
C1061	C106	0.667300	0.320300	0.930750
C1071	C107	0.807600	0.701100	0.086580
C1081	C108	0.750400	0.408900	0.048030
C1091	C109	0.037000	0.620400	0.979850
C1101	C110	0.969200	0.631900	0.969060
C1111	C111	0.690400	0.276000	0.894830
H811	H81	0.732100	0.315600	0.893700
C1121	C112	0.812400	0.747400	0.825520
C1131	C113	0.775100	0.593200	0.047090
C1141	C114	0.894000	0.909700	0.124370
H821	H82	0.932500	0.976100	0.125200
C1151	C115	0.780700	0.710500	0.122010
H831	H83	0.743000	0.641200	0.121700
C1161	C116	0.582400	0.138200	0.615180
H841	H84	0.572800	0.010500	0.618200
C1171	C117	0.890200	0.700800	0.898520
H851	H85	0.884900	0.570100	0.894500
C1181	C118	0.602800	0.267300	0.929970
H861	H86	0.585600	0.298700	0.953200
C1191	C119	0.932400	0.768600	0.935740
C1201	C120	0.717800	0.326500	0.009670
H871	H87	0.701500	0.203800	0.010400
C1211	C121	0.855300	0.825100	0.866720
C1221	C122	0.777300	0.828300	0.195010
C1231	C123	0.636600	0.584900	0.792760
H881	H88	0.662900	0.569600	0.820600
C1241	C124	0.562200	0.226200	0.575150
C1251	C125	0.437400	0.036700	0.477060
H891	H89	0.394800	0.062200	0.461400
C1261	C126	0.575800	0.420000	0.572340
H901	H90	0.561800	0.481800	0.545900
C1271	C127	0.865300	0.800500	0.088480
H911	H91	0.884800	0.793800	0.065500
C1281	C128	0.630200	0.432600	0.647160
H921	H92	0.652900	0.501000	0.671100
C1291	C129	0.065900	0.487500	0.011030
H931	H93	0.111400	0.479000	0.018800
C1301	C130	0.609200	0.521500	0.607730
H941	H94	0.617800	0.650200	0.605000
C1311	C131	0.903100	0.088300	0.911750
H951	H95	0.907100	0.218800	0.916600
C1321	C132	0.938700	0.962500	0.941720
H961	H96	0.967500	0.009700	0.966400
C1331	C133	0.421700	0.295700	0.527270
H971	H97	0.439700	0.420300	0.525900
H981	H98	0.378300	0.290500	0.508700
H991	H99	0.419800	0.269300	0.556400
C1341	C134	0.766800	0.683800	0.007100
H1001	H100	0.783800	0.805600	0.006500
C1351	C135	0.564500	0.169400	0.895410
H1011	H101	0.521600	0.138000	0.895300
C1361	C136	0.861400	0.018500	0.874320
H1021	H102	0.837300	0.103000	0.854100
C1371	C137	0.725500	0.716200	0.927620
H1031	H103	0.739000	0.845100	0.934800
H1041	H104	0.751700	0.662500	0.909900
H1051	H105	0.680300	0.714300	0.912100
C1381	C138	0.760300	0.286400	0.088870
H1061	H106	0.762200	0.154600	0.081400
H1071	H107	0.800400	0.322100	0.108900
H1081	H108	0.724300	0.306000	0.101800
C1391	C139	0.544600	0.595600	0.825110
H1091	H109	0.526000	0.718600	0.827700
H1101	H110	0.510800	0.500600	0.821000
H1111	H111	0.577700	0.568000	0.851000
C1401	C140	0.531900	0.628500	0.745300
H1121	H112	0.542200	0.538500	0.725400
H1131	H113	0.486900	0.613600	0.746100
H1141	H114	0.538800	0.755400	0.736200
C1411	C141	0.080400	0.738600	0.958700
H1151	H115	0.067700	0.719200	0.928100
H1161	H116	0.075800	0.870800	0.965000
H1171	H117	0.125200	0.700700	0.969700
O271	O27	0.735950	0.703500	0.197300
Mn71	Mn7	0.300680	0.388710	0.750540
Mn81	Mn8	0.244950	0.897530	0.732690
O281	O28	0.344890	0.484300	0.700620
O291	O29	0.209510	0.365300	0.705090
O301	O30	0.335490	0.094000	0.737800
O311	O31	0.278330	0.737000	0.685500
O321	O32	0.206530	0.464100	0.278830
C1421	C142	0.134600	0.420000	0.340990
H1181	H118	0.115500	0.493800	0.317000
C1431	C143	0.321500	0.626400	0.678170
C1441	C144	0.292300	0.918000	0.530450
O331	O33	0.198270	0.073300	0.677200
O341	O34	0.384710	0.483100	0.801990
C1451	C145	0.348000	0.672600	0.639730
C1461	C146	0.191500	0.319900	0.342380
O351	O35	0.308990	0.700500	0.780080
C1471	C147	0.410700	0.617300	0.639170
H1191	H119	0.435900	0.546000	0.661700
C1481	C148	0.535700	0.649900	0.987010
C1491	C149	0.358500	0.637100	0.807640
N41	N4	0.426080	0.095300	0.711910
C1501	C150	0.471000	0.612100	0.963430
C1511	C151	0.382700	0.741400	0.849040
C1521	C152	0.265600	0.100700	0.531570
C1531	C153	0.332700	0.820300	0.569250
C1541	C154	0.192400	0.201100	0.413420
C1551	C155	0.249600	0.908900	0.451970
C1561	C156	0.963000	0.120400	0.520150
C1571	C157	0.030800	0.131900	0.530940
C1581	C158	0.309600	0.776000	0.605170
H1201	H120	0.267900	0.815600	0.606300
C1591	C159	0.187600	0.247400	0.674480
C1601	C160	0.224900	0.093200	0.452910
C1611	C161	0.106000	0.409700	0.375630
H1211	H121	0.067500	0.476100	0.374800
C1621	C162	0.219300	0.210500	0.377990
H1221	H122	0.257000	0.141200	0.378300
C1631	C163	0.417600	0.638200	0.884820
H1231	H123	0.427200	0.510500	0.881800
C1641	C164	0.109800	0.200800	0.601480
H1241	H124	0.115100	0.070100	0.605500
C1651	C165	0.397200	0.767300	0.570030
H1251	H125	0.414400	0.798700	0.546800
C1661	C166	0.067600	0.268600	0.564260
C1671	C167	0.282200	0.826500	0.490330
H1261	H126	0.298500	0.703800	0.489600
C1681	C168	0.144700	0.325100	0.633280
C1691	C169	0.222700	0.328300	0.304990
C1701	C170	0.363400	0.084900	0.707240
H1271	H127	0.337100	0.069600	0.679400
C1711	C171	0.437800	0.726200	0.924850
C1721	C172	0.562600	0.536700	0.022940
H1281	H128	0.605200	0.562200	0.038600
C1731	C173	0.424200	0.920000	0.927660
H1291	H129	0.438200	0.981800	0.954100
C1741	C174	0.134700	0.300500	0.411520
H1301	H130	0.115200	0.293800	0.434500
C1751	C175	0.369800	0.932600	0.852840
H1311	H131	0.347100	0.001000	0.828900
C1761	C176	0.934100	0.987500	0.488970
H1321	H132	0.888600	0.979000	0.481200
C1771	C177	0.390800	0.021500	0.892270
H1331	H133	0.382200	0.150200	0.895000
C1781	C178	0.096900	0.588300	0.588250
H1341	H134	0.092900	0.718800	0.583400
C1791	C179	0.061300	0.462500	0.558280
H1351	H135	0.032500	0.509700	0.533600
C1801	C180	0.578300	0.795700	0.972730
H1361	H136	0.560300	0.920300	0.974100
H1371	H137	0.621700	0.790500	0.991300
H1381	H138	0.580200	0.769300	0.943600
C1811	C181	0.233200	0.183800	0.492900
H1391	H139	0.216200	0.305600	0.493500
C1821	C182	0.435500	0.669400	0.604590
H1401	H140	0.478400	0.638000	0.604700
C1831	C183	0.138600	0.518500	0.625680
H1411	H141	0.162700	0.603000	0.645900
C1841	C184	0.274500	0.216200	0.572380
H1421	H142	0.261000	0.345100	0.565200
H1431	H143	0.248300	0.162500	0.590100
H1441	H144	0.319700	0.214300	0.587900
C1851	C185	0.239700	0.786400	0.411130
H1451	H145	0.237800	0.654600	0.418600
H1461	H146	0.199600	0.822100	0.391100
H1471	H147	0.275700	0.806000	0.398200
C1861	C186	0.455400	0.095600	0.674890
H1481	H148	0.474000	0.218600	0.672300
H1491	H149	0.489200	0.000600	0.679000
H1501	H150	0.422300	0.068000	0.649000
C1871	C187	0.468100	0.128500	0.754700
H1511	H151	0.457800	0.038500	0.774600
H1521	H152	0.513100	0.113600	0.753900
H1531	H153	0.461200	0.255400	0.763800
C1881	C188	0.919600	0.238600	0.541300
H1541	H154	0.932300	0.219200	0.571900
H1551	H155	0.924200	0.370800	0.535000
H1561	H156	0.874800	0.200700	0.530300
O361	O36	0.264050	0.203500	0.302700
