data_BIRSEC_clean_PM
_symmetry_space_group_name_H-M	'P1'
_cell_length_a	13.111000
_cell_length_b	13.848000
_cell_length_c	19.978000
_cell_angle_alpha	90.000000
_cell_angle_beta	90.000000
_cell_angle_gamma	90.000000
_symmetry_Int_Tables_number 1

loop_
_symmetry_equiv_pos_as_xyz
'x,y,z'

loop_
_atom_site_label
_atom_site_type_symbol
_atom_site_fract_x
_atom_site_fract_y
_atom_site_fract_z
Co11	Co1	0.259270	0.474740	0.115000
Co21	Co2	0.405320	0.396320	0.974780
Co31	Co3	0.259270	0.974740	0.385000
Co41	Co4	0.405320	0.896320	0.525220
Co51	Co5	0.663050	0.500000	0.000000
Co61	Co6	0.587070	0.298000	0.902530
Co71	Co7	0.587070	0.202000	0.402530
Co81	Co8	0.405320	0.603680	0.025220
Co91	Co9	0.663050	0.000000	0.500000
Co101	Co10	0.259270	0.525260	0.885000
Co111	Co11	0.587070	0.702000	0.097470
Co121	Co12	0.259270	0.025260	0.615000
Co131	Co13	0.405320	0.103680	0.474780
Co141	Co14	0.587070	0.798000	0.597470
H11	H1	0.345300	0.337200	0.341000
H21	H2	0.050100	0.171800	0.838100
H31	H3	0.973700	0.884900	0.491700
H41	H4	0.615300	0.706900	0.248200
H51	H5	0.973700	0.615100	0.991700
H61	H6	0.348800	0.359700	0.694500
H71	H7	0.572600	0.345800	0.020400
H81	H8	0.881700	0.701300	0.634400
H91	H9	0.585700	0.079100	0.872500
H101	H10	0.881700	0.201300	0.865600
H111	H11	0.309000	0.260700	0.120700
H121	H12	0.309000	0.239300	0.620700
H131	H13	0.510900	0.500000	0.500000
H141	H14	0.629000	0.692800	0.836600
H151	H15	0.601700	0.471600	0.713500
H161	H16	0.973700	0.384900	0.008300
H171	H17	0.177700	0.247000	0.391100
H181	H18	0.246900	0.144300	0.002900
H191	H19	0.973700	0.115100	0.508300
H201	H20	0.585700	0.920900	0.127500
H211	H21	0.615300	0.206900	0.251800
H221	H22	0.050100	0.671800	0.661900
H231	H23	0.297100	0.950600	0.235800
H241	H24	0.297100	0.049400	0.764200
H251	H25	0.510900	0.000000	0.000000
H261	H26	0.572600	0.654200	0.979600
H271	H27	0.348800	0.140300	0.194500
H281	H28	0.881700	0.798700	0.134400
H291	H29	0.629000	0.307200	0.163400
H301	H30	0.297100	0.549400	0.735800
H311	H31	0.177700	0.747000	0.108900
H321	H32	0.246900	0.355700	0.502900
H331	H33	0.345300	0.662800	0.659000
H341	H34	0.629000	0.192800	0.663400
H351	H35	0.050100	0.828200	0.161900
H361	H36	0.585700	0.420900	0.372500
H371	H37	0.450700	0.052700	0.595400
H381	H38	0.158200	0.000000	0.000000
H391	H39	0.629000	0.807200	0.336600
H401	H40	0.158200	0.500000	0.500000
H411	H41	0.246900	0.644300	0.497100
H421	H42	0.450700	0.947300	0.404600
H431	H43	0.345300	0.162800	0.841000
H441	H44	0.309000	0.760700	0.379300
H451	H45	0.450700	0.552700	0.904600
H461	H46	0.450700	0.447300	0.095400
H471	H47	0.177700	0.253000	0.891100
H481	H48	0.348800	0.640300	0.305500
H491	H49	0.615300	0.293100	0.751800
H501	H50	0.601700	0.971600	0.786500
H511	H51	0.601700	0.528400	0.286500
H521	H52	0.585700	0.579100	0.627500
H531	H53	0.615300	0.793100	0.748200
H541	H54	0.345300	0.837200	0.159000
H551	H55	0.177700	0.753000	0.608900
H561	H56	0.601700	0.028400	0.213500
H571	H57	0.572600	0.154200	0.520400
H581	H58	0.348800	0.859700	0.805500
H591	H59	0.050100	0.328200	0.338100
H601	H60	0.246900	0.855700	0.997100
H611	H61	0.881700	0.298700	0.365600
H621	H62	0.297100	0.450600	0.264200
H631	H63	0.309000	0.739300	0.879300
H641	H64	0.572600	0.845800	0.479600
C11	C1	0.282300	0.913800	0.999700
C21	C2	0.619600	0.930100	0.286000
C31	C3	0.933700	0.766600	0.111900
C41	C4	0.933700	0.233400	0.888100
C51	C5	0.799800	0.673500	0.048100
C61	C6	0.314700	0.724400	0.834100
C71	C7	0.089000	0.825400	0.543800
C81	C8	0.308800	0.612400	0.750100
C91	C9	0.034400	0.284000	0.371600
C101	C10	0.439600	0.182300	0.990400
C111	C11	0.612500	0.773000	0.240300
C121	C12	0.340400	0.296800	0.709700
C131	C13	0.337200	0.819800	0.203600
C141	C14	0.631300	0.001300	0.654600
C151	C15	0.034400	0.716000	0.628400
C161	C16	0.110400	0.262900	0.904100
C171	C17	0.314700	0.775600	0.334100
C181	C18	0.175100	0.624500	0.007700
C191	C19	0.282300	0.586200	0.499700
C201	C20	0.612500	0.227000	0.759700
C211	C21	0.340400	0.796800	0.790300
C221	C22	0.308800	0.887600	0.250100
C231	C23	0.605200	0.537500	0.722200
C241	C24	0.910500	0.298900	0.938200
C251	C25	0.621500	0.666900	0.793900
C261	C26	0.175100	0.875500	0.507700
C271	C27	0.910500	0.798900	0.561800
C281	C28	0.439600	0.317700	0.490400
C291	C29	0.353700	0.225000	0.276400
C301	C30	0.340400	0.703200	0.290300
C311	C31	0.439600	0.817700	0.009600
C321	C32	0.910500	0.201100	0.438200
C331	C33	0.612500	0.273000	0.259700
C341	C34	0.337200	0.180200	0.796400
C351	C35	0.988700	0.156900	0.473200
C361	C36	0.988700	0.843100	0.526800
C371	C37	0.910500	0.701100	0.061800
C381	C38	0.621500	0.333100	0.206100
C391	C39	0.439600	0.682300	0.509600
C401	C40	0.619600	0.069900	0.714000
C411	C41	0.933700	0.733400	0.611900
C421	C42	0.988700	0.343100	0.973200
C431	C43	0.308800	0.387600	0.249900
C441	C44	0.619600	0.569900	0.786000
C451	C45	0.387000	0.086600	0.996800
C461	C46	0.353700	0.725000	0.223600
C471	C47	0.595700	0.603000	0.670500
C481	C48	0.799800	0.326500	0.951900
C491	C49	0.621500	0.833100	0.293900
C501	C50	0.595700	0.897000	0.170500
C511	C51	0.371800	0.147900	0.327500
C521	C52	0.282300	0.086200	0.000300
C531	C53	0.387000	0.586600	0.503200
C541	C54	0.631300	0.498700	0.154600
C551	C55	0.605200	0.962500	0.222200
C561	C56	0.089000	0.174600	0.456200
C571	C57	0.595700	0.103000	0.829500
C581	C58	0.631300	0.501300	0.845400
C591	C59	0.337200	0.680200	0.703600
C601	C60	0.371800	0.352100	0.827500
C611	C61	0.175100	0.375500	0.992300
C621	C62	0.337200	0.319800	0.296400
C631	C63	0.387000	0.413400	0.496800
C641	C64	0.799800	0.173500	0.451900
C651	C65	0.110400	0.737100	0.095900
C661	C66	0.605200	0.462500	0.277800
C671	C67	0.439900	0.500000	0.500000
C681	C68	0.371800	0.852100	0.672500
C691	C69	0.089000	0.325400	0.956200
C701	C70	0.619600	0.430100	0.214000
C711	C71	0.631300	0.998700	0.345400
C721	C72	0.340400	0.203200	0.209700
C731	C73	0.595700	0.397000	0.329500
C741	C74	0.089000	0.674600	0.043800
C751	C75	0.612500	0.727000	0.740300
C761	C76	0.308800	0.112400	0.749900
C771	C77	0.110400	0.237100	0.404100
C781	C78	0.799800	0.826500	0.548100
C791	C79	0.353700	0.775000	0.723600
C801	C80	0.314700	0.275600	0.165900
C811	C81	0.314700	0.224400	0.665900
C821	C82	0.988700	0.656900	0.026800
C831	C83	0.282300	0.413800	0.500300
C841	C84	0.933700	0.266600	0.388100
C851	C85	0.034400	0.216000	0.871600
C861	C86	0.229200	0.500000	0.500000
C871	C87	0.621500	0.166900	0.706100
C881	C88	0.353700	0.275000	0.776400
C891	C89	0.387000	0.913400	0.003200
C901	C90	0.175100	0.124500	0.492300
C911	C91	0.110400	0.762900	0.595900
C921	C92	0.605200	0.037500	0.777800
C931	C93	0.439900	0.000000	0.000000
C941	C94	0.371800	0.647900	0.172500
C951	C95	0.229200	0.000000	0.000000
C961	C96	0.034400	0.784000	0.128400
N11	N1	0.600100	0.302100	0.321660
N21	N2	0.600100	0.697900	0.678340
N31	N3	0.297400	0.633100	0.814640
N41	N4	0.297400	0.133100	0.685360
N51	N5	0.600100	0.197900	0.821660
N61	N6	0.600100	0.802100	0.178340
N71	N7	0.297400	0.866900	0.314640
N81	N8	0.297400	0.366900	0.185360
O11	O1	0.621800	0.586100	0.164100
O21	O2	0.425600	0.831600	0.621130
O31	O3	0.562300	0.388230	0.981720
O41	O4	0.393800	0.463060	0.065560
O51	O5	0.425600	0.331600	0.878870
O61	O6	0.621800	0.086100	0.335900
O71	O7	0.528100	0.317200	0.464570
O81	O8	0.650200	0.955900	0.399420
O91	O9	0.734600	0.231000	0.430300
O101	O10	0.562300	0.111770	0.481720
O111	O11	0.325100	0.070600	0.317910
O121	O12	0.785000	0.404600	0.980970
O131	O13	0.734600	0.769000	0.569700
O141	O14	0.393800	0.536940	0.934440
O151	O15	0.734600	0.269000	0.930300
O161	O16	0.168800	0.613200	0.945790
O171	O17	0.325100	0.429400	0.817910
O181	O18	0.650200	0.544100	0.899420
O191	O19	0.562300	0.888230	0.518280
O201	O20	0.325100	0.929400	0.682090
O211	O21	0.562300	0.611770	0.018280
O221	O22	0.393800	0.963060	0.434440
O231	O23	0.650200	0.044100	0.600580
O241	O24	0.247300	0.404070	0.956660
O251	O25	0.247300	0.904070	0.543340
O261	O26	0.168800	0.386800	0.054210
O271	O27	0.425600	0.168400	0.378870
O281	O28	0.734600	0.731000	0.069700
O291	O29	0.785000	0.595400	0.019030
O301	O30	0.393800	0.036940	0.565560
O311	O31	0.391000	0.245800	0.508690
O321	O32	0.785000	0.904600	0.519030
O331	O33	0.247300	0.595930	0.043340
O341	O34	0.168800	0.113200	0.554210
O351	O35	0.391000	0.745800	0.991310
O361	O36	0.650200	0.455900	0.100580
O371	O37	0.325100	0.570600	0.182090
O381	O38	0.785000	0.095400	0.480970
O391	O39	0.247300	0.095930	0.456660
O401	O40	0.528100	0.182800	0.964570
O411	O41	0.621800	0.913900	0.664100
O421	O42	0.391000	0.754200	0.491310
O431	O43	0.391000	0.254200	0.008690
O441	O44	0.528100	0.817200	0.035430
O451	O45	0.621800	0.413900	0.835900
O461	O46	0.528100	0.682800	0.535430
O471	O47	0.168800	0.886800	0.445790
O481	O48	0.425600	0.668400	0.121130
