data_BIWYAH10_clean_PM
_symmetry_space_group_name_H-M	'P1'
_cell_length_a	12.787000
_cell_length_b	15.302000
_cell_length_c	16.953100
_cell_angle_alpha	90.000000
_cell_angle_beta	108.355000
_cell_angle_gamma	90.000000
_symmetry_Int_Tables_number 1

loop_
_symmetry_equiv_pos_as_xyz
'x,y,z'

loop_
_atom_site_label
_atom_site_type_symbol
_atom_site_fract_x
_atom_site_fract_y
_atom_site_fract_z
Nd11	Nd1	0.769830	0.840140	0.067830
Nd21	Nd2	0.230170	0.340140	0.432170
Nd31	Nd3	0.230170	0.159860	0.932170
Nd41	Nd4	0.769830	0.659860	0.567830
C11	C1	0.670100	0.044700	0.114100
C21	C2	0.505600	0.107700	0.078700
C31	C3	0.786600	0.859500	0.284300
C41	C4	0.746400	0.812000	0.398000
C51	C5	0.055600	0.911500	0.109000
C61	C6	0.172600	0.004000	0.076400
C71	C7	0.329900	0.544700	0.385900
C81	C8	0.494400	0.607700	0.421300
C91	C9	0.213400	0.359500	0.215700
C101	C10	0.253600	0.312000	0.102000
C111	C11	0.944400	0.411500	0.391000
C121	C12	0.827400	0.504000	0.423600
C131	C13	0.329900	0.955300	0.885900
C141	C14	0.494400	0.892300	0.921300
C151	C15	0.213400	0.140500	0.715700
C161	C16	0.253600	0.188000	0.602000
C171	C17	0.944400	0.088500	0.891000
C181	C18	0.827400	0.996000	0.923600
C191	C19	0.670100	0.455300	0.614100
C201	C20	0.505600	0.392300	0.578700
C211	C21	0.786600	0.640500	0.784300
C221	C22	0.746400	0.688000	0.898000
C231	C23	0.055600	0.588500	0.609000
C241	C24	0.172600	0.496000	0.576400
N11	N1	0.733900	0.996000	0.106300
N21	N2	0.606300	0.101300	0.130500
N31	N3	0.416900	0.117900	0.037000
N41	N4	0.812900	0.854500	0.226800
N51	N5	0.752500	0.875800	0.348100
N61	N6	0.737600	0.764000	0.445300
N71	N7	0.971600	0.887100	0.109100
N81	N8	0.155900	0.935200	0.115900
N91	N9	0.194900	0.064600	0.046300
N101	N10	0.266100	0.496000	0.393700
N111	N11	0.393700	0.601300	0.369500
N121	N12	0.583100	0.617900	0.463000
N131	N13	0.187100	0.354500	0.273200
N141	N14	0.247500	0.375800	0.151900
N151	N15	0.262400	0.264000	0.054700
N161	N16	0.028400	0.387100	0.390900
N171	N17	0.844100	0.435200	0.384100
N181	N18	0.805100	0.564600	0.453700
N191	N19	0.266100	0.004000	0.893700
N201	N20	0.393700	0.898700	0.869500
N211	N21	0.583100	0.882100	0.963000
N221	N22	0.187100	0.145500	0.773200
N231	N23	0.247500	0.124200	0.651900
N241	N24	0.262400	0.236000	0.554700
N251	N25	0.028400	0.112900	0.890900
N261	N26	0.844100	0.064800	0.884100
N271	N27	0.805100	0.935400	0.953700
N281	N28	0.733900	0.504000	0.606300
N291	N29	0.606300	0.398700	0.630500
N301	N30	0.416900	0.382100	0.537000
N311	N31	0.812900	0.645500	0.726800
N321	N32	0.752500	0.624200	0.848100
N331	N33	0.737600	0.736000	0.945300
N341	N34	0.971600	0.612900	0.609100
N351	N35	0.155900	0.564800	0.615900
N361	N36	0.194900	0.435400	0.546300
