data_BIXXIR_clean_PM
_symmetry_space_group_name_H-M	'P1'
_cell_length_a	13.685000
_cell_length_b	13.144000
_cell_length_c	22.649000
_cell_angle_alpha	90.000000
_cell_angle_beta	100.551000
_cell_angle_gamma	90.000000
_symmetry_Int_Tables_number 1

loop_
_symmetry_equiv_pos_as_xyz
'x,y,z'

loop_
_atom_site_label
_atom_site_type_symbol
_atom_site_fract_x
_atom_site_fract_y
_atom_site_fract_z
W11	W1	0.238090	0.488970	0.475990
W21	W2	0.355080	0.689630	0.413630
W31	W3	0.366240	0.442400	0.357410
W41	W4	0.509290	0.253070	0.441440
W51	W5	0.382020	0.300630	0.561490
W61	W6	0.372100	0.547210	0.620700
La11	La1	0.275690	0.401670	0.176550
La21	La2	0.780860	0.401490	0.222020
O11	O1	0.403000	0.527000	0.456400
O21	O2	0.502000	0.615000	0.484100
O31	O3	0.507000	0.427000	0.440300
O41	O4	0.597000	0.533000	0.472700
O51	O5	0.258000	0.433000	0.399300
O61	O6	0.270000	0.358000	0.513700
O71	O7	0.269000	0.539000	0.556300
O81	O8	0.256000	0.625000	0.442500
O91	O9	0.293200	0.780400	0.372600
O101	O10	0.483000	0.722300	0.397700
O111	O11	0.356200	0.579100	0.356300
O121	O12	0.402000	0.312000	0.391300
O131	O13	0.608000	0.245000	0.511100
O141	O14	0.412000	0.236000	0.492100
O151	O15	0.333000	0.205000	0.591600
O161	O16	0.368000	0.403000	0.620100
O171	O17	0.312800	0.564500	0.677600
O181	O18	0.509000	0.539000	0.659300
O191	O19	0.397000	0.683000	0.595900
O201	O20	0.303300	0.412900	0.289700
O211	O21	0.447700	0.477200	0.188300
O221	O22	0.608800	0.452700	0.192900
O231	O23	0.790400	0.733200	0.290300
O241	O24	0.782800	0.581000	0.250500
O251	O25	0.722400	0.241400	0.264300
O261	O26	0.739700	0.083000	0.296900
O271	O27	0.053800	0.954600	0.297400
O281	O28	0.893600	0.933900	0.306400
N11	N1	0.469700	0.662500	0.234900
H11	H1	0.409100	0.643500	0.223400
N21	N2	0.594700	0.762600	0.273900
N31	N3	0.891500	0.239200	0.223800
N41	N4	0.015000	0.131800	0.234400
H21	H2	0.070100	0.104300	0.229600
C11	C1	0.498000	0.748000	0.260000
H31	H3	0.453400	0.797400	0.267700
C21	C2	0.552300	0.607100	0.229800
C31	C3	0.631200	0.670600	0.254100
C41	C4	0.736000	0.662000	0.266000
C51	C5	0.533600	0.503700	0.200300
C61	C6	0.988000	0.221000	0.215100
H41	H4	0.026500	0.266200	0.197900
C71	C7	0.866000	0.155000	0.251600
C81	C8	0.949000	0.085500	0.262800
C91	C9	0.966000	0.984000	0.287600
C101	C10	0.774000	0.158000	0.272100
W71	W7	0.761910	0.988970	0.024010
W81	W8	0.644920	0.189630	0.086370
W91	W9	0.633760	0.942400	0.142590
W101	W10	0.490710	0.753070	0.058560
W111	W11	0.617980	0.800630	0.938510
W121	W12	0.627900	0.047210	0.879300
La31	La3	0.724310	0.901670	0.323450
La41	La4	0.219140	0.901490	0.277980
O291	O29	0.597000	0.027000	0.043600
O301	O30	0.498000	0.115000	0.015900
O311	O31	0.493000	0.927000	0.059700
O321	O32	0.403000	0.033000	0.027300
O331	O33	0.742000	0.933000	0.100700
O341	O34	0.730000	0.858000	0.986300
O351	O35	0.731000	0.039000	0.943700
O361	O36	0.744000	0.125000	0.057500
O371	O37	0.706800	0.280400	0.127400
O381	O38	0.517000	0.222300	0.102300
O391	O39	0.643800	0.079100	0.143700
O401	O40	0.598000	0.812000	0.108700
O411	O41	0.392000	0.745000	0.988900
O421	O42	0.588000	0.736000	0.007900
O431	O43	0.667000	0.705000	0.908400
O441	O44	0.632000	0.903000	0.879900
O451	O45	0.687200	0.064500	0.822400
O461	O46	0.491000	0.039000	0.840700
O471	O47	0.603000	0.183000	0.904100
O481	O48	0.696700	0.912900	0.210300
O491	O49	0.552300	0.977200	0.311700
O501	O50	0.391200	0.952700	0.307100
O511	O51	0.209600	0.233200	0.209700
O521	O52	0.217200	0.081000	0.249500
O531	O53	0.277600	0.741400	0.235700
O541	O54	0.260300	0.583000	0.203100
O551	O55	0.946200	0.454600	0.202600
O561	O56	0.106400	0.433900	0.193600
N51	N5	0.530300	0.162500	0.265100
H51	H5	0.590900	0.143500	0.276600
N61	N6	0.405300	0.262600	0.226100
N71	N7	0.108500	0.739200	0.276200
N81	N8	0.985000	0.631800	0.265600
H61	H6	0.929900	0.604300	0.270400
C111	C11	0.502000	0.248000	0.240000
H71	H7	0.546600	0.297400	0.232300
C121	C12	0.447700	0.107100	0.270200
C131	C13	0.368800	0.170600	0.245900
C141	C14	0.264000	0.162000	0.234000
C151	C15	0.466400	0.003700	0.299700
C161	C16	0.012000	0.721000	0.284900
H81	H8	0.973500	0.766200	0.302100
C171	C17	0.134000	0.655000	0.248400
C181	C18	0.051000	0.585500	0.237200
C191	C19	0.034000	0.484000	0.212400
C201	C20	0.226000	0.658000	0.227900
W131	W13	0.761910	0.511030	0.524010
W141	W14	0.644920	0.310370	0.586370
W151	W15	0.633760	0.557600	0.642590
W161	W16	0.490710	0.746930	0.558560
W171	W17	0.617980	0.699370	0.438510
W181	W18	0.627900	0.452790	0.379300
La51	La5	0.724310	0.598330	0.823450
La61	La6	0.219140	0.598510	0.777980
O571	O57	0.597000	0.473000	0.543600
O581	O58	0.498000	0.385000	0.515900
O591	O59	0.493000	0.573000	0.559700
O601	O60	0.403000	0.467000	0.527300
O611	O61	0.742000	0.567000	0.600700
O621	O62	0.730000	0.642000	0.486300
O631	O63	0.731000	0.461000	0.443700
O641	O64	0.744000	0.375000	0.557500
O651	O65	0.706800	0.219600	0.627400
O661	O66	0.517000	0.277700	0.602300
O671	O67	0.643800	0.420900	0.643700
O681	O68	0.598000	0.688000	0.608700
O691	O69	0.392000	0.755000	0.488900
O701	O70	0.588000	0.764000	0.507900
O711	O71	0.667000	0.795000	0.408400
O721	O72	0.632000	0.597000	0.379900
O731	O73	0.687200	0.435500	0.322400
O741	O74	0.491000	0.461000	0.340700
O751	O75	0.603000	0.317000	0.404100
O761	O76	0.696700	0.587100	0.710300
O771	O77	0.552300	0.522800	0.811700
O781	O78	0.391200	0.547300	0.807100
O791	O79	0.209600	0.266800	0.709700
O801	O80	0.217200	0.419000	0.749500
O811	O81	0.277600	0.758600	0.735700
O821	O82	0.260300	0.917000	0.703100
O831	O83	0.946200	0.045400	0.702600
O841	O84	0.106400	0.066100	0.693600
N91	N9	0.530300	0.337500	0.765100
H91	H9	0.590900	0.356500	0.776600
N101	N10	0.405300	0.237400	0.726100
N111	N11	0.108500	0.760800	0.776200
N121	N12	0.985000	0.868200	0.765600
H101	H10	0.929900	0.895700	0.770400
C211	C21	0.502000	0.252000	0.740000
H111	H11	0.546600	0.202600	0.732300
C221	C22	0.447700	0.392900	0.770200
C231	C23	0.368800	0.329400	0.745900
C241	C24	0.264000	0.338000	0.734000
C251	C25	0.466400	0.496300	0.799700
C261	C26	0.012000	0.779000	0.784900
H121	H12	0.973500	0.733800	0.802100
C271	C27	0.134000	0.845000	0.748400
C281	C28	0.051000	0.914500	0.737200
C291	C29	0.034000	0.016000	0.712400
C301	C30	0.226000	0.842000	0.727900
W191	W19	0.238090	0.011030	0.975990
W201	W20	0.355080	0.810370	0.913630
W211	W21	0.366240	0.057600	0.857410
W221	W22	0.509290	0.246930	0.941440
W231	W23	0.382020	0.199370	0.061490
W241	W24	0.372100	0.952790	0.120700
La71	La7	0.275690	0.098330	0.676550
La81	La8	0.780860	0.098510	0.722020
O851	O85	0.403000	0.973000	0.956400
O861	O86	0.502000	0.885000	0.984100
O871	O87	0.507000	0.073000	0.940300
O881	O88	0.597000	0.967000	0.972700
O891	O89	0.258000	0.067000	0.899300
O901	O90	0.270000	0.142000	0.013700
O911	O91	0.269000	0.961000	0.056300
O921	O92	0.256000	0.875000	0.942500
O931	O93	0.293200	0.719600	0.872600
O941	O94	0.483000	0.777700	0.897700
O951	O95	0.356200	0.920900	0.856300
O961	O96	0.402000	0.188000	0.891300
O971	O97	0.608000	0.255000	0.011100
O981	O98	0.412000	0.264000	0.992100
O991	O99	0.333000	0.295000	0.091600
O1001	O100	0.368000	0.097000	0.120100
O1011	O101	0.312800	0.935500	0.177600
O1021	O102	0.509000	0.961000	0.159300
O1031	O103	0.397000	0.817000	0.095900
O1041	O104	0.303300	0.087100	0.789700
O1051	O105	0.447700	0.022800	0.688300
O1061	O106	0.608800	0.047300	0.692900
O1071	O107	0.790400	0.766800	0.790300
O1081	O108	0.782800	0.919000	0.750500
O1091	O109	0.722400	0.258600	0.764300
O1101	O110	0.739700	0.417000	0.796900
O1111	O111	0.053800	0.545400	0.797400
O1121	O112	0.893600	0.566100	0.806400
N131	N13	0.469700	0.837500	0.734900
H131	H13	0.409100	0.856500	0.723400
N141	N14	0.594700	0.737400	0.773900
N151	N15	0.891500	0.260800	0.723800
N161	N16	0.015000	0.368200	0.734400
H141	H14	0.070100	0.395700	0.729600
C311	C31	0.498000	0.752000	0.760000
H151	H15	0.453400	0.702600	0.767700
C321	C32	0.552300	0.892900	0.729800
C331	C33	0.631200	0.829400	0.754100
C341	C34	0.736000	0.838000	0.766000
C351	C35	0.533600	0.996300	0.700300
C361	C36	0.988000	0.279000	0.715100
H161	H16	0.026500	0.233800	0.697900
C371	C37	0.866000	0.345000	0.751600
C381	C38	0.949000	0.414500	0.762800
C391	C39	0.966000	0.516000	0.787600
C401	C40	0.774000	0.342000	0.772100
Si11	Si1	0.500000	0.500000	0.500000
Si21	Si2	0.500000	0.000000	0.000000
