data_BIXYEO_clean_PM
_symmetry_space_group_name_H-M	'P1'
_cell_length_a	13.155400
_cell_length_b	13.701400
_cell_length_c	22.727300
_cell_angle_alpha	100.366000
_cell_angle_beta	90.000000
_cell_angle_gamma	90.000000
_symmetry_Int_Tables_number 1

loop_
_symmetry_equiv_pos_as_xyz
'x,y,z'

loop_
_atom_site_label
_atom_site_type_symbol
_atom_site_fract_x
_atom_site_fract_y
_atom_site_fract_z
Ce11	Ce1	0.398990	0.723930	0.821470
Ce21	Ce2	0.601010	0.276070	0.178530
Ce31	Ce3	0.100850	0.218780	0.276190
Ce41	Ce4	0.399150	0.218780	0.776190
Ce51	Ce5	0.600850	0.781220	0.223810
Ce61	Ce6	0.101010	0.723930	0.321470
Ce71	Ce7	0.899150	0.781220	0.723810
Ce81	Ce8	0.898990	0.276070	0.678530
Si11	Si1	0.000000	0.500000	0.000000
Si21	Si2	0.500000	0.500000	0.500000
H11	H1	0.355500	0.408500	0.220900
H21	H2	0.299300	0.457300	0.768600
H31	H3	0.644500	0.591500	0.779100
H41	H4	0.604400	0.072500	0.734100
H51	H5	0.700700	0.542700	0.231400
H61	H6	0.895600	0.072500	0.234100
H71	H7	0.733900	0.022800	0.196900
H81	H8	0.266100	0.977200	0.803100
H91	H9	0.799300	0.542700	0.731400
H101	H10	0.200700	0.457300	0.268600
H111	H11	0.144500	0.408500	0.720900
H121	H12	0.855500	0.591500	0.279100
H131	H13	0.766100	0.022800	0.696900
H141	H14	0.233900	0.977200	0.303100
H151	H15	0.104400	0.927500	0.765900
H161	H16	0.395600	0.927500	0.265900
W11	W1	0.941370	0.367920	0.857850
W21	W2	0.300980	0.617630	0.437640
W31	W3	0.441370	0.632080	0.642150
W41	W4	0.058630	0.632080	0.142150
W51	W5	0.747990	0.510000	0.442620
W61	W6	0.310790	0.355080	0.413110
W71	W7	0.988050	0.238190	0.976050
W81	W8	0.488050	0.761810	0.523950
W91	W9	0.558630	0.367920	0.357850
W101	W10	0.048550	0.370650	0.119910
W111	W11	0.451450	0.370650	0.619910
W121	W12	0.199020	0.617630	0.937640
W131	W13	0.548550	0.629350	0.380090
W141	W14	0.189210	0.355080	0.913110
W151	W15	0.689210	0.644920	0.586890
W161	W16	0.752010	0.510000	0.942620
W171	W17	0.810790	0.644920	0.086890
W181	W18	0.511950	0.238190	0.476050
W191	W19	0.247990	0.490000	0.057380
W201	W20	0.252010	0.490000	0.557380
W211	W21	0.699020	0.382370	0.562360
W221	W22	0.800980	0.382370	0.062360
W231	W23	0.951450	0.629350	0.880090
W241	W24	0.011950	0.761810	0.023950
C11	C1	0.721100	0.984900	0.714900
C21	C2	0.751200	0.499900	0.239900
C31	C3	0.278900	0.015100	0.285100
C41	C4	0.895300	0.445700	0.270200
C51	C5	0.000100	0.465100	0.297100
C61	C6	0.839100	0.259000	0.234300
C71	C7	0.251200	0.500100	0.260100
C81	C8	0.414300	0.056400	0.241800
C91	C9	0.343100	0.230400	0.228800
C101	C10	0.518100	0.037100	0.212300
C111	C11	0.604700	0.445700	0.770200
C121	C12	0.665600	0.368000	0.747000
C131	C13	0.018100	0.962900	0.287700
C141	C14	0.160900	0.741000	0.765700
C151	C15	0.334400	0.632000	0.253000
C161	C16	0.499900	0.465100	0.797100
C171	C17	0.248800	0.500100	0.760100
C181	C18	0.846100	0.867100	0.252500
C191	C19	0.914300	0.943600	0.258200
C201	C20	0.653900	0.867100	0.752500
C211	C21	0.153900	0.132900	0.747500
C221	C22	0.999900	0.534900	0.702900
C231	C23	0.165600	0.632000	0.753000
C241	C24	0.585700	0.943600	0.758200
C251	C25	0.656900	0.769600	0.771200
C261	C26	0.346100	0.132900	0.247500
C271	C27	0.085700	0.056400	0.741800
C281	C28	0.778900	0.984900	0.214900
C291	C29	0.834400	0.368000	0.247000
C301	C30	0.221100	0.015100	0.785100
C311	C31	0.660900	0.259000	0.734300
C321	C32	0.500100	0.534900	0.202900
C331	C33	0.395300	0.554300	0.229800
C341	C34	0.748800	0.499900	0.739900
C351	C35	0.104700	0.554300	0.729800
C361	C36	0.481900	0.962900	0.787700
C371	C37	0.981900	0.037100	0.712300
C381	C38	0.156900	0.230400	0.728800
C391	C39	0.843100	0.769600	0.271200
C401	C40	0.339100	0.741000	0.265700
N11	N1	0.630400	0.015300	0.735400
N21	N2	0.756600	0.403600	0.726800
N31	N3	0.256600	0.596400	0.773200
N41	N4	0.837900	0.530900	0.266500
N51	N5	0.260000	0.107700	0.276600
N61	N6	0.243400	0.596400	0.273200
N71	N7	0.162100	0.469100	0.733500
N81	N8	0.740000	0.892300	0.723400
N91	N9	0.369600	0.984700	0.264600
N101	N10	0.130400	0.984700	0.764600
N111	N11	0.662100	0.530900	0.766500
N121	N12	0.240000	0.107700	0.776600
N131	N13	0.760000	0.892300	0.223400
N141	N14	0.337900	0.469100	0.233500
N151	N15	0.869600	0.015300	0.235400
N161	N16	0.743400	0.403600	0.226800
O11	O1	0.912300	0.300800	0.788900
O21	O2	0.701200	0.331800	0.094800
O31	O3	0.244000	0.388400	0.487600
O41	O4	0.541500	0.495200	0.342400
O51	O5	0.740500	0.723700	0.763800
O61	O6	0.114400	0.497600	0.980800
O71	O7	0.719900	0.710900	0.130600
O81	O8	0.449300	0.390500	0.805200
O91	O9	0.623000	0.753000	0.556800
O101	O10	0.082200	0.265500	0.706100
O111	O11	0.280100	0.289100	0.869400
O121	O12	0.958500	0.495200	0.842400
O131	O13	0.281400	0.484000	0.401800
O141	O14	0.465000	0.596000	0.472000
O151	O15	0.082000	0.356500	0.857800
O161	O16	0.240500	0.276300	0.736200
O171	O17	0.429600	0.311300	0.677200
O181	O18	0.412300	0.699200	0.711100
O191	O19	0.582200	0.734500	0.793900
O201	O20	0.436000	0.744800	0.601400
O211	O21	0.922200	0.217000	0.248200
O221	O22	0.087700	0.699200	0.211100
O231	O23	0.028200	0.551400	0.311300
O241	O24	0.582000	0.643500	0.642200
O251	O25	0.781400	0.516000	0.098200
O261	O26	0.718600	0.516000	0.598200
O271	O27	0.527000	0.605000	0.546600
O281	O28	0.070400	0.311300	0.177200
O291	O29	0.906200	0.373200	0.116700
O301	O30	0.759500	0.723700	0.263800
O311	O31	0.041500	0.504800	0.157600
O321	O32	0.564000	0.255200	0.398600
O331	O33	0.885600	0.502400	0.019200
O341	O34	0.587700	0.300800	0.288900
O351	O35	0.683000	0.604000	0.402400
O361	O36	0.184000	0.594000	0.108600
O371	O37	0.816000	0.406000	0.891400
O381	O38	0.183000	0.396000	0.097600
O391	O39	0.965000	0.404000	0.028000
O401	O40	0.298800	0.668200	0.905200
O411	O41	0.973000	0.605000	0.046600
O421	O42	0.201200	0.668200	0.405200
O431	O43	0.422200	0.783000	0.251800
O441	O44	0.744000	0.611600	0.012400
O451	O45	0.535000	0.404000	0.528000
O461	O46	0.952700	0.948300	0.705100
O471	O47	0.047300	0.051700	0.294900
O481	O48	0.954000	0.731000	0.947500
O491	O49	0.077800	0.783000	0.751800
O501	O50	0.235000	0.585300	0.505500
O511	O51	0.877000	0.753000	0.056800
O521	O52	0.473000	0.395000	0.453400
O531	O53	0.858000	0.271600	0.012900
O541	O54	0.566300	0.107800	0.199000
O551	O55	0.570400	0.688700	0.322800
O561	O56	0.817000	0.604000	0.902400
O571	O57	0.550700	0.609500	0.194800
O581	O58	0.528200	0.448600	0.188700
O591	O59	0.454000	0.269000	0.552500
O601	O60	0.756000	0.611600	0.512400
O611	O61	0.917800	0.734500	0.293900
O621	O62	0.093800	0.626800	0.883300
O631	O63	0.070000	0.494800	0.060500
O641	O64	0.142000	0.728400	0.987100
O651	O65	0.765000	0.414700	0.494500
O661	O66	0.232300	0.791000	0.789600
O671	O67	0.050700	0.390500	0.305200
O681	O68	0.046000	0.269000	0.052500
O691	O69	0.547300	0.948300	0.205100
O701	O70	0.259500	0.276300	0.236200
O711	O71	0.684000	0.406000	0.391400
O721	O72	0.064000	0.744800	0.101400
O731	O73	0.267700	0.791000	0.289600
O741	O74	0.936000	0.255200	0.898600
O751	O75	0.735000	0.414700	0.994500
O761	O76	0.218600	0.484000	0.901800
O771	O77	0.385600	0.497600	0.480800
O781	O78	0.798800	0.331800	0.594800
O791	O79	0.256000	0.388400	0.987600
O801	O80	0.929600	0.688700	0.822800
O811	O81	0.265000	0.585300	0.005500
O821	O82	0.458500	0.504800	0.657600
O831	O83	0.417800	0.265500	0.206100
O841	O84	0.035000	0.596000	0.972000
O851	O85	0.123000	0.247000	0.943200
O861	O86	0.316000	0.594000	0.608600
O871	O87	0.430000	0.494800	0.560500
O881	O88	0.949300	0.609500	0.694800
O891	O89	0.930000	0.505200	0.939500
O901	O90	0.418000	0.356500	0.357800
O911	O91	0.406200	0.626800	0.383300
O921	O92	0.642000	0.271600	0.512900
O931	O93	0.933700	0.107800	0.699000
O941	O94	0.593800	0.373200	0.616700
O951	O95	0.577800	0.217000	0.748200
O961	O96	0.317000	0.396000	0.597600
O971	O97	0.433700	0.892200	0.801000
O981	O98	0.377000	0.247000	0.443200
O991	O99	0.767700	0.209000	0.210400
O1001	O100	0.918000	0.643500	0.142200
O1011	O101	0.971800	0.448600	0.688700
O1021	O102	0.358000	0.728400	0.487100
O1031	O103	0.066300	0.892200	0.301000
O1041	O104	0.780100	0.710900	0.630600
O1051	O105	0.546000	0.731000	0.447500
O1061	O106	0.471800	0.551400	0.811300
O1071	O107	0.570000	0.505200	0.439500
O1081	O108	0.732300	0.209000	0.710400
O1091	O109	0.219900	0.289100	0.369400
O1101	O110	0.027000	0.395000	0.953400
O1111	O111	0.614400	0.502400	0.519200
O1121	O112	0.452700	0.051700	0.794900
