data_BIYTOU_clean_PM
_symmetry_space_group_name_H-M	'P1'
_cell_length_a	13.257900
_cell_length_b	11.438000
_cell_length_c	28.745000
_cell_angle_alpha	90.000000
_cell_angle_beta	99.887000
_cell_angle_gamma	90.000000
_symmetry_Int_Tables_number 1

loop_
_symmetry_equiv_pos_as_xyz
'x,y,z'

loop_
_atom_site_label
_atom_site_type_symbol
_atom_site_fract_x
_atom_site_fract_y
_atom_site_fract_z
Mn11	Mn1	0.958990	0.548890	0.668630
Mn21	Mn2	0.146600	0.828550	0.635500
Mn31	Mn3	0.714720	0.797800	0.856880
O11	O1	0.985400	0.864200	0.629880
O21	O2	0.559600	0.751300	0.862790
O31	O3	0.173700	0.519900	0.385610
O41	O4	0.050700	0.524100	0.615720
O51	O5	0.897700	0.720400	0.657340
O61	O6	0.645400	0.035800	0.781010
O71	O7	0.230300	0.666000	0.432850
O81	O8	0.484000	0.876300	0.807850
O91	O9	0.080600	0.600100	0.724280
O101	O10	0.163400	0.758900	0.704680
O111	O11	0.141400	0.674300	0.594320
O121	O12	0.710100	0.854400	0.787210
N11	N1	0.783400	0.109500	0.667480
N21	N2	0.325500	0.511200	0.827300
N31	N3	0.108200	0.327100	0.501910
C11	C1	0.851100	0.914600	0.670170
C21	C2	0.398300	0.701100	0.818030
C31	C3	0.241800	0.645000	0.768800
C41	C4	0.119400	0.507900	0.545420
C51	C5	0.318800	0.726400	0.781940
H11	H1	0.316700	0.799400	0.766100
C61	C6	0.918000	0.825800	0.650660
C71	C7	0.841500	0.026400	0.652120
H21	H2	0.878000	0.045900	0.627500
C81	C8	0.152800	0.565400	0.508530
H31	H3	0.170200	0.646000	0.511200
C91	C9	0.102200	0.575000	0.589030
C101	C10	0.398000	0.592600	0.840560
H41	H4	0.451300	0.575700	0.866300
C111	C11	0.190100	0.566600	0.426290
C121	C12	0.746000	0.973600	0.725580
C131	C13	0.249300	0.538500	0.792070
H51	H5	0.197600	0.481700	0.782500
C141	C14	0.154600	0.668800	0.728980
C151	C15	0.801600	0.887000	0.707440
H61	H6	0.805700	0.810400	0.720300
C161	C16	0.737100	0.082800	0.704050
H71	H7	0.696700	0.140800	0.715700
C171	C17	0.487000	0.783200	0.831090
C181	C18	0.160600	0.503900	0.467520
C191	C19	0.137400	0.384700	0.466370
H81	H8	0.142900	0.342300	0.438500
C201	C20	0.695800	0.953200	0.768390
C211	C21	0.098500	0.389500	0.540620
H91	H9	0.076000	0.350100	0.566100
Mn41	Mn4	0.541010	0.048890	0.831370
Mn51	Mn5	0.353400	0.328550	0.864500
Mn61	Mn6	0.785280	0.297800	0.643120
O131	O13	0.514600	0.364200	0.870120
O141	O14	0.940400	0.251300	0.637210
O151	O15	0.326300	0.019900	0.114390
O161	O16	0.449300	0.024100	0.884280
O171	O17	0.602300	0.220400	0.842660
O181	O18	0.854600	0.535800	0.718990
O191	O19	0.269700	0.166000	0.067150
O201	O20	0.016000	0.376300	0.692150
O211	O21	0.419400	0.100100	0.775720
O221	O22	0.336600	0.258900	0.795320
O231	O23	0.358600	0.174300	0.905680
O241	O24	0.789900	0.354400	0.712790
N41	N4	0.716600	0.609500	0.832520
N51	N5	0.174500	0.011200	0.672700
N61	N6	0.391800	0.827100	0.998090
C221	C22	0.648900	0.414600	0.829830
C231	C23	0.101700	0.201100	0.681970
C241	C24	0.258200	0.145000	0.731200
C251	C25	0.380600	0.007900	0.954580
C261	C26	0.181200	0.226400	0.718060
H101	H10	0.183300	0.299400	0.733900
C271	C27	0.582000	0.325800	0.849340
C281	C28	0.658500	0.526400	0.847880
H111	H11	0.622000	0.545900	0.872500
C291	C29	0.347200	0.065400	0.991470
H121	H12	0.329800	0.146000	0.988800
C301	C30	0.397800	0.075000	0.910970
C311	C31	0.102000	0.092600	0.659440
H131	H13	0.048700	0.075700	0.633700
C321	C32	0.309900	0.066600	0.073710
C331	C33	0.754000	0.473600	0.774420
C341	C34	0.250700	0.038500	0.707930
H141	H14	0.302400	0.981700	0.717500
C351	C35	0.345400	0.168800	0.771020
C361	C36	0.698400	0.387000	0.792560
H151	H15	0.694300	0.310400	0.779700
C371	C37	0.762900	0.582800	0.795950
H161	H16	0.803300	0.640800	0.784300
C381	C38	0.013000	0.283200	0.668910
C391	C39	0.339400	0.003900	0.032480
C401	C40	0.362600	0.884700	0.033630
H171	H17	0.357100	0.842300	0.061500
C411	C41	0.804200	0.453200	0.731610
C421	C42	0.401500	0.889500	0.959380
H181	H18	0.424000	0.850100	0.933900
Mn71	Mn7	0.041010	0.451110	0.331370
Mn81	Mn8	0.853400	0.171450	0.364500
Mn91	Mn9	0.285280	0.202200	0.143120
O251	O25	0.014600	0.135800	0.370120
O261	O26	0.440400	0.248700	0.137210
O271	O27	0.826300	0.480100	0.614390
O281	O28	0.949300	0.475900	0.384280
O291	O29	0.102300	0.279600	0.342660
O301	O30	0.354600	0.964200	0.218990
O311	O31	0.769700	0.334000	0.567150
O321	O32	0.516000	0.123700	0.192150
O331	O33	0.919400	0.399900	0.275720
O341	O34	0.836600	0.241100	0.295320
O351	O35	0.858600	0.325700	0.405680
O361	O36	0.289900	0.145600	0.212790
N71	N7	0.216600	0.890500	0.332520
N81	N8	0.674500	0.488800	0.172700
N91	N9	0.891800	0.672900	0.498090
C431	C43	0.148900	0.085400	0.329830
C441	C44	0.601700	0.298900	0.181970
C451	C45	0.758200	0.355000	0.231200
C461	C46	0.880600	0.492100	0.454580
C471	C47	0.681200	0.273600	0.218060
H191	H19	0.683300	0.200600	0.233900
C481	C48	0.082000	0.174200	0.349340
C491	C49	0.158500	0.973600	0.347880
H201	H20	0.122000	0.954100	0.372500
C501	C50	0.847200	0.434600	0.491470
H211	H21	0.829800	0.354000	0.488800
C511	C51	0.897800	0.425000	0.410970
C521	C52	0.602000	0.407400	0.159440
H221	H22	0.548700	0.424300	0.133700
C531	C53	0.809900	0.433400	0.573710
C541	C54	0.254000	0.026400	0.274420
C551	C55	0.750700	0.461500	0.207930
H231	H23	0.802400	0.518300	0.217500
C561	C56	0.845400	0.331200	0.271020
C571	C57	0.198400	0.113000	0.292560
H241	H24	0.194300	0.189600	0.279700
C581	C58	0.262900	0.917200	0.295950
H251	H25	0.303300	0.859200	0.284300
C591	C59	0.513000	0.216800	0.168910
C601	C60	0.839400	0.496100	0.532480
C611	C61	0.862600	0.615300	0.533630
H261	H26	0.857100	0.657700	0.561500
C621	C62	0.304200	0.046800	0.231610
C631	C63	0.901500	0.610500	0.459380
H271	H27	0.924000	0.649900	0.433900
Mn101	Mn10	0.458990	0.951110	0.168630
Mn111	Mn11	0.646600	0.671450	0.135500
Mn121	Mn12	0.214720	0.702200	0.356880
O371	O37	0.485400	0.635800	0.129880
O381	O38	0.059600	0.748700	0.362790
O391	O39	0.673700	0.980100	0.885610
O401	O40	0.550700	0.975900	0.115720
O411	O41	0.397700	0.779600	0.157340
O421	O42	0.145400	0.464200	0.281010
O431	O43	0.730300	0.834000	0.932850
O441	O44	0.984000	0.623700	0.307850
O451	O45	0.580600	0.899900	0.224280
O461	O46	0.663400	0.741100	0.204680
O471	O47	0.641400	0.825700	0.094320
O481	O48	0.210100	0.645600	0.287210
N101	N10	0.283400	0.390500	0.167480
N111	N11	0.825500	0.988800	0.327300
N121	N12	0.608200	0.172900	0.001910
C641	C64	0.351100	0.585400	0.170170
C651	C65	0.898300	0.798900	0.318030
C661	C66	0.741800	0.855000	0.268800
C671	C67	0.619400	0.992100	0.045420
C681	C68	0.818800	0.773600	0.281940
H281	H28	0.816700	0.700600	0.266100
C691	C69	0.418000	0.674200	0.150660
C701	C70	0.341500	0.473600	0.152120
H291	H29	0.378000	0.454100	0.127500
C711	C71	0.652800	0.934600	0.008530
H301	H30	0.670200	0.854000	0.011200
C721	C72	0.602200	0.925000	0.089030
C731	C73	0.898000	0.907400	0.340560
H311	H31	0.951300	0.924300	0.366300
C741	C74	0.690100	0.933400	0.926290
C751	C75	0.246000	0.526400	0.225580
C761	C76	0.749300	0.961500	0.292070
H321	H32	0.697600	0.018300	0.282500
C771	C77	0.654600	0.831200	0.228980
C781	C78	0.301600	0.613000	0.207440
H331	H33	0.305700	0.689600	0.220300
C791	C79	0.237100	0.417200	0.204050
H341	H34	0.196700	0.359200	0.215700
C801	C80	0.987000	0.716800	0.331090
C811	C81	0.660600	0.996100	0.967520
C821	C82	0.637400	0.115300	0.966370
H351	H35	0.642900	0.157700	0.938500
C831	C83	0.195800	0.546800	0.268390
C841	C84	0.598500	0.110500	0.040620
H361	H36	0.576000	0.149900	0.066100
