data_BIYTAG_clean_PM
_symmetry_space_group_name_H-M	'P1'
_cell_length_a	8.116200
_cell_length_b	30.284200
_cell_length_c	15.670900
_cell_angle_alpha	90.000000
_cell_angle_beta	90.000000
_cell_angle_gamma	90.000000
_symmetry_Int_Tables_number 1

loop_
_symmetry_equiv_pos_as_xyz
'x,y,z'

loop_
_atom_site_label
_atom_site_type_symbol
_atom_site_fract_x
_atom_site_fract_y
_atom_site_fract_z
Ce11	Ce1	0.439110	0.908690	0.703930
O11	O1	0.662500	0.868610	0.816200
O21	O2	0.386500	0.039330	0.387100
O31	O3	0.248300	0.962070	0.651200
O41	O4	0.493300	0.830220	0.734500
O51	O5	0.234300	0.094760	0.338300
O61	O6	0.002700	0.973800	0.709400
N11	N1	0.926400	0.083160	0.555000
C11	C1	0.601500	0.831810	0.791400
C21	C2	0.156800	0.060260	0.471000
C31	C3	0.023200	0.087050	0.486700
H11	H1	0.998600	0.109600	0.446600
C41	C4	0.115800	0.983130	0.658700
C51	C5	0.264000	0.064570	0.392800
C61	C6	0.959600	0.050070	0.609100
H21	H2	0.889000	0.046100	0.656900
C71	C7	0.654300	0.789630	0.831100
C81	C8	0.091800	0.021200	0.599200
C91	C9	0.751700	0.787670	0.903800
H31	H3	0.784600	0.814800	0.929200
C101	C10	0.193400	0.026920	0.529800
H41	H4	0.287000	0.008500	0.522000
Ce21	Ce2	0.060890	0.091310	0.203930
O71	O7	0.837500	0.131390	0.316200
O81	O8	0.113500	0.960670	0.887100
O91	O9	0.251700	0.037930	0.151200
O101	O10	0.006700	0.169780	0.234500
O111	O11	0.265700	0.905240	0.838300
O121	O12	0.497300	0.026200	0.209400
N21	N2	0.573600	0.916840	0.055000
C111	C11	0.898500	0.168190	0.291400
C121	C12	0.343200	0.939740	0.971000
C131	C13	0.476800	0.912950	0.986700
H51	H5	0.501400	0.890400	0.946600
C141	C14	0.384200	0.016870	0.158700
C151	C15	0.236000	0.935430	0.892800
C161	C16	0.540400	0.949930	0.109100
H61	H6	0.611000	0.953900	0.156900
C171	C17	0.845700	0.210370	0.331100
C181	C18	0.408200	0.978800	0.099200
C191	C19	0.748300	0.212330	0.403800
H71	H7	0.715400	0.185200	0.429200
C201	C20	0.306600	0.973080	0.029800
H81	H8	0.213000	0.991500	0.022000
Ce31	Ce3	0.560890	0.408690	0.296070
O131	O13	0.337500	0.368610	0.183800
O141	O14	0.613500	0.539330	0.612900
O151	O15	0.751700	0.462070	0.348800
O161	O16	0.506700	0.330220	0.265500
O171	O17	0.765700	0.594760	0.661700
O181	O18	0.997300	0.473800	0.290600
N31	N3	0.073600	0.583160	0.445000
C211	C21	0.398500	0.331810	0.208600
C221	C22	0.843200	0.560260	0.529000
C231	C23	0.976800	0.587050	0.513300
H91	H9	0.001400	0.609600	0.553400
C241	C24	0.884200	0.483130	0.341300
C251	C25	0.736000	0.564570	0.607200
C261	C26	0.040400	0.550070	0.390900
H101	H10	0.111000	0.546100	0.343100
C271	C27	0.345700	0.289630	0.168900
C281	C28	0.908200	0.521200	0.400800
C291	C29	0.248300	0.287670	0.096200
H111	H11	0.215400	0.314800	0.070800
C301	C30	0.806600	0.526920	0.470200
H121	H12	0.713000	0.508500	0.478000
Ce41	Ce4	0.939110	0.591310	0.796070
O191	O19	0.162500	0.631390	0.683800
O201	O20	0.886500	0.460670	0.112900
O211	O21	0.748300	0.537930	0.848800
O221	O22	0.993300	0.669780	0.765500
O231	O23	0.734300	0.405240	0.161700
O241	O24	0.502700	0.526200	0.790600
N41	N4	0.426400	0.416840	0.945000
C311	C31	0.101500	0.668190	0.708600
C321	C32	0.656800	0.439740	0.029000
C331	C33	0.523200	0.412950	0.013300
H131	H13	0.498600	0.390400	0.053400
C341	C34	0.615800	0.516870	0.841300
C351	C35	0.764000	0.435430	0.107200
C361	C36	0.459600	0.449930	0.890900
H141	H14	0.389000	0.453900	0.843100
C371	C37	0.154300	0.710370	0.668900
C381	C38	0.591800	0.478800	0.900800
C391	C39	0.251700	0.712330	0.596200
H151	H15	0.284600	0.685200	0.570800
C401	C40	0.693400	0.473080	0.970200
H161	H16	0.787000	0.491500	0.978000
Ce51	Ce5	0.560890	0.091310	0.296070
O251	O25	0.337500	0.131390	0.183800
O261	O26	0.613500	0.960670	0.612900
O271	O27	0.751700	0.037930	0.348800
O281	O28	0.506700	0.169780	0.265500
O291	O29	0.765700	0.905240	0.661700
O301	O30	0.997300	0.026200	0.290600
N51	N5	0.073600	0.916840	0.445000
C411	C41	0.398500	0.168190	0.208600
C421	C42	0.843200	0.939740	0.529000
C431	C43	0.976800	0.912950	0.513300
H171	H17	0.001400	0.890400	0.553400
C441	C44	0.884200	0.016870	0.341300
C451	C45	0.736000	0.935430	0.607200
C461	C46	0.040400	0.949930	0.390900
H181	H18	0.111000	0.953900	0.343100
C471	C47	0.345700	0.210370	0.168900
C481	C48	0.908200	0.978800	0.400800
C491	C49	0.248300	0.212330	0.096200
H191	H19	0.215400	0.185200	0.070800
C501	C50	0.806600	0.973080	0.470200
H201	H20	0.713000	0.991500	0.478000
Ce61	Ce6	0.939110	0.908690	0.796070
O311	O31	0.162500	0.868610	0.683800
O321	O32	0.886500	0.039330	0.112900
O331	O33	0.748300	0.962070	0.848800
O341	O34	0.993300	0.830220	0.765500
O351	O35	0.734300	0.094760	0.161700
O361	O36	0.502700	0.973800	0.790600
N61	N6	0.426400	0.083160	0.945000
C511	C51	0.101500	0.831810	0.708600
C521	C52	0.656800	0.060260	0.029000
C531	C53	0.523200	0.087050	0.013300
H211	H21	0.498600	0.109600	0.053400
C541	C54	0.615800	0.983130	0.841300
C551	C55	0.764000	0.064570	0.107200
C561	C56	0.459600	0.050070	0.890900
H221	H22	0.389000	0.046100	0.843100
C571	C57	0.154300	0.789630	0.668900
C581	C58	0.591800	0.021200	0.900800
C591	C59	0.251700	0.787670	0.596200
H231	H23	0.284600	0.814800	0.570800
C601	C60	0.693400	0.026920	0.970200
H241	H24	0.787000	0.008500	0.978000
Ce71	Ce7	0.439110	0.591310	0.703930
O371	O37	0.662500	0.631390	0.816200
O381	O38	0.386500	0.460670	0.387100
O391	O39	0.248300	0.537930	0.651200
O401	O40	0.493300	0.669780	0.734500
O411	O41	0.234300	0.405240	0.338300
O421	O42	0.002700	0.526200	0.709400
N71	N7	0.926400	0.416840	0.555000
C611	C61	0.601500	0.668190	0.791400
C621	C62	0.156800	0.439740	0.471000
C631	C63	0.023200	0.412950	0.486700
H251	H25	0.998600	0.390400	0.446600
C641	C64	0.115800	0.516870	0.658700
C651	C65	0.264000	0.435430	0.392800
C661	C66	0.959600	0.449930	0.609100
H261	H26	0.889000	0.453900	0.656900
C671	C67	0.654300	0.710370	0.831100
C681	C68	0.091800	0.478800	0.599200
C691	C69	0.751700	0.712330	0.903800
H271	H27	0.784600	0.685200	0.929200
C701	C70	0.193400	0.473080	0.529800
H281	H28	0.287000	0.491500	0.522000
Ce81	Ce8	0.060890	0.408690	0.203930
O431	O43	0.837500	0.368610	0.316200
O441	O44	0.113500	0.539330	0.887100
O451	O45	0.251700	0.462070	0.151200
O461	O46	0.006700	0.330220	0.234500
O471	O47	0.265700	0.594760	0.838300
O481	O48	0.497300	0.473800	0.209400
N81	N8	0.573600	0.583160	0.055000
C711	C71	0.898500	0.331810	0.291400
C721	C72	0.343200	0.560260	0.971000
C731	C73	0.476800	0.587050	0.986700
H291	H29	0.501400	0.609600	0.946600
C741	C74	0.384200	0.483130	0.158700
C751	C75	0.236000	0.564570	0.892800
C761	C76	0.540400	0.550070	0.109100
H301	H30	0.611000	0.546100	0.156900
C771	C77	0.845700	0.289630	0.331100
C781	C78	0.408200	0.521200	0.099200
C791	C79	0.748300	0.287670	0.403800
H311	H31	0.715400	0.314800	0.429200
C801	C80	0.306600	0.526920	0.029800
H321	H32	0.213000	0.508500	0.022000
N91	N9	0.802500	0.750000	0.940600
C811	C81	0.601000	0.750000	0.795300
H331	H33	0.529500	0.750000	0.747300
N101	N10	0.697500	0.250000	0.440600
C821	C82	0.899000	0.250000	0.295300
H341	H34	0.970500	0.250000	0.247300
N111	N11	0.197500	0.250000	0.059400
C831	C83	0.399000	0.250000	0.204700
H351	H35	0.470500	0.250000	0.252700
N121	N12	0.302500	0.750000	0.559400
C841	C84	0.101000	0.750000	0.704700
H361	H36	0.029500	0.750000	0.752700
