data_BIYYEP_charged_PM
_symmetry_space_group_name_H-M	'P1'
_cell_length_a	23.906100
_cell_length_b	24.039300
_cell_length_c	24.549600
_cell_angle_alpha	86.053000
_cell_angle_beta	61.602000
_cell_angle_gamma	61.498000
_symmetry_Int_Tables_number 1

loop_
_symmetry_equiv_pos_as_xyz
'x,y,z'

loop_
_atom_site_label
_atom_site_type_symbol
_atom_site_fract_x
_atom_site_fract_y
_atom_site_fract_z
Er11	Er1	0.366140	0.204000	0.846440
Er21	Er2	0.633860	0.796000	0.153560
Er31	Er3	0.860540	0.355290	0.704070
Er41	Er4	0.139460	0.644710	0.295930
Er51	Er5	0.760670	0.224300	0.257440
Er61	Er6	0.239330	0.775700	0.742560
H11	H1	0.939900	0.234300	0.449900
H21	H2	0.339600	0.429300	0.365900
H31	H3	0.097600	0.857700	0.937200
H41	H4	0.923800	0.244700	0.237900
H51	H5	0.765800	0.102700	0.368700
H61	H6	0.292600	0.656400	0.020200
H71	H7	0.225200	0.714000	0.342100
H81	H8	0.352600	0.587400	0.187500
H91	H9	0.547300	0.116900	0.667400
H101	H10	0.957000	0.664900	0.440500
H111	H11	0.128300	0.452800	0.184100
H121	H12	0.027600	0.906100	0.867800
H131	H13	0.173800	0.257100	0.646200
H141	H14	0.269000	0.107500	0.911100
H151	H15	0.710000	0.228600	0.692500
H161	H16	0.826200	0.742900	0.353800
H171	H17	0.890400	0.504300	0.679500
H181	H18	0.442000	0.442800	0.349700
H191	H19	0.580300	0.000600	0.901800
H201	H20	0.442800	0.435200	0.178900
H211	H21	0.063100	0.682300	0.185100
H221	H22	0.844300	0.008300	0.391600
H231	H23	0.330800	0.484900	0.182500
H241	H24	0.184700	0.089700	0.993500
H251	H25	0.437900	0.862700	0.732500
H261	H26	0.119000	0.845300	0.022700
H271	H27	0.601400	0.581100	0.244000
H281	H28	0.277700	0.149100	0.783600
H291	H29	0.082300	0.803500	0.118200
H301	H30	0.660400	0.570700	0.634100
H311	H31	0.331100	0.095800	0.977500
H321	H32	0.353800	0.311100	0.056700
H331	H33	0.225000	0.487800	0.370800
H341	H34	0.558000	0.557200	0.650300
H351	H35	0.963000	0.806400	0.413000
H361	H36	0.902400	0.142300	0.062800
H371	H37	0.871700	0.547200	0.815900
H381	H38	0.086300	0.253600	0.629600
H391	H39	0.415100	0.870500	0.217900
H401	H40	0.917700	0.196500	0.881800
H411	H41	0.707400	0.343600	0.979800
H421	H42	0.259100	0.061100	0.783800
H431	H43	0.324800	0.423300	0.061500
H441	H44	0.017700	0.256100	0.155100
H451	H45	0.023900	0.330300	0.830900
H461	H46	0.584900	0.129500	0.782100
H471	H47	0.422700	0.638200	0.139400
H481	H48	0.849400	0.595700	0.919300
H491	H49	0.178600	0.490400	0.879400
H501	H50	0.774900	0.332400	0.126700
H511	H51	0.026900	0.724400	0.494000
H521	H52	0.982300	0.743900	0.844900
H531	H53	0.731000	0.892500	0.088900
H541	H54	0.562100	0.137300	0.267500
H551	H55	0.893000	0.905600	0.392600
H561	H56	0.911300	0.639800	0.170900
H571	H57	0.766800	0.005900	0.149200
H581	H58	0.732800	0.381600	0.546600
H591	H59	0.092400	0.547800	0.230000
H601	H60	0.558500	0.387900	0.344700
H611	H61	0.685500	0.327000	0.419000
H621	H62	0.069500	0.099900	0.046600
H631	H63	0.957200	0.712400	0.953200
H641	H64	0.145900	0.810800	0.283300
H651	H65	0.899900	0.196200	0.416800
H661	H66	0.500600	0.326600	0.883700
H671	H67	0.130100	0.298600	0.957900
H681	H68	0.090300	0.789400	0.213900
H691	H69	0.081700	0.967800	0.815600
H701	H70	0.932100	0.612400	0.524800
H711	H71	0.594500	0.117300	0.567700
H721	H72	0.290400	0.646000	0.115000
H731	H73	0.833600	0.415100	0.129800
H741	H74	0.291000	0.524800	0.102000
H751	H75	0.184400	0.323400	0.013500
H761	H76	0.373500	0.056300	0.050600
H771	H77	0.432200	0.672000	0.576800
H781	H78	0.192400	0.920200	0.865900
H791	H79	0.475200	0.962400	0.166500
H801	H80	0.283300	0.629300	0.529100
H811	H81	0.067900	0.387600	0.475200
H821	H82	0.788400	0.597900	0.077100
H831	H83	0.567800	0.328000	0.423200
H841	H84	0.166400	0.584900	0.870200
H851	H85	0.432900	0.284100	0.922300
H861	H86	0.653000	0.292600	0.168900
H871	H87	0.646200	0.688900	0.943300
H881	H88	0.930500	0.900100	0.953400
H891	H89	0.863800	0.320700	0.177600
H901	H90	0.709000	0.475200	0.898000
H911	H91	0.641900	0.509100	0.300900
H921	H92	0.376900	0.223900	0.997300
H931	H93	0.775000	0.512200	0.629200
H941	H94	0.002200	0.945900	0.211700
H951	H95	0.524800	0.037600	0.833500
H961	H96	0.643300	0.145000	0.362200
H971	H97	0.936900	0.317700	0.814900
H981	H98	0.237800	0.581700	0.388000
H991	H99	0.042800	0.287600	0.046800
H1001	H100	0.464100	0.659900	0.820500
H1011	H101	0.913700	0.746400	0.370400
H1021	H102	0.150600	0.404300	0.080700
H1031	H103	0.060100	0.765700	0.550100
H1041	H104	0.577300	0.361800	0.860600
H1051	H105	0.535900	0.340100	0.179500
H1061	H106	0.261100	0.656900	0.947900
H1071	H107	0.336100	0.830400	0.253700
H1081	H108	0.329700	0.588000	0.665800
H1091	H109	0.973100	0.275600	0.506000
H1101	H110	0.467000	0.931600	0.750800
H1111	H111	0.533000	0.068400	0.249200
H1121	H112	0.397500	0.788500	0.743200
H1131	H113	0.976100	0.669700	0.169100
H1141	H114	0.043000	0.335100	0.559500
H1151	H115	0.180700	0.353400	0.856500
H1161	H116	0.441500	0.612100	0.655300
H1171	H117	0.881000	0.154700	0.977300
H1181	H118	0.972400	0.093900	0.132200
H1191	H119	0.076200	0.755300	0.762100
H1201	H120	0.738900	0.343100	0.052100
H1211	H121	0.037000	0.193600	0.587000
H1221	H122	0.626500	0.943700	0.949400
H1231	H123	0.864700	0.160600	0.358600
H1241	H124	0.573400	0.667600	0.203000
H1251	H125	0.774800	0.286000	0.657900
H1261	H126	0.426600	0.332400	0.797000
H1271	H127	0.225100	0.667600	0.873300
H1281	H128	0.596200	0.700500	0.281700
H1291	H129	0.925400	0.091700	0.731500
H1301	H130	0.602500	0.211500	0.256800
H1311	H131	0.670300	0.412000	0.334200
H1321	H132	0.821400	0.509600	0.120600
H1331	H133	0.869900	0.701400	0.042100
H1341	H134	0.314500	0.673000	0.581000
H1351	H135	0.488800	0.016200	0.737200
H1361	H136	0.136200	0.679300	0.822400
H1371	H137	0.234200	0.897300	0.631300
H1381	H138	0.669200	0.515100	0.817500
H1391	H139	0.260700	0.225200	0.669400
H1401	H140	0.997800	0.054100	0.788300
H1411	H141	0.088700	0.360200	0.829100
H1421	H142	0.211600	0.402100	0.922900
H1431	H143	0.290000	0.771400	0.307500
H1441	H144	0.709600	0.354000	0.885000
H1451	H145	0.663900	0.169600	0.746300
H1461	H146	0.912300	0.557900	0.595400
H1471	H147	0.907600	0.452200	0.770000
H1481	H148	0.534700	0.310900	0.522300
H1491	H149	0.561200	0.694900	0.390300
H1501	H150	0.605400	0.127500	0.465900
H1511	H151	0.135300	0.839400	0.641400
H1521	H152	0.419700	0.999400	0.098200
H1531	H153	0.819300	0.646600	0.143500
H1541	H154	0.267200	0.618400	0.453400
H1551	H155	0.909700	0.210600	0.786100
H1561	H156	0.716700	0.370700	0.470900
H1571	H157	0.658200	0.778400	0.305300
H1581	H158	0.854100	0.189200	0.716700
H1591	H159	0.722300	0.850900	0.216400
H1601	H160	0.511200	0.983800	0.262800
H1611	H161	0.074600	0.908300	0.268500
H1621	H162	0.668900	0.904200	0.022500
H1631	H163	0.623100	0.776100	0.002700
H1641	H164	0.233200	0.994100	0.850800
H1651	H165	0.762200	0.418300	0.612000
H1661	H166	0.740900	0.938900	0.216200
H1671	H167	0.155700	0.991700	0.608400
H1681	H168	0.356700	0.855000	0.637800
H1691	H169	0.465300	0.689100	0.477700
H1701	H170	0.405500	0.882700	0.432300
H1711	H171	0.807600	0.079800	0.134100
H1721	H172	0.087700	0.442100	0.404600
H1731	H173	0.438800	0.305100	0.609700
H1741	H174	0.567100	0.715900	0.077700
H1751	H175	0.394600	0.872500	0.534100
H1761	H176	0.100100	0.803800	0.583200
H1771	H177	0.739300	0.774800	0.330600
H1781	H178	0.815600	0.676600	0.986500
H1791	H179	0.398600	0.418900	0.756000
H1801	H180	0.341800	0.221600	0.694700
H1811	H181	0.452700	0.883100	0.332600
H1821	H182	0.675200	0.576700	0.938500
H1831	H183	0.107000	0.094400	0.607400
H1841	H184	0.557200	0.564800	0.821100
H1851	H185	0.347000	0.707400	0.831100
H1861	H186	0.109600	0.495700	0.320500
H1871	H187	0.918300	0.032200	0.184400
H1881	H188	0.647400	0.412600	0.812500
H1891	H189	0.358100	0.490900	0.699100
H1901	H190	0.815300	0.910300	0.006500
H1911	H191	0.403800	0.299500	0.718300
H1921	H192	0.499400	0.673400	0.116300
C11	C1	0.139900	0.330500	0.802600
C21	C2	0.663200	0.557700	0.670600
C31	C3	0.623600	0.635000	0.186200
C41	C4	0.315500	0.105600	0.775100
C51	C5	0.567900	0.170900	0.802900
C61	C6	0.950800	0.815800	0.909000
C71	C7	0.521300	0.738100	0.116200
C81	C8	0.424800	0.713100	0.567500
C91	C9	0.389500	0.676500	0.794200
C101	C10	0.732900	0.048400	0.174400
C111	C11	0.520900	0.608700	0.734000
C121	C12	0.804800	0.672400	0.180500
C131	C13	0.770900	0.540700	0.136400
C141	C14	0.188100	0.930900	0.663600
C151	C15	0.362600	0.832200	0.765000
C161	C16	0.684500	0.894400	0.224900
C171	C17	0.181000	0.717700	0.548700
C181	C18	0.750100	0.314700	0.941800
C191	C19	0.558900	0.975700	0.250700
C201	C20	0.591800	0.255900	0.804900
C211	C21	0.781000	0.681000	0.975100
C221	C22	0.570500	0.025700	0.243800
C231	C23	0.229100	0.459300	0.863600
C241	C24	0.637400	0.167800	0.235000
C251	C25	0.198200	0.584200	0.827700
C261	C26	0.985500	0.825800	0.381300
C271	C27	0.046600	0.024300	0.756100
C281	C28	0.131800	0.816500	0.938900
C291	C29	0.387000	0.876100	0.756100
C301	C30	0.730000	0.299600	0.418600
C311	C31	0.290200	0.248500	0.722200
C321	C32	0.870300	0.239400	0.825400
C331	C33	0.037900	0.312600	0.790000
C341	C34	0.406600	0.050400	0.006900
C351	C35	0.049200	0.184200	0.091000
C361	C36	0.968700	0.587400	0.483200
C371	C37	0.695400	0.946700	0.222200
C381	C38	0.757100	0.749400	0.292000
C391	C39	0.399300	0.444400	0.217600
C401	C40	0.256900	0.509900	0.119100
C411	C41	0.247900	0.370400	0.075400
C421	C42	0.429500	0.974300	0.756200
C431	C43	0.619400	0.179500	0.396300
C441	C44	0.096300	0.726600	0.519300
C451	C45	0.820800	0.250200	0.996500
C461	C46	0.432100	0.829100	0.197100
C471	C47	0.141100	0.807800	0.992600
C481	C48	0.860100	0.669500	0.197400
C491	C49	0.200600	0.618300	0.421600
C501	C50	0.470700	0.984000	0.081200
C511	C51	0.249900	0.685300	0.058200
C521	C52	0.667200	0.523800	0.779900
C531	C53	0.165400	0.694500	0.510900
C541	C54	0.945200	0.884000	0.367700
C551	C55	0.941300	0.512100	0.586300
C561	C56	0.554300	0.381100	0.309500
C571	C57	0.481200	0.714700	0.138300
C581	C58	0.670000	0.737800	0.986300
C591	C59	0.906100	0.170900	0.695800
C601	C60	0.129700	0.760600	0.174600
C611	C61	0.555300	0.736700	0.314900
C621	C62	0.058700	0.487900	0.413700
C631	C63	0.641900	0.011100	0.227800
C641	C64	0.014500	0.174200	0.618700
C651	C65	0.246700	0.677400	0.115400
C661	C66	0.069400	0.030300	0.695100
C671	C67	0.977500	0.913500	0.318300
C681	C68	0.017700	0.873200	0.863600
C691	C69	0.791000	0.295500	0.099200
C701	C70	0.595600	0.574100	0.731500
C711	C71	0.127700	0.771600	0.115000
C721	C72	0.074300	0.267100	0.671100
C731	C73	0.222200	0.143500	0.939600
C741	C74	0.089400	0.250500	0.020400
C751	C75	0.489100	0.012900	0.978200
C761	C76	0.182900	0.641000	0.799900
C771	C77	0.709800	0.751500	0.277800
C781	C78	0.380600	0.820500	0.603700
C791	C79	0.530000	0.157600	0.655500
C801	C80	0.185700	0.739500	0.057100
C811	C81	0.226200	0.430500	0.112600
C821	C82	0.733300	0.300800	0.699400
C831	C83	0.443900	0.843100	0.402800
C841	C84	0.479100	0.391300	0.266000
C851	C85	0.556100	0.156900	0.597200
C861	C86	0.730300	0.523200	0.667500
C871	C87	0.334400	0.938400	0.782900
C881	C88	0.267100	0.951600	0.825600
C891	C89	0.459800	0.649200	0.786700
C901	C90	0.753300	0.322600	0.884600
C911	C91	0.046600	0.784600	0.801600
C921	C92	0.404400	0.425900	0.268500
C931	C93	0.751000	0.593400	0.112500
C941	C94	0.593400	0.949600	0.993100
C951	C95	0.991400	0.776500	0.851300
C961	C96	0.145400	0.774100	0.581400
C971	C97	0.752100	0.629600	0.924600
C981	C98	0.962100	0.687400	0.210000
C991	C99	0.022500	0.086500	0.681700
C1001	C100	0.817100	0.359000	0.200100
C1011	C101	0.304600	0.053300	0.777800
C1021	C102	0.383300	0.654600	0.182000
C1031	C103	0.444700	0.263300	0.685100
C1041	C104	0.665600	0.061600	0.217100
C1051	C105	0.161400	0.468700	0.165700
C1061	C106	0.593900	0.170000	0.458700
C1071	C107	0.868200	0.183500	0.061100
C1081	C108	0.199600	0.368600	0.062200
C1091	C109	0.179200	0.749800	0.003500
C1101	C110	0.610500	0.323500	0.205800
C1111	C111	0.242100	0.908100	0.836400
C1121	C112	0.139900	0.523500	0.193700
C1131	C113	0.441100	0.024300	0.749300
C1141	C114	0.782000	0.359000	0.538600
C1151	C115	0.266700	0.699200	0.300600
C1161	C116	0.634400	0.288900	0.779600
C1171	C117	0.858900	0.192200	0.007400
C1181	C118	0.743100	0.490100	0.880900
C1191	C119	0.834600	0.305500	0.489100
C1201	C120	0.711400	0.531200	0.188900
C1211	C121	0.376400	0.365000	0.813800
C1221	C122	0.858900	0.743200	0.032800
C1231	C123	0.339900	0.625700	0.210500
C1241	C124	0.614700	0.195500	0.780000
C1251	C125	0.449600	0.777200	0.487500
C1261	C126	0.015100	0.693600	0.218700
C1271	C127	0.801800	0.415800	0.172300
C1281	C128	0.575200	0.286900	0.432500
C1291	C129	0.961500	0.868900	0.915000
C1301	C130	0.242900	0.250600	0.708000
C1311	C131	0.872300	0.228400	0.885000
C1321	C132	0.495200	0.043400	0.877900
C1331	C133	0.837100	0.708500	0.249300
C1341	C134	0.270000	0.700400	0.581400
C1351	C135	0.811900	0.069100	0.336400
C1361	C136	0.777300	0.303000	0.050700
C1371	C137	0.471200	0.785300	0.425000
C1381	C138	0.860100	0.476500	0.806300
C1391	C139	0.510900	0.987100	0.021800
C1401	C140	0.447700	0.723500	0.509000
C1411	C141	0.757900	0.091900	0.163600
C1421	C142	0.296100	0.586600	0.706500
C1431	C143	0.074000	0.518800	0.362900
C1441	C144	0.613000	0.123900	0.243900
C1451	C145	0.261300	0.530100	0.788200
C1461	C146	0.077000	0.703300	0.483400
C1471	C147	0.103700	0.191600	0.036200
C1481	C148	0.385300	0.804500	0.220000
C1491	C149	0.660100	0.374300	0.789500
C1501	C150	0.359000	0.416500	0.790700
C1511	C151	0.252600	0.673500	0.549800
C1521	C152	0.484600	0.410400	0.313900
C1531	C153	0.738700	0.469900	0.211800
C1541	C154	0.336800	0.442300	0.329400
C1551	C155	0.799400	0.381700	0.578400
C1561	C156	0.478700	0.261900	0.883800
C1571	C157	0.617800	0.923800	0.036800
C1581	C158	0.819000	0.282300	0.451300
C1591	C159	0.219000	0.319000	0.024900
C1601	C160	0.926000	0.481200	0.637100
C1611	C161	0.249000	0.406600	0.887500
C1621	C162	0.330000	0.262200	0.013700
C1631	C163	0.031300	0.412600	0.516800
C1641	C164	0.896300	0.808400	0.963800
C1651	C165	0.305200	0.734300	0.280700
C1661	C166	0.195200	0.327600	0.819500
C1671	C167	0.533400	0.732800	0.379200
C1681	C168	0.016900	0.380900	0.565700
C1691	C169	0.854600	0.225900	0.418600
C1701	C170	0.445700	0.618900	0.690500
C1711	C171	0.332800	0.476200	0.220100
C1721	C172	0.724600	0.548800	0.906200
C1731	C173	0.222700	0.697000	0.949300
C1741	C174	0.892900	0.706300	0.259000
C1751	C175	0.686500	0.470400	0.274400
C1761	C176	0.504800	0.956600	0.122100
C1771	C177	0.316700	0.314100	0.049800
C1781	C178	0.515400	0.589600	0.686100
C1791	C179	0.167100	0.797100	0.615800
C1801	C180	0.006500	0.517200	0.474700
C1811	C181	0.825100	0.867600	0.011600
C1821	C182	0.529300	0.016000	0.918800
C1831	C183	0.408200	0.744100	0.195100
C1841	C184	0.910600	0.749500	0.979600
C1851	C185	0.313500	0.529600	0.725600
C1861	C186	0.406100	0.830000	0.541300
C1871	C187	0.747400	0.326500	0.450200
C1881	C188	0.600700	0.555600	0.782400
C1891	C189	0.953400	0.975700	0.243900
C1901	C190	0.141100	0.256800	0.967200
C1911	C191	0.540200	0.350800	0.213300
C1921	C192	0.641000	0.583500	0.209300
C1931	C193	0.466600	0.267200	0.620800
C1941	C194	0.616700	0.345400	0.818000
C1951	C195	0.054800	0.116000	0.632300
C1961	C196	0.773800	0.569500	0.887400
C1971	C197	0.528800	0.214700	0.575000
C1981	C198	0.953400	0.215400	0.198400
C1991	C199	0.861400	0.014000	0.349200
C2001	C200	0.930600	0.969700	0.304900
C2011	C201	0.552300	0.276500	0.491000
C2021	C202	0.984900	0.306400	0.781300
C2031	C203	0.777800	0.856500	0.060400
C2041	C204	0.269700	0.476800	0.332500
C2051	C205	0.038500	0.131100	0.085000
C2061	C206	0.096600	0.971900	0.772800
C2071	C207	0.470000	0.842400	0.344500
C2081	C208	0.008600	0.223500	0.148700
C2091	C209	0.382200	0.076200	0.963200
C2101	C210	0.518800	0.285300	0.861700
C2111	C211	0.923000	0.296700	0.516600
C2121	C212	0.174900	0.132400	0.988400
C2131	C213	0.209000	0.704500	0.900800
C2141	C214	0.288600	0.468800	0.811100
C2151	C215	0.832900	0.202900	0.384200
C2161	C216	0.138600	0.986000	0.650800
C2171	C217	0.162900	0.291500	0.750700
C2181	C218	0.874300	0.729400	0.319100
C2191	C219	0.838600	0.531300	0.834300
C2201	C220	0.125700	0.270600	0.680900
C2211	C221	0.703900	0.413400	0.293500
C2221	C222	0.093900	0.829100	0.304200
C2231	C223	0.993500	0.482800	0.525300
C2241	C224	0.925700	0.732900	0.328900
C2251	C225	0.948800	0.114100	0.705700
C2261	C226	0.218000	0.641000	0.461400
C2271	C227	0.983100	0.619100	0.434300
C2281	C228	0.051200	0.885900	0.294300
C2291	C229	0.903700	0.273400	0.480700
C2301	C230	0.982300	0.126800	0.136400
C2311	C231	0.275400	0.451200	0.093800
C2321	C232	0.107100	0.293700	0.741000
C2331	C233	0.903400	0.028100	0.227200
C2341	C234	0.800400	0.631400	0.937800
C2351	C235	0.814300	0.260500	0.942900
C2361	C236	0.683300	0.685900	0.950200
C2371	C237	0.365600	0.711100	0.220400
C2381	C238	0.358100	0.988900	0.772200
C2391	C239	0.550400	0.222800	0.512500
C2401	C240	0.694800	0.265700	0.719300
N11	N1	0.963900	0.418500	0.622300
N21	N2	0.616100	0.342300	0.252500
N31	N3	0.717100	0.737900	0.999400
N41	N4	0.813200	0.289400	0.829100
N51	N5	0.425600	0.074400	0.905400
N61	N6	0.940100	0.169600	0.193700
N71	N7	0.678500	0.642200	0.136900
N81	N8	0.708000	0.150800	0.196900
N91	N9	0.938900	0.200900	0.655500
N101	N10	0.292000	0.849200	0.803100
N111	N11	0.059900	0.830400	0.806300
N121	N12	0.385200	0.088800	0.759100
N131	N13	0.284100	0.649400	0.266500
N141	N14	0.128900	0.650700	0.433500
N151	N15	0.767600	0.241300	0.388200
N161	N16	0.383900	0.657700	0.747500
N171	N17	0.792400	0.795100	0.072400
N181	N18	0.515300	0.794900	0.301800
N191	N19	0.988400	0.718000	0.282000
N201	N20	0.766300	0.359400	0.257200
N211	N21	0.871100	0.349300	0.566500
N221	N22	0.282900	0.262100	0.000600
N231	N23	0.484700	0.205100	0.698200
N241	N24	0.829100	0.233200	0.108900
N251	N25	0.188900	0.546400	0.168800
N261	N26	0.321500	0.357800	0.863100
N271	N27	0.233700	0.640600	0.742800
N281	N28	0.036100	0.581500	0.377700
N291	N29	0.614800	0.911200	0.240900
N301	N30	0.262100	0.287500	0.779700
N311	N31	0.162300	0.931200	0.727100
N321	N32	0.232400	0.758700	0.611800
N331	N33	0.011600	0.282000	0.718000
N341	N34	0.186800	0.710600	0.170900
N351	N35	0.811100	0.453600	0.831200
N361	N36	0.207600	0.204900	0.927600
N371	N37	0.737900	0.712500	0.220300
N381	N38	0.610400	0.233700	0.386200
N391	N39	0.269600	0.495300	0.276400
N401	N40	0.837700	0.068800	0.272900
N411	N41	0.715900	0.350600	0.733500
N421	N42	0.574400	0.925600	0.094600
N431	N43	0.500200	0.202500	0.852400
N441	N44	0.499800	0.797500	0.147600
N451	N45	0.389600	0.766300	0.613800
N461	N46	0.730400	0.504700	0.723600
N471	N47	0.061100	0.799100	0.344500
N481	N48	0.170900	0.766800	0.891100
O11	O1	0.808700	0.302300	0.780400
O21	O2	0.168600	0.603200	0.195900
O31	O3	0.899500	0.258000	0.643000
O41	O4	0.100500	0.742000	0.357000
O51	O5	0.949500	0.386800	0.669000
O61	O6	0.116800	0.833100	0.758300
O71	O7	0.602100	0.899300	0.132400
O81	O8	0.782200	0.305600	0.280600
O91	O9	0.463700	0.207800	0.759800
O101	O10	0.696700	0.783300	0.041700
O111	O11	0.680400	0.324300	0.245700
O121	O12	0.883200	0.166900	0.241700
O131	O13	0.743700	0.221300	0.358100
O141	O14	0.959900	0.275600	0.711600
O151	O15	0.642900	0.240800	0.324000
O161	O16	0.162000	0.770700	0.843800
O171	O17	0.838000	0.229300	0.156200
O181	O18	0.543600	0.820400	0.126500
O191	O19	0.357100	0.759200	0.676000
O201	O20	0.884500	0.368700	0.601500
O211	O21	0.319600	0.675700	0.754300
O221	O22	0.797500	0.470000	0.718700
O231	O23	0.602400	0.860500	0.242200
O241	O24	0.752100	0.381900	0.708900
O251	O25	0.661100	0.695900	0.112900
O261	O26	0.050500	0.613200	0.331000
O271	O27	0.202500	0.530000	0.281300
O281	O28	0.397900	0.100700	0.867600
O291	O29	0.456400	0.179600	0.873500
O301	O30	0.209300	0.882500	0.742500
O311	O31	0.397600	0.139500	0.757800
O321	O32	0.303300	0.216700	0.958300
O331	O33	0.115500	0.631300	0.398500
O341	O34	0.536300	0.792200	0.240200
O351	O35	0.790700	0.117500	0.257500
O361	O36	0.745600	0.789300	0.125600
O371	O37	0.256300	0.778700	0.641900
O381	O38	0.254400	0.210700	0.874400
O391	O39	0.338900	0.304100	0.887100
O401	O40	0.686000	0.718700	0.204200
O411	O41	0.831400	0.396800	0.804100
O421	O42	0.247900	0.618100	0.291100
O431	O43	0.217800	0.694400	0.719400
O441	O44	0.314000	0.281300	0.795800
O451	O45	0.730300	0.194800	0.190000
O461	O46	0.269700	0.805200	0.810000
O471	O47	0.040100	0.724400	0.288400
O481	O48	0.191300	0.697700	0.219600
Mo11	Mo1	0.736130	0.156120	0.874220
Mo21	Mo2	0.672960	0.188650	0.026720
Mo31	Mo3	0.742300	0.017200	0.888600
Mo41	Mo4	0.827450	0.054930	0.937390
Mo51	Mo5	0.587940	0.151570	0.975970
Mo61	Mo6	0.678660	0.050340	0.039780
O491	O49	0.754200	0.080100	0.837700
O501	O50	0.697100	0.218500	0.950300
O511	O51	0.917300	0.022000	0.921300
O521	O52	0.588500	0.096600	0.040500
O531	O53	0.772200	0.952100	0.834900
O541	O54	0.777300	0.136000	0.994300
O551	O55	0.833000	0.997700	0.883600
O561	O56	0.498500	0.186500	0.994000
O571	O57	0.661900	0.007800	0.097500
O581	O58	0.650500	0.250200	0.075100
O591	O59	0.827300	0.108000	0.872900
O601	O60	0.632300	0.184200	0.907300
O611	O61	0.786200	0.016900	0.006300
O621	O62	0.710300	0.102400	0.954100
O631	O63	0.663000	0.124600	0.078900
O641	O64	0.638600	0.071100	0.917400
O651	O65	0.581600	0.210400	0.030400
O661	O66	0.716100	0.990300	0.966100
O671	O67	0.751800	0.194500	0.816300
Mo71	Mo7	0.321340	0.949660	0.960220
Mo81	Mo8	0.172550	0.945070	0.062610
Mo91	Mo9	0.327040	0.811350	0.973280
Mo101	Mo10	0.412060	0.848430	0.024030
Mo111	Mo11	0.263870	0.843880	0.125780
Mo121	Mo12	0.257700	0.982800	0.111400
O681	O68	0.367700	0.815800	0.092700
O691	O69	0.337000	0.875400	0.921100
O701	O70	0.172700	0.892000	0.127100
O711	O71	0.245800	0.919900	0.162300
O721	O72	0.338100	0.992200	0.902500
O731	O73	0.213800	0.983100	0.993700
O741	O74	0.302900	0.781500	0.049700
O751	O75	0.501500	0.813500	0.006000
O761	O76	0.289700	0.897600	0.045900
O771	O77	0.418400	0.789600	0.969600
O781	O78	0.167000	0.002300	0.116400
O791	O79	0.349500	0.749800	0.924900
O801	O80	0.411500	0.903400	0.959500
O811	O81	0.227800	0.047900	0.165100
O821	O82	0.222700	0.864000	0.005700
O831	O83	0.283900	0.009700	0.033900
O841	O84	0.361400	0.928900	0.082600
O851	O85	0.248200	0.805500	0.183700
O861	O86	0.082700	0.978000	0.078700
Mo131	Mo13	0.057400	0.957600	0.556400
Mo141	Mo14	0.031300	0.080600	0.486700
Mo151	Mo15	0.968700	0.919400	0.513300
Mo161	Mo16	0.892900	0.063400	0.594200
Mo171	Mo17	0.942600	0.042400	0.443600
Mo181	Mo18	0.107100	0.936600	0.405800
O871	O87	0.134600	0.911900	0.469700
O881	O88	0.923700	0.971900	0.466300
O891	O89	0.023100	0.898900	0.555900
O901	O90	0.102700	0.923600	0.596900
O911	O91	0.112200	0.013500	0.415200
O921	O92	0.976900	0.101100	0.444100
O931	O93	0.055000	0.137600	0.477500
O941	O94	0.939800	0.115400	0.565400
O951	O95	0.817200	0.108400	0.662300
O961	O96	0.032000	0.990000	0.385300
O971	O97	0.865400	0.088100	0.530300
O981	O98	0.887800	0.986500	0.584800
O991	O99	0.945000	0.862400	0.522500
O1001	O100	0.060200	0.884600	0.434600
O1011	O101	0.000000	0.000000	0.500000
O1021	O102	0.076300	0.028100	0.533700
O1031	O103	0.897300	0.076400	0.403100
O1041	O104	0.182800	0.891600	0.337700
O1051	O105	0.968000	0.010000	0.614700
Mo191	Mo19	0.419300	0.108500	0.535600
Mo201	Mo20	0.452600	0.995700	0.437600
Mo211	Mo21	0.415670	0.979920	0.583350
Mo221	Mo22	0.580700	0.891500	0.464400
Mo231	Mo23	0.584330	0.020080	0.416650
Mo241	Mo24	0.547400	0.004300	0.562400
O1061	O106	0.638000	0.811400	0.434000
O1071	O107	0.631200	0.933100	0.400800
O1081	O108	0.581900	0.006900	0.604900
O1091	O109	0.462300	0.091600	0.581300
O1101	O110	0.527900	0.019800	0.387000
O1111	O111	0.472100	0.980200	0.613000
O1121	O112	0.602800	0.920200	0.516000
O1131	O113	0.647400	0.037400	0.358200
O1141	O114	0.362000	0.188600	0.566000
O1151	O115	0.352600	0.962600	0.641800
O1161	O116	0.397800	0.977400	0.514000
O1171	O117	0.501800	0.104400	0.462300
O1181	O118	0.418100	0.993100	0.395100
O1191	O119	0.397200	0.079800	0.484000
O1201	O120	0.498200	0.895600	0.537700
O1211	O121	0.368800	0.066900	0.599200
O1221	O122	0.537700	0.908400	0.418700
O1231	O123	0.602200	0.022600	0.486000
O1241	O124	0.500000	0.000000	0.500000
Mo251	Mo25	0.751600	0.579000	0.343400
Mo261	Mo26	0.927200	0.516000	0.293500
Mo271	Mo27	0.733100	0.516800	0.471900
Mo281	Mo28	0.907900	0.456000	0.420400
Mo291	Mo29	0.802900	0.611400	0.433500
Mo301	Mo30	0.856500	0.422300	0.331500
O1251	O125	0.886800	0.593100	0.351800
O1261	O126	0.829000	0.517500	0.382500
O1271	O127	0.871500	0.544500	0.454100
O1281	O128	0.783200	0.680400	0.470500
O1291	O129	0.695200	0.620900	0.315400
O1301	O130	0.875800	0.353500	0.294800
O1311	O131	0.788400	0.489400	0.310500
O1321	O132	0.845700	0.565600	0.279300
O1331	O133	0.814200	0.468200	0.486000
O1341	O134	0.772500	0.440400	0.413800
O1351	O135	0.744200	0.643200	0.392800
O1361	O136	0.661400	0.517200	0.536600
O1371	O137	0.914800	0.391200	0.372300
O1381	O138	0.688300	0.565700	0.423300
O1391	O139	0.728900	0.593800	0.496000
O1401	O140	0.998200	0.516700	0.228900
O1411	O141	0.964800	0.412900	0.448700
O1421	O142	0.972300	0.467700	0.341200
O1431	O143	0.930800	0.439800	0.269000
Mo311	Mo31	0.266900	0.483200	0.528100
Mo321	Mo32	0.197100	0.388600	0.566500
Mo331	Mo33	0.092100	0.544000	0.579600
Mo341	Mo34	0.072800	0.484000	0.706500
Mo351	Mo35	0.143500	0.577700	0.668500
Mo361	Mo36	0.248400	0.421000	0.656600
O1441	O144	0.255800	0.356800	0.607200
O1451	O145	0.311700	0.434300	0.576700
O1461	O146	0.124200	0.646500	0.705200
O1471	O147	0.035200	0.587100	0.551300
O1481	O148	0.304800	0.379100	0.684600
O1491	O149	0.271100	0.406200	0.504000
O1501	O150	0.001800	0.483300	0.771100
O1511	O151	0.211600	0.510600	0.689500
O1521	O152	0.185800	0.531800	0.514000
O1531	O153	0.069200	0.560200	0.731000
O1541	O154	0.128500	0.455500	0.545900
O1551	O155	0.113200	0.406900	0.648200
O1561	O156	0.154300	0.434400	0.720700
O1571	O157	0.227500	0.559600	0.586200
O1581	O158	0.171000	0.482500	0.617500
O1591	O159	0.085200	0.608800	0.627700
O1601	O160	0.216800	0.319600	0.529500
O1611	O161	0.027700	0.532300	0.658800
O1621	O162	0.338600	0.482800	0.463400
C2411	C241	0.872200	0.413800	0.970700
S11	S1	0.944800	0.372500	0.990700
O1631	O163	0.937500	0.421400	0.028800
O1641	O164	0.931000	0.324400	0.025200
O1651	O165	0.013700	0.343100	0.930200
F11	F1	0.806700	0.444100	0.022500
F21	F2	0.882400	0.456400	0.936000
F31	F3	0.873400	0.371500	0.937700
C2421	C242	0.127800	0.586200	0.029300
S21	S2	0.055200	0.627500	0.009300
O1661	O166	0.986300	0.656900	0.069800
O1671	O167	0.062500	0.578600	0.971200
O1681	O168	0.069000	0.675600	0.974800
F41	F4	0.193300	0.555900	0.977500
F51	F5	0.126600	0.628500	0.062300
F61	F6	0.117600	0.543600	0.064000
