data_BOCTOE01_clean_PM
_symmetry_space_group_name_H-M	'P1'
_cell_length_a	8.425800
_cell_length_b	9.271000
_cell_length_c	12.824000
_cell_angle_alpha	90.000000
_cell_angle_beta	105.760000
_cell_angle_gamma	90.000000
_symmetry_Int_Tables_number 1

loop_
_symmetry_equiv_pos_as_xyz
'x,y,z'

loop_
_atom_site_label
_atom_site_type_symbol
_atom_site_fract_x
_atom_site_fract_y
_atom_site_fract_z
Mn11	Mn1	0.257020	0.748410	0.010780
N11	N1	0.325620	0.797430	0.188600
N21	N2	0.269370	0.800100	0.262390
N31	N3	0.213480	0.806780	0.336120
N41	N4	0.043000	0.619740	0.018240
N51	N5	0.107320	0.946430	0.972110
N61	N6	0.481620	0.875310	0.007420
N71	N7	0.429380	0.559150	0.054860
Mn21	Mn2	0.742980	0.248410	0.489220
N81	N8	0.674380	0.297430	0.311400
N91	N9	0.730630	0.300100	0.237610
N101	N10	0.786520	0.306780	0.163880
N111	N11	0.957000	0.119740	0.481760
N121	N12	0.892680	0.446430	0.527890
N131	N13	0.518380	0.375310	0.492580
N141	N14	0.570620	0.059150	0.445140
Mn31	Mn3	0.742980	0.251590	0.989220
N151	N15	0.674380	0.202570	0.811400
N161	N16	0.730630	0.199900	0.737610
N171	N17	0.786520	0.193220	0.663880
N181	N18	0.957000	0.380260	0.981760
N191	N19	0.892680	0.053570	0.027890
N201	N20	0.518380	0.124690	0.992580
N211	N21	0.570620	0.440850	0.945140
Mn41	Mn4	0.257020	0.751590	0.510780
N221	N22	0.325620	0.702570	0.688600
N231	N23	0.269370	0.699900	0.762390
N241	N24	0.213480	0.693220	0.836120
N251	N25	0.043000	0.880260	0.518240
N261	N26	0.107320	0.553570	0.472110
N271	N27	0.481620	0.624690	0.507420
N281	N28	0.429380	0.940850	0.554860
N291	N29	0.000000	0.500000	0.000000
N301	N30	0.000000	0.000000	0.500000
N311	N31	0.000000	0.000000	0.000000
N321	N32	0.000000	0.500000	0.500000
N331	N33	0.500000	0.000000	0.000000
N341	N34	0.500000	0.500000	0.500000
N351	N35	0.500000	0.500000	0.000000
N361	N36	0.500000	0.000000	0.500000
