data_BOCTOE02_clean_PM
_symmetry_space_group_name_H-M	'P1'
_cell_length_a	8.437700
_cell_length_b	9.301500
_cell_length_c	12.848000
_cell_angle_alpha	90.000000
_cell_angle_beta	105.566000
_cell_angle_gamma	90.000000
_symmetry_Int_Tables_number 1

loop_
_symmetry_equiv_pos_as_xyz
'x,y,z'

loop_
_atom_site_label
_atom_site_type_symbol
_atom_site_fract_x
_atom_site_fract_y
_atom_site_fract_z
Mn11	Mn1	0.256290	0.748640	0.009900
N11	N1	0.321990	0.796730	0.187200
N21	N2	0.267170	0.798720	0.261280
N31	N3	0.212970	0.805130	0.335380
N41	N4	0.042340	0.619530	0.016550
N51	N5	0.105120	0.945320	0.971110
N61	N6	0.479920	0.876010	0.007140
N71	N7	0.427700	0.559940	0.053070
Mn21	Mn2	0.743710	0.248640	0.490100
N81	N8	0.678010	0.296730	0.312800
N91	N9	0.732830	0.298720	0.238720
N101	N10	0.787030	0.305130	0.164620
N111	N11	0.957660	0.119530	0.483450
N121	N12	0.894880	0.445320	0.528890
N131	N13	0.520080	0.376010	0.492860
N141	N14	0.572300	0.059940	0.446930
Mn31	Mn3	0.743710	0.251360	0.990100
N151	N15	0.678010	0.203270	0.812800
N161	N16	0.732830	0.201280	0.738720
N171	N17	0.787030	0.194870	0.664620
N181	N18	0.957660	0.380470	0.983450
N191	N19	0.894880	0.054680	0.028890
N201	N20	0.520080	0.123990	0.992860
N211	N21	0.572300	0.440060	0.946930
Mn41	Mn4	0.256290	0.751360	0.509900
N221	N22	0.321990	0.703270	0.687200
N231	N23	0.267170	0.701280	0.761280
N241	N24	0.212970	0.694870	0.835380
N251	N25	0.042340	0.880470	0.516550
N261	N26	0.105120	0.554680	0.471110
N271	N27	0.479920	0.623990	0.507140
N281	N28	0.427700	0.940060	0.553070
N291	N29	0.000000	0.500000	0.000000
N301	N30	0.000000	0.000000	0.500000
N311	N31	0.000000	0.000000	0.000000
N321	N32	0.000000	0.500000	0.500000
N331	N33	0.500000	0.000000	0.000000
N341	N34	0.500000	0.500000	0.500000
N351	N35	0.500000	0.500000	0.000000
N361	N36	0.500000	0.000000	0.500000
