data_BOFCEG_clean_PM
_symmetry_space_group_name_H-M	'P1'
_cell_length_a	13.762000
_cell_length_b	9.563000
_cell_length_c	9.883000
_cell_angle_alpha	90.000000
_cell_angle_beta	101.074000
_cell_angle_gamma	90.000000
_symmetry_Int_Tables_number 1

loop_
_symmetry_equiv_pos_as_xyz
'x,y,z'

loop_
_atom_site_label
_atom_site_type_symbol
_atom_site_fract_x
_atom_site_fract_y
_atom_site_fract_z
Zn11	Zn1	0.595680	0.068240	0.900850
N11	N1	0.558610	0.210300	0.751400
O11	O1	0.726910	0.986400	0.901700
O21	O2	0.771340	0.193800	0.983700
N21	N2	0.559820	0.346300	0.570500
C11	C1	0.933700	0.936900	0.069200
H11	H1	0.889300	0.893500	0.115700
N31	N3	0.492430	0.399400	0.643400
C21	C2	0.791200	0.073900	0.947100
C31	C3	0.033800	0.904800	0.104900
C41	C4	0.898500	0.032500	0.965300
O31	O3	0.156000	0.827400	0.288600
H21	H2	0.169200	0.772100	0.353000
O41	O4	0.008800	0.725300	0.261100
C51	C5	0.596900	0.233300	0.638100
H31	H3	0.644100	0.176100	0.610500
C61	C6	0.494300	0.316400	0.748700
H41	H4	0.455200	0.329300	0.814800
C71	C7	0.064400	0.807900	0.224400
Zn21	Zn2	0.404320	0.568240	0.599150
N41	N4	0.441390	0.710300	0.748600
O51	O5	0.273090	0.486400	0.598300
O61	O6	0.228660	0.693800	0.516300
N51	N5	0.440180	0.846300	0.929500
C81	C8	0.066300	0.436900	0.430800
H51	H5	0.110700	0.393500	0.384300
N61	N6	0.507570	0.899400	0.856600
C91	C9	0.208800	0.573900	0.552900
C101	C10	0.966200	0.404800	0.395100
C111	C11	0.101500	0.532500	0.534700
O71	O7	0.844000	0.327400	0.211400
H61	H6	0.830800	0.272100	0.147000
O81	O8	0.991200	0.225300	0.238900
C121	C12	0.403100	0.733300	0.861900
H71	H7	0.355900	0.676100	0.889500
C131	C13	0.505700	0.816400	0.751300
H81	H8	0.544800	0.829300	0.685200
C141	C14	0.935600	0.307900	0.275600
Zn31	Zn3	0.404320	0.931760	0.099150
N71	N7	0.441390	0.789700	0.248600
O91	O9	0.273090	0.013600	0.098300
O101	O10	0.228660	0.806200	0.016300
N81	N8	0.440180	0.653700	0.429500
C151	C15	0.066300	0.063100	0.930800
H91	H9	0.110700	0.106500	0.884300
N91	N9	0.507570	0.600600	0.356600
C161	C16	0.208800	0.926100	0.052900
C171	C17	0.966200	0.095200	0.895100
C181	C18	0.101500	0.967500	0.034700
O111	O11	0.844000	0.172600	0.711400
H101	H10	0.830800	0.227900	0.647000
O121	O12	0.991200	0.274700	0.738900
C191	C19	0.403100	0.766700	0.361900
H111	H11	0.355900	0.823900	0.389500
C201	C20	0.505700	0.683600	0.251300
H121	H12	0.544800	0.670700	0.185200
C211	C21	0.935600	0.192100	0.775600
Zn41	Zn4	0.595680	0.431760	0.400850
N101	N10	0.558610	0.289700	0.251400
O131	O13	0.726910	0.513600	0.401700
O141	O14	0.771340	0.306200	0.483700
N111	N11	0.559820	0.153700	0.070500
C221	C22	0.933700	0.563100	0.569200
H131	H13	0.889300	0.606500	0.615700
N121	N12	0.492430	0.100600	0.143400
C231	C23	0.791200	0.426100	0.447100
C241	C24	0.033800	0.595200	0.604900
C251	C25	0.898500	0.467500	0.465300
O151	O15	0.156000	0.672600	0.788600
H141	H14	0.169200	0.727900	0.853000
O161	O16	0.008800	0.774700	0.761100
C261	C26	0.596900	0.266700	0.138100
H151	H15	0.644100	0.323900	0.110500
C271	C27	0.494300	0.183600	0.248700
H161	H16	0.455200	0.170700	0.314800
C281	C28	0.064400	0.692100	0.724400
