data_BOMCOX_clean_PM
_symmetry_space_group_name_H-M	'P1'
_cell_length_a	12.344000
_cell_length_b	26.323000
_cell_length_c	15.663000
_cell_angle_alpha	90.000000
_cell_angle_beta	97.560000
_cell_angle_gamma	90.000000
_symmetry_Int_Tables_number 1

loop_
_symmetry_equiv_pos_as_xyz
'x,y,z'

loop_
_atom_site_label
_atom_site_type_symbol
_atom_site_fract_x
_atom_site_fract_y
_atom_site_fract_z
Zn11	Zn1	0.223680	0.240990	0.221200
Zn21	Zn2	0.382790	0.263240	0.408340
O11	O1	0.454300	0.297500	0.321900
O21	O2	0.343900	0.288810	0.197400
O31	O3	0.678200	0.455220	0.100800
O41	O4	0.508000	0.681710	0.125700
O51	O5	0.677700	0.694780	0.098300
O61	O6	0.259900	0.309810	0.422200
O71	O7	0.154600	0.278110	0.307100
O81	O8	0.829500	0.444000	0.410100
O91	O9	0.889500	0.665680	0.255800
O101	O10	0.727900	0.672330	0.301000
N11	N1	0.485100	0.274600	0.516700
N21	N2	0.779000	0.263600	0.771100
N31	N3	0.825600	0.261700	0.857400
N41	N4	0.119600	0.259450	0.110800
C11	C1	0.424700	0.307800	0.243900
C21	C2	0.491300	0.346600	0.205700
C31	C3	0.566500	0.375100	0.258700
H11	H1	0.576600	0.368900	0.318900
C41	C4	0.627400	0.412600	0.224900
H21	H2	0.677500	0.432800	0.261600
C51	C5	0.613300	0.419900	0.136300
C61	C6	0.540100	0.392600	0.083100
H31	H3	0.532300	0.398200	0.022700
C71	C7	0.476500	0.356200	0.117300
H41	H4	0.422900	0.337800	0.080500
C81	C8	0.656200	0.506200	0.110000
C91	C9	0.734200	0.539000	0.084100
H51	H5	0.798400	0.526100	0.064300
C101	C10	0.716000	0.591000	0.087800
H61	H6	0.768100	0.613800	0.069600
C111	C11	0.623400	0.610100	0.117400
C121	C12	0.548800	0.576500	0.142900
H71	H7	0.484700	0.589400	0.162700
C131	C13	0.564200	0.524400	0.140700
H81	H8	0.512400	0.501800	0.159800
C141	C14	0.600000	0.665400	0.115300
C151	C15	0.172500	0.308600	0.370100
C161	C16	0.083900	0.344600	0.382500
C171	C17	0.090600	0.377300	0.452400
H91	H9	0.153500	0.376700	0.494400
C181	C18	0.006500	0.410700	0.461400
H101	H10	0.010800	0.432500	0.510100
C191	C19	0.917300	0.412200	0.400000
C201	C20	0.905700	0.379200	0.329900
H111	H11	0.841900	0.380000	0.288800
C211	C21	0.989900	0.344900	0.321300
H121	H12	0.983700	0.321900	0.274200
C221	C22	0.829600	0.492900	0.375300
C231	C23	0.738900	0.521900	0.388000
H131	H13	0.682700	0.508400	0.417400
C241	C24	0.733000	0.571500	0.356300
H141	H14	0.672100	0.592000	0.364900
C251	C25	0.814200	0.591800	0.312200
C261	C26	0.901700	0.560700	0.299800
H151	H15	0.957200	0.573700	0.269200
C271	C27	0.910500	0.511300	0.330600
H161	H16	0.970900	0.490700	0.321200
C281	C28	0.812400	0.646100	0.286400
C291	C29	0.586800	0.253600	0.529400
H171	H17	0.612500	0.236700	0.482400
C301	C30	0.653200	0.255500	0.605200
H181	H18	0.724700	0.241500	0.610600
C311	C31	0.614300	0.278200	0.674500
C321	C32	0.512100	0.301900	0.663300
H191	H19	0.486600	0.319900	0.709300
C331	C33	0.449800	0.298500	0.584400
H201	H20	0.379200	0.313600	0.577000
C341	C34	0.678700	0.278800	0.762100
H211	H21	0.646400	0.290100	0.810500
C351	C35	0.922700	0.276300	0.867100
H221	H22	0.954600	0.290000	0.820100
C361	C36	0.985900	0.272000	0.952500
C371	C37	0.093500	0.290500	0.966900
H231	H23	0.123500	0.307900	0.922300
C381	C38	0.155000	0.283300	0.045300
H241	H24	0.227400	0.296300	0.053300
C391	C39	0.015700	0.242900	0.099700
H251	H25	0.987200	0.227200	0.146600
C401	C40	0.949200	0.248000	0.022300
H261	H26	0.876900	0.234900	0.016600
Zn31	Zn3	0.776320	0.740990	0.278800
Zn41	Zn4	0.617210	0.763240	0.091660
O111	O11	0.545700	0.797500	0.178100
O121	O12	0.656100	0.788810	0.302600
O131	O13	0.321800	0.955220	0.399200
O141	O14	0.492000	0.181710	0.374300
O151	O15	0.322300	0.194780	0.401700
O161	O16	0.740100	0.809810	0.077800
O171	O17	0.845400	0.778110	0.192900
O181	O18	0.170500	0.944000	0.089900
O191	O19	0.110500	0.165680	0.244200
O201	O20	0.272100	0.172330	0.199000
N51	N5	0.514900	0.774600	0.983300
N61	N6	0.221000	0.763600	0.728900
N71	N7	0.174400	0.761700	0.642600
N81	N8	0.880400	0.759450	0.389200
C411	C41	0.575300	0.807800	0.256100
C421	C42	0.508700	0.846600	0.294300
C431	C43	0.433500	0.875100	0.241300
H271	H27	0.423400	0.868900	0.181100
C441	C44	0.372600	0.912600	0.275100
H281	H28	0.322500	0.932800	0.238400
C451	C45	0.386700	0.919900	0.363700
C461	C46	0.459900	0.892600	0.416900
H291	H29	0.467700	0.898200	0.477300
C471	C47	0.523500	0.856200	0.382700
H301	H30	0.577100	0.837800	0.419500
C481	C48	0.343800	0.006200	0.390000
C491	C49	0.265800	0.039000	0.415900
H311	H31	0.201600	0.026100	0.435700
C501	C50	0.284000	0.091000	0.412200
H321	H32	0.231900	0.113800	0.430400
C511	C51	0.376600	0.110100	0.382600
C521	C52	0.451200	0.076500	0.357100
H331	H33	0.515300	0.089400	0.337300
C531	C53	0.435800	0.024400	0.359300
H341	H34	0.487600	0.001800	0.340200
C541	C54	0.400000	0.165400	0.384700
C551	C55	0.827500	0.808600	0.129900
C561	C56	0.916100	0.844600	0.117500
C571	C57	0.909400	0.877300	0.047600
H351	H35	0.846500	0.876700	0.005600
C581	C58	0.993500	0.910700	0.038600
H361	H36	0.989200	0.932500	0.989900
C591	C59	0.082700	0.912200	0.100000
C601	C60	0.094300	0.879200	0.170100
H371	H37	0.158100	0.880000	0.211200
C611	C61	0.010100	0.844900	0.178700
H381	H38	0.016300	0.821900	0.225800
C621	C62	0.170400	0.992900	0.124700
C631	C63	0.261100	0.021900	0.112000
H391	H39	0.317300	0.008400	0.082600
C641	C64	0.267000	0.071500	0.143700
H401	H40	0.327900	0.092000	0.135100
C651	C65	0.185800	0.091800	0.187800
C661	C66	0.098300	0.060700	0.200200
H411	H41	0.042800	0.073700	0.230800
C671	C67	0.089500	0.011300	0.169400
H421	H42	0.029100	0.990700	0.178800
C681	C68	0.187600	0.146100	0.213600
C691	C69	0.413200	0.753600	0.970600
H431	H43	0.387500	0.736700	0.017600
C701	C70	0.346800	0.755500	0.894800
H441	H44	0.275300	0.741500	0.889400
C711	C71	0.385700	0.778200	0.825500
C721	C72	0.487900	0.801900	0.836700
H451	H45	0.513400	0.819900	0.790700
C731	C73	0.550200	0.798500	0.915600
H461	H46	0.620800	0.813600	0.923000
C741	C74	0.321300	0.778800	0.737900
H471	H47	0.353600	0.790100	0.689500
C751	C75	0.077300	0.776300	0.632900
H481	H48	0.045400	0.790000	0.679900
C761	C76	0.014100	0.772000	0.547500
C771	C77	0.906500	0.790500	0.533100
H491	H49	0.876500	0.807900	0.577700
C781	C78	0.845000	0.783300	0.454700
H501	H50	0.772600	0.796300	0.446700
C791	C79	0.984300	0.742900	0.400300
H511	H51	0.012800	0.727200	0.353400
C801	C80	0.050800	0.748000	0.477700
H521	H52	0.123100	0.734900	0.483400
Zn51	Zn5	0.776320	0.759010	0.778800
Zn61	Zn6	0.617210	0.736760	0.591660
O211	O21	0.545700	0.702500	0.678100
O221	O22	0.656100	0.711190	0.802600
O231	O23	0.321800	0.544780	0.899200
O241	O24	0.492000	0.318290	0.874300
O251	O25	0.322300	0.305220	0.901700
O261	O26	0.740100	0.690190	0.577800
O271	O27	0.845400	0.721890	0.692900
O281	O28	0.170500	0.556000	0.589900
O291	O29	0.110500	0.334320	0.744200
O301	O30	0.272100	0.327670	0.699000
N91	N9	0.514900	0.725400	0.483300
N101	N10	0.221000	0.736400	0.228900
N111	N11	0.174400	0.738300	0.142600
N121	N12	0.880400	0.740550	0.889200
C811	C81	0.575300	0.692200	0.756100
C821	C82	0.508700	0.653400	0.794300
C831	C83	0.433500	0.624900	0.741300
H531	H53	0.423400	0.631100	0.681100
C841	C84	0.372600	0.587400	0.775100
H541	H54	0.322500	0.567200	0.738400
C851	C85	0.386700	0.580100	0.863700
C861	C86	0.459900	0.607400	0.916900
H551	H55	0.467700	0.601800	0.977300
C871	C87	0.523500	0.643800	0.882700
H561	H56	0.577100	0.662200	0.919500
C881	C88	0.343800	0.493800	0.890000
C891	C89	0.265800	0.461000	0.915900
H571	H57	0.201600	0.473900	0.935700
C901	C90	0.284000	0.409000	0.912200
H581	H58	0.231900	0.386200	0.930400
C911	C91	0.376600	0.389900	0.882600
C921	C92	0.451200	0.423500	0.857100
H591	H59	0.515300	0.410600	0.837300
C931	C93	0.435800	0.475600	0.859300
H601	H60	0.487600	0.498200	0.840200
C941	C94	0.400000	0.334600	0.884700
C951	C95	0.827500	0.691400	0.629900
C961	C96	0.916100	0.655400	0.617500
C971	C97	0.909400	0.622700	0.547600
H611	H61	0.846500	0.623300	0.505600
C981	C98	0.993500	0.589300	0.538600
H621	H62	0.989200	0.567500	0.489900
C991	C99	0.082700	0.587800	0.600000
C1001	C100	0.094300	0.620800	0.670100
H631	H63	0.158100	0.620000	0.711200
C1011	C101	0.010100	0.655100	0.678700
H641	H64	0.016300	0.678100	0.725800
C1021	C102	0.170400	0.507100	0.624700
C1031	C103	0.261100	0.478100	0.612000
H651	H65	0.317300	0.491600	0.582600
C1041	C104	0.267000	0.428500	0.643700
H661	H66	0.327900	0.408000	0.635100
C1051	C105	0.185800	0.408200	0.687800
C1061	C106	0.098300	0.439300	0.700200
H671	H67	0.042800	0.426300	0.730800
C1071	C107	0.089500	0.488700	0.669400
H681	H68	0.029100	0.509300	0.678800
C1081	C108	0.187600	0.353900	0.713600
C1091	C109	0.413200	0.746400	0.470600
H691	H69	0.387500	0.763300	0.517600
C1101	C110	0.346800	0.744500	0.394800
H701	H70	0.275300	0.758500	0.389400
C1111	C111	0.385700	0.721800	0.325500
C1121	C112	0.487900	0.698100	0.336700
H711	H71	0.513400	0.680100	0.290700
C1131	C113	0.550200	0.701500	0.415600
H721	H72	0.620800	0.686400	0.423000
C1141	C114	0.321300	0.721200	0.237900
H731	H73	0.353600	0.709900	0.189500
C1151	C115	0.077300	0.723700	0.132900
H741	H74	0.045400	0.710000	0.179900
C1161	C116	0.014100	0.728000	0.047500
C1171	C117	0.906500	0.709500	0.033100
H751	H75	0.876500	0.692100	0.077700
C1181	C118	0.845000	0.716700	0.954700
H761	H76	0.772600	0.703700	0.946700
C1191	C119	0.984300	0.757100	0.900300
H771	H77	0.012800	0.772800	0.853400
C1201	C120	0.050800	0.752000	0.977700
H781	H78	0.123100	0.765100	0.983400
Zn71	Zn7	0.223680	0.259010	0.721200
Zn81	Zn8	0.382790	0.236760	0.908340
O311	O31	0.454300	0.202500	0.821900
O321	O32	0.343900	0.211190	0.697400
O331	O33	0.678200	0.044780	0.600800
O341	O34	0.508000	0.818290	0.625700
O351	O35	0.677700	0.805220	0.598300
O361	O36	0.259900	0.190190	0.922200
O371	O37	0.154600	0.221890	0.807100
O381	O38	0.829500	0.056000	0.910100
O391	O39	0.889500	0.834320	0.755800
O401	O40	0.727900	0.827670	0.801000
N131	N13	0.485100	0.225400	0.016700
N141	N14	0.779000	0.236400	0.271100
N151	N15	0.825600	0.238300	0.357400
N161	N16	0.119600	0.240550	0.610800
C1211	C121	0.424700	0.192200	0.743900
C1221	C122	0.491300	0.153400	0.705700
C1231	C123	0.566500	0.124900	0.758700
H791	H79	0.576600	0.131100	0.818900
C1241	C124	0.627400	0.087400	0.724900
H801	H80	0.677500	0.067200	0.761600
C1251	C125	0.613300	0.080100	0.636300
C1261	C126	0.540100	0.107400	0.583100
H811	H81	0.532300	0.101800	0.522700
C1271	C127	0.476500	0.143800	0.617300
H821	H82	0.422900	0.162200	0.580500
C1281	C128	0.656200	0.993800	0.610000
C1291	C129	0.734200	0.961000	0.584100
H831	H83	0.798400	0.973900	0.564300
C1301	C130	0.716000	0.909000	0.587800
H841	H84	0.768100	0.886200	0.569600
C1311	C131	0.623400	0.889900	0.617400
C1321	C132	0.548800	0.923500	0.642900
H851	H85	0.484700	0.910600	0.662700
C1331	C133	0.564200	0.975600	0.640700
H861	H86	0.512400	0.998200	0.659800
C1341	C134	0.600000	0.834600	0.615300
C1351	C135	0.172500	0.191400	0.870100
C1361	C136	0.083900	0.155400	0.882500
C1371	C137	0.090600	0.122700	0.952400
H871	H87	0.153500	0.123300	0.994400
C1381	C138	0.006500	0.089300	0.961400
H881	H88	0.010800	0.067500	0.010100
C1391	C139	0.917300	0.087800	0.900000
C1401	C140	0.905700	0.120800	0.829900
H891	H89	0.841900	0.120000	0.788800
C1411	C141	0.989900	0.155100	0.821300
H901	H90	0.983700	0.178100	0.774200
C1421	C142	0.829600	0.007100	0.875300
C1431	C143	0.738900	0.978100	0.888000
H911	H91	0.682700	0.991600	0.917400
C1441	C144	0.733000	0.928500	0.856300
H921	H92	0.672100	0.908000	0.864900
C1451	C145	0.814200	0.908200	0.812200
C1461	C146	0.901700	0.939300	0.799800
H931	H93	0.957200	0.926300	0.769200
C1471	C147	0.910500	0.988700	0.830600
H941	H94	0.970900	0.009300	0.821200
C1481	C148	0.812400	0.853900	0.786400
C1491	C149	0.586800	0.246400	0.029400
H951	H95	0.612500	0.263300	0.982400
C1501	C150	0.653200	0.244500	0.105200
H961	H96	0.724700	0.258500	0.110600
C1511	C151	0.614300	0.221800	0.174500
C1521	C152	0.512100	0.198100	0.163300
H971	H97	0.486600	0.180100	0.209300
C1531	C153	0.449800	0.201500	0.084400
H981	H98	0.379200	0.186400	0.077000
C1541	C154	0.678700	0.221200	0.262100
H991	H99	0.646400	0.209900	0.310500
C1551	C155	0.922700	0.223700	0.367100
H1001	H100	0.954600	0.210000	0.320100
C1561	C156	0.985900	0.228000	0.452500
C1571	C157	0.093500	0.209500	0.466900
H1011	H101	0.123500	0.192100	0.422300
C1581	C158	0.155000	0.216700	0.545300
H1021	H102	0.227400	0.203700	0.553300
C1591	C159	0.015700	0.257100	0.599700
H1031	H103	0.987200	0.272800	0.646600
C1601	C160	0.949200	0.252000	0.522300
H1041	H104	0.876900	0.265100	0.516600
