data_BONWAD_clean_PM
_symmetry_space_group_name_H-M	'P1'
_cell_length_a	9.029000
_cell_length_b	10.934000
_cell_length_c	13.146000
_cell_angle_alpha	90.031000
_cell_angle_beta	90.000000
_cell_angle_gamma	90.000000
_symmetry_Int_Tables_number 1

loop_
_symmetry_equiv_pos_as_xyz
'x,y,z'

loop_
_atom_site_label
_atom_site_type_symbol
_atom_site_fract_x
_atom_site_fract_y
_atom_site_fract_z
Zn11	Zn1	0.805830	0.105520	0.803060
Zn21	Zn2	0.486940	0.265470	0.071470
Zn31	Zn3	0.305830	0.394480	0.696940
Zn41	Zn4	0.986940	0.234530	0.428530
Zn51	Zn5	0.194170	0.894480	0.196940
Zn61	Zn6	0.513060	0.734530	0.928530
Zn71	Zn7	0.694170	0.605520	0.303060
Zn81	Zn8	0.013060	0.765470	0.571470
H11	H1	0.649500	0.937200	0.124100
H21	H2	0.607200	0.087300	0.297700
H31	H3	0.897800	0.984900	0.111600
H41	H4	0.859400	0.216900	0.126800
H51	H5	0.149500	0.562800	0.375900
H61	H6	0.107200	0.412700	0.202300
H71	H7	0.397800	0.515100	0.388400
H81	H8	0.359400	0.283100	0.373200
H91	H9	0.350500	0.062800	0.875900
H101	H10	0.392800	0.912700	0.702300
H111	H11	0.102200	0.015100	0.888400
H121	H12	0.140600	0.783100	0.873200
H131	H13	0.850500	0.437200	0.624100
H141	H14	0.892800	0.587300	0.797700
H151	H15	0.602200	0.484900	0.611600
H161	H16	0.640600	0.716900	0.626800
C11	C1	0.749100	0.140780	0.003370
C21	C2	0.692100	0.968700	0.187430
C31	C3	0.435500	0.052900	0.196480
C41	C4	0.596900	0.076730	0.224020
C51	C5	0.842000	0.032000	0.162130
C61	C6	0.785400	0.152500	0.116750
C71	C7	0.698700	0.864700	0.264450
C81	C8	0.934700	0.054600	0.257230
C91	C9	0.249100	0.359220	0.496630
C101	C10	0.192100	0.531300	0.312570
C111	C11	0.935500	0.447100	0.303520
C121	C12	0.096900	0.423270	0.275980
C131	C13	0.342000	0.468000	0.337870
C141	C14	0.285400	0.347500	0.383250
C151	C15	0.198700	0.635300	0.235550
C161	C16	0.434700	0.445400	0.242770
C171	C17	0.250900	0.859220	0.996630
C181	C18	0.307900	0.031300	0.812570
C191	C19	0.564500	0.947100	0.803520
C201	C20	0.403100	0.923270	0.775980
C211	C21	0.158000	0.968000	0.837870
C221	C22	0.214600	0.847500	0.883250
C231	C23	0.301300	0.135300	0.735550
C241	C24	0.065300	0.945400	0.742770
C251	C25	0.750900	0.640780	0.503370
C261	C26	0.807900	0.468700	0.687430
C271	C27	0.064500	0.552900	0.696480
C281	C28	0.903100	0.576730	0.724020
C291	C29	0.658000	0.532000	0.662130
C301	C30	0.714600	0.652500	0.616750
C311	C31	0.801300	0.364700	0.764450
C321	C32	0.565300	0.554600	0.757230
O11	O1	0.652360	0.182710	0.171550
O21	O2	0.893640	0.138900	0.313900
O31	O3	0.622400	0.161720	0.971470
O41	O4	0.858290	0.110660	0.946860
O51	O5	0.687300	0.758360	0.226570
O61	O6	0.374260	0.111860	0.127410
O71	O7	0.045500	0.987230	0.274630
O81	O8	0.712700	0.886570	0.355210
O91	O9	0.378450	0.966260	0.245960
O101	O10	0.152360	0.317290	0.328450
O111	O11	0.393640	0.361100	0.186100
O121	O12	0.122400	0.338280	0.528530
O131	O13	0.358290	0.389340	0.553140
O141	O14	0.187300	0.741640	0.273430
O151	O15	0.874260	0.388140	0.372590
O161	O16	0.545500	0.512770	0.225370
O171	O17	0.212700	0.613430	0.144790
O181	O18	0.878450	0.533740	0.254040
O191	O19	0.347640	0.817290	0.828450
O201	O20	0.106360	0.861100	0.686100
O211	O21	0.377600	0.838280	0.028530
O221	O22	0.141710	0.889340	0.053140
O231	O23	0.312700	0.241640	0.773430
O241	O24	0.625740	0.888140	0.872590
O251	O25	0.954500	0.012770	0.725370
O261	O26	0.287300	0.113430	0.644790
O271	O27	0.621550	0.033740	0.754040
O281	O28	0.847640	0.682710	0.671550
O291	O29	0.606360	0.638900	0.813900
O301	O30	0.877600	0.661720	0.471470
O311	O31	0.641710	0.610660	0.446860
O321	O32	0.812700	0.258360	0.726570
O331	O33	0.125740	0.611860	0.627410
O341	O34	0.454500	0.487230	0.774630
O351	O35	0.787300	0.386570	0.855210
O361	O36	0.121550	0.466260	0.745960
