data_BOPHEV_clean_PM
_symmetry_space_group_name_H-M	'P1'
_cell_length_a	13.566700
_cell_length_b	9.566600
_cell_length_c	23.143200
_cell_angle_alpha	90.000000
_cell_angle_beta	122.672000
_cell_angle_gamma	90.000000
_symmetry_Int_Tables_number 1

loop_
_symmetry_equiv_pos_as_xyz
'x,y,z'

loop_
_atom_site_label
_atom_site_type_symbol
_atom_site_fract_x
_atom_site_fract_y
_atom_site_fract_z
Cd11	Cd1	0.226790	0.750740	0.744120
O11	O1	0.150900	0.932400	0.660600
O21	O2	0.321300	0.841400	0.692300
O31	O3	0.528300	0.219600	0.640700
O41	O4	0.680800	0.073800	0.682900
O51	O5	0.026800	0.660600	0.688600
O61	O6	0.136700	0.589500	0.651400
C11	C1	0.236700	0.918600	0.654500
C21	C2	0.233500	0.996600	0.596400
C31	C3	0.135900	0.075300	0.550500
H11	H1	0.073600	0.083400	0.556500
C41	C4	0.326300	0.984800	0.586900
H21	H2	0.391800	0.932400	0.617600
C51	C5	0.322200	0.050400	0.531800
C61	C6	0.223200	0.128400	0.486500
H31	H3	0.218700	0.172500	0.449300
C71	C7	0.131100	0.141200	0.496200
H41	H4	0.065900	0.194500	0.465900
C81	C8	0.416200	0.027900	0.517600
C91	C9	0.384800	0.974400	0.454000
H51	H5	0.305900	0.957300	0.422000
C101	C10	0.534300	0.055600	0.565000
C111	C11	0.582100	0.121200	0.634200
C121	C12	0.939200	0.510300	0.591800
C131	C13	0.830100	0.521400	0.581000
H61	H6	0.819000	0.583700	0.607800
C141	C14	0.734000	0.442900	0.531100
C151	C15	0.753900	0.350000	0.492300
H71	H7	0.692800	0.295200	0.459100
C161	C16	0.863700	0.338400	0.502500
H81	H8	0.875300	0.276400	0.475800
C171	C17	0.956200	0.417100	0.551800
H91	H9	0.029800	0.408100	0.558200
C181	C18	0.614700	0.468500	0.517000
C191	C19	0.040400	0.593400	0.648000
C201	C20	0.593900	0.487600	0.569200
C211	C21	0.520700	0.477700	0.448800
H101	H10	0.534000	0.460500	0.414000
O71	O7	0.753900	0.365400	0.664100
O81	O8	0.685500	0.556500	0.685600
C221	C22	0.686300	0.467800	0.646000
Cd21	Cd2	0.773210	0.250740	0.755880
O91	O9	0.849100	0.432400	0.839400
O101	O10	0.678700	0.341400	0.807700
O111	O11	0.471700	0.719600	0.859300
O121	O12	0.319200	0.573800	0.817100
O131	O13	0.973200	0.160600	0.811400
O141	O14	0.863300	0.089500	0.848600
C231	C23	0.763300	0.418600	0.845500
C241	C24	0.766500	0.496600	0.903600
C251	C25	0.864100	0.575300	0.949500
H111	H11	0.926400	0.583400	0.943500
C261	C26	0.673700	0.484800	0.913100
H121	H12	0.608200	0.432400	0.882400
C271	C27	0.677800	0.550400	0.968200
C281	C28	0.776800	0.628400	0.013500
H131	H13	0.781300	0.672500	0.050700
C291	C29	0.868900	0.641200	0.003800
H141	H14	0.934100	0.694500	0.034100
C301	C30	0.583800	0.527900	0.982400
C311	C31	0.615200	0.474400	0.046000
H151	H15	0.694100	0.457300	0.078000
C321	C32	0.465700	0.555600	0.935000
C331	C33	0.417900	0.621200	0.865800
C341	C34	0.060800	0.010300	0.908200
C351	C35	0.169900	0.021400	0.919000
H161	H16	0.181000	0.083700	0.892200
C361	C36	0.266000	0.942900	0.968900
C371	C37	0.246100	0.850000	0.007700
H171	H17	0.307200	0.795200	0.040900
C381	C38	0.136300	0.838400	0.997500
H181	H18	0.124700	0.776400	0.024200
C391	C39	0.043800	0.917100	0.948200
H191	H19	0.970200	0.908100	0.941800
C401	C40	0.385300	0.968500	0.983000
C411	C41	0.959600	0.093400	0.852000
C421	C42	0.406100	0.987600	0.930800
C431	C43	0.479300	0.977700	0.051200
H201	H20	0.466000	0.960500	0.086000
O151	O15	0.246100	0.865400	0.835900
O161	O16	0.314500	0.056500	0.814400
C441	C44	0.313700	0.967800	0.854000
Cd31	Cd3	0.773210	0.249260	0.255880
O171	O17	0.849100	0.067600	0.339400
O181	O18	0.678700	0.158600	0.307700
O191	O19	0.471700	0.780400	0.359300
O201	O20	0.319200	0.926200	0.317100
O211	O21	0.973200	0.339400	0.311400
O221	O22	0.863300	0.410500	0.348600
C451	C45	0.763300	0.081400	0.345500
C461	C46	0.766500	0.003400	0.403600
C471	C47	0.864100	0.924700	0.449500
H211	H21	0.926400	0.916600	0.443500
C481	C48	0.673700	0.015200	0.413100
H221	H22	0.608200	0.067600	0.382400
C491	C49	0.677800	0.949600	0.468200
C501	C50	0.776800	0.871600	0.513500
H231	H23	0.781300	0.827500	0.550700
C511	C51	0.868900	0.858800	0.503800
H241	H24	0.934100	0.805500	0.534100
C521	C52	0.583800	0.972100	0.482400
C531	C53	0.615200	0.025600	0.546000
H251	H25	0.694100	0.042700	0.578000
C541	C54	0.465700	0.944400	0.435000
C551	C55	0.417900	0.878800	0.365800
C561	C56	0.060800	0.489700	0.408200
C571	C57	0.169900	0.478600	0.419000
H261	H26	0.181000	0.416300	0.392200
C581	C58	0.266000	0.557100	0.468900
C591	C59	0.246100	0.650000	0.507700
H271	H27	0.307200	0.704800	0.540900
C601	C60	0.136300	0.661600	0.497500
H281	H28	0.124700	0.723600	0.524200
C611	C61	0.043800	0.582900	0.448200
H291	H29	0.970200	0.591900	0.441800
C621	C62	0.385300	0.531500	0.483000
C631	C63	0.959600	0.406600	0.352000
C641	C64	0.406100	0.512400	0.430800
C651	C65	0.479300	0.522300	0.551200
H301	H30	0.466000	0.539500	0.586000
O231	O23	0.246100	0.634600	0.335900
O241	O24	0.314500	0.443500	0.314400
C661	C66	0.313700	0.532200	0.354000
Cd41	Cd4	0.226790	0.749260	0.244120
O251	O25	0.150900	0.567600	0.160600
O261	O26	0.321300	0.658600	0.192300
O271	O27	0.528300	0.280400	0.140700
O281	O28	0.680800	0.426200	0.182900
O291	O29	0.026800	0.839400	0.188600
O301	O30	0.136700	0.910500	0.151400
C671	C67	0.236700	0.581400	0.154500
C681	C68	0.233500	0.503400	0.096400
C691	C69	0.135900	0.424700	0.050500
H311	H31	0.073600	0.416600	0.056500
C701	C70	0.326300	0.515200	0.086900
H321	H32	0.391800	0.567600	0.117600
C711	C71	0.322200	0.449600	0.031800
C721	C72	0.223200	0.371600	0.986500
H331	H33	0.218700	0.327500	0.949300
C731	C73	0.131100	0.358800	0.996200
H341	H34	0.065900	0.305500	0.965900
C741	C74	0.416200	0.472100	0.017600
C751	C75	0.384800	0.525600	0.954000
H351	H35	0.305900	0.542700	0.922000
C761	C76	0.534300	0.444400	0.065000
C771	C77	0.582100	0.378800	0.134200
C781	C78	0.939200	0.989700	0.091800
C791	C79	0.830100	0.978600	0.081000
H361	H36	0.819000	0.916300	0.107800
C801	C80	0.734000	0.057100	0.031100
C811	C81	0.753900	0.150000	0.992300
H371	H37	0.692800	0.204800	0.959100
C821	C82	0.863700	0.161600	0.002500
H381	H38	0.875300	0.223600	0.975800
C831	C83	0.956200	0.082900	0.051800
H391	H39	0.029800	0.091900	0.058200
C841	C84	0.614700	0.031500	0.017000
C851	C85	0.040400	0.906600	0.148000
C861	C86	0.593900	0.012400	0.069200
C871	C87	0.520700	0.022300	0.948800
H401	H40	0.534000	0.039500	0.914000
O311	O31	0.753900	0.134600	0.164100
O321	O32	0.685500	0.943500	0.185600
C881	C88	0.686300	0.032200	0.146000
