data_BOPHIZ_clean_PM
_symmetry_space_group_name_H-M	'P1'
_cell_length_a	11.219500
_cell_length_b	15.817000
_cell_length_c	18.098900
_cell_angle_alpha	102.099000
_cell_angle_beta	96.385000
_cell_angle_gamma	98.947000
_symmetry_Int_Tables_number 1

loop_
_symmetry_equiv_pos_as_xyz
'x,y,z'

loop_
_atom_site_label
_atom_site_type_symbol
_atom_site_fract_x
_atom_site_fract_y
_atom_site_fract_z
Cd11	Cd1	0.730900	0.250030	0.635840
Cd21	Cd2	0.641480	0.678810	0.884700
O11	O1	0.529900	0.210400	0.590800
O21	O2	0.544100	0.350600	0.637600
O31	O3	0.933400	0.188900	0.638700
O41	O4	0.773500	0.134900	0.550200
O51	O5	0.677000	0.154900	0.729600
O61	O6	0.760300	0.293700	0.764700
O71	O7	0.408000	0.215300	0.017800
O81	O8	0.436500	0.192500	0.132600
O91	O9	0.818300	0.334800	0.567900
O101	O10	0.811400	0.449800	0.651000
O111	O11	0.729000	0.636800	0.773600
O121	O12	0.844600	0.736400	0.869100
O131	O13	0.467700	0.530700	0.747300
O141	O14	0.463800	0.592600	0.867100
O151	O15	0.196400	0.336400	0.955100
O161	O16	0.270000	0.422100	0.068100
C11	C1	0.349300	0.268200	0.575200
C21	C2	0.270900	0.187300	0.563800
H11	H1	0.302400	0.139100	0.573900
C31	C3	0.146200	0.176900	0.537500
C41	C4	0.102000	0.248600	0.522400
H21	H2	0.019100	0.243400	0.506000
C51	C5	0.179400	0.329000	0.531300
H31	H3	0.148100	0.376200	0.518900
C61	C6	0.302100	0.339600	0.558300
H41	H4	0.352800	0.393900	0.565200
C71	C7	0.068100	0.087300	0.521800
C81	C8	0.948200	0.069600	0.536400
C91	C9	0.885100	0.983800	0.515200
H51	H5	0.806000	0.972900	0.526400
C101	C10	0.483900	0.277200	0.603600
C111	C11	0.883400	0.137000	0.580100
C121	C12	0.717500	0.222300	0.780500
C131	C13	0.712600	0.221700	0.863200
C141	C14	0.780500	0.290800	0.921200
H61	H6	0.831900	0.336600	0.909400
C151	C15	0.769800	0.289800	0.995800
H71	H7	0.812900	0.336400	0.034500
C161	C16	0.696500	0.221300	0.014800
H81	H8	0.690900	0.222200	0.065800
C171	C17	0.631100	0.151200	0.958000
C181	C18	0.641300	0.152200	0.882800
H91	H9	0.599200	0.105100	0.844200
C191	C19	0.559400	0.074700	0.978600
C201	C20	0.477100	0.083200	0.030100
C211	C21	0.419100	0.009000	0.051600
H101	H10	0.364900	0.015800	0.086900
C221	C22	0.438900	0.170400	0.062800
C231	C23	0.845900	0.413500	0.593800
C241	C24	0.925000	0.464000	0.547900
C251	C25	0.007000	0.544000	0.578100
C261	C26	0.079300	0.576500	0.528300
H111	H11	0.134300	0.629100	0.547800
C271	C27	0.024000	0.595400	0.658100
C281	C28	0.139600	0.622500	0.701100
H121	H12	0.206700	0.606600	0.679500
C291	C29	0.157300	0.672300	0.775200
H131	H13	0.235700	0.690400	0.802500
C301	C30	0.059500	0.695100	0.808700
H141	H14	0.071600	0.728300	0.858700
C311	C31	0.942600	0.668800	0.768000
C321	C32	0.923600	0.621000	0.691500
H151	H15	0.845800	0.606500	0.663300
C331	C33	0.831900	0.683400	0.805900
C341	C34	0.420100	0.541900	0.805500
C351	C35	0.293200	0.490700	0.803100
C361	C36	0.230800	0.436000	0.735700
H161	H16	0.269700	0.426000	0.692800
C371	C37	0.111800	0.396300	0.731500
H171	H17	0.070000	0.360700	0.685500
C381	C38	0.053700	0.408600	0.795000
H181	H18	0.972100	0.383500	0.791400
C391	C39	0.117900	0.459000	0.864600
C401	C40	0.236300	0.499900	0.867700
H191	H19	0.279000	0.534300	0.914000
C411	C41	0.958900	0.522500	0.933600
H201	H20	0.930700	0.537300	0.888600
C421	C42	0.056700	0.476700	0.934100
C431	C43	0.096800	0.453900	0.003600
C441	C44	0.195700	0.399800	0.007800
Cd31	Cd3	0.635290	0.493210	0.697170
Cd41	Cd4	0.269100	0.749970	0.364160
Cd51	Cd5	0.358520	0.321190	0.115300
O171	O17	0.470100	0.789600	0.409200
O181	O18	0.455900	0.649400	0.362400
O191	O19	0.066600	0.811100	0.361300
O201	O20	0.226500	0.865100	0.449800
O211	O21	0.323000	0.845100	0.270400
O221	O22	0.239700	0.706300	0.235300
O231	O23	0.592000	0.784700	0.982200
O241	O24	0.563500	0.807500	0.867400
O251	O25	0.181700	0.665200	0.432100
O261	O26	0.188600	0.550200	0.349000
O271	O27	0.271000	0.363200	0.226400
O281	O28	0.155400	0.263600	0.130900
O291	O29	0.532300	0.469300	0.252700
O301	O30	0.536200	0.407400	0.132900
O311	O31	0.803600	0.663600	0.044900
O321	O32	0.730000	0.577900	0.931900
C451	C45	0.650700	0.731800	0.424800
C461	C46	0.729100	0.812700	0.436200
H211	H21	0.697600	0.860900	0.426100
C471	C47	0.853800	0.823100	0.462500
C481	C48	0.898000	0.751400	0.477600
H221	H22	0.980900	0.756600	0.494000
C491	C49	0.820600	0.671000	0.468700
H231	H23	0.851900	0.623800	0.481100
C501	C50	0.697900	0.660400	0.441700
H241	H24	0.647200	0.606100	0.434800
C511	C51	0.931900	0.912700	0.478200
C521	C52	0.051800	0.930400	0.463600
C531	C53	0.114900	0.016200	0.484800
H251	H25	0.194000	0.027100	0.473600
C541	C54	0.516100	0.722800	0.396400
C551	C55	0.116600	0.863000	0.419900
C561	C56	0.282500	0.777700	0.219500
C571	C57	0.287400	0.778300	0.136800
C581	C58	0.219500	0.709200	0.078800
H261	H26	0.168100	0.663400	0.090600
C591	C59	0.230200	0.710200	0.004200
H271	H27	0.187100	0.663600	0.965500
C601	C60	0.303500	0.778700	0.985200
H281	H28	0.309100	0.777800	0.934200
C611	C61	0.368900	0.848800	0.042000
C621	C62	0.358700	0.847800	0.117200
H291	H29	0.400800	0.894900	0.155800
C631	C63	0.440600	0.925300	0.021400
C641	C64	0.522900	0.916800	0.969900
C651	C65	0.580900	0.991000	0.948400
H301	H30	0.635100	0.984200	0.913100
C661	C66	0.561100	0.829600	0.937200
C671	C67	0.154100	0.586500	0.406200
C681	C68	0.075000	0.536000	0.452100
C691	C69	0.993000	0.456000	0.421900
C701	C70	0.920700	0.423500	0.471700
H311	H31	0.865700	0.370900	0.452200
C711	C71	0.976000	0.404600	0.341900
C721	C72	0.860400	0.377500	0.298900
H321	H32	0.793300	0.393400	0.320500
C731	C73	0.842700	0.327700	0.224800
H331	H33	0.764300	0.309600	0.197500
C741	C74	0.940500	0.304900	0.191300
H341	H34	0.928400	0.271700	0.141300
C751	C75	0.057400	0.331200	0.232000
C761	C76	0.076400	0.379000	0.308500
H351	H35	0.154200	0.393500	0.336700
C771	C77	0.168100	0.316600	0.194100
C781	C78	0.579900	0.458100	0.194500
C791	C79	0.706800	0.509300	0.196900
C801	C80	0.769200	0.564000	0.264300
H361	H36	0.730300	0.574000	0.307200
C811	C81	0.888200	0.603700	0.268500
H371	H37	0.930000	0.639300	0.314500
C821	C82	0.946300	0.591400	0.205000
H381	H38	0.027900	0.616500	0.208600
C831	C83	0.882100	0.541000	0.135400
C841	C84	0.763700	0.500100	0.132300
H391	H39	0.721000	0.465700	0.086000
C851	C85	0.041100	0.477500	0.066400
H401	H40	0.069300	0.462700	0.111400
C861	C86	0.943300	0.523300	0.065900
C871	C87	0.903200	0.546100	0.996400
C881	C88	0.804300	0.600200	0.992200
Cd61	Cd6	0.364710	0.506790	0.302830
