data_BOPWIO_clean_PM
_symmetry_space_group_name_H-M	'P1'
_cell_length_a	21.702500
_cell_length_b	10.035600
_cell_length_c	14.034300
_cell_angle_alpha	90.000000
_cell_angle_beta	91.711000
_cell_angle_gamma	90.000000
_symmetry_Int_Tables_number 1

loop_
_symmetry_equiv_pos_as_xyz
'x,y,z'

loop_
_atom_site_label
_atom_site_type_symbol
_atom_site_fract_x
_atom_site_fract_y
_atom_site_fract_z
Ho11	Ho1	0.759100	0.565380	0.271700
Ho21	Ho2	0.749390	0.752420	0.027000
O11	O1	0.718380	0.538200	0.113610
O21	O2	0.650350	0.517000	0.299300
O31	O3	0.698470	0.627200	0.409590
O41	O4	0.810020	0.762900	0.861720
O51	O5	0.287410	0.264200	0.277700
O61	O6	0.808090	0.455000	0.398780
O71	O7	0.811110	0.566900	0.534600
O81	O8	0.309990	0.403700	0.387300
O91	O9	0.784040	0.576900	0.928570
O101	O10	0.656710	0.633300	0.009900
O111	O11	0.139670	0.487600	0.785320
O121	O12	0.177420	0.321900	0.864660
C11	C1	0.648740	0.575400	0.376500
C21	C2	0.591300	0.587600	0.433600
H11	H1	0.587600	0.681300	0.454700
H21	H2	0.596600	0.531900	0.491500
C31	C3	0.531610	0.548100	0.383200
C41	C4	0.488220	0.642300	0.356600
H31	H3	0.496300	0.733700	0.369500
C51	C5	0.517880	0.415800	0.364800
H41	H4	0.546800	0.348700	0.382900
C61	C6	0.828180	0.475700	0.481700
C71	C7	0.877970	0.384100	0.522000
H51	H5	0.871000	0.367700	0.590400
H61	H6	0.876100	0.297400	0.488400
C81	C8	0.940970	0.446100	0.510700
C91	C9	0.983350	0.450700	0.586900
H71	H7	0.972000	0.417300	0.647300
C101	C10	0.958400	0.496900	0.423500
H81	H8	0.930000	0.495700	0.370700
C111	C11	0.135140	0.407500	0.851600
C121	C12	0.082970	0.407800	0.918300
H91	H9	0.079300	0.317200	0.945500
H101	H10	0.093700	0.468900	0.971700
C131	C13	0.020590	0.448000	0.877200
C141	C14	0.975490	0.353600	0.862800
H111	H11	0.984900	0.262600	0.874900
C151	C15	0.808210	0.637300	0.860900
C161	C16	0.837050	0.559400	0.782100
H121	H12	0.838100	0.614500	0.723600
H131	H13	0.812200	0.478700	0.767700
C171	C17	0.902120	0.519400	0.812700
C181	C18	0.947610	0.614300	0.824800
H141	H14	0.938500	0.705100	0.811400
C191	C19	0.917030	0.387700	0.831200
H151	H15	0.886700	0.320300	0.822000
C201	C20	0.006500	0.578800	0.856400
H161	H16	0.037400	0.645400	0.863700
C211	C21	0.666950	0.542300	0.068100
C221	C22	0.620020	0.435300	0.083600
H171	H17	0.634900	0.351100	0.055600
H181	H18	0.616200	0.421000	0.152900
C231	C23	0.557680	0.466700	0.040900
C241	C24	0.543660	0.441300	0.945200
H191	H19	0.573700	0.400600	0.906800
C251	C25	0.513000	0.525900	0.094700
H201	H20	0.521500	0.544200	0.160200
C261	C26	0.317090	0.362400	0.305300
C271	C27	0.360110	0.434900	0.241700
H211	H21	0.339200	0.515600	0.216200
H221	H22	0.369700	0.376900	0.187000
C281	C28	0.419670	0.475400	0.292400
C291	C29	0.462680	0.379700	0.320400
H231	H23	0.454100	0.288200	0.308900
C301	C30	0.433220	0.606700	0.311500
H241	H24	0.404300	0.673900	0.293500
Ho31	Ho3	0.240900	0.065380	0.228300
Ho41	Ho4	0.250610	0.252420	0.473000
O131	O13	0.281620	0.038200	0.386390
O141	O14	0.349650	0.017000	0.200700
O151	O15	0.301530	0.127200	0.090410
O161	O16	0.189980	0.262900	0.638280
O171	O17	0.712590	0.764200	0.222300
O181	O18	0.191910	0.955000	0.101220
O191	O19	0.188890	0.066900	0.965400
O201	O20	0.690010	0.903700	0.112700
O211	O21	0.215960	0.076900	0.571430
O221	O22	0.343290	0.133300	0.490100
O231	O23	0.860330	0.987600	0.714680
O241	O24	0.822580	0.821900	0.635340
C311	C31	0.351260	0.075400	0.123500
C321	C32	0.408700	0.087600	0.066400
H251	H25	0.412400	0.181300	0.045300
H261	H26	0.403400	0.031900	0.008500
C331	C33	0.468390	0.048100	0.116800
C341	C34	0.511780	0.142300	0.143400
H271	H27	0.503700	0.233700	0.130500
C351	C35	0.482120	0.915800	0.135200
H281	H28	0.453200	0.848700	0.117100
C361	C36	0.171820	0.975700	0.018300
C371	C37	0.122030	0.884100	0.978000
H291	H29	0.129000	0.867700	0.909600
H301	H30	0.123900	0.797400	0.011600
C381	C38	0.059030	0.946100	0.989300
C391	C39	0.016650	0.950700	0.913100
H311	H31	0.028000	0.917300	0.852700
C401	C40	0.041600	0.996900	0.076500
H321	H32	0.070000	0.995700	0.129300
C411	C41	0.864860	0.907500	0.648400
C421	C42	0.917030	0.907800	0.581700
H331	H33	0.920700	0.817200	0.554500
H341	H34	0.906300	0.968900	0.528300
C431	C43	0.979410	0.948000	0.622800
C441	C44	0.024510	0.853600	0.637200
H351	H35	0.015100	0.762600	0.625100
C451	C45	0.191790	0.137300	0.639100
C461	C46	0.162950	0.059400	0.717900
H361	H36	0.161900	0.114500	0.776400
H371	H37	0.187800	0.978700	0.732300
C471	C47	0.097880	0.019400	0.687300
C481	C48	0.052390	0.114300	0.675200
H381	H38	0.061500	0.205100	0.688600
C491	C49	0.082970	0.887700	0.668800
H391	H39	0.113300	0.820300	0.678000
C501	C50	0.993500	0.078800	0.643600
H401	H40	0.962600	0.145400	0.636300
C511	C51	0.333050	0.042300	0.431900
C521	C52	0.379980	0.935300	0.416400
H411	H41	0.365100	0.851100	0.444400
H421	H42	0.383800	0.921000	0.347100
C531	C53	0.442320	0.966700	0.459100
C541	C54	0.456340	0.941300	0.554800
H431	H43	0.426300	0.900600	0.593200
C551	C55	0.487000	0.025900	0.405300
H441	H44	0.478500	0.044200	0.339800
C561	C56	0.682910	0.862400	0.194700
C571	C57	0.639890	0.934900	0.258300
H451	H45	0.660800	0.015600	0.283800
H461	H46	0.630300	0.876900	0.313000
C581	C58	0.580330	0.975400	0.207600
C591	C59	0.537320	0.879700	0.179600
H471	H47	0.545900	0.788200	0.191100
C601	C60	0.566780	0.106700	0.188500
H481	H48	0.595700	0.173900	0.206500
Ho51	Ho5	0.240900	0.434620	0.728300
Ho61	Ho6	0.250610	0.247580	0.973000
O251	O25	0.281620	0.461800	0.886390
O261	O26	0.349650	0.483000	0.700700
O271	O27	0.301530	0.372800	0.590410
O281	O28	0.189980	0.237100	0.138280
O291	O29	0.712590	0.735800	0.722300
O301	O30	0.191910	0.545000	0.601220
O311	O31	0.188890	0.433100	0.465400
O321	O32	0.690010	0.596300	0.612700
O331	O33	0.215960	0.423100	0.071430
O341	O34	0.343290	0.366700	0.990100
O351	O35	0.860330	0.512400	0.214680
O361	O36	0.822580	0.678100	0.135340
C611	C61	0.351260	0.424600	0.623500
C621	C62	0.408700	0.412400	0.566400
H491	H49	0.412400	0.318700	0.545300
H501	H50	0.403400	0.468100	0.508500
C631	C63	0.468390	0.451900	0.616800
C641	C64	0.511780	0.357700	0.643400
H511	H51	0.503700	0.266300	0.630500
C651	C65	0.482120	0.584200	0.635200
H521	H52	0.453200	0.651300	0.617100
C661	C66	0.171820	0.524300	0.518300
C671	C67	0.122030	0.615900	0.478000
H531	H53	0.129000	0.632300	0.409600
H541	H54	0.123900	0.702600	0.511600
C681	C68	0.059030	0.553900	0.489300
C691	C69	0.016650	0.549300	0.413100
H551	H55	0.028000	0.582700	0.352700
C701	C70	0.041600	0.503100	0.576500
H561	H56	0.070000	0.504300	0.629300
C711	C71	0.864860	0.592500	0.148400
C721	C72	0.917030	0.592200	0.081700
H571	H57	0.920700	0.682800	0.054500
H581	H58	0.906300	0.531100	0.028300
C731	C73	0.979410	0.552000	0.122800
C741	C74	0.024510	0.646400	0.137200
H591	H59	0.015100	0.737400	0.125100
C751	C75	0.191790	0.362700	0.139100
C761	C76	0.162950	0.440600	0.217900
H601	H60	0.161900	0.385500	0.276400
H611	H61	0.187800	0.521300	0.232300
C771	C77	0.097880	0.480600	0.187300
C781	C78	0.052390	0.385700	0.175200
H621	H62	0.061500	0.294900	0.188600
C791	C79	0.082970	0.612300	0.168800
H631	H63	0.113300	0.679700	0.178000
C801	C80	0.993500	0.421200	0.143600
H641	H64	0.962600	0.354600	0.136300
C811	C81	0.333050	0.457700	0.931900
C821	C82	0.379980	0.564700	0.916400
H651	H65	0.365100	0.648900	0.944400
H661	H66	0.383800	0.579000	0.847100
C831	C83	0.442320	0.533300	0.959100
C841	C84	0.456340	0.558700	0.054800
H671	H67	0.426300	0.599400	0.093200
C851	C85	0.487000	0.474100	0.905300
H681	H68	0.478500	0.455800	0.839800
C861	C86	0.682910	0.637600	0.694700
C871	C87	0.639890	0.565100	0.758300
H691	H69	0.660800	0.484400	0.783800
H701	H70	0.630300	0.623100	0.813000
C881	C88	0.580330	0.524600	0.707600
C891	C89	0.537320	0.620300	0.679600
H711	H71	0.545900	0.711800	0.691100
C901	C90	0.566780	0.393300	0.688500
H721	H72	0.595700	0.326100	0.706500
Ho71	Ho7	0.759100	0.934620	0.771700
Ho81	Ho8	0.749390	0.747580	0.527000
O371	O37	0.718380	0.961800	0.613610
O381	O38	0.650350	0.983000	0.799300
O391	O39	0.698470	0.872800	0.909590
O401	O40	0.810020	0.737100	0.361720
O411	O41	0.287410	0.235800	0.777700
O421	O42	0.808090	0.045000	0.898780
O431	O43	0.811110	0.933100	0.034600
O441	O44	0.309990	0.096300	0.887300
O451	O45	0.784040	0.923100	0.428570
O461	O46	0.656710	0.866700	0.509900
O471	O47	0.139670	0.012400	0.285320
O481	O48	0.177420	0.178100	0.364660
C911	C91	0.648740	0.924600	0.876500
C921	C92	0.591300	0.912400	0.933600
H731	H73	0.587600	0.818700	0.954700
H741	H74	0.596600	0.968100	0.991500
C931	C93	0.531610	0.951900	0.883200
C941	C94	0.488220	0.857700	0.856600
H751	H75	0.496300	0.766300	0.869500
C951	C95	0.517880	0.084200	0.864800
H761	H76	0.546800	0.151300	0.882900
C961	C96	0.828180	0.024300	0.981700
C971	C97	0.877970	0.115900	0.022000
H771	H77	0.871000	0.132300	0.090400
H781	H78	0.876100	0.202600	0.988400
C981	C98	0.940970	0.053900	0.010700
C991	C99	0.983350	0.049300	0.086900
H791	H79	0.972000	0.082700	0.147300
C1001	C100	0.958400	0.003100	0.923500
H801	H80	0.930000	0.004300	0.870700
C1011	C101	0.135140	0.092500	0.351600
C1021	C102	0.082970	0.092200	0.418300
H811	H81	0.079300	0.182800	0.445500
H821	H82	0.093700	0.031100	0.471700
C1031	C103	0.020590	0.052000	0.377200
C1041	C104	0.975490	0.146400	0.362800
H831	H83	0.984900	0.237400	0.374900
C1051	C105	0.808210	0.862700	0.360900
C1061	C106	0.837050	0.940600	0.282100
H841	H84	0.838100	0.885500	0.223600
H851	H85	0.812200	0.021300	0.267700
C1071	C107	0.902120	0.980600	0.312700
C1081	C108	0.947610	0.885700	0.324800
H861	H86	0.938500	0.794900	0.311400
C1091	C109	0.917030	0.112300	0.331200
H871	H87	0.886700	0.179700	0.322000
C1101	C110	0.006500	0.921200	0.356400
H881	H88	0.037400	0.854600	0.363700
C1111	C111	0.666950	0.957700	0.568100
C1121	C112	0.620020	0.064700	0.583600
H891	H89	0.634900	0.148900	0.555600
H901	H90	0.616200	0.079000	0.652900
C1131	C113	0.557680	0.033300	0.540900
C1141	C114	0.543660	0.058700	0.445200
H911	H91	0.573700	0.099400	0.406800
C1151	C115	0.513000	0.974100	0.594700
H921	H92	0.521500	0.955800	0.660200
C1161	C116	0.317090	0.137600	0.805300
C1171	C117	0.360110	0.065100	0.741700
H931	H93	0.339200	0.984400	0.716200
H941	H94	0.369700	0.123100	0.687000
C1181	C118	0.419670	0.024600	0.792400
C1191	C119	0.462680	0.120300	0.820400
H951	H95	0.454100	0.211800	0.808900
C1201	C120	0.433220	0.893300	0.811500
H961	H96	0.404300	0.826100	0.793500
