data_BOVHEB_clean_PM
_symmetry_space_group_name_H-M	'P1'
_cell_length_a	8.386000
_cell_length_b	17.199000
_cell_length_c	25.132000
_cell_angle_alpha	90.000000
_cell_angle_beta	94.182000
_cell_angle_gamma	90.000000
_symmetry_Int_Tables_number 1

loop_
_symmetry_equiv_pos_as_xyz
'x,y,z'

loop_
_atom_site_label
_atom_site_type_symbol
_atom_site_fract_x
_atom_site_fract_y
_atom_site_fract_z
N11	N1	0.596000	0.635800	0.137420
O11	O1	0.065500	0.717200	0.055940
Zn11	Zn1	0.833950	0.593930	0.132720
O21	O2	0.394500	0.856300	0.701240
N21	N2	0.754800	0.516600	0.619960
O31	O3	0.531800	0.751400	0.687730
N31	N3	0.689500	0.533800	0.570600
C11	C1	0.822300	0.589400	0.703430
N41	N4	0.355200	0.687500	0.138360
N51	N5	0.656900	0.607500	0.568590
C21	C2	0.947500	0.616600	0.870790
C31	C3	0.478900	0.672000	0.108630
N61	N6	0.400300	0.657300	0.187190
O41	O4	0.878300	0.634200	0.064210
N71	N7	0.700800	0.640000	0.616140
C41	C4	0.362900	0.800500	0.861200
H11	H1	0.296800	0.828500	0.882400
C51	C5	0.976600	0.667300	0.038230
C61	C6	0.779000	0.533900	0.739510
H21	H2	0.718200	0.491300	0.727500
C71	C7	0.036700	0.697100	0.944900
H31	H3	0.090200	0.741800	0.957100
C81	C8	0.973400	0.648100	0.979980
C91	C9	0.762400	0.582600	0.646760
C101	C10	0.918600	0.604700	0.812220
C111	C11	0.463800	0.795200	0.716690
C121	C12	0.918700	0.650000	0.721020
H41	H4	0.953900	0.685900	0.696800
C131	C13	0.442300	0.781800	0.979300
H51	H5	0.419400	0.832300	0.967900
N81	N8	0.539400	0.625200	0.186390
C141	C14	0.451200	0.765200	0.032400
H61	H6	0.438100	0.805200	0.056600
C151	C15	0.021800	0.680800	0.891100
H71	H7	0.064900	0.715600	0.867700
C161	C16	0.825300	0.541100	0.792910
H81	H8	0.794400	0.503500	0.816700
C171	C17	0.548800	0.715300	0.796100
H91	H9	0.609900	0.685600	0.774300
C181	C18	0.457500	0.776400	0.774530
C191	C19	0.364700	0.816900	0.807070
H101	H10	0.300500	0.856800	0.792600
C201	C20	0.479100	0.691300	0.051300
C211	C21	0.460100	0.742200	0.883500
C221	C22	0.896600	0.582600	0.960500
H111	H11	0.848700	0.549200	0.983700
C231	C23	0.549700	0.698200	0.849900
H121	H12	0.610700	0.656800	0.863800
C241	C24	0.963900	0.657500	0.775360
H131	H13	0.026700	0.699600	0.786900
C251	C25	0.890100	0.565800	0.906600
H141	H14	0.845700	0.519000	0.894400
C261	C26	0.498500	0.650500	0.960800
H151	H15	0.517700	0.611100	0.936700
C271	C27	0.466700	0.724400	0.941800
C281	C28	0.502700	0.633100	0.014800
H161	H16	0.521500	0.582300	0.026400
Zn21	Zn2	0.153720	0.745320	0.125270
N91	N9	0.096000	0.135800	0.137420
O51	O5	0.565500	0.217200	0.055940
Zn31	Zn3	0.333950	0.093930	0.132720
O61	O6	0.894500	0.356300	0.701240
N101	N10	0.254800	0.016600	0.619960
O71	O7	0.031800	0.251400	0.687730
N111	N11	0.189500	0.033800	0.570600
C291	C29	0.322300	0.089400	0.703430
N121	N12	0.855200	0.187500	0.138360
N131	N13	0.156900	0.107500	0.568590
C301	C30	0.447500	0.116600	0.870790
C311	C31	0.978900	0.172000	0.108630
N141	N14	0.900300	0.157300	0.187190
O81	O8	0.378300	0.134200	0.064210
N151	N15	0.200800	0.140000	0.616140
C321	C32	0.862900	0.300500	0.861200
H171	H17	0.796800	0.328500	0.882400
C331	C33	0.476600	0.167300	0.038230
C341	C34	0.279000	0.033900	0.739510
H181	H18	0.218200	0.991300	0.727500
C351	C35	0.536700	0.197100	0.944900
H191	H19	0.590200	0.241800	0.957100
C361	C36	0.473400	0.148100	0.979980
C371	C37	0.262400	0.082600	0.646760
C381	C38	0.418600	0.104700	0.812220
C391	C39	0.963800	0.295200	0.716690
C401	C40	0.418700	0.150000	0.721020
H201	H20	0.453900	0.185900	0.696800
C411	C41	0.942300	0.281800	0.979300
H211	H21	0.919400	0.332300	0.967900
N161	N16	0.039400	0.125200	0.186390
C421	C42	0.951200	0.265200	0.032400
H221	H22	0.938100	0.305200	0.056600
C431	C43	0.521800	0.180800	0.891100
H231	H23	0.564900	0.215600	0.867700
C441	C44	0.325300	0.041100	0.792910
H241	H24	0.294400	0.003500	0.816700
C451	C45	0.048800	0.215300	0.796100
H251	H25	0.109900	0.185600	0.774300
C461	C46	0.957500	0.276400	0.774530
C471	C47	0.864700	0.316900	0.807070
H261	H26	0.800500	0.356800	0.792600
C481	C48	0.979100	0.191300	0.051300
C491	C49	0.960100	0.242200	0.883500
C501	C50	0.396600	0.082600	0.960500
H271	H27	0.348700	0.049200	0.983700
C511	C51	0.049700	0.198200	0.849900
H281	H28	0.110700	0.156800	0.863800
C521	C52	0.463900	0.157500	0.775360
H291	H29	0.526700	0.199600	0.786900
C531	C53	0.390100	0.065800	0.906600
H301	H30	0.345700	0.019000	0.894400
C541	C54	0.998500	0.150500	0.960800
H311	H31	0.017700	0.111100	0.936700
C551	C55	0.966700	0.224400	0.941800
C561	C56	0.002700	0.133100	0.014800
H321	H32	0.021500	0.082300	0.026400
Zn41	Zn4	0.653720	0.245320	0.125270
N171	N17	0.596000	0.364200	0.637420
O91	O9	0.065500	0.282800	0.555940
Zn51	Zn5	0.833950	0.406070	0.632720
O101	O10	0.394500	0.143700	0.201240
N181	N18	0.754800	0.483400	0.119960
O111	O11	0.531800	0.248600	0.187730
N191	N19	0.689500	0.466200	0.070600
C571	C57	0.822300	0.410600	0.203430
N201	N20	0.355200	0.312500	0.638360
N211	N21	0.656900	0.392500	0.068590
C581	C58	0.947500	0.383400	0.370790
C591	C59	0.478900	0.328000	0.608630
N221	N22	0.400300	0.342700	0.687190
O121	O12	0.878300	0.365800	0.564210
N231	N23	0.700800	0.360000	0.116140
C601	C60	0.362900	0.199500	0.361200
H331	H33	0.296800	0.171500	0.382400
C611	C61	0.976600	0.332700	0.538230
C621	C62	0.779000	0.466100	0.239510
H341	H34	0.718200	0.508700	0.227500
C631	C63	0.036700	0.302900	0.444900
H351	H35	0.090200	0.258200	0.457100
C641	C64	0.973400	0.351900	0.479980
C651	C65	0.762400	0.417400	0.146760
C661	C66	0.918600	0.395300	0.312220
C671	C67	0.463800	0.204800	0.216690
C681	C68	0.918700	0.350000	0.221020
H361	H36	0.953900	0.314100	0.196800
C691	C69	0.442300	0.218200	0.479300
H371	H37	0.419400	0.167700	0.467900
N241	N24	0.539400	0.374800	0.686390
C701	C70	0.451200	0.234800	0.532400
H381	H38	0.438100	0.194800	0.556600
C711	C71	0.021800	0.319200	0.391100
H391	H39	0.064900	0.284400	0.367700
C721	C72	0.825300	0.458900	0.292910
H401	H40	0.794400	0.496500	0.316700
C731	C73	0.548800	0.284700	0.296100
H411	H41	0.609900	0.314400	0.274300
C741	C74	0.457500	0.223600	0.274530
C751	C75	0.364700	0.183100	0.307070
H421	H42	0.300500	0.143200	0.292600
C761	C76	0.479100	0.308700	0.551300
C771	C77	0.460100	0.257800	0.383500
C781	C78	0.896600	0.417400	0.460500
H431	H43	0.848700	0.450800	0.483700
C791	C79	0.549700	0.301800	0.349900
H441	H44	0.610700	0.343200	0.363800
C801	C80	0.963900	0.342500	0.275360
H451	H45	0.026700	0.300400	0.286900
C811	C81	0.890100	0.434200	0.406600
H461	H46	0.845700	0.481000	0.394400
C821	C82	0.498500	0.349500	0.460800
H471	H47	0.517700	0.388900	0.436700
C831	C83	0.466700	0.275600	0.441800
C841	C84	0.502700	0.366900	0.514800
H481	H48	0.521500	0.417700	0.526400
Zn61	Zn6	0.153720	0.254680	0.625270
N251	N25	0.096000	0.864200	0.637420
O131	O13	0.565500	0.782800	0.555940
Zn71	Zn7	0.333950	0.906070	0.632720
O141	O14	0.894500	0.643700	0.201240
N261	N26	0.254800	0.983400	0.119960
O151	O15	0.031800	0.748600	0.187730
N271	N27	0.189500	0.966200	0.070600
C851	C85	0.322300	0.910600	0.203430
N281	N28	0.855200	0.812500	0.638360
N291	N29	0.156900	0.892500	0.068590
C861	C86	0.447500	0.883400	0.370790
C871	C87	0.978900	0.828000	0.608630
N301	N30	0.900300	0.842700	0.687190
O161	O16	0.378300	0.865800	0.564210
N311	N31	0.200800	0.860000	0.116140
C881	C88	0.862900	0.699500	0.361200
H491	H49	0.796800	0.671500	0.382400
C891	C89	0.476600	0.832700	0.538230
C901	C90	0.279000	0.966100	0.239510
H501	H50	0.218200	0.008700	0.227500
C911	C91	0.536700	0.802900	0.444900
H511	H51	0.590200	0.758200	0.457100
C921	C92	0.473400	0.851900	0.479980
C931	C93	0.262400	0.917400	0.146760
C941	C94	0.418600	0.895300	0.312220
C951	C95	0.963800	0.704800	0.216690
C961	C96	0.418700	0.850000	0.221020
H521	H52	0.453900	0.814100	0.196800
C971	C97	0.942300	0.718200	0.479300
H531	H53	0.919400	0.667700	0.467900
N321	N32	0.039400	0.874800	0.686390
C981	C98	0.951200	0.734800	0.532400
H541	H54	0.938100	0.694800	0.556600
C991	C99	0.521800	0.819200	0.391100
H551	H55	0.564900	0.784400	0.367700
C1001	C100	0.325300	0.958900	0.292910
H561	H56	0.294400	0.996500	0.316700
C1011	C101	0.048800	0.784700	0.296100
H571	H57	0.109900	0.814400	0.274300
C1021	C102	0.957500	0.723600	0.274530
C1031	C103	0.864700	0.683100	0.307070
H581	H58	0.800500	0.643200	0.292600
C1041	C104	0.979100	0.808700	0.551300
C1051	C105	0.960100	0.757800	0.383500
C1061	C106	0.396600	0.917400	0.460500
H591	H59	0.348700	0.950800	0.483700
C1071	C107	0.049700	0.801800	0.349900
H601	H60	0.110700	0.843200	0.363800
C1081	C108	0.463900	0.842500	0.275360
H611	H61	0.526700	0.800400	0.286900
C1091	C109	0.390100	0.934200	0.406600
H621	H62	0.345700	0.981000	0.394400
C1101	C110	0.998500	0.849500	0.460800
H631	H63	0.017700	0.888900	0.436700
C1111	C111	0.966700	0.775600	0.441800
C1121	C112	0.002700	0.866900	0.514800
H641	H64	0.021500	0.917700	0.526400
Zn81	Zn8	0.653720	0.754680	0.625270
