data_BOWNUY_clean_PM
_symmetry_space_group_name_H-M	'P1'
_cell_length_a	18.623300
_cell_length_b	18.623300
_cell_length_c	18.623300
_cell_angle_alpha	90.000000
_cell_angle_beta	90.000000
_cell_angle_gamma	90.000000
_symmetry_Int_Tables_number 1

loop_
_symmetry_equiv_pos_as_xyz
'x,y,z'

loop_
_atom_site_label
_atom_site_type_symbol
_atom_site_fract_x
_atom_site_fract_y
_atom_site_fract_z
N11	N1	0.368990	0.173890	0.088540
N21	N2	0.424620	0.128730	0.077810
N31	N3	0.631010	0.826110	0.088540
N41	N4	0.575380	0.871270	0.077810
N51	N5	0.631010	0.173890	0.911460
N61	N6	0.575380	0.128730	0.922190
N71	N7	0.368990	0.826110	0.911460
N81	N8	0.424620	0.871270	0.922190
N91	N9	0.088540	0.368990	0.173890
N101	N10	0.077810	0.424620	0.128730
N111	N11	0.088540	0.631010	0.826110
N121	N12	0.077810	0.575380	0.871270
N131	N13	0.911460	0.631010	0.173890
N141	N14	0.922190	0.575380	0.128730
N151	N15	0.911460	0.368990	0.826110
N161	N16	0.922190	0.424620	0.871270
N171	N17	0.173890	0.088540	0.368990
N181	N18	0.128730	0.077810	0.424620
N191	N19	0.826110	0.088540	0.631010
N201	N20	0.871270	0.077810	0.575380
N211	N21	0.173890	0.911460	0.631010
N221	N22	0.128730	0.922190	0.575380
N231	N23	0.826110	0.911460	0.368990
N241	N24	0.871270	0.922190	0.424620
N251	N25	0.173890	0.368990	0.911460
N261	N26	0.128730	0.424620	0.922190
N271	N27	0.826110	0.631010	0.911460
N281	N28	0.871270	0.575380	0.922190
N291	N29	0.173890	0.631010	0.088540
N301	N30	0.128730	0.575380	0.077810
N311	N31	0.826110	0.368990	0.088540
N321	N32	0.871270	0.424620	0.077810
N331	N33	0.368990	0.088540	0.826110
N341	N34	0.424620	0.077810	0.871270
N351	N35	0.631010	0.088540	0.173890
N361	N36	0.575380	0.077810	0.128730
N371	N37	0.631010	0.911460	0.826110
N381	N38	0.575380	0.922190	0.871270
N391	N39	0.368990	0.911460	0.173890
N401	N40	0.424620	0.922190	0.128730
N411	N41	0.088540	0.173890	0.631010
N421	N42	0.077810	0.128730	0.575380
N431	N43	0.088540	0.826110	0.368990
N441	N44	0.077810	0.871270	0.424620
N451	N45	0.911460	0.173890	0.368990
N461	N46	0.922190	0.128730	0.424620
N471	N47	0.911460	0.826110	0.631010
N481	N48	0.922190	0.871270	0.575380
N491	N49	0.631010	0.826110	0.911460
N501	N50	0.575380	0.871270	0.922190
N511	N51	0.368990	0.173890	0.911460
N521	N52	0.424620	0.128730	0.922190
N531	N53	0.368990	0.826110	0.088540
N541	N54	0.424620	0.871270	0.077810
N551	N55	0.631010	0.173890	0.088540
N561	N56	0.575380	0.128730	0.077810
N571	N57	0.911460	0.631010	0.826110
N581	N58	0.922190	0.575380	0.871270
N591	N59	0.911460	0.368990	0.173890
N601	N60	0.922190	0.424620	0.128730
N611	N61	0.088540	0.368990	0.826110
N621	N62	0.077810	0.424620	0.871270
N631	N63	0.088540	0.631010	0.173890
N641	N64	0.077810	0.575380	0.128730
N651	N65	0.826110	0.911460	0.631010
N661	N66	0.871270	0.922190	0.575380
N671	N67	0.173890	0.911460	0.368990
N681	N68	0.128730	0.922190	0.424620
N691	N69	0.826110	0.088540	0.368990
N701	N70	0.871270	0.077810	0.424620
N711	N71	0.173890	0.088540	0.631010
N721	N72	0.128730	0.077810	0.575380
N731	N73	0.826110	0.631010	0.088540
N741	N74	0.871270	0.575380	0.077810
N751	N75	0.173890	0.368990	0.088540
N761	N76	0.128730	0.424620	0.077810
N771	N77	0.826110	0.368990	0.911460
N781	N78	0.871270	0.424620	0.922190
N791	N79	0.173890	0.631010	0.911460
N801	N80	0.128730	0.575380	0.922190
N811	N81	0.631010	0.911460	0.173890
N821	N82	0.575380	0.922190	0.128730
N831	N83	0.368990	0.911460	0.826110
N841	N84	0.424620	0.922190	0.871270
N851	N85	0.368990	0.088540	0.173890
N861	N86	0.424620	0.077810	0.128730
N871	N87	0.631010	0.088540	0.826110
N881	N88	0.575380	0.077810	0.871270
N891	N89	0.911460	0.826110	0.368990
N901	N90	0.922190	0.871270	0.424620
N911	N91	0.911460	0.173890	0.631010
N921	N92	0.922190	0.128730	0.575380
N931	N93	0.088540	0.826110	0.631010
N941	N94	0.077810	0.871270	0.575380
N951	N95	0.088540	0.173890	0.368990
N961	N96	0.077810	0.128730	0.424620
Cu11	Cu1	0.500000	0.131440	0.000000
Cu21	Cu2	0.500000	0.868560	0.000000
Cu31	Cu3	0.000000	0.500000	0.131440
Cu41	Cu4	0.000000	0.500000	0.868560
Cu51	Cu5	0.131440	0.000000	0.500000
Cu61	Cu6	0.868560	0.000000	0.500000
Cu71	Cu7	0.131440	0.500000	0.000000
Cu81	Cu8	0.868560	0.500000	0.000000
Cu91	Cu9	0.500000	0.000000	0.868560
Cu101	Cu10	0.500000	0.000000	0.131440
Cu111	Cu11	0.000000	0.131440	0.500000
Cu121	Cu12	0.000000	0.868560	0.500000
C11	C1	0.240200	0.240200	0.148300
H11	H1	0.260400	0.260400	0.107300
C21	C2	0.759800	0.759800	0.148300
H21	H2	0.739600	0.739600	0.107300
C31	C3	0.759800	0.240200	0.851700
H31	H3	0.739600	0.260400	0.892700
C41	C4	0.240200	0.759800	0.851700
H41	H4	0.260400	0.739600	0.892700
C51	C5	0.148300	0.240200	0.240200
H51	H5	0.107300	0.260400	0.260400
C61	C6	0.148300	0.759800	0.759800
H61	H6	0.107300	0.739600	0.739600
C71	C7	0.851700	0.759800	0.240200
H71	H7	0.892700	0.739600	0.260400
C81	C8	0.851700	0.240200	0.759800
H81	H8	0.892700	0.260400	0.739600
C91	C9	0.240200	0.148300	0.240200
H91	H9	0.260400	0.107300	0.260400
C101	C10	0.759800	0.148300	0.759800
H101	H10	0.739600	0.107300	0.739600
C111	C11	0.240200	0.851700	0.759800
H111	H11	0.260400	0.892700	0.739600
C121	C12	0.759800	0.851700	0.240200
H121	H12	0.739600	0.892700	0.260400
C131	C13	0.240200	0.240200	0.851700
H131	H13	0.260400	0.260400	0.892700
C141	C14	0.759800	0.759800	0.851700
H141	H14	0.739600	0.739600	0.892700
C151	C15	0.240200	0.759800	0.148300
H151	H15	0.260400	0.739600	0.107300
C161	C16	0.759800	0.240200	0.148300
H161	H16	0.739600	0.260400	0.107300
C171	C17	0.240200	0.148300	0.759800
H171	H17	0.260400	0.107300	0.739600
C181	C18	0.759800	0.148300	0.240200
H181	H18	0.739600	0.107300	0.260400
C191	C19	0.759800	0.851700	0.759800
H191	H19	0.739600	0.892700	0.739600
C201	C20	0.240200	0.851700	0.240200
H201	H20	0.260400	0.892700	0.260400
C211	C21	0.148300	0.240200	0.759800
H211	H21	0.107300	0.260400	0.739600
C221	C22	0.148300	0.759800	0.240200
H221	H22	0.107300	0.739600	0.260400
C231	C23	0.851700	0.240200	0.240200
H231	H23	0.892700	0.260400	0.260400
C241	C24	0.851700	0.759800	0.759800
H241	H24	0.892700	0.739600	0.739600
C251	C25	0.270900	0.179200	0.179200
C261	C26	0.336200	0.147100	0.147100
C271	C27	0.729100	0.820800	0.179200
C281	C28	0.663800	0.852900	0.147100
C291	C29	0.729100	0.179200	0.820800
C301	C30	0.663800	0.147100	0.852900
C311	C31	0.270900	0.820800	0.820800
C321	C32	0.336200	0.852900	0.852900
C331	C33	0.179200	0.270900	0.179200
C341	C34	0.147100	0.336200	0.147100
C351	C35	0.179200	0.729100	0.820800
C361	C36	0.147100	0.663800	0.852900
C371	C37	0.820800	0.729100	0.179200
C381	C38	0.852900	0.663800	0.147100
C391	C39	0.820800	0.270900	0.820800
C401	C40	0.852900	0.336200	0.852900
C411	C41	0.179200	0.179200	0.270900
C421	C42	0.147100	0.147100	0.336200
C431	C43	0.820800	0.179200	0.729100
C441	C44	0.852900	0.147100	0.663800
C451	C45	0.179200	0.820800	0.729100
C461	C46	0.147100	0.852900	0.663800
C471	C47	0.820800	0.820800	0.270900
C481	C48	0.852900	0.852900	0.336200
C491	C49	0.179200	0.270900	0.820800
C501	C50	0.147100	0.336200	0.852900
C511	C51	0.820800	0.729100	0.820800
C521	C52	0.852900	0.663800	0.852900
C531	C53	0.179200	0.729100	0.179200
C541	C54	0.147100	0.663800	0.147100
C551	C55	0.820800	0.270900	0.179200
C561	C56	0.852900	0.336200	0.147100
C571	C57	0.270900	0.179200	0.820800
C581	C58	0.336200	0.147100	0.852900
C591	C59	0.729100	0.179200	0.179200
C601	C60	0.663800	0.147100	0.147100
C611	C61	0.729100	0.820800	0.820800
C621	C62	0.663800	0.852900	0.852900
C631	C63	0.270900	0.820800	0.179200
C641	C64	0.336200	0.852900	0.147100
C651	C65	0.179200	0.179200	0.729100
C661	C66	0.147100	0.147100	0.663800
C671	C67	0.179200	0.820800	0.270900
C681	C68	0.147100	0.852900	0.336200
C691	C69	0.820800	0.179200	0.270900
C701	C70	0.852900	0.147100	0.336200
C711	C71	0.820800	0.820800	0.729100
C721	C72	0.852900	0.852900	0.663800
