data_BOWQAG_SL_PM
_symmetry_space_group_name_H-M	'P1'
_cell_length_a	6.718600
_cell_length_b	17.082000
_cell_length_c	17.352000
_cell_angle_alpha	90.000000
_cell_angle_beta	98.770000
_cell_angle_gamma	90.000000
_symmetry_Int_Tables_number 1

loop_
_symmetry_equiv_pos_as_xyz
'x,y,z'

loop_
_atom_site_label
_atom_site_type_symbol
_atom_site_fract_x
_atom_site_fract_y
_atom_site_fract_z
Zn11	Zn1	0.278040	0.518310	0.296120
H21	H2	0.640700	0.550400	0.218800
H31	H3	0.734800	0.545800	0.097000
H41	H4	0.183800	0.461100	0.012600
H51	H5	0.100300	0.469900	0.136000
H61	H6	0.500600	0.401800	0.407700
H71	H7	0.807200	0.390400	0.487800
H81	H8	0.909400	0.619500	0.449400
H91	H9	0.602000	0.624400	0.369100
H101	H10	0.597700	0.364300	0.166000
H111	H11	0.666900	0.247800	0.371900
H121	H12	0.350000	0.190600	0.337100
H131	H13	0.284400	0.305400	0.130300
C141	C14	0.545800	0.532640	0.176150
C151	C15	0.603300	0.529450	0.103580
C161	C16	0.471200	0.502520	0.039620
C171	C17	0.280300	0.480100	0.054080
C181	C18	0.231300	0.485410	0.127840
C191	C19	0.586600	0.446150	0.415280
C201	C20	0.769500	0.439080	0.463360
C211	C21	0.898800	0.503110	0.476050
C221	C22	0.829800	0.573470	0.440670
C231	C23	0.645700	0.576100	0.392940
C241	C24	0.858700	0.350070	0.297170
C251	C25	0.663100	0.311870	0.272740
C261	C26	0.547900	0.328790	0.200650
C271	C27	0.588700	0.259890	0.323010
C281	C28	0.091500	0.203070	0.206390
C291	C29	0.286500	0.242440	0.229850
C301	C30	0.400800	0.225550	0.302190
C311	C31	0.361500	0.293950	0.179590
N321	N32	0.362000	0.511880	0.189440
N331	N33	0.525500	0.513200	0.378790
N341	N34	0.099500	0.429170	0.308780
N351	N35	0.144500	0.376080	0.363810
N361	N36	0.994000	0.324740	0.357660
N371	N37	0.920500	0.414760	0.265200
N381	N38	0.858500	0.120030	0.194130
N391	N39	0.803700	0.175320	0.141890
N401	N40	0.949900	0.228910	0.148510
N411	N41	0.039200	0.135570	0.235890
H421	H42	0.036760	0.729070	0.610290
H431	H43	0.027040	0.715330	0.881760
Zn441	Zn44	0.721960	0.018310	0.203880
H451	H45	0.359300	0.050400	0.281200
H461	H46	0.265200	0.045800	0.403000
H471	H47	0.816200	0.961100	0.487400
H481	H48	0.899700	0.969900	0.364000
H491	H49	0.499400	0.901800	0.092300
H501	H50	0.192800	0.890400	0.012200
H511	H51	0.090600	0.119500	0.050600
H521	H52	0.398000	0.124400	0.130900
H531	H53	0.402300	0.864300	0.334000
H541	H54	0.333100	0.747800	0.128100
H551	H55	0.650000	0.690600	0.162900
H561	H56	0.715600	0.805400	0.369700
C571	C57	0.454200	0.032640	0.323850
C581	C58	0.396700	0.029450	0.396420
C591	C59	0.528800	0.002520	0.460380
C601	C60	0.719700	0.980100	0.445920
C611	C61	0.768700	0.985410	0.372160
C621	C62	0.413400	0.946150	0.084720
C631	C63	0.230500	0.939080	0.036640
C641	C64	0.101200	0.003110	0.023950
C651	C65	0.170200	0.073470	0.059330
C661	C66	0.354300	0.076100	0.107060
C671	C67	0.141300	0.850070	0.202830
C681	C68	0.336900	0.811870	0.227260
C691	C69	0.452100	0.828790	0.299350
C701	C70	0.411300	0.759890	0.176990
C711	C71	0.908500	0.703070	0.293610
C721	C72	0.713500	0.742440	0.270150
C731	C73	0.599200	0.725550	0.197810
C741	C74	0.638500	0.793950	0.320410
N751	N75	0.638000	0.011880	0.310560
N761	N76	0.474500	0.013200	0.121210
N771	N77	0.900500	0.929170	0.191220
N781	N78	0.855500	0.876080	0.136190
N791	N79	0.006000	0.824740	0.142340
N801	N80	0.079500	0.914760	0.234800
N811	N81	0.141500	0.620030	0.305870
N821	N82	0.196300	0.675320	0.358110
N831	N83	0.050100	0.728910	0.351490
N841	N84	0.960800	0.635570	0.264110
H851	H85	0.963240	0.229070	0.889710
H861	H86	0.972960	0.215330	0.618240
Zn871	Zn87	0.721960	0.481690	0.703880
H881	H88	0.359300	0.449600	0.781200
H891	H89	0.265200	0.454200	0.903000
H901	H90	0.816200	0.538900	0.987400
H911	H91	0.899700	0.530100	0.864000
H921	H92	0.499400	0.598200	0.592300
H931	H93	0.192800	0.609600	0.512200
H941	H94	0.090600	0.380500	0.550600
H951	H95	0.398000	0.375600	0.630900
H961	H96	0.402300	0.635700	0.834000
H971	H97	0.333100	0.752200	0.628100
H981	H98	0.650000	0.809400	0.662900
H991	H99	0.715600	0.694600	0.869700
C1001	C100	0.454200	0.467360	0.823850
C1011	C101	0.396700	0.470550	0.896420
C1021	C102	0.528800	0.497480	0.960380
C1031	C103	0.719700	0.519900	0.945920
C1041	C104	0.768700	0.514590	0.872160
C1051	C105	0.413400	0.553850	0.584720
C1061	C106	0.230500	0.560920	0.536640
C1071	C107	0.101200	0.496890	0.523950
C1081	C108	0.170200	0.426530	0.559330
C1091	C109	0.354300	0.423900	0.607060
C1101	C110	0.141300	0.649930	0.702830
C1111	C111	0.336900	0.688130	0.727260
C1121	C112	0.452100	0.671210	0.799350
C1131	C113	0.411300	0.740110	0.676990
C1141	C114	0.908500	0.796930	0.793610
C1151	C115	0.713500	0.757560	0.770150
C1161	C116	0.599200	0.774450	0.697810
C1171	C117	0.638500	0.706050	0.820410
N1181	N118	0.638000	0.488120	0.810560
N1191	N119	0.474500	0.486800	0.621210
N1201	N120	0.900500	0.570830	0.691220
N1211	N121	0.855500	0.623920	0.636190
N1221	N122	0.006000	0.675260	0.642340
N1231	N123	0.079500	0.585240	0.734800
N1241	N124	0.141500	0.879970	0.805870
N1251	N125	0.196300	0.824680	0.858110
N1261	N126	0.050100	0.771090	0.851490
N1271	N127	0.960800	0.864430	0.764110
H1281	H128	0.963240	0.270930	0.389710
H1291	H129	0.972960	0.284670	0.118240
Zn1301	Zn130	0.278040	0.981690	0.796120
H1311	H131	0.640700	0.949600	0.718800
H1321	H132	0.734800	0.954200	0.597000
H1331	H133	0.183800	0.038900	0.512600
H1341	H134	0.100300	0.030100	0.636000
H1351	H135	0.500600	0.098200	0.907700
H1361	H136	0.807200	0.109600	0.987800
H1371	H137	0.909400	0.880500	0.949400
H1381	H138	0.602000	0.875600	0.869100
H1391	H139	0.597700	0.135700	0.666000
H1401	H140	0.666900	0.252200	0.871900
H1411	H141	0.350000	0.309400	0.837100
H1421	H142	0.284400	0.194600	0.630300
C1431	C143	0.545800	0.967360	0.676150
C1441	C144	0.603300	0.970550	0.603580
C1451	C145	0.471200	0.997480	0.539620
C1461	C146	0.280300	0.019900	0.554080
C1471	C147	0.231300	0.014590	0.627840
C1481	C148	0.586600	0.053850	0.915280
C1491	C149	0.769500	0.060920	0.963360
C1501	C150	0.898800	0.996890	0.976050
C1511	C151	0.829800	0.926530	0.940670
C1521	C152	0.645700	0.923900	0.892940
C1531	C153	0.858700	0.149930	0.797170
C1541	C154	0.663100	0.188130	0.772740
C1551	C155	0.547900	0.171210	0.700650
C1561	C156	0.588700	0.240110	0.823010
C1571	C157	0.091500	0.296930	0.706390
C1581	C158	0.286500	0.257560	0.729850
C1591	C159	0.400800	0.274450	0.802190
C1601	C160	0.361500	0.206050	0.679590
N1611	N161	0.362000	0.988120	0.689440
N1621	N162	0.525500	0.986800	0.878790
N1631	N163	0.099500	0.070830	0.808780
N1641	N164	0.144500	0.123920	0.863810
N1651	N165	0.994000	0.175260	0.857660
N1661	N166	0.920500	0.085240	0.765200
N1671	N167	0.858500	0.379970	0.694130
N1681	N168	0.803700	0.324680	0.641890
N1691	N169	0.949900	0.271090	0.648510
N1701	N170	0.039200	0.364430	0.735890
H1711	H171	0.036760	0.770930	0.110290
H1721	H172	0.027040	0.784670	0.381760
