data_BOWRAH_clean_PM
_symmetry_space_group_name_H-M	'P1'
_cell_length_a	5.013900
_cell_length_b	9.309000
_cell_length_c	20.923000
_cell_angle_alpha	90.000000
_cell_angle_beta	110.294000
_cell_angle_gamma	90.000000
_symmetry_Int_Tables_number 1

loop_
_symmetry_equiv_pos_as_xyz
'x,y,z'

loop_
_atom_site_label
_atom_site_type_symbol
_atom_site_fract_x
_atom_site_fract_y
_atom_site_fract_z
Fe11	Fe1	0.400930	0.688310	0.783930
P11	P1	0.781600	0.852770	0.710300
P21	P2	0.619700	0.393340	0.583760
B11	B1	0.462200	0.634500	0.637800
O11	O1	0.460400	0.585100	0.704210
O21	O2	0.559700	0.785700	0.644870
O31	O3	0.867800	0.365100	0.559270
O41	O4	0.660000	0.547400	0.615550
O51	O5	0.791300	0.014400	0.697240
O61	O6	0.175700	0.629300	0.585390
O71	O7	0.340000	0.385500	0.524610
O81	O8	0.675300	0.830200	0.770170
O91	O9	0.625400	0.282800	0.637650
O101	O10	0.068700	0.784600	0.721350
H11	H1	0.068000	0.640000	0.599000
H21	H2	0.429000	0.499000	0.707000
Fe21	Fe2	0.599070	0.188310	0.716070
P31	P3	0.218400	0.352770	0.789700
P41	P4	0.380300	0.893340	0.916240
B21	B2	0.537800	0.134500	0.862200
O111	O11	0.539600	0.085100	0.795790
O121	O12	0.440300	0.285700	0.855130
O131	O13	0.132200	0.865100	0.940730
O141	O14	0.340000	0.047400	0.884450
O151	O15	0.208700	0.514400	0.802760
O161	O16	0.824300	0.129300	0.914610
O171	O17	0.660000	0.885500	0.975390
O181	O18	0.324700	0.330200	0.729830
O191	O19	0.374600	0.782800	0.862350
O201	O20	0.931300	0.284600	0.778650
H31	H3	0.932000	0.140000	0.901000
H41	H4	0.571000	0.999000	0.793000
Fe31	Fe3	0.599070	0.311690	0.216070
P51	P5	0.218400	0.147230	0.289700
P61	P6	0.380300	0.606660	0.416240
B31	B3	0.537800	0.365500	0.362200
O211	O21	0.539600	0.414900	0.295790
O221	O22	0.440300	0.214300	0.355130
O231	O23	0.132200	0.634900	0.440730
O241	O24	0.340000	0.452600	0.384450
O251	O25	0.208700	0.985600	0.302760
O261	O26	0.824300	0.370700	0.414610
O271	O27	0.660000	0.614500	0.475390
O281	O28	0.324700	0.169800	0.229830
O291	O29	0.374600	0.717200	0.362350
O301	O30	0.931300	0.215400	0.278650
H51	H5	0.932000	0.360000	0.401000
H61	H6	0.571000	0.501000	0.293000
Fe41	Fe4	0.400930	0.811690	0.283930
P71	P7	0.781600	0.647230	0.210300
P81	P8	0.619700	0.106660	0.083760
B41	B4	0.462200	0.865500	0.137800
O311	O31	0.460400	0.914900	0.204210
O321	O32	0.559700	0.714300	0.144870
O331	O33	0.867800	0.134900	0.059270
O341	O34	0.660000	0.952600	0.115550
O351	O35	0.791300	0.485600	0.197240
O361	O36	0.175700	0.870700	0.085390
O371	O37	0.340000	0.114500	0.024610
O381	O38	0.675300	0.669800	0.270170
O391	O39	0.625400	0.217200	0.137650
O401	O40	0.068700	0.715400	0.221350
H71	H7	0.068000	0.860000	0.099000
H81	H8	0.429000	0.001000	0.207000
Fe51	Fe5	0.000000	0.500000	0.500000
Fe61	Fe6	0.000000	0.000000	0.000000
