data_BOWSUC_clean_PM
_symmetry_space_group_name_H-M	'P1'
_cell_length_a	13.612000
_cell_length_b	9.575300
_cell_length_c	14.022000
_cell_angle_alpha	90.000000
_cell_angle_beta	90.000000
_cell_angle_gamma	90.000000
_symmetry_Int_Tables_number 1

loop_
_symmetry_equiv_pos_as_xyz
'x,y,z'

loop_
_atom_site_label
_atom_site_type_symbol
_atom_site_fract_x
_atom_site_fract_y
_atom_site_fract_z
V11	V1	0.362840	0.809540	0.697600
P11	P1	0.559230	0.012310	0.726820
H11	H1	0.642000	0.944000	0.728000
P21	P2	0.674920	0.868100	0.378910
H21	H2	0.617000	0.796000	0.323000
F11	F1	0.442240	0.845500	0.561400
O11	O1	0.559500	0.131800	0.797870
O21	O2	0.766000	0.777900	0.394100
O31	O3	0.478800	0.909200	0.753500
O41	O4	0.699700	0.006500	0.334300
O51	O5	0.554200	0.061800	0.624350
O61	O6	0.621800	0.885900	0.475000
V21	V2	0.137160	0.190460	0.197600
P31	P3	0.940770	0.987690	0.226820
H31	H3	0.858000	0.056000	0.228000
P41	P4	0.825080	0.131900	0.878910
H41	H4	0.883000	0.204000	0.823000
F21	F2	0.057760	0.154500	0.061400
O71	O7	0.940500	0.868200	0.297870
O81	O8	0.734000	0.222100	0.894100
O91	O9	0.021200	0.090800	0.253500
O101	O10	0.800300	0.993500	0.834300
O111	O11	0.945800	0.938200	0.124350
O121	O12	0.878200	0.114100	0.975000
V31	V3	0.637160	0.309540	0.802400
P51	P5	0.440770	0.512310	0.773180
H51	H5	0.358000	0.444000	0.772000
P61	P6	0.325080	0.368100	0.121090
H61	H6	0.383000	0.296000	0.177000
F31	F3	0.557760	0.345500	0.938600
O131	O13	0.440500	0.631800	0.702130
O141	O14	0.234000	0.277900	0.105900
O151	O15	0.521200	0.409200	0.746500
O161	O16	0.300300	0.506500	0.165700
O171	O17	0.445800	0.561800	0.875650
O181	O18	0.378200	0.385900	0.025000
V41	V4	0.862840	0.690460	0.302400
P71	P7	0.059230	0.487690	0.273180
H71	H7	0.142000	0.556000	0.272000
P81	P8	0.174920	0.631900	0.621090
H81	H8	0.117000	0.704000	0.677000
F41	F4	0.942240	0.654500	0.438600
O191	O19	0.059500	0.368200	0.202130
O201	O20	0.266000	0.722100	0.605900
O211	O21	0.978800	0.590800	0.246500
O221	O22	0.199700	0.493500	0.665700
O231	O23	0.054200	0.438200	0.375650
O241	O24	0.121800	0.614100	0.525000
V51	V5	0.637160	0.190460	0.302400
P91	P9	0.440770	0.987690	0.273180
H91	H9	0.358000	0.056000	0.272000
P101	P10	0.325080	0.131900	0.621090
H101	H10	0.383000	0.204000	0.677000
F51	F5	0.557760	0.154500	0.438600
O251	O25	0.440500	0.868200	0.202130
O261	O26	0.234000	0.222100	0.605900
O271	O27	0.521200	0.090800	0.246500
O281	O28	0.300300	0.993500	0.665700
O291	O29	0.445800	0.938200	0.375650
O301	O30	0.378200	0.114100	0.525000
V61	V6	0.862840	0.809540	0.802400
P111	P11	0.059230	0.012310	0.773180
H111	H11	0.142000	0.944000	0.772000
P121	P12	0.174920	0.868100	0.121090
H121	H12	0.117000	0.796000	0.177000
F61	F6	0.942240	0.845500	0.938600
O311	O31	0.059500	0.131800	0.702130
O321	O32	0.266000	0.777900	0.105900
O331	O33	0.978800	0.909200	0.746500
O341	O34	0.199700	0.006500	0.165700
O351	O35	0.054200	0.061800	0.875650
O361	O36	0.121800	0.885900	0.025000
V71	V7	0.362840	0.690460	0.197600
P131	P13	0.559230	0.487690	0.226820
H131	H13	0.642000	0.556000	0.228000
P141	P14	0.674920	0.631900	0.878910
H141	H14	0.617000	0.704000	0.823000
F71	F7	0.442240	0.654500	0.061400
O371	O37	0.559500	0.368200	0.297870
O381	O38	0.766000	0.722100	0.894100
O391	O39	0.478800	0.590800	0.253500
O401	O40	0.699700	0.493500	0.834300
O411	O41	0.554200	0.438200	0.124350
O421	O42	0.621800	0.614100	0.975000
V81	V8	0.137160	0.309540	0.697600
P151	P15	0.940770	0.512310	0.726820
H151	H15	0.858000	0.444000	0.728000
P161	P16	0.825080	0.368100	0.378910
H161	H16	0.883000	0.296000	0.323000
F81	F8	0.057760	0.345500	0.561400
O431	O43	0.940500	0.631800	0.797870
O441	O44	0.734000	0.277900	0.394100
O451	O45	0.021200	0.409200	0.753500
O461	O46	0.800300	0.506500	0.334300
O471	O47	0.945800	0.561800	0.624350
O481	O48	0.878200	0.385900	0.475000
V91	V9	0.500000	0.000000	0.500000
V101	V10	0.000000	0.000000	0.000000
V111	V11	0.500000	0.500000	0.000000
V121	V12	0.000000	0.500000	0.500000
