data_BOWZUK_clean_PM
_symmetry_space_group_name_H-M	'P1'
_cell_length_a	28.409500
_cell_length_b	28.092200
_cell_length_c	9.474300
_cell_angle_alpha	90.000000
_cell_angle_beta	90.000000
_cell_angle_gamma	90.000000
_symmetry_Int_Tables_number 1

loop_
_symmetry_equiv_pos_as_xyz
'x,y,z'

loop_
_atom_site_label
_atom_site_type_symbol
_atom_site_fract_x
_atom_site_fract_y
_atom_site_fract_z
Zn11	Zn1	0.131550	0.511180	0.904570
N11	N1	0.367460	0.339490	0.400600
N21	N2	0.388980	0.078020	0.642500
N31	N3	0.513270	0.426570	0.092700
N41	N4	0.575080	0.471000	0.055000
N51	N5	0.394790	0.155320	0.621300
C11	C1	0.401950	0.361600	0.318900
C21	C2	0.371680	0.116060	0.578900
H11	H1	0.347100	0.115700	0.514200
N61	N6	0.209720	0.443560	0.592500
C31	C3	0.417650	0.279430	0.507800
H21	H2	0.442800	0.300600	0.504300
C41	C4	0.249950	0.416780	0.542800
C51	C5	0.374350	0.293120	0.456900
C61	C6	0.386900	0.203020	0.570300
C71	C7	0.428520	0.141290	0.716200
H31	H3	0.450000	0.160700	0.762500
C81	C8	0.474080	0.405280	0.165900
N71	N7	0.162260	0.482940	0.733200
C91	C9	0.431250	0.335210	0.232400
H41	H4	0.426500	0.302600	0.224300
C101	C10	0.467310	0.356470	0.157900
H51	H5	0.487100	0.338000	0.102200
C111	C11	0.327100	0.366000	0.448000
C121	C12	0.276180	0.391160	0.637000
H61	H6	0.267800	0.390500	0.731900
C131	C13	0.343710	0.216090	0.521700
H71	H7	0.318500	0.195100	0.527200
C141	C14	0.424280	0.234210	0.564500
H81	H8	0.453700	0.225100	0.598200
C151	C15	0.540680	0.460760	0.142500
H91	H9	0.536100	0.475700	0.228900
C161	C16	0.408770	0.410970	0.324400
H101	H10	0.389000	0.429600	0.379900
C171	C17	0.337660	0.261120	0.464000
H111	H11	0.308300	0.269900	0.429500
C181	C18	0.444560	0.432320	0.248000
H121	H12	0.448600	0.465100	0.252300
C191	C19	0.424220	0.093290	0.729100
H131	H13	0.442400	0.074000	0.787500
C201	C20	0.315460	0.366010	0.590100
H141	H14	0.333900	0.349200	0.654200
C211	C21	0.201790	0.459280	0.724400
H151	H15	0.221900	0.454000	0.800200
C221	C22	0.568130	0.442600	0.939800
H161	H16	0.586500	0.442300	0.858600
C231	C23	0.260410	0.415700	0.402400
H171	H17	0.241800	0.432600	0.338800
C241	C24	0.529860	0.414700	0.964000
H181	H18	0.517500	0.391900	0.903400
C251	C25	0.298100	0.390100	0.354500
H191	H19	0.304400	0.388800	0.258200
C261	C26	0.143700	0.482800	0.606200
H201	H20	0.115300	0.497200	0.582600
C271	C27	0.172400	0.458000	0.511200
H211	H21	0.167400	0.452500	0.415500
Zn21	Zn2	0.368450	0.011180	0.595430
N81	N8	0.132540	0.839490	0.099400
N91	N9	0.111020	0.578020	0.857500
N101	N10	0.986730	0.926570	0.407300
N111	N11	0.924920	0.971000	0.445000
N121	N12	0.105210	0.655320	0.878700
C281	C28	0.098050	0.861600	0.181100
C291	C29	0.128320	0.616060	0.921100
H221	H22	0.152900	0.615700	0.985800
N131	N13	0.290280	0.943560	0.907500
C301	C30	0.082350	0.779430	0.992200
H231	H23	0.057200	0.800600	0.995700
C311	C31	0.250050	0.916780	0.957200
C321	C32	0.125650	0.793120	0.043100
C331	C33	0.113100	0.703020	0.929700
C341	C34	0.071480	0.641290	0.783800
H241	H24	0.050000	0.660700	0.737500
C351	C35	0.025920	0.905280	0.334100
N141	N14	0.337740	0.982940	0.766800
C361	C36	0.068750	0.835210	0.267600
H251	H25	0.073500	0.802600	0.275700
C371	C37	0.032690	0.856470	0.342100
H261	H26	0.012900	0.838000	0.397800
C381	C38	0.172900	0.866000	0.052000
C391	C39	0.223820	0.891160	0.863000
H271	H27	0.232200	0.890500	0.768100
C401	C40	0.156290	0.716090	0.978300
H281	H28	0.181500	0.695100	0.972800
C411	C41	0.075720	0.734210	0.935500
H291	H29	0.046300	0.725100	0.901800
C421	C42	0.959320	0.960760	0.357500
H301	H30	0.963900	0.975700	0.271100
C431	C43	0.091230	0.910970	0.175600
H311	H31	0.111000	0.929600	0.120100
C441	C44	0.162340	0.761120	0.036000
H321	H32	0.191700	0.769900	0.070500
C451	C45	0.055440	0.932320	0.252000
H331	H33	0.051400	0.965100	0.247700
C461	C46	0.075780	0.593290	0.770900
H341	H34	0.057600	0.574000	0.712500
C471	C47	0.184540	0.866010	0.909900
H351	H35	0.166100	0.849200	0.845800
C481	C48	0.298210	0.959280	0.775600
H361	H36	0.278100	0.954000	0.699800
C491	C49	0.931870	0.942600	0.560200
H371	H37	0.913500	0.942300	0.641400
C501	C50	0.239590	0.915700	0.097600
H381	H38	0.258200	0.932600	0.161200
C511	C51	0.970140	0.914700	0.536000
H391	H39	0.982500	0.891900	0.596600
C521	C52	0.201900	0.890100	0.145500
H401	H40	0.195600	0.888800	0.241800
C531	C53	0.356300	0.982800	0.893800
H411	H41	0.384700	0.997200	0.917400
C541	C54	0.327600	0.958000	0.988800
H421	H42	0.332600	0.952500	0.084500
Zn31	Zn3	0.631550	0.511180	0.095430
N151	N15	0.867460	0.339490	0.599400
N161	N16	0.888980	0.078020	0.357500
N171	N17	0.013270	0.426570	0.907300
N181	N18	0.075080	0.471000	0.945000
N191	N19	0.894790	0.155320	0.378700
C551	C55	0.901950	0.361600	0.681100
C561	C56	0.871680	0.116060	0.421100
H431	H43	0.847100	0.115700	0.485800
N201	N20	0.709720	0.443560	0.407500
C571	C57	0.917650	0.279430	0.492200
H441	H44	0.942800	0.300600	0.495700
C581	C58	0.749950	0.416780	0.457200
C591	C59	0.874350	0.293120	0.543100
C601	C60	0.886900	0.203020	0.429700
C611	C61	0.928520	0.141290	0.283800
H451	H45	0.950000	0.160700	0.237500
C621	C62	0.974080	0.405280	0.834100
N211	N21	0.662260	0.482940	0.266800
C631	C63	0.931250	0.335210	0.767600
H461	H46	0.926500	0.302600	0.775700
C641	C64	0.967310	0.356470	0.842100
H471	H47	0.987100	0.338000	0.897800
C651	C65	0.827100	0.366000	0.552000
C661	C66	0.776180	0.391160	0.363000
H481	H48	0.767800	0.390500	0.268100
C671	C67	0.843710	0.216090	0.478300
H491	H49	0.818500	0.195100	0.472800
C681	C68	0.924280	0.234210	0.435500
H501	H50	0.953700	0.225100	0.401800
C691	C69	0.040680	0.460760	0.857500
H511	H51	0.036100	0.475700	0.771100
C701	C70	0.908770	0.410970	0.675600
H521	H52	0.889000	0.429600	0.620100
C711	C71	0.837660	0.261120	0.536000
H531	H53	0.808300	0.269900	0.570500
C721	C72	0.944560	0.432320	0.752000
H541	H54	0.948600	0.465100	0.747700
C731	C73	0.924220	0.093290	0.270900
H551	H55	0.942400	0.074000	0.212500
C741	C74	0.815460	0.366010	0.409900
H561	H56	0.833900	0.349200	0.345800
C751	C75	0.701790	0.459280	0.275600
H571	H57	0.721900	0.454000	0.199800
C761	C76	0.068130	0.442600	0.060200
H581	H58	0.086500	0.442300	0.141400
C771	C77	0.760410	0.415700	0.597600
H591	H59	0.741800	0.432600	0.661200
C781	C78	0.029860	0.414700	0.036000
H601	H60	0.017500	0.391900	0.096600
C791	C79	0.798100	0.390100	0.645500
H611	H61	0.804400	0.388800	0.741800
C801	C80	0.643700	0.482800	0.393800
H621	H62	0.615300	0.497200	0.417400
C811	C81	0.672400	0.458000	0.488800
H631	H63	0.667400	0.452500	0.584500
Zn41	Zn4	0.868450	0.011180	0.404570
N221	N22	0.632540	0.839490	0.900600
N231	N23	0.611020	0.578020	0.142500
N241	N24	0.486730	0.926570	0.592700
N251	N25	0.424920	0.971000	0.555000
N261	N26	0.605210	0.655320	0.121300
C821	C82	0.598050	0.861600	0.818900
C831	C83	0.628320	0.616060	0.078900
H641	H64	0.652900	0.615700	0.014200
N271	N27	0.790280	0.943560	0.092500
C841	C84	0.582350	0.779430	0.007800
H651	H65	0.557200	0.800600	0.004300
C851	C85	0.750050	0.916780	0.042800
C861	C86	0.625650	0.793120	0.956900
C871	C87	0.613100	0.703020	0.070300
C881	C88	0.571480	0.641290	0.216200
H661	H66	0.550000	0.660700	0.262500
C891	C89	0.525920	0.905280	0.665900
N281	N28	0.837740	0.982940	0.233200
C901	C90	0.568750	0.835210	0.732400
H671	H67	0.573500	0.802600	0.724300
C911	C91	0.532690	0.856470	0.657900
H681	H68	0.512900	0.838000	0.602200
C921	C92	0.672900	0.866000	0.948000
C931	C93	0.723820	0.891160	0.137000
H691	H69	0.732200	0.890500	0.231900
C941	C94	0.656290	0.716090	0.021700
H701	H70	0.681500	0.695100	0.027200
C951	C95	0.575720	0.734210	0.064500
H711	H71	0.546300	0.725100	0.098200
C961	C96	0.459320	0.960760	0.642500
H721	H72	0.463900	0.975700	0.728900
C971	C97	0.591230	0.910970	0.824400
H731	H73	0.611000	0.929600	0.879900
C981	C98	0.662340	0.761120	0.964000
H741	H74	0.691700	0.769900	0.929500
C991	C99	0.555440	0.932320	0.748000
H751	H75	0.551400	0.965100	0.752300
C1001	C100	0.575780	0.593290	0.229100
H761	H76	0.557600	0.574000	0.287500
C1011	C101	0.684540	0.866010	0.090100
H771	H77	0.666100	0.849200	0.154200
C1021	C102	0.798210	0.959280	0.224400
H781	H78	0.778100	0.954000	0.300200
C1031	C103	0.431870	0.942600	0.439800
H791	H79	0.413500	0.942300	0.358600
C1041	C104	0.739590	0.915700	0.902400
H801	H80	0.758200	0.932600	0.838800
C1051	C105	0.470140	0.914700	0.464000
H811	H81	0.482500	0.891900	0.403400
C1061	C106	0.701900	0.890100	0.854500
H821	H82	0.695600	0.888800	0.758200
C1071	C107	0.856300	0.982800	0.106200
H831	H83	0.884700	0.997200	0.082600
C1081	C108	0.827600	0.958000	0.011200
H841	H84	0.832600	0.952500	0.915500
Zn51	Zn5	0.368450	0.488820	0.904570
N291	N29	0.132540	0.660510	0.400600
N301	N30	0.111020	0.921980	0.642500
N311	N31	0.986730	0.573430	0.092700
N321	N32	0.924920	0.529000	0.055000
N331	N33	0.105210	0.844680	0.621300
C1091	C109	0.098050	0.638400	0.318900
C1101	C110	0.128320	0.883940	0.578900
H851	H85	0.152900	0.884300	0.514200
N341	N34	0.290280	0.556440	0.592500
C1111	C111	0.082350	0.720570	0.507800
H861	H86	0.057200	0.699400	0.504300
C1121	C112	0.250050	0.583220	0.542800
C1131	C113	0.125650	0.706880	0.456900
C1141	C114	0.113100	0.796980	0.570300
C1151	C115	0.071480	0.858710	0.716200
H871	H87	0.050000	0.839300	0.762500
C1161	C116	0.025920	0.594720	0.165900
N351	N35	0.337740	0.517060	0.733200
C1171	C117	0.068750	0.664790	0.232400
H881	H88	0.073500	0.697400	0.224300
C1181	C118	0.032690	0.643530	0.157900
H891	H89	0.012900	0.662000	0.102200
C1191	C119	0.172900	0.634000	0.448000
C1201	C120	0.223820	0.608840	0.637000
H901	H90	0.232200	0.609500	0.731900
C1211	C121	0.156290	0.783910	0.521700
H911	H91	0.181500	0.804900	0.527200
C1221	C122	0.075720	0.765790	0.564500
H921	H92	0.046300	0.774900	0.598200
C1231	C123	0.959320	0.539240	0.142500
H931	H93	0.963900	0.524300	0.228900
C1241	C124	0.091230	0.589030	0.324400
H941	H94	0.111000	0.570400	0.379900
C1251	C125	0.162340	0.738880	0.464000
H951	H95	0.191700	0.730100	0.429500
C1261	C126	0.055440	0.567680	0.248000
H961	H96	0.051400	0.534900	0.252300
C1271	C127	0.075780	0.906710	0.729100
H971	H97	0.057600	0.926000	0.787500
C1281	C128	0.184540	0.633990	0.590100
H981	H98	0.166100	0.650800	0.654200
C1291	C129	0.298210	0.540720	0.724400
H991	H99	0.278100	0.546000	0.800200
C1301	C130	0.931870	0.557400	0.939800
H1001	H100	0.913500	0.557700	0.858600
C1311	C131	0.239590	0.584300	0.402400
H1011	H101	0.258200	0.567400	0.338800
C1321	C132	0.970140	0.585300	0.964000
H1021	H102	0.982500	0.608100	0.903400
C1331	C133	0.201900	0.609900	0.354500
H1031	H103	0.195600	0.611200	0.258200
C1341	C134	0.356300	0.517200	0.606200
H1041	H104	0.384700	0.502800	0.582600
C1351	C135	0.327600	0.542000	0.511200
H1051	H105	0.332600	0.547500	0.415500
Zn61	Zn6	0.131550	0.988820	0.595430
N361	N36	0.367460	0.160510	0.099400
N371	N37	0.388980	0.421980	0.857500
N381	N38	0.513270	0.073430	0.407300
N391	N39	0.575080	0.029000	0.445000
N401	N40	0.394790	0.344680	0.878700
C1361	C136	0.401950	0.138400	0.181100
C1371	C137	0.371680	0.383940	0.921100
H1061	H106	0.347100	0.384300	0.985800
N411	N41	0.209720	0.056440	0.907500
C1381	C138	0.417650	0.220570	0.992200
H1071	H107	0.442800	0.199400	0.995700
C1391	C139	0.249950	0.083220	0.957200
C1401	C140	0.374350	0.206880	0.043100
C1411	C141	0.386900	0.296980	0.929700
C1421	C142	0.428520	0.358710	0.783800
H1081	H108	0.450000	0.339300	0.737500
C1431	C143	0.474080	0.094720	0.334100
N421	N42	0.162260	0.017060	0.766800
C1441	C144	0.431250	0.164790	0.267600
H1091	H109	0.426500	0.197400	0.275700
C1451	C145	0.467310	0.143530	0.342100
H1101	H110	0.487100	0.162000	0.397800
C1461	C146	0.327100	0.134000	0.052000
C1471	C147	0.276180	0.108840	0.863000
H1111	H111	0.267800	0.109500	0.768100
C1481	C148	0.343710	0.283910	0.978300
H1121	H112	0.318500	0.304900	0.972800
C1491	C149	0.424280	0.265790	0.935500
H1131	H113	0.453700	0.274900	0.901800
C1501	C150	0.540680	0.039240	0.357500
H1141	H114	0.536100	0.024300	0.271100
C1511	C151	0.408770	0.089030	0.175600
H1151	H115	0.389000	0.070400	0.120100
C1521	C152	0.337660	0.238880	0.036000
H1161	H116	0.308300	0.230100	0.070500
C1531	C153	0.444560	0.067680	0.252000
H1171	H117	0.448600	0.034900	0.247700
C1541	C154	0.424220	0.406710	0.770900
H1181	H118	0.442400	0.426000	0.712500
C1551	C155	0.315460	0.133990	0.909900
H1191	H119	0.333900	0.150800	0.845800
C1561	C156	0.201790	0.040720	0.775600
H1201	H120	0.221900	0.046000	0.699800
C1571	C157	0.568130	0.057400	0.560200
H1211	H121	0.586500	0.057700	0.641400
C1581	C158	0.260410	0.084300	0.097600
H1221	H122	0.241800	0.067400	0.161200
C1591	C159	0.529860	0.085300	0.536000
H1231	H123	0.517500	0.108100	0.596600
C1601	C160	0.298100	0.109900	0.145500
H1241	H124	0.304400	0.111200	0.241800
C1611	C161	0.143700	0.017200	0.893800
H1251	H125	0.115300	0.002800	0.917400
C1621	C162	0.172400	0.042000	0.988800
H1261	H126	0.167400	0.047500	0.084500
Zn71	Zn7	0.868450	0.488820	0.095430
N431	N43	0.632540	0.660510	0.599400
N441	N44	0.611020	0.921980	0.357500
N451	N45	0.486730	0.573430	0.907300
N461	N46	0.424920	0.529000	0.945000
N471	N47	0.605210	0.844680	0.378700
C1631	C163	0.598050	0.638400	0.681100
C1641	C164	0.628320	0.883940	0.421100
H1271	H127	0.652900	0.884300	0.485800
N481	N48	0.790280	0.556440	0.407500
C1651	C165	0.582350	0.720570	0.492200
H1281	H128	0.557200	0.699400	0.495700
C1661	C166	0.750050	0.583220	0.457200
C1671	C167	0.625650	0.706880	0.543100
C1681	C168	0.613100	0.796980	0.429700
C1691	C169	0.571480	0.858710	0.283800
H1291	H129	0.550000	0.839300	0.237500
C1701	C170	0.525920	0.594720	0.834100
N491	N49	0.837740	0.517060	0.266800
C1711	C171	0.568750	0.664790	0.767600
H1301	H130	0.573500	0.697400	0.775700
C1721	C172	0.532690	0.643530	0.842100
H1311	H131	0.512900	0.662000	0.897800
C1731	C173	0.672900	0.634000	0.552000
C1741	C174	0.723820	0.608840	0.363000
H1321	H132	0.732200	0.609500	0.268100
C1751	C175	0.656290	0.783910	0.478300
H1331	H133	0.681500	0.804900	0.472800
C1761	C176	0.575720	0.765790	0.435500
H1341	H134	0.546300	0.774900	0.401800
C1771	C177	0.459320	0.539240	0.857500
H1351	H135	0.463900	0.524300	0.771100
C1781	C178	0.591230	0.589030	0.675600
H1361	H136	0.611000	0.570400	0.620100
C1791	C179	0.662340	0.738880	0.536000
H1371	H137	0.691700	0.730100	0.570500
C1801	C180	0.555440	0.567680	0.752000
H1381	H138	0.551400	0.534900	0.747700
C1811	C181	0.575780	0.906710	0.270900
H1391	H139	0.557600	0.926000	0.212500
C1821	C182	0.684540	0.633990	0.409900
H1401	H140	0.666100	0.650800	0.345800
C1831	C183	0.798210	0.540720	0.275600
H1411	H141	0.778100	0.546000	0.199800
C1841	C184	0.431870	0.557400	0.060200
H1421	H142	0.413500	0.557700	0.141400
C1851	C185	0.739590	0.584300	0.597600
H1431	H143	0.758200	0.567400	0.661200
C1861	C186	0.470140	0.585300	0.036000
H1441	H144	0.482500	0.608100	0.096600
C1871	C187	0.701900	0.609900	0.645500
H1451	H145	0.695600	0.611200	0.741800
C1881	C188	0.856300	0.517200	0.393800
H1461	H146	0.884700	0.502800	0.417400
C1891	C189	0.827600	0.542000	0.488800
H1471	H147	0.832600	0.547500	0.584500
Zn81	Zn8	0.631550	0.988820	0.404570
N501	N50	0.867460	0.160510	0.900600
N511	N51	0.888980	0.421980	0.142500
N521	N52	0.013270	0.073430	0.592700
N531	N53	0.075080	0.029000	0.555000
N541	N54	0.894790	0.344680	0.121300
C1901	C190	0.901950	0.138400	0.818900
C1911	C191	0.871680	0.383940	0.078900
H1481	H148	0.847100	0.384300	0.014200
N551	N55	0.709720	0.056440	0.092500
C1921	C192	0.917650	0.220570	0.007800
H1491	H149	0.942800	0.199400	0.004300
C1931	C193	0.749950	0.083220	0.042800
C1941	C194	0.874350	0.206880	0.956900
C1951	C195	0.886900	0.296980	0.070300
C1961	C196	0.928520	0.358710	0.216200
H1501	H150	0.950000	0.339300	0.262500
C1971	C197	0.974080	0.094720	0.665900
N561	N56	0.662260	0.017060	0.233200
C1981	C198	0.931250	0.164790	0.732400
H1511	H151	0.926500	0.197400	0.724300
C1991	C199	0.967310	0.143530	0.657900
H1521	H152	0.987100	0.162000	0.602200
C2001	C200	0.827100	0.134000	0.948000
C2011	C201	0.776180	0.108840	0.137000
H1531	H153	0.767800	0.109500	0.231900
C2021	C202	0.843710	0.283910	0.021700
H1541	H154	0.818500	0.304900	0.027200
C2031	C203	0.924280	0.265790	0.064500
H1551	H155	0.953700	0.274900	0.098200
C2041	C204	0.040680	0.039240	0.642500
H1561	H156	0.036100	0.024300	0.728900
C2051	C205	0.908770	0.089030	0.824400
H1571	H157	0.889000	0.070400	0.879900
C2061	C206	0.837660	0.238880	0.964000
H1581	H158	0.808300	0.230100	0.929500
C2071	C207	0.944560	0.067680	0.748000
H1591	H159	0.948600	0.034900	0.752300
C2081	C208	0.924220	0.406710	0.229100
H1601	H160	0.942400	0.426000	0.287500
C2091	C209	0.815460	0.133990	0.090100
H1611	H161	0.833900	0.150800	0.154200
C2101	C210	0.701790	0.040720	0.224400
H1621	H162	0.721900	0.046000	0.300200
C2111	C211	0.068130	0.057400	0.439800
H1631	H163	0.086500	0.057700	0.358600
C2121	C212	0.760410	0.084300	0.902400
H1641	H164	0.741800	0.067400	0.838800
C2131	C213	0.029860	0.085300	0.464000
H1651	H165	0.017500	0.108100	0.403400
C2141	C214	0.798100	0.109900	0.854500
H1661	H166	0.804400	0.111200	0.758200
C2151	C215	0.643700	0.017200	0.106200
H1671	H167	0.615300	0.002800	0.082600
C2161	C216	0.672400	0.042000	0.011200
H1681	H168	0.667400	0.047500	0.915500
