data_BOXFOK_clean_PM
_symmetry_space_group_name_H-M	'P1'
_cell_length_a	34.837000
_cell_length_b	34.837000
_cell_length_c	34.837000
_cell_angle_alpha	60.000000
_cell_angle_beta	60.000000
_cell_angle_gamma	60.000000
_symmetry_Int_Tables_number 1

loop_
_symmetry_equiv_pos_as_xyz
'x,y,z'

loop_
_atom_site_label
_atom_site_type_symbol
_atom_site_fract_x
_atom_site_fract_y
_atom_site_fract_z
Dy11	Dy1	0.522760	0.058580	0.941420
Dy21	Dy2	0.058580	0.522760	0.477240
Dy31	Dy3	0.941420	0.477240	0.522760
Dy41	Dy4	0.477240	0.941420	0.058580
Dy51	Dy5	0.522760	0.941420	0.477240
Dy61	Dy6	0.058580	0.477240	0.941420
Dy71	Dy7	0.941420	0.522760	0.058580
Dy81	Dy8	0.477240	0.058580	0.522760
Dy91	Dy9	0.522760	0.477240	0.058580
Dy101	Dy10	0.058580	0.941420	0.522760
Dy111	Dy11	0.941420	0.058580	0.477240
Dy121	Dy12	0.477240	0.522760	0.941420
Dy131	Dy13	0.441420	0.977240	0.558580
Dy141	Dy14	0.977240	0.441420	0.022760
Dy151	Dy15	0.022760	0.558580	0.977240
Dy161	Dy16	0.558580	0.022760	0.441420
Dy171	Dy17	0.558580	0.977240	0.022760
Dy181	Dy18	0.022760	0.441420	0.558580
Dy191	Dy19	0.977240	0.558580	0.441420
Dy201	Dy20	0.441420	0.022760	0.977240
Dy211	Dy21	0.022760	0.977240	0.441420
Dy221	Dy22	0.558580	0.441420	0.977240
Dy231	Dy23	0.441420	0.558580	0.022760
Dy241	Dy24	0.977240	0.022760	0.558580
H11	H1	0.541700	0.052300	0.074700
H21	H2	0.554900	0.201900	0.009900
H31	H3	0.550300	0.173100	0.965700
H41	H4	0.593300	0.010100	0.170100
H51	H5	0.589000	0.008400	0.127400
H61	H6	0.638400	0.056400	0.073200
H71	H7	0.665200	0.007400	0.105000
H81	H8	0.644600	0.054400	0.116800
H91	H9	0.499500	0.043300	0.159100
H101	H10	0.503200	0.044600	0.202400
H111	H11	0.457600	0.123000	0.187400
H121	H12	0.430500	0.096300	0.188700
H131	H13	0.458600	0.126400	0.139400
H141	H14	0.052300	0.541700	0.331300
H151	H15	0.201900	0.554900	0.233300
H161	H16	0.173100	0.550300	0.310900
H171	H17	0.010100	0.593300	0.226500
H181	H18	0.008400	0.589000	0.275200
H191	H19	0.056400	0.638400	0.232000
H201	H20	0.007400	0.665200	0.222400
H211	H21	0.054400	0.644600	0.184200
H221	H22	0.043300	0.499500	0.298100
H231	H23	0.044600	0.503200	0.249800
H241	H24	0.123000	0.457600	0.232000
H251	H25	0.096300	0.430500	0.284500
H261	H26	0.126400	0.458600	0.275600
H271	H27	0.074700	0.331300	0.541700
H281	H28	0.009900	0.233300	0.554900
H291	H29	0.965700	0.310900	0.550300
H301	H30	0.170100	0.226500	0.593300
H311	H31	0.127400	0.275200	0.589000
H321	H32	0.073200	0.232000	0.638400
H331	H33	0.105000	0.222400	0.665200
H341	H34	0.116800	0.184200	0.644600
H351	H35	0.159100	0.298100	0.499500
H361	H36	0.202400	0.249800	0.503200
H371	H37	0.187400	0.232000	0.457600
H381	H38	0.188700	0.284500	0.430500
H391	H39	0.139400	0.275600	0.458600
H401	H40	0.331300	0.074700	0.052300
H411	H41	0.233300	0.009900	0.201900
H421	H42	0.310900	0.965700	0.173100
H431	H43	0.226500	0.170100	0.010100
H441	H44	0.275200	0.127400	0.008400
H451	H45	0.232000	0.073200	0.056400
H461	H46	0.222400	0.105000	0.007400
H471	H47	0.184200	0.116800	0.054400
H481	H48	0.298100	0.159100	0.043300
H491	H49	0.249800	0.202400	0.044600
H501	H50	0.232000	0.187400	0.123000
H511	H51	0.284500	0.188700	0.096300
H521	H52	0.275600	0.139400	0.126400
H531	H53	0.541700	0.074700	0.331300
H541	H54	0.554900	0.009900	0.233300
H551	H55	0.550300	0.965700	0.310900
H561	H56	0.593300	0.170100	0.226500
H571	H57	0.589000	0.127400	0.275200
H581	H58	0.638400	0.073200	0.232000
H591	H59	0.665200	0.105000	0.222400
H601	H60	0.644600	0.116800	0.184200
H611	H61	0.499500	0.159100	0.298100
H621	H62	0.503200	0.202400	0.249800
H631	H63	0.457600	0.187400	0.232000
H641	H64	0.430500	0.188700	0.284500
H651	H65	0.458600	0.139400	0.275600
H661	H66	0.052300	0.331300	0.074700
H671	H67	0.201900	0.233300	0.009900
H681	H68	0.173100	0.310900	0.965700
H691	H69	0.010100	0.226500	0.170100
H701	H70	0.008400	0.275200	0.127400
H711	H71	0.056400	0.232000	0.073200
H721	H72	0.007400	0.222400	0.105000
H731	H73	0.054400	0.184200	0.116800
H741	H74	0.043300	0.298100	0.159100
H751	H75	0.044600	0.249800	0.202400
H761	H76	0.123000	0.232000	0.187400
H771	H77	0.096300	0.284500	0.188700
H781	H78	0.126400	0.275600	0.139400
H791	H79	0.074700	0.541700	0.052300
H801	H80	0.009900	0.554900	0.201900
H811	H81	0.965700	0.550300	0.173100
H821	H82	0.170100	0.593300	0.010100
H831	H83	0.127400	0.589000	0.008400
H841	H84	0.073200	0.638400	0.056400
H851	H85	0.105000	0.665200	0.007400
H861	H86	0.116800	0.644600	0.054400
H871	H87	0.159100	0.499500	0.043300
H881	H88	0.202400	0.503200	0.044600
H891	H89	0.187400	0.457600	0.123000
H901	H90	0.188700	0.430500	0.096300
H911	H91	0.139400	0.458600	0.126400
H921	H92	0.331300	0.052300	0.541700
H931	H93	0.233300	0.201900	0.554900
H941	H94	0.310900	0.173100	0.550300
H951	H95	0.226500	0.010100	0.593300
H961	H96	0.275200	0.008400	0.589000
H971	H97	0.232000	0.056400	0.638400
H981	H98	0.222400	0.007400	0.665200
H991	H99	0.184200	0.054400	0.644600
H1001	H100	0.298100	0.043300	0.499500
H1011	H101	0.249800	0.044600	0.503200
H1021	H102	0.232000	0.123000	0.457600
H1031	H103	0.284500	0.096300	0.430500
H1041	H104	0.275600	0.126400	0.458600
H1051	H105	0.541700	0.331300	0.052300
H1061	H106	0.554900	0.233300	0.201900
H1071	H107	0.550300	0.310900	0.173100
H1081	H108	0.593300	0.226500	0.010100
H1091	H109	0.589000	0.275200	0.008400
H1101	H110	0.638400	0.232000	0.056400
H1111	H111	0.665200	0.222400	0.007400
H1121	H112	0.644600	0.184200	0.054400
H1131	H113	0.499500	0.298100	0.043300
H1141	H114	0.503200	0.249800	0.044600
H1151	H115	0.457600	0.232000	0.123000
H1161	H116	0.430500	0.284500	0.096300
H1171	H117	0.458600	0.275600	0.126400
H1181	H118	0.052300	0.074700	0.541700
H1191	H119	0.201900	0.009900	0.554900
H1201	H120	0.173100	0.965700	0.550300
H1211	H121	0.010100	0.170100	0.593300
H1221	H122	0.008400	0.127400	0.589000
H1231	H123	0.056400	0.073200	0.638400
H1241	H124	0.007400	0.105000	0.665200
H1251	H125	0.054400	0.116800	0.644600
H1261	H126	0.043300	0.159100	0.499500
H1271	H127	0.044600	0.202400	0.503200
H1281	H128	0.123000	0.187400	0.457600
H1291	H129	0.096300	0.188700	0.430500
H1301	H130	0.126400	0.139400	0.458600
H1311	H131	0.074700	0.052300	0.331300
H1321	H132	0.009900	0.201900	0.233300
H1331	H133	0.965700	0.173100	0.310900
H1341	H134	0.170100	0.010100	0.226500
H1351	H135	0.127400	0.008400	0.275200
H1361	H136	0.073200	0.056400	0.232000
H1371	H137	0.105000	0.007400	0.222400
H1381	H138	0.116800	0.054400	0.184200
H1391	H139	0.159100	0.043300	0.298100
H1401	H140	0.202400	0.044600	0.249800
H1411	H141	0.187400	0.123000	0.232000
H1421	H142	0.188700	0.096300	0.284500
H1431	H143	0.139400	0.126400	0.275600
H1441	H144	0.331300	0.541700	0.074700
H1451	H145	0.233300	0.554900	0.009900
H1461	H146	0.310900	0.550300	0.965700
H1471	H147	0.226500	0.593300	0.170100
H1481	H148	0.275200	0.589000	0.127400
H1491	H149	0.232000	0.638400	0.073200
H1501	H150	0.222400	0.665200	0.105000
H1511	H151	0.184200	0.644600	0.116800
H1521	H152	0.298100	0.499500	0.159100
H1531	H153	0.249800	0.503200	0.202400
H1541	H154	0.232000	0.457600	0.187400
H1551	H155	0.284500	0.430500	0.188700
H1561	H156	0.275600	0.458600	0.139400
H1571	H157	0.447700	0.958300	0.425300
H1581	H158	0.298100	0.945100	0.490100
H1591	H159	0.326900	0.949700	0.534300
H1601	H160	0.489900	0.906700	0.329900
H1611	H161	0.491600	0.911000	0.372600
H1621	H162	0.443600	0.861600	0.426800
H1631	H163	0.492600	0.834800	0.395000
H1641	H164	0.445600	0.855400	0.383200
H1651	H165	0.456700	0.000500	0.340900
H1661	H166	0.455400	0.996800	0.297600
H1671	H167	0.377000	0.042400	0.312600
H1681	H168	0.403700	0.069500	0.311300
H1691	H169	0.373600	0.041400	0.360600
H1701	H170	0.958300	0.447700	0.168700
H1711	H171	0.945100	0.298100	0.266700
H1721	H172	0.949700	0.326900	0.189100
H1731	H173	0.906700	0.489900	0.273500
H1741	H174	0.911000	0.491600	0.224800
H1751	H175	0.861600	0.443600	0.268000
H1761	H176	0.834800	0.492600	0.277600
H1771	H177	0.855400	0.445600	0.315800
H1781	H178	0.000500	0.456700	0.201900
H1791	H179	0.996800	0.455400	0.250200
H1801	H180	0.042400	0.377000	0.268000
H1811	H181	0.069500	0.403700	0.215500
H1821	H182	0.041400	0.373600	0.224400
H1831	H183	0.168700	0.425300	0.958300
H1841	H184	0.266700	0.490100	0.945100
H1851	H185	0.189100	0.534300	0.949700
H1861	H186	0.273500	0.329900	0.906700
H1871	H187	0.224800	0.372600	0.911000
H1881	H188	0.268000	0.426800	0.861600
H1891	H189	0.277600	0.395000	0.834800
H1901	H190	0.315800	0.383200	0.855400
H1911	H191	0.201900	0.340900	0.000500
H1921	H192	0.250200	0.297600	0.996800
H1931	H193	0.268000	0.312600	0.042400
H1941	H194	0.215500	0.311300	0.069500
H1951	H195	0.224400	0.360600	0.041400
H1961	H196	0.425300	0.168700	0.447700
H1971	H197	0.490100	0.266700	0.298100
H1981	H198	0.534300	0.189100	0.326900
H1991	H199	0.329900	0.273500	0.489900
H2001	H200	0.372600	0.224800	0.491600
H2011	H201	0.426800	0.268000	0.443600
H2021	H202	0.395000	0.277600	0.492600
H2031	H203	0.383200	0.315800	0.445600
H2041	H204	0.340900	0.201900	0.456700
H2051	H205	0.297600	0.250200	0.455400
H2061	H206	0.312600	0.268000	0.377000
H2071	H207	0.311300	0.215500	0.403700
H2081	H208	0.360600	0.224400	0.373600
H2091	H209	0.425300	0.958300	0.168700
H2101	H210	0.490100	0.945100	0.266700
H2111	H211	0.534300	0.949700	0.189100
H2121	H212	0.329900	0.906700	0.273500
H2131	H213	0.372600	0.911000	0.224800
H2141	H214	0.426800	0.861600	0.268000
H2151	H215	0.395000	0.834800	0.277600
H2161	H216	0.383200	0.855400	0.315800
H2171	H217	0.340900	0.000500	0.201900
H2181	H218	0.297600	0.996800	0.250200
H2191	H219	0.312600	0.042400	0.268000
H2201	H220	0.311300	0.069500	0.215500
H2211	H221	0.360600	0.041400	0.224400
H2221	H222	0.168700	0.447700	0.425300
H2231	H223	0.266700	0.298100	0.490100
H2241	H224	0.189100	0.326900	0.534300
H2251	H225	0.273500	0.489900	0.329900
H2261	H226	0.224800	0.491600	0.372600
H2271	H227	0.268000	0.443600	0.426800
H2281	H228	0.277600	0.492600	0.395000
H2291	H229	0.315800	0.445600	0.383200
H2301	H230	0.201900	0.456700	0.340900
H2311	H231	0.250200	0.455400	0.297600
H2321	H232	0.268000	0.377000	0.312600
H2331	H233	0.215500	0.403700	0.311300
H2341	H234	0.224400	0.373600	0.360600
H2351	H235	0.958300	0.425300	0.447700
H2361	H236	0.945100	0.490100	0.298100
H2371	H237	0.949700	0.534300	0.326900
H2381	H238	0.906700	0.329900	0.489900
H2391	H239	0.911000	0.372600	0.491600
H2401	H240	0.861600	0.426800	0.443600
H2411	H241	0.834800	0.395000	0.492600
H2421	H242	0.855400	0.383200	0.445600
H2431	H243	0.000500	0.340900	0.456700
H2441	H244	0.996800	0.297600	0.455400
H2451	H245	0.042400	0.312600	0.377000
H2461	H246	0.069500	0.311300	0.403700
H2471	H247	0.041400	0.360600	0.373600
H2481	H248	0.447700	0.168700	0.958300
H2491	H249	0.298100	0.266700	0.945100
H2501	H250	0.326900	0.189100	0.949700
H2511	H251	0.489900	0.273500	0.906700
H2521	H252	0.491600	0.224800	0.911000
H2531	H253	0.443600	0.268000	0.861600
H2541	H254	0.492600	0.277600	0.834800
H2551	H255	0.445600	0.315800	0.855400
H2561	H256	0.456700	0.201900	0.000500
H2571	H257	0.455400	0.250200	0.996800
H2581	H258	0.377000	0.268000	0.042400
H2591	H259	0.403700	0.215500	0.069500
H2601	H260	0.373600	0.224400	0.041400
H2611	H261	0.168700	0.958300	0.447700
H2621	H262	0.266700	0.945100	0.298100
H2631	H263	0.189100	0.949700	0.326900
H2641	H264	0.273500	0.906700	0.489900
H2651	H265	0.224800	0.911000	0.491600
H2661	H266	0.268000	0.861600	0.443600
H2671	H267	0.277600	0.834800	0.492600
H2681	H268	0.315800	0.855400	0.445600
H2691	H269	0.201900	0.000500	0.456700
H2701	H270	0.250200	0.996800	0.455400
H2711	H271	0.268000	0.042400	0.377000
H2721	H272	0.215500	0.069500	0.403700
H2731	H273	0.224400	0.041400	0.373600
H2741	H274	0.425300	0.447700	0.958300
H2751	H275	0.490100	0.298100	0.945100
H2761	H276	0.534300	0.326900	0.949700
H2771	H277	0.329900	0.489900	0.906700
H2781	H278	0.372600	0.491600	0.911000
H2791	H279	0.426800	0.443600	0.861600
H2801	H280	0.395000	0.492600	0.834800
H2811	H281	0.383200	0.445600	0.855400
H2821	H282	0.340900	0.456700	0.000500
H2831	H283	0.297600	0.455400	0.996800
H2841	H284	0.312600	0.377000	0.042400
H2851	H285	0.311300	0.403700	0.069500
H2861	H286	0.360600	0.373600	0.041400
H2871	H287	0.447700	0.425300	0.168700
H2881	H288	0.298100	0.490100	0.266700
H2891	H289	0.326900	0.534300	0.189100
H2901	H290	0.489900	0.329900	0.273500
H2911	H291	0.491600	0.372600	0.224800
H2921	H292	0.443600	0.426800	0.268000
H2931	H293	0.492600	0.395000	0.277600
H2941	H294	0.445600	0.383200	0.315800
H2951	H295	0.456700	0.340900	0.201900
H2961	H296	0.455400	0.297600	0.250200
H2971	H297	0.377000	0.312600	0.268000
H2981	H298	0.403700	0.311300	0.215500
H2991	H299	0.373600	0.360600	0.224400
H3001	H300	0.958300	0.168700	0.425300
H3011	H301	0.945100	0.266700	0.490100
H3021	H302	0.949700	0.189100	0.534300
H3031	H303	0.906700	0.273500	0.329900
H3041	H304	0.911000	0.224800	0.372600
H3051	H305	0.861600	0.268000	0.426800
H3061	H306	0.834800	0.277600	0.395000
H3071	H307	0.855400	0.315800	0.383200
H3081	H308	0.000500	0.201900	0.340900
H3091	H309	0.996800	0.250200	0.297600
H3101	H310	0.042400	0.268000	0.312600
H3111	H311	0.069500	0.215500	0.311300
H3121	H312	0.041400	0.224400	0.360600
H3131	H313	0.458300	0.947700	0.925300
H3141	H314	0.445100	0.798100	0.990100
H3151	H315	0.449700	0.826900	0.034300
H3161	H316	0.406700	0.989900	0.829900
H3171	H317	0.411000	0.991600	0.872600
H3181	H318	0.361600	0.943600	0.926800
H3191	H319	0.334800	0.992600	0.895000
H3201	H320	0.355400	0.945600	0.883200
H3211	H321	0.500500	0.956700	0.840900
H3221	H322	0.496800	0.955400	0.797600
H3231	H323	0.542400	0.877000	0.812600
H3241	H324	0.569500	0.903700	0.811300
H3251	H325	0.541400	0.873600	0.860600
H3261	H326	0.947700	0.458300	0.668700
H3271	H327	0.798100	0.445100	0.766700
H3281	H328	0.826900	0.449700	0.689100
H3291	H329	0.989900	0.406700	0.773500
H3301	H330	0.991600	0.411000	0.724800
H3311	H331	0.943600	0.361600	0.768000
H3321	H332	0.992600	0.334800	0.777600
H3331	H333	0.945600	0.355400	0.815800
H3341	H334	0.956700	0.500500	0.701900
H3351	H335	0.955400	0.496800	0.750200
H3361	H336	0.877000	0.542400	0.768000
H3371	H337	0.903700	0.569500	0.715500
H3381	H338	0.873600	0.541400	0.724400
H3391	H339	0.925300	0.668700	0.458300
H3401	H340	0.990100	0.766700	0.445100
H3411	H341	0.034300	0.689100	0.449700
H3421	H342	0.829900	0.773500	0.406700
H3431	H343	0.872600	0.724800	0.411000
H3441	H344	0.926800	0.768000	0.361600
H3451	H345	0.895000	0.777600	0.334800
H3461	H346	0.883200	0.815800	0.355400
H3471	H347	0.840900	0.701900	0.500500
H3481	H348	0.797600	0.750200	0.496800
H3491	H349	0.812600	0.768000	0.542400
H3501	H350	0.811300	0.715500	0.569500
H3511	H351	0.860600	0.724400	0.541400
H3521	H352	0.668700	0.925300	0.947700
H3531	H353	0.766700	0.990100	0.798100
H3541	H354	0.689100	0.034300	0.826900
H3551	H355	0.773500	0.829900	0.989900
H3561	H356	0.724800	0.872600	0.991600
H3571	H357	0.768000	0.926800	0.943600
H3581	H358	0.777600	0.895000	0.992600
H3591	H359	0.815800	0.883200	0.945600
H3601	H360	0.701900	0.840900	0.956700
H3611	H361	0.750200	0.797600	0.955400
H3621	H362	0.768000	0.812600	0.877000
H3631	H363	0.715500	0.811300	0.903700
H3641	H364	0.724400	0.860600	0.873600
H3651	H365	0.458300	0.925300	0.668700
H3661	H366	0.445100	0.990100	0.766700
H3671	H367	0.449700	0.034300	0.689100
H3681	H368	0.406700	0.829900	0.773500
H3691	H369	0.411000	0.872600	0.724800
H3701	H370	0.361600	0.926800	0.768000
H3711	H371	0.334800	0.895000	0.777600
H3721	H372	0.355400	0.883200	0.815800
H3731	H373	0.500500	0.840900	0.701900
H3741	H374	0.496800	0.797600	0.750200
H3751	H375	0.542400	0.812600	0.768000
H3761	H376	0.569500	0.811300	0.715500
H3771	H377	0.541400	0.860600	0.724400
H3781	H378	0.947700	0.668700	0.925300
H3791	H379	0.798100	0.766700	0.990100
H3801	H380	0.826900	0.689100	0.034300
H3811	H381	0.989900	0.773500	0.829900
H3821	H382	0.991600	0.724800	0.872600
H3831	H383	0.943600	0.768000	0.926800
H3841	H384	0.992600	0.777600	0.895000
H3851	H385	0.945600	0.815800	0.883200
H3861	H386	0.956700	0.701900	0.840900
H3871	H387	0.955400	0.750200	0.797600
H3881	H388	0.877000	0.768000	0.812600
H3891	H389	0.903700	0.715500	0.811300
H3901	H390	0.873600	0.724400	0.860600
H3911	H391	0.925300	0.458300	0.947700
H3921	H392	0.990100	0.445100	0.798100
H3931	H393	0.034300	0.449700	0.826900
H3941	H394	0.829900	0.406700	0.989900
H3951	H395	0.872600	0.411000	0.991600
H3961	H396	0.926800	0.361600	0.943600
H3971	H397	0.895000	0.334800	0.992600
H3981	H398	0.883200	0.355400	0.945600
H3991	H399	0.840900	0.500500	0.956700
H4001	H400	0.797600	0.496800	0.955400
H4011	H401	0.812600	0.542400	0.877000
H4021	H402	0.811300	0.569500	0.903700
H4031	H403	0.860600	0.541400	0.873600
H4041	H404	0.668700	0.947700	0.458300
H4051	H405	0.766700	0.798100	0.445100
H4061	H406	0.689100	0.826900	0.449700
H4071	H407	0.773500	0.989900	0.406700
H4081	H408	0.724800	0.991600	0.411000
H4091	H409	0.768000	0.943600	0.361600
H4101	H410	0.777600	0.992600	0.334800
H4111	H411	0.815800	0.945600	0.355400
H4121	H412	0.701900	0.956700	0.500500
H4131	H413	0.750200	0.955400	0.496800
H4141	H414	0.768000	0.877000	0.542400
H4151	H415	0.715500	0.903700	0.569500
H4161	H416	0.724400	0.873600	0.541400
H4171	H417	0.458300	0.668700	0.947700
H4181	H418	0.445100	0.766700	0.798100
H4191	H419	0.449700	0.689100	0.826900
H4201	H420	0.406700	0.773500	0.989900
H4211	H421	0.411000	0.724800	0.991600
H4221	H422	0.361600	0.768000	0.943600
H4231	H423	0.334800	0.777600	0.992600
H4241	H424	0.355400	0.815800	0.945600
H4251	H425	0.500500	0.701900	0.956700
H4261	H426	0.496800	0.750200	0.955400
H4271	H427	0.542400	0.768000	0.877000
H4281	H428	0.569500	0.715500	0.903700
H4291	H429	0.541400	0.724400	0.873600
H4301	H430	0.947700	0.925300	0.458300
H4311	H431	0.798100	0.990100	0.445100
H4321	H432	0.826900	0.034300	0.449700
H4331	H433	0.989900	0.829900	0.406700
H4341	H434	0.991600	0.872600	0.411000
H4351	H435	0.943600	0.926800	0.361600
H4361	H436	0.992600	0.895000	0.334800
H4371	H437	0.945600	0.883200	0.355400
H4381	H438	0.956700	0.840900	0.500500
H4391	H439	0.955400	0.797600	0.496800
H4401	H440	0.877000	0.812600	0.542400
H4411	H441	0.903700	0.811300	0.569500
H4421	H442	0.873600	0.860600	0.541400
H4431	H443	0.925300	0.947700	0.668700
H4441	H444	0.990100	0.798100	0.766700
H4451	H445	0.034300	0.826900	0.689100
H4461	H446	0.829900	0.989900	0.773500
H4471	H447	0.872600	0.991600	0.724800
H4481	H448	0.926800	0.943600	0.768000
H4491	H449	0.895000	0.992600	0.777600
H4501	H450	0.883200	0.945600	0.815800
H4511	H451	0.840900	0.956700	0.701900
H4521	H452	0.797600	0.955400	0.750200
H4531	H453	0.812600	0.877000	0.768000
H4541	H454	0.811300	0.903700	0.715500
H4551	H455	0.860600	0.873600	0.724400
H4561	H456	0.668700	0.458300	0.925300
H4571	H457	0.766700	0.445100	0.990100
H4581	H458	0.689100	0.449700	0.034300
H4591	H459	0.773500	0.406700	0.829900
H4601	H460	0.724800	0.411000	0.872600
H4611	H461	0.768000	0.361600	0.926800
H4621	H462	0.777600	0.334800	0.895000
H4631	H463	0.815800	0.355400	0.883200
H4641	H464	0.701900	0.500500	0.840900
H4651	H465	0.750200	0.496800	0.797600
H4661	H466	0.768000	0.542400	0.812600
H4671	H467	0.715500	0.569500	0.811300
H4681	H468	0.724400	0.541400	0.860600
H4691	H469	0.552300	0.041700	0.574700
H4701	H470	0.701900	0.054900	0.509900
H4711	H471	0.673100	0.050300	0.465700
H4721	H472	0.510100	0.093300	0.670100
H4731	H473	0.508400	0.089000	0.627400
H4741	H474	0.556400	0.138400	0.573200
H4751	H475	0.507400	0.165200	0.605000
H4761	H476	0.554400	0.144600	0.616800
H4771	H477	0.543300	0.999500	0.659100
H4781	H478	0.544600	0.003200	0.702400
H4791	H479	0.623000	0.957600	0.687400
H4801	H480	0.596300	0.930500	0.688700
H4811	H481	0.626400	0.958600	0.639400
H4821	H482	0.041700	0.552300	0.831300
H4831	H483	0.054900	0.701900	0.733300
H4841	H484	0.050300	0.673100	0.810900
H4851	H485	0.093300	0.510100	0.726500
H4861	H486	0.089000	0.508400	0.775200
H4871	H487	0.138400	0.556400	0.732000
H4881	H488	0.165200	0.507400	0.722400
H4891	H489	0.144600	0.554400	0.684200
H4901	H490	0.999500	0.543300	0.798100
H4911	H491	0.003200	0.544600	0.749800
H4921	H492	0.957600	0.623000	0.732000
H4931	H493	0.930500	0.596300	0.784500
H4941	H494	0.958600	0.626400	0.775600
H4951	H495	0.831300	0.574700	0.041700
H4961	H496	0.733300	0.509900	0.054900
H4971	H497	0.810900	0.465700	0.050300
H4981	H498	0.726500	0.670100	0.093300
H4991	H499	0.775200	0.627400	0.089000
H5001	H500	0.732000	0.573200	0.138400
H5011	H501	0.722400	0.605000	0.165200
H5021	H502	0.684200	0.616800	0.144600
H5031	H503	0.798100	0.659100	0.999500
H5041	H504	0.749800	0.702400	0.003200
H5051	H505	0.732000	0.687400	0.957600
H5061	H506	0.784500	0.688700	0.930500
H5071	H507	0.775600	0.639400	0.958600
H5081	H508	0.574700	0.831300	0.552300
H5091	H509	0.509900	0.733300	0.701900
H5101	H510	0.465700	0.810900	0.673100
H5111	H511	0.670100	0.726500	0.510100
H5121	H512	0.627400	0.775200	0.508400
H5131	H513	0.573200	0.732000	0.556400
H5141	H514	0.605000	0.722400	0.507400
H5151	H515	0.616800	0.684200	0.554400
H5161	H516	0.659100	0.798100	0.543300
H5171	H517	0.702400	0.749800	0.544600
H5181	H518	0.687400	0.732000	0.623000
H5191	H519	0.688700	0.784500	0.596300
H5201	H520	0.639400	0.775600	0.626400
H5211	H521	0.574700	0.041700	0.831300
H5221	H522	0.509900	0.054900	0.733300
H5231	H523	0.465700	0.050300	0.810900
H5241	H524	0.670100	0.093300	0.726500
H5251	H525	0.627400	0.089000	0.775200
H5261	H526	0.573200	0.138400	0.732000
H5271	H527	0.605000	0.165200	0.722400
H5281	H528	0.616800	0.144600	0.684200
H5291	H529	0.659100	0.999500	0.798100
H5301	H530	0.702400	0.003200	0.749800
H5311	H531	0.687400	0.957600	0.732000
H5321	H532	0.688700	0.930500	0.784500
H5331	H533	0.639400	0.958600	0.775600
H5341	H534	0.831300	0.552300	0.574700
H5351	H535	0.733300	0.701900	0.509900
H5361	H536	0.810900	0.673100	0.465700
H5371	H537	0.726500	0.510100	0.670100
H5381	H538	0.775200	0.508400	0.627400
H5391	H539	0.732000	0.556400	0.573200
H5401	H540	0.722400	0.507400	0.605000
H5411	H541	0.684200	0.554400	0.616800
H5421	H542	0.798100	0.543300	0.659100
H5431	H543	0.749800	0.544600	0.702400
H5441	H544	0.732000	0.623000	0.687400
H5451	H545	0.784500	0.596300	0.688700
H5461	H546	0.775600	0.626400	0.639400
H5471	H547	0.041700	0.574700	0.552300
H5481	H548	0.054900	0.509900	0.701900
H5491	H549	0.050300	0.465700	0.673100
H5501	H550	0.093300	0.670100	0.510100
H5511	H551	0.089000	0.627400	0.508400
H5521	H552	0.138400	0.573200	0.556400
H5531	H553	0.165200	0.605000	0.507400
H5541	H554	0.144600	0.616800	0.554400
H5551	H555	0.999500	0.659100	0.543300
H5561	H556	0.003200	0.702400	0.544600
H5571	H557	0.957600	0.687400	0.623000
H5581	H558	0.930500	0.688700	0.596300
H5591	H559	0.958600	0.639400	0.626400
H5601	H560	0.552300	0.831300	0.041700
H5611	H561	0.701900	0.733300	0.054900
H5621	H562	0.673100	0.810900	0.050300
H5631	H563	0.510100	0.726500	0.093300
H5641	H564	0.508400	0.775200	0.089000
H5651	H565	0.556400	0.732000	0.138400
H5661	H566	0.507400	0.722400	0.165200
H5671	H567	0.554400	0.684200	0.144600
H5681	H568	0.543300	0.798100	0.999500
H5691	H569	0.544600	0.749800	0.003200
H5701	H570	0.623000	0.732000	0.957600
H5711	H571	0.596300	0.784500	0.930500
H5721	H572	0.626400	0.775600	0.958600
H5731	H573	0.831300	0.041700	0.552300
H5741	H574	0.733300	0.054900	0.701900
H5751	H575	0.810900	0.050300	0.673100
H5761	H576	0.726500	0.093300	0.510100
H5771	H577	0.775200	0.089000	0.508400
H5781	H578	0.732000	0.138400	0.556400
H5791	H579	0.722400	0.165200	0.507400
H5801	H580	0.684200	0.144600	0.554400
H5811	H581	0.798100	0.999500	0.543300
H5821	H582	0.749800	0.003200	0.544600
H5831	H583	0.732000	0.957600	0.623000
H5841	H584	0.784500	0.930500	0.596300
H5851	H585	0.775600	0.958600	0.626400
H5861	H586	0.574700	0.552300	0.041700
H5871	H587	0.509900	0.701900	0.054900
H5881	H588	0.465700	0.673100	0.050300
H5891	H589	0.670100	0.510100	0.093300
H5901	H590	0.627400	0.508400	0.089000
H5911	H591	0.573200	0.556400	0.138400
H5921	H592	0.605000	0.507400	0.165200
H5931	H593	0.616800	0.554400	0.144600
H5941	H594	0.659100	0.543300	0.999500
H5951	H595	0.702400	0.544600	0.003200
H5961	H596	0.687400	0.623000	0.957600
H5971	H597	0.688700	0.596300	0.930500
H5981	H598	0.639400	0.626400	0.958600
H5991	H599	0.552300	0.574700	0.831300
H6001	H600	0.701900	0.509900	0.733300
H6011	H601	0.673100	0.465700	0.810900
H6021	H602	0.510100	0.670100	0.726500
H6031	H603	0.508400	0.627400	0.775200
H6041	H604	0.556400	0.573200	0.732000
H6051	H605	0.507400	0.605000	0.722400
H6061	H606	0.554400	0.616800	0.684200
H6071	H607	0.543300	0.659100	0.798100
H6081	H608	0.544600	0.702400	0.749800
H6091	H609	0.623000	0.687400	0.732000
H6101	H610	0.596300	0.688700	0.784500
H6111	H611	0.626400	0.639400	0.775600
H6121	H612	0.041700	0.831300	0.574700
H6131	H613	0.054900	0.733300	0.509900
H6141	H614	0.050300	0.810900	0.465700
H6151	H615	0.093300	0.726500	0.670100
H6161	H616	0.089000	0.775200	0.627400
H6171	H617	0.138400	0.732000	0.573200
H6181	H618	0.165200	0.722400	0.605000
H6191	H619	0.144600	0.684200	0.616800
H6201	H620	0.999500	0.798100	0.659100
H6211	H621	0.003200	0.749800	0.702400
H6221	H622	0.957600	0.732000	0.687400
H6231	H623	0.930500	0.784500	0.688700
H6241	H624	0.958600	0.775600	0.639400
C11	C1	0.539630	0.094190	0.987230
C21	C2	0.545080	0.110600	0.015540
C31	C3	0.544490	0.082450	0.061610
C41	C4	0.548160	0.099560	0.088140
C51	C5	0.551580	0.144480	0.069640
C61	C6	0.552340	0.171600	0.023380
C71	C7	0.549390	0.154310	0.997210
C81	C8	0.549040	0.073480	0.137680
C91	C9	0.552420	0.109620	0.147140
C101	C10	0.553230	0.151550	0.107430
C111	C11	0.592380	0.028100	0.137620
C121	C12	0.639420	0.037380	0.105240
C131	C13	0.502060	0.063060	0.169960
C141	C14	0.458360	0.105980	0.171440
C151	C15	0.094190	0.539630	0.378950
C161	C16	0.110600	0.545080	0.328780
C171	C17	0.082450	0.544490	0.311450
C181	C18	0.099560	0.548160	0.264140
C191	C19	0.144480	0.551580	0.234300
C201	C20	0.171600	0.552340	0.252680
C211	C21	0.154310	0.549390	0.299090
C221	C22	0.073480	0.549040	0.239800
C231	C23	0.109620	0.552420	0.190820
C241	C24	0.151550	0.553230	0.187790
C251	C25	0.028100	0.592380	0.241900
C261	C26	0.037380	0.639420	0.217960
C271	C27	0.063060	0.502060	0.264920
C281	C28	0.105980	0.458360	0.264220
C291	C29	0.987230	0.378950	0.539630
C301	C30	0.015540	0.328780	0.545080
C311	C31	0.061610	0.311450	0.544490
C321	C32	0.088140	0.264140	0.548160
C331	C33	0.069640	0.234300	0.551580
C341	C34	0.023380	0.252680	0.552340
C351	C35	0.997210	0.299090	0.549390
C361	C36	0.137680	0.239800	0.549040
C371	C37	0.147140	0.190820	0.552420
C381	C38	0.107430	0.187790	0.553230
C391	C39	0.137620	0.241900	0.592380
C401	C40	0.105240	0.217960	0.639420
C411	C41	0.169960	0.264920	0.502060
C421	C42	0.171440	0.264220	0.458360
C431	C43	0.378950	0.987230	0.094190
C441	C44	0.328780	0.015540	0.110600
C451	C45	0.311450	0.061610	0.082450
C461	C46	0.264140	0.088140	0.099560
C471	C47	0.234300	0.069640	0.144480
C481	C48	0.252680	0.023380	0.171600
C491	C49	0.299090	0.997210	0.154310
C501	C50	0.239800	0.137680	0.073480
C511	C51	0.190820	0.147140	0.109620
C521	C52	0.187790	0.107430	0.151550
C531	C53	0.241900	0.137620	0.028100
C541	C54	0.217960	0.105240	0.037380
C551	C55	0.264920	0.169960	0.063060
C561	C56	0.264220	0.171440	0.105980
C571	C57	0.539630	0.987230	0.378950
C581	C58	0.545080	0.015540	0.328780
C591	C59	0.544490	0.061610	0.311450
C601	C60	0.548160	0.088140	0.264140
C611	C61	0.551580	0.069640	0.234300
C621	C62	0.552340	0.023380	0.252680
C631	C63	0.549390	0.997210	0.299090
C641	C64	0.549040	0.137680	0.239800
C651	C65	0.552420	0.147140	0.190820
C661	C66	0.553230	0.107430	0.187790
C671	C67	0.592380	0.137620	0.241900
C681	C68	0.639420	0.105240	0.217960
C691	C69	0.502060	0.169960	0.264920
C701	C70	0.458360	0.171440	0.264220
C711	C71	0.094190	0.378950	0.987230
C721	C72	0.110600	0.328780	0.015540
C731	C73	0.082450	0.311450	0.061610
C741	C74	0.099560	0.264140	0.088140
C751	C75	0.144480	0.234300	0.069640
C761	C76	0.171600	0.252680	0.023380
C771	C77	0.154310	0.299090	0.997210
C781	C78	0.073480	0.239800	0.137680
C791	C79	0.109620	0.190820	0.147140
C801	C80	0.151550	0.187790	0.107430
C811	C81	0.028100	0.241900	0.137620
C821	C82	0.037380	0.217960	0.105240
C831	C83	0.063060	0.264920	0.169960
C841	C84	0.105980	0.264220	0.171440
C851	C85	0.987230	0.539630	0.094190
C861	C86	0.015540	0.545080	0.110600
C871	C87	0.061610	0.544490	0.082450
C881	C88	0.088140	0.548160	0.099560
C891	C89	0.069640	0.551580	0.144480
C901	C90	0.023380	0.552340	0.171600
C911	C91	0.997210	0.549390	0.154310
C921	C92	0.137680	0.549040	0.073480
C931	C93	0.147140	0.552420	0.109620
C941	C94	0.107430	0.553230	0.151550
C951	C95	0.137620	0.592380	0.028100
C961	C96	0.105240	0.639420	0.037380
C971	C97	0.169960	0.502060	0.063060
C981	C98	0.171440	0.458360	0.105980
C991	C99	0.378950	0.094190	0.539630
C1001	C100	0.328780	0.110600	0.545080
C1011	C101	0.311450	0.082450	0.544490
C1021	C102	0.264140	0.099560	0.548160
C1031	C103	0.234300	0.144480	0.551580
C1041	C104	0.252680	0.171600	0.552340
C1051	C105	0.299090	0.154310	0.549390
C1061	C106	0.239800	0.073480	0.549040
C1071	C107	0.190820	0.109620	0.552420
C1081	C108	0.187790	0.151550	0.553230
C1091	C109	0.241900	0.028100	0.592380
C1101	C110	0.217960	0.037380	0.639420
C1111	C111	0.264920	0.063060	0.502060
C1121	C112	0.264220	0.105980	0.458360
C1131	C113	0.539630	0.378950	0.094190
C1141	C114	0.545080	0.328780	0.110600
C1151	C115	0.544490	0.311450	0.082450
C1161	C116	0.548160	0.264140	0.099560
C1171	C117	0.551580	0.234300	0.144480
C1181	C118	0.552340	0.252680	0.171600
C1191	C119	0.549390	0.299090	0.154310
C1201	C120	0.549040	0.239800	0.073480
C1211	C121	0.552420	0.190820	0.109620
C1221	C122	0.553230	0.187790	0.151550
C1231	C123	0.592380	0.241900	0.028100
C1241	C124	0.639420	0.217960	0.037380
C1251	C125	0.502060	0.264920	0.063060
C1261	C126	0.458360	0.264220	0.105980
C1271	C127	0.094190	0.987230	0.539630
C1281	C128	0.110600	0.015540	0.545080
C1291	C129	0.082450	0.061610	0.544490
C1301	C130	0.099560	0.088140	0.548160
C1311	C131	0.144480	0.069640	0.551580
C1321	C132	0.171600	0.023380	0.552340
C1331	C133	0.154310	0.997210	0.549390
C1341	C134	0.073480	0.137680	0.549040
C1351	C135	0.109620	0.147140	0.552420
C1361	C136	0.151550	0.107430	0.553230
C1371	C137	0.028100	0.137620	0.592380
C1381	C138	0.037380	0.105240	0.639420
C1391	C139	0.063060	0.169960	0.502060
C1401	C140	0.105980	0.171440	0.458360
C1411	C141	0.987230	0.094190	0.378950
C1421	C142	0.015540	0.110600	0.328780
C1431	C143	0.061610	0.082450	0.311450
C1441	C144	0.088140	0.099560	0.264140
C1451	C145	0.069640	0.144480	0.234300
C1461	C146	0.023380	0.171600	0.252680
C1471	C147	0.997210	0.154310	0.299090
C1481	C148	0.137680	0.073480	0.239800
C1491	C149	0.147140	0.109620	0.190820
C1501	C150	0.107430	0.151550	0.187790
C1511	C151	0.137620	0.028100	0.241900
C1521	C152	0.105240	0.037380	0.217960
C1531	C153	0.169960	0.063060	0.264920
C1541	C154	0.171440	0.105980	0.264220
C1551	C155	0.378950	0.539630	0.987230
C1561	C156	0.328780	0.545080	0.015540
C1571	C157	0.311450	0.544490	0.061610
C1581	C158	0.264140	0.548160	0.088140
C1591	C159	0.234300	0.551580	0.069640
C1601	C160	0.252680	0.552340	0.023380
C1611	C161	0.299090	0.549390	0.997210
C1621	C162	0.239800	0.549040	0.137680
C1631	C163	0.190820	0.552420	0.147140
C1641	C164	0.187790	0.553230	0.107430
C1651	C165	0.241900	0.592380	0.137620
C1661	C166	0.217960	0.639420	0.105240
C1671	C167	0.264920	0.502060	0.169960
C1681	C168	0.264220	0.458360	0.171440
C1691	C169	0.405810	0.960370	0.512770
C1701	C170	0.389400	0.954920	0.484460
C1711	C171	0.417550	0.955510	0.438390
C1721	C172	0.400440	0.951840	0.411860
C1731	C173	0.355520	0.948420	0.430360
C1741	C174	0.328400	0.947660	0.476620
C1751	C175	0.345690	0.950610	0.502790
C1761	C176	0.426520	0.950960	0.362320
C1771	C177	0.390380	0.947580	0.352860
C1781	C178	0.348450	0.946770	0.392570
C1791	C179	0.471900	0.907620	0.362380
C1801	C180	0.462620	0.860580	0.394760
C1811	C181	0.436940	0.997940	0.330040
C1821	C182	0.394020	0.041640	0.328560
C1831	C183	0.960370	0.405810	0.121050
C1841	C184	0.954920	0.389400	0.171220
C1851	C185	0.955510	0.417550	0.188550
C1861	C186	0.951840	0.400440	0.235860
C1871	C187	0.948420	0.355520	0.265700
C1881	C188	0.947660	0.328400	0.247320
C1891	C189	0.950610	0.345690	0.200910
C1901	C190	0.950960	0.426520	0.260200
C1911	C191	0.947580	0.390380	0.309180
C1921	C192	0.946770	0.348450	0.312210
C1931	C193	0.907620	0.471900	0.258100
C1941	C194	0.860580	0.462620	0.282040
C1951	C195	0.997940	0.436940	0.235080
C1961	C196	0.041640	0.394020	0.235780
C1971	C197	0.121050	0.512770	0.960370
C1981	C198	0.171220	0.484460	0.954920
C1991	C199	0.188550	0.438390	0.955510
C2001	C200	0.235860	0.411860	0.951840
C2011	C201	0.265700	0.430360	0.948420
C2021	C202	0.247320	0.476620	0.947660
C2031	C203	0.200910	0.502790	0.950610
C2041	C204	0.260200	0.362320	0.950960
C2051	C205	0.309180	0.352860	0.947580
C2061	C206	0.312210	0.392570	0.946770
C2071	C207	0.258100	0.362380	0.907620
C2081	C208	0.282040	0.394760	0.860580
C2091	C209	0.235080	0.330040	0.997940
C2101	C210	0.235780	0.328560	0.041640
C2111	C211	0.512770	0.121050	0.405810
C2121	C212	0.484460	0.171220	0.389400
C2131	C213	0.438390	0.188550	0.417550
C2141	C214	0.411860	0.235860	0.400440
C2151	C215	0.430360	0.265700	0.355520
C2161	C216	0.476620	0.247320	0.328400
C2171	C217	0.502790	0.200910	0.345690
C2181	C218	0.362320	0.260200	0.426520
C2191	C219	0.352860	0.309180	0.390380
C2201	C220	0.392570	0.312210	0.348450
C2211	C221	0.362380	0.258100	0.471900
C2221	C222	0.394760	0.282040	0.462620
C2231	C223	0.330040	0.235080	0.436940
C2241	C224	0.328560	0.235780	0.394020
C2251	C225	0.512770	0.960370	0.121050
C2261	C226	0.484460	0.954920	0.171220
C2271	C227	0.438390	0.955510	0.188550
C2281	C228	0.411860	0.951840	0.235860
C2291	C229	0.430360	0.948420	0.265700
C2301	C230	0.476620	0.947660	0.247320
C2311	C231	0.502790	0.950610	0.200910
C2321	C232	0.362320	0.950960	0.260200
C2331	C233	0.352860	0.947580	0.309180
C2341	C234	0.392570	0.946770	0.312210
C2351	C235	0.362380	0.907620	0.258100
C2361	C236	0.394760	0.860580	0.282040
C2371	C237	0.330040	0.997940	0.235080
C2381	C238	0.328560	0.041640	0.235780
C2391	C239	0.121050	0.405810	0.512770
C2401	C240	0.171220	0.389400	0.484460
C2411	C241	0.188550	0.417550	0.438390
C2421	C242	0.235860	0.400440	0.411860
C2431	C243	0.265700	0.355520	0.430360
C2441	C244	0.247320	0.328400	0.476620
C2451	C245	0.200910	0.345690	0.502790
C2461	C246	0.260200	0.426520	0.362320
C2471	C247	0.309180	0.390380	0.352860
C2481	C248	0.312210	0.348450	0.392570
C2491	C249	0.258100	0.471900	0.362380
C2501	C250	0.282040	0.462620	0.394760
C2511	C251	0.235080	0.436940	0.330040
C2521	C252	0.235780	0.394020	0.328560
C2531	C253	0.960370	0.512770	0.405810
C2541	C254	0.954920	0.484460	0.389400
C2551	C255	0.955510	0.438390	0.417550
C2561	C256	0.951840	0.411860	0.400440
C2571	C257	0.948420	0.430360	0.355520
C2581	C258	0.947660	0.476620	0.328400
C2591	C259	0.950610	0.502790	0.345690
C2601	C260	0.950960	0.362320	0.426520
C2611	C261	0.947580	0.352860	0.390380
C2621	C262	0.946770	0.392570	0.348450
C2631	C263	0.907620	0.362380	0.471900
C2641	C264	0.860580	0.394760	0.462620
C2651	C265	0.997940	0.330040	0.436940
C2661	C266	0.041640	0.328560	0.394020
C2671	C267	0.405810	0.121050	0.960370
C2681	C268	0.389400	0.171220	0.954920
C2691	C269	0.417550	0.188550	0.955510
C2701	C270	0.400440	0.235860	0.951840
C2711	C271	0.355520	0.265700	0.948420
C2721	C272	0.328400	0.247320	0.947660
C2731	C273	0.345690	0.200910	0.950610
C2741	C274	0.426520	0.260200	0.950960
C2751	C275	0.390380	0.309180	0.947580
C2761	C276	0.348450	0.312210	0.946770
C2771	C277	0.471900	0.258100	0.907620
C2781	C278	0.462620	0.282040	0.860580
C2791	C279	0.436940	0.235080	0.997940
C2801	C280	0.394020	0.235780	0.041640
C2811	C281	0.121050	0.960370	0.405810
C2821	C282	0.171220	0.954920	0.389400
C2831	C283	0.188550	0.955510	0.417550
C2841	C284	0.235860	0.951840	0.400440
C2851	C285	0.265700	0.948420	0.355520
C2861	C286	0.247320	0.947660	0.328400
C2871	C287	0.200910	0.950610	0.345690
C2881	C288	0.260200	0.950960	0.426520
C2891	C289	0.309180	0.947580	0.390380
C2901	C290	0.312210	0.946770	0.348450
C2911	C291	0.258100	0.907620	0.471900
C2921	C292	0.282040	0.860580	0.462620
C2931	C293	0.235080	0.997940	0.436940
C2941	C294	0.235780	0.041640	0.394020
C2951	C295	0.512770	0.405810	0.960370
C2961	C296	0.484460	0.389400	0.954920
C2971	C297	0.438390	0.417550	0.955510
C2981	C298	0.411860	0.400440	0.951840
C2991	C299	0.430360	0.355520	0.948420
C3001	C300	0.476620	0.328400	0.947660
C3011	C301	0.502790	0.345690	0.950610
C3021	C302	0.362320	0.426520	0.950960
C3031	C303	0.352860	0.390380	0.947580
C3041	C304	0.392570	0.348450	0.946770
C3051	C305	0.362380	0.471900	0.907620
C3061	C306	0.394760	0.462620	0.860580
C3071	C307	0.330040	0.436940	0.997940
C3081	C308	0.328560	0.394020	0.041640
C3091	C309	0.405810	0.512770	0.121050
C3101	C310	0.389400	0.484460	0.171220
C3111	C311	0.417550	0.438390	0.188550
C3121	C312	0.400440	0.411860	0.235860
C3131	C313	0.355520	0.430360	0.265700
C3141	C314	0.328400	0.476620	0.247320
C3151	C315	0.345690	0.502790	0.200910
C3161	C316	0.426520	0.362320	0.260200
C3171	C317	0.390380	0.352860	0.309180
C3181	C318	0.348450	0.392570	0.312210
C3191	C319	0.471900	0.362380	0.258100
C3201	C320	0.462620	0.394760	0.282040
C3211	C321	0.436940	0.330040	0.235080
C3221	C322	0.394020	0.328560	0.235780
C3231	C323	0.960370	0.121050	0.512770
C3241	C324	0.954920	0.171220	0.484460
C3251	C325	0.955510	0.188550	0.438390
C3261	C326	0.951840	0.235860	0.411860
C3271	C327	0.948420	0.265700	0.430360
C3281	C328	0.947660	0.247320	0.476620
C3291	C329	0.950610	0.200910	0.502790
C3301	C330	0.950960	0.260200	0.362320
C3311	C331	0.947580	0.309180	0.352860
C3321	C332	0.946770	0.312210	0.392570
C3331	C333	0.907620	0.258100	0.362380
C3341	C334	0.860580	0.282040	0.394760
C3351	C335	0.997940	0.235080	0.330040
C3361	C336	0.041640	0.235780	0.328560
C3371	C337	0.460370	0.905810	0.012770
C3381	C338	0.454920	0.889400	0.984460
C3391	C339	0.455510	0.917550	0.938390
C3401	C340	0.451840	0.900440	0.911860
C3411	C341	0.448420	0.855520	0.930360
C3421	C342	0.447660	0.828400	0.976620
C3431	C343	0.450610	0.845690	0.002790
C3441	C344	0.450960	0.926520	0.862320
C3451	C345	0.447580	0.890380	0.852860
C3461	C346	0.446770	0.848450	0.892570
C3471	C347	0.407620	0.971900	0.862380
C3481	C348	0.360580	0.962620	0.894760
C3491	C349	0.497940	0.936940	0.830040
C3501	C350	0.541640	0.894020	0.828560
C3511	C351	0.905810	0.460370	0.621050
C3521	C352	0.889400	0.454920	0.671220
C3531	C353	0.917550	0.455510	0.688550
C3541	C354	0.900440	0.451840	0.735860
C3551	C355	0.855520	0.448420	0.765700
C3561	C356	0.828400	0.447660	0.747320
C3571	C357	0.845690	0.450610	0.700910
C3581	C358	0.926520	0.450960	0.760200
C3591	C359	0.890380	0.447580	0.809180
C3601	C360	0.848450	0.446770	0.812210
C3611	C361	0.971900	0.407620	0.758100
C3621	C362	0.962620	0.360580	0.782040
C3631	C363	0.936940	0.497940	0.735080
C3641	C364	0.894020	0.541640	0.735780
C3651	C365	0.012770	0.621050	0.460370
C3661	C366	0.984460	0.671220	0.454920
C3671	C367	0.938390	0.688550	0.455510
C3681	C368	0.911860	0.735860	0.451840
C3691	C369	0.930360	0.765700	0.448420
C3701	C370	0.976620	0.747320	0.447660
C3711	C371	0.002790	0.700910	0.450610
C3721	C372	0.862320	0.760200	0.450960
C3731	C373	0.852860	0.809180	0.447580
C3741	C374	0.892570	0.812210	0.446770
C3751	C375	0.862380	0.758100	0.407620
C3761	C376	0.894760	0.782040	0.360580
C3771	C377	0.830040	0.735080	0.497940
C3781	C378	0.828560	0.735780	0.541640
C3791	C379	0.621050	0.012770	0.905810
C3801	C380	0.671220	0.984460	0.889400
C3811	C381	0.688550	0.938390	0.917550
C3821	C382	0.735860	0.911860	0.900440
C3831	C383	0.765700	0.930360	0.855520
C3841	C384	0.747320	0.976620	0.828400
C3851	C385	0.700910	0.002790	0.845690
C3861	C386	0.760200	0.862320	0.926520
C3871	C387	0.809180	0.852860	0.890380
C3881	C388	0.812210	0.892570	0.848450
C3891	C389	0.758100	0.862380	0.971900
C3901	C390	0.782040	0.894760	0.962620
C3911	C391	0.735080	0.830040	0.936940
C3921	C392	0.735780	0.828560	0.894020
C3931	C393	0.460370	0.012770	0.621050
C3941	C394	0.454920	0.984460	0.671220
C3951	C395	0.455510	0.938390	0.688550
C3961	C396	0.451840	0.911860	0.735860
C3971	C397	0.448420	0.930360	0.765700
C3981	C398	0.447660	0.976620	0.747320
C3991	C399	0.450610	0.002790	0.700910
C4001	C400	0.450960	0.862320	0.760200
C4011	C401	0.447580	0.852860	0.809180
C4021	C402	0.446770	0.892570	0.812210
C4031	C403	0.407620	0.862380	0.758100
C4041	C404	0.360580	0.894760	0.782040
C4051	C405	0.497940	0.830040	0.735080
C4061	C406	0.541640	0.828560	0.735780
C4071	C407	0.905810	0.621050	0.012770
C4081	C408	0.889400	0.671220	0.984460
C4091	C409	0.917550	0.688550	0.938390
C4101	C410	0.900440	0.735860	0.911860
C4111	C411	0.855520	0.765700	0.930360
C4121	C412	0.828400	0.747320	0.976620
C4131	C413	0.845690	0.700910	0.002790
C4141	C414	0.926520	0.760200	0.862320
C4151	C415	0.890380	0.809180	0.852860
C4161	C416	0.848450	0.812210	0.892570
C4171	C417	0.971900	0.758100	0.862380
C4181	C418	0.962620	0.782040	0.894760
C4191	C419	0.936940	0.735080	0.830040
C4201	C420	0.894020	0.735780	0.828560
C4211	C421	0.012770	0.460370	0.905810
C4221	C422	0.984460	0.454920	0.889400
C4231	C423	0.938390	0.455510	0.917550
C4241	C424	0.911860	0.451840	0.900440
C4251	C425	0.930360	0.448420	0.855520
C4261	C426	0.976620	0.447660	0.828400
C4271	C427	0.002790	0.450610	0.845690
C4281	C428	0.862320	0.450960	0.926520
C4291	C429	0.852860	0.447580	0.890380
C4301	C430	0.892570	0.446770	0.848450
C4311	C431	0.862380	0.407620	0.971900
C4321	C432	0.894760	0.360580	0.962620
C4331	C433	0.830040	0.497940	0.936940
C4341	C434	0.828560	0.541640	0.894020
C4351	C435	0.621050	0.905810	0.460370
C4361	C436	0.671220	0.889400	0.454920
C4371	C437	0.688550	0.917550	0.455510
C4381	C438	0.735860	0.900440	0.451840
C4391	C439	0.765700	0.855520	0.448420
C4401	C440	0.747320	0.828400	0.447660
C4411	C441	0.700910	0.845690	0.450610
C4421	C442	0.760200	0.926520	0.450960
C4431	C443	0.809180	0.890380	0.447580
C4441	C444	0.812210	0.848450	0.446770
C4451	C445	0.758100	0.971900	0.407620
C4461	C446	0.782040	0.962620	0.360580
C4471	C447	0.735080	0.936940	0.497940
C4481	C448	0.735780	0.894020	0.541640
C4491	C449	0.460370	0.621050	0.905810
C4501	C450	0.454920	0.671220	0.889400
C4511	C451	0.455510	0.688550	0.917550
C4521	C452	0.451840	0.735860	0.900440
C4531	C453	0.448420	0.765700	0.855520
C4541	C454	0.447660	0.747320	0.828400
C4551	C455	0.450610	0.700910	0.845690
C4561	C456	0.450960	0.760200	0.926520
C4571	C457	0.447580	0.809180	0.890380
C4581	C458	0.446770	0.812210	0.848450
C4591	C459	0.407620	0.758100	0.971900
C4601	C460	0.360580	0.782040	0.962620
C4611	C461	0.497940	0.735080	0.936940
C4621	C462	0.541640	0.735780	0.894020
C4631	C463	0.905810	0.012770	0.460370
C4641	C464	0.889400	0.984460	0.454920
C4651	C465	0.917550	0.938390	0.455510
C4661	C466	0.900440	0.911860	0.451840
C4671	C467	0.855520	0.930360	0.448420
C4681	C468	0.828400	0.976620	0.447660
C4691	C469	0.845690	0.002790	0.450610
C4701	C470	0.926520	0.862320	0.450960
C4711	C471	0.890380	0.852860	0.447580
C4721	C472	0.848450	0.892570	0.446770
C4731	C473	0.971900	0.862380	0.407620
C4741	C474	0.962620	0.894760	0.360580
C4751	C475	0.936940	0.830040	0.497940
C4761	C476	0.894020	0.828560	0.541640
C4771	C477	0.012770	0.905810	0.621050
C4781	C478	0.984460	0.889400	0.671220
C4791	C479	0.938390	0.917550	0.688550
C4801	C480	0.911860	0.900440	0.735860
C4811	C481	0.930360	0.855520	0.765700
C4821	C482	0.976620	0.828400	0.747320
C4831	C483	0.002790	0.845690	0.700910
C4841	C484	0.862320	0.926520	0.760200
C4851	C485	0.852860	0.890380	0.809180
C4861	C486	0.892570	0.848450	0.812210
C4871	C487	0.862380	0.971900	0.758100
C4881	C488	0.894760	0.962620	0.782040
C4891	C489	0.830040	0.936940	0.735080
C4901	C490	0.828560	0.894020	0.735780
C4911	C491	0.621050	0.460370	0.012770
C4921	C492	0.671220	0.454920	0.984460
C4931	C493	0.688550	0.455510	0.938390
C4941	C494	0.735860	0.451840	0.911860
C4951	C495	0.765700	0.448420	0.930360
C4961	C496	0.747320	0.447660	0.976620
C4971	C497	0.700910	0.450610	0.002790
C4981	C498	0.760200	0.450960	0.862320
C4991	C499	0.809180	0.447580	0.852860
C5001	C500	0.812210	0.446770	0.892570
C5011	C501	0.758100	0.407620	0.862380
C5021	C502	0.782040	0.360580	0.894760
C5031	C503	0.735080	0.497940	0.830040
C5041	C504	0.735780	0.541640	0.828560
C5051	C505	0.594190	0.039630	0.487230
C5061	C506	0.610600	0.045080	0.515540
C5071	C507	0.582450	0.044490	0.561610
C5081	C508	0.599560	0.048160	0.588140
C5091	C509	0.644480	0.051580	0.569640
C5101	C510	0.671600	0.052340	0.523380
C5111	C511	0.654310	0.049390	0.497210
C5121	C512	0.573480	0.049040	0.637680
C5131	C513	0.609620	0.052420	0.647140
C5141	C514	0.651550	0.053230	0.607430
C5151	C515	0.528100	0.092380	0.637620
C5161	C516	0.537380	0.139420	0.605240
C5171	C517	0.563060	0.002060	0.669960
C5181	C518	0.605980	0.958360	0.671440
C5191	C519	0.039630	0.594190	0.878950
C5201	C520	0.045080	0.610600	0.828780
C5211	C521	0.044490	0.582450	0.811450
C5221	C522	0.048160	0.599560	0.764140
C5231	C523	0.051580	0.644480	0.734300
C5241	C524	0.052340	0.671600	0.752680
C5251	C525	0.049390	0.654310	0.799090
C5261	C526	0.049040	0.573480	0.739800
C5271	C527	0.052420	0.609620	0.690820
C5281	C528	0.053230	0.651550	0.687790
C5291	C529	0.092380	0.528100	0.741900
C5301	C530	0.139420	0.537380	0.717960
C5311	C531	0.002060	0.563060	0.764920
C5321	C532	0.958360	0.605980	0.764220
C5331	C533	0.878950	0.487230	0.039630
C5341	C534	0.828780	0.515540	0.045080
C5351	C535	0.811450	0.561610	0.044490
C5361	C536	0.764140	0.588140	0.048160
C5371	C537	0.734300	0.569640	0.051580
C5381	C538	0.752680	0.523380	0.052340
C5391	C539	0.799090	0.497210	0.049390
C5401	C540	0.739800	0.637680	0.049040
C5411	C541	0.690820	0.647140	0.052420
C5421	C542	0.687790	0.607430	0.053230
C5431	C543	0.741900	0.637620	0.092380
C5441	C544	0.717960	0.605240	0.139420
C5451	C545	0.764920	0.669960	0.002060
C5461	C546	0.764220	0.671440	0.958360
C5471	C547	0.487230	0.878950	0.594190
C5481	C548	0.515540	0.828780	0.610600
C5491	C549	0.561610	0.811450	0.582450
C5501	C550	0.588140	0.764140	0.599560
C5511	C551	0.569640	0.734300	0.644480
C5521	C552	0.523380	0.752680	0.671600
C5531	C553	0.497210	0.799090	0.654310
C5541	C554	0.637680	0.739800	0.573480
C5551	C555	0.647140	0.690820	0.609620
C5561	C556	0.607430	0.687790	0.651550
C5571	C557	0.637620	0.741900	0.528100
C5581	C558	0.605240	0.717960	0.537380
C5591	C559	0.669960	0.764920	0.563060
C5601	C560	0.671440	0.764220	0.605980
C5611	C561	0.487230	0.039630	0.878950
C5621	C562	0.515540	0.045080	0.828780
C5631	C563	0.561610	0.044490	0.811450
C5641	C564	0.588140	0.048160	0.764140
C5651	C565	0.569640	0.051580	0.734300
C5661	C566	0.523380	0.052340	0.752680
C5671	C567	0.497210	0.049390	0.799090
C5681	C568	0.637680	0.049040	0.739800
C5691	C569	0.647140	0.052420	0.690820
C5701	C570	0.607430	0.053230	0.687790
C5711	C571	0.637620	0.092380	0.741900
C5721	C572	0.605240	0.139420	0.717960
C5731	C573	0.669960	0.002060	0.764920
C5741	C574	0.671440	0.958360	0.764220
C5751	C575	0.878950	0.594190	0.487230
C5761	C576	0.828780	0.610600	0.515540
C5771	C577	0.811450	0.582450	0.561610
C5781	C578	0.764140	0.599560	0.588140
C5791	C579	0.734300	0.644480	0.569640
C5801	C580	0.752680	0.671600	0.523380
C5811	C581	0.799090	0.654310	0.497210
C5821	C582	0.739800	0.573480	0.637680
C5831	C583	0.690820	0.609620	0.647140
C5841	C584	0.687790	0.651550	0.607430
C5851	C585	0.741900	0.528100	0.637620
C5861	C586	0.717960	0.537380	0.605240
C5871	C587	0.764920	0.563060	0.669960
C5881	C588	0.764220	0.605980	0.671440
C5891	C589	0.039630	0.487230	0.594190
C5901	C590	0.045080	0.515540	0.610600
C5911	C591	0.044490	0.561610	0.582450
C5921	C592	0.048160	0.588140	0.599560
C5931	C593	0.051580	0.569640	0.644480
C5941	C594	0.052340	0.523380	0.671600
C5951	C595	0.049390	0.497210	0.654310
C5961	C596	0.049040	0.637680	0.573480
C5971	C597	0.052420	0.647140	0.609620
C5981	C598	0.053230	0.607430	0.651550
C5991	C599	0.092380	0.637620	0.528100
C6001	C600	0.139420	0.605240	0.537380
C6011	C601	0.002060	0.669960	0.563060
C6021	C602	0.958360	0.671440	0.605980
C6031	C603	0.594190	0.878950	0.039630
C6041	C604	0.610600	0.828780	0.045080
C6051	C605	0.582450	0.811450	0.044490
C6061	C606	0.599560	0.764140	0.048160
C6071	C607	0.644480	0.734300	0.051580
C6081	C608	0.671600	0.752680	0.052340
C6091	C609	0.654310	0.799090	0.049390
C6101	C610	0.573480	0.739800	0.049040
C6111	C611	0.609620	0.690820	0.052420
C6121	C612	0.651550	0.687790	0.053230
C6131	C613	0.528100	0.741900	0.092380
C6141	C614	0.537380	0.717960	0.139420
C6151	C615	0.563060	0.764920	0.002060
C6161	C616	0.605980	0.764220	0.958360
C6171	C617	0.878950	0.039630	0.594190
C6181	C618	0.828780	0.045080	0.610600
C6191	C619	0.811450	0.044490	0.582450
C6201	C620	0.764140	0.048160	0.599560
C6211	C621	0.734300	0.051580	0.644480
C6221	C622	0.752680	0.052340	0.671600
C6231	C623	0.799090	0.049390	0.654310
C6241	C624	0.739800	0.049040	0.573480
C6251	C625	0.690820	0.052420	0.609620
C6261	C626	0.687790	0.053230	0.651550
C6271	C627	0.741900	0.092380	0.528100
C6281	C628	0.717960	0.139420	0.537380
C6291	C629	0.764920	0.002060	0.563060
C6301	C630	0.764220	0.958360	0.605980
C6311	C631	0.487230	0.594190	0.039630
C6321	C632	0.515540	0.610600	0.045080
C6331	C633	0.561610	0.582450	0.044490
C6341	C634	0.588140	0.599560	0.048160
C6351	C635	0.569640	0.644480	0.051580
C6361	C636	0.523380	0.671600	0.052340
C6371	C637	0.497210	0.654310	0.049390
C6381	C638	0.637680	0.573480	0.049040
C6391	C639	0.647140	0.609620	0.052420
C6401	C640	0.607430	0.651550	0.053230
C6411	C641	0.637620	0.528100	0.092380
C6421	C642	0.605240	0.537380	0.139420
C6431	C643	0.669960	0.563060	0.002060
C6441	C644	0.671440	0.605980	0.958360
C6451	C645	0.594190	0.487230	0.878950
C6461	C646	0.610600	0.515540	0.828780
C6471	C647	0.582450	0.561610	0.811450
C6481	C648	0.599560	0.588140	0.764140
C6491	C649	0.644480	0.569640	0.734300
C6501	C650	0.671600	0.523380	0.752680
C6511	C651	0.654310	0.497210	0.799090
C6521	C652	0.573480	0.637680	0.739800
C6531	C653	0.609620	0.647140	0.690820
C6541	C654	0.651550	0.607430	0.687790
C6551	C655	0.528100	0.637620	0.741900
C6561	C656	0.537380	0.605240	0.717960
C6571	C657	0.563060	0.669960	0.764920
C6581	C658	0.605980	0.671440	0.764220
C6591	C659	0.039630	0.878950	0.487230
C6601	C660	0.045080	0.828780	0.515540
C6611	C661	0.044490	0.811450	0.561610
C6621	C662	0.048160	0.764140	0.588140
C6631	C663	0.051580	0.734300	0.569640
C6641	C664	0.052340	0.752680	0.523380
C6651	C665	0.049390	0.799090	0.497210
C6661	C666	0.049040	0.739800	0.637680
C6671	C667	0.052420	0.690820	0.647140
C6681	C668	0.053230	0.687790	0.607430
C6691	C669	0.092380	0.741900	0.637620
C6701	C670	0.139420	0.717960	0.605240
C6711	C671	0.002060	0.764920	0.669960
C6721	C672	0.958360	0.764220	0.671440
O11	O1	0.534440	0.053060	0.006700
O21	O2	0.535580	0.119160	0.948520
O31	O3	0.053060	0.534440	0.405800
O41	O4	0.119160	0.535580	0.396740
O51	O5	0.006700	0.405800	0.534440
O61	O6	0.948520	0.396740	0.535580
O71	O7	0.405800	0.006700	0.053060
O81	O8	0.396740	0.948520	0.119160
O91	O9	0.534440	0.006700	0.405800
O101	O10	0.535580	0.948520	0.396740
O111	O11	0.053060	0.405800	0.006700
O121	O12	0.119160	0.396740	0.948520
O131	O13	0.006700	0.534440	0.053060
O141	O14	0.948520	0.535580	0.119160
O151	O15	0.405800	0.053060	0.534440
O161	O16	0.396740	0.119160	0.535580
O171	O17	0.534440	0.405800	0.053060
O181	O18	0.535580	0.396740	0.119160
O191	O19	0.053060	0.006700	0.534440
O201	O20	0.119160	0.948520	0.535580
O211	O21	0.006700	0.053060	0.405800
O221	O22	0.948520	0.119160	0.396740
O231	O23	0.405800	0.534440	0.006700
O241	O24	0.396740	0.535580	0.948520
O251	O25	0.446940	0.965560	0.493300
O261	O26	0.380840	0.964420	0.551480
O271	O27	0.965560	0.446940	0.094200
O281	O28	0.964420	0.380840	0.103260
O291	O29	0.094200	0.493300	0.965560
O301	O30	0.103260	0.551480	0.964420
O311	O31	0.493300	0.094200	0.446940
O321	O32	0.551480	0.103260	0.380840
O331	O33	0.493300	0.965560	0.094200
O341	O34	0.551480	0.964420	0.103260
O351	O35	0.094200	0.446940	0.493300
O361	O36	0.103260	0.380840	0.551480
O371	O37	0.965560	0.493300	0.446940
O381	O38	0.964420	0.551480	0.380840
O391	O39	0.446940	0.094200	0.965560
O401	O40	0.380840	0.103260	0.964420
O411	O41	0.094200	0.965560	0.446940
O421	O42	0.103260	0.964420	0.380840
O431	O43	0.493300	0.446940	0.965560
O441	O44	0.551480	0.380840	0.964420
O451	O45	0.446940	0.493300	0.094200
O461	O46	0.380840	0.551480	0.103260
O471	O47	0.965560	0.094200	0.493300
O481	O48	0.964420	0.103260	0.551480
O491	O49	0.465560	0.946940	0.993300
O501	O50	0.464420	0.880840	0.051480
O511	O51	0.946940	0.465560	0.594200
O521	O52	0.880840	0.464420	0.603260
O531	O53	0.993300	0.594200	0.465560
O541	O54	0.051480	0.603260	0.464420
O551	O55	0.594200	0.993300	0.946940
O561	O56	0.603260	0.051480	0.880840
O571	O57	0.465560	0.993300	0.594200
O581	O58	0.464420	0.051480	0.603260
O591	O59	0.946940	0.594200	0.993300
O601	O60	0.880840	0.603260	0.051480
O611	O61	0.993300	0.465560	0.946940
O621	O62	0.051480	0.464420	0.880840
O631	O63	0.594200	0.946940	0.465560
O641	O64	0.603260	0.880840	0.464420
O651	O65	0.465560	0.594200	0.946940
O661	O66	0.464420	0.603260	0.880840
O671	O67	0.946940	0.993300	0.465560
O681	O68	0.880840	0.051480	0.464420
O691	O69	0.993300	0.946940	0.594200
O701	O70	0.051480	0.880840	0.603260
O711	O71	0.594200	0.465560	0.993300
O721	O72	0.603260	0.464420	0.051480
O731	O73	0.553060	0.034440	0.506700
O741	O74	0.619160	0.035580	0.448520
O751	O75	0.034440	0.553060	0.905800
O761	O76	0.035580	0.619160	0.896740
O771	O77	0.905800	0.506700	0.034440
O781	O78	0.896740	0.448520	0.035580
O791	O79	0.506700	0.905800	0.553060
O801	O80	0.448520	0.896740	0.619160
O811	O81	0.506700	0.034440	0.905800
O821	O82	0.448520	0.035580	0.896740
O831	O83	0.905800	0.553060	0.506700
O841	O84	0.896740	0.619160	0.448520
O851	O85	0.034440	0.506700	0.553060
O861	O86	0.035580	0.448520	0.619160
O871	O87	0.553060	0.905800	0.034440
O881	O88	0.619160	0.896740	0.035580
O891	O89	0.905800	0.034440	0.553060
O901	O90	0.896740	0.035580	0.619160
O911	O91	0.506700	0.553060	0.034440
O921	O92	0.448520	0.619160	0.035580
O931	O93	0.553060	0.506700	0.905800
O941	O94	0.619160	0.448520	0.896740
O951	O95	0.034440	0.905800	0.506700
O961	O96	0.035580	0.896740	0.448520
O971	O97	0.500000	0.000000	0.000000
O981	O98	0.000000	0.500000	0.500000
O991	O99	0.500000	0.000000	0.500000
O1001	O100	0.000000	0.500000	0.000000
O1011	O101	0.500000	0.500000	0.000000
O1021	O102	0.000000	0.000000	0.500000
