data_BOYCEY_auto_PM
_symmetry_space_group_name_H-M	'P1'
_cell_length_a	18.341100
_cell_length_b	18.341100
_cell_length_c	52.604100
_cell_angle_alpha	90.000000
_cell_angle_beta	90.000000
_cell_angle_gamma	120.000000
_symmetry_Int_Tables_number 1

loop_
_symmetry_equiv_pos_as_xyz
'x,y,z'

loop_
_atom_site_label
_atom_site_type_symbol
_atom_site_fract_x
_atom_site_fract_y
_atom_site_fract_z
C11	C1	0.263880	0.134220	0.212200
C21	C2	0.251700	0.062010	0.225290
C31	C3	0.225630	0.048400	0.250850
C41	C4	0.213320	0.108920	0.263440
C51	C5	0.224750	0.181320	0.250780
C61	C6	0.250720	0.193780	0.225200
H71	H7	0.258930	0.014530	0.215190
H81	H8	0.191790	0.098140	0.282980
H91	H9	0.259370	0.249210	0.215220
C101	C10	0.927080	0.464330	0.545040
C111	C11	0.916450	0.393100	0.558350
C121	C12	0.893930	0.381510	0.584190
C131	C13	0.884150	0.443380	0.596910
C141	C14	0.894640	0.515230	0.584090
C151	C15	0.917000	0.525610	0.558180
H161	H16	0.923590	0.345440	0.548330
H171	H17	0.865160	0.434010	0.616690
H181	H18	0.922330	0.579200	0.547870
C191	C19	0.598990	0.797380	0.878980
C201	C20	0.586060	0.724820	0.892020
C211	C21	0.560070	0.711350	0.917590
C221	C22	0.548410	0.772230	0.930220
C231	C23	0.560510	0.844940	0.917590
C241	C24	0.586580	0.857340	0.892030
H251	H25	0.594890	0.678090	0.882070
H261	H26	0.526870	0.761520	0.949760
H271	H27	0.593650	0.911930	0.881910
C281	C28	0.849130	0.131430	0.212120
C291	C29	0.789350	0.059030	0.225160
C301	C30	0.801290	0.046090	0.250820
C311	C31	0.873440	0.107310	0.263530
C321	C32	0.934190	0.179910	0.250890
C331	C33	0.921060	0.191820	0.225230
H341	H34	0.734160	0.012010	0.215140
H351	H35	0.883840	0.096960	0.283140
H361	H36	0.968670	0.246330	0.215100
C371	C37	0.523380	0.466820	0.545010
C381	C38	0.462300	0.395060	0.558040
C391	C39	0.472800	0.382550	0.583890
C401	C40	0.544570	0.443740	0.596780
C411	C41	0.606320	0.515770	0.584170
C421	C42	0.594650	0.527210	0.558370
H431	H43	0.408710	0.346950	0.547700
H441	H44	0.553990	0.433740	0.616520
H451	H45	0.642200	0.582280	0.548430
C461	C46	0.184290	0.798360	0.878840
C471	C47	0.256660	0.858100	0.891920
C481	C48	0.270120	0.845480	0.917490
C491	C49	0.209230	0.772870	0.930080
C501	C50	0.136620	0.712250	0.917410
C511	C51	0.124380	0.725850	0.891820
H521	H52	0.304340	0.912650	0.881820
H531	H53	0.219860	0.762030	0.949620
H541	H54	0.068850	0.679290	0.881830
C551	C55	0.849710	0.719580	0.212070
C561	C56	0.922120	0.732180	0.225130
C571	C57	0.935450	0.757790	0.250730
C581	C58	0.874420	0.769120	0.263390
C591	C59	0.801790	0.757170	0.250750
C601	C60	0.789660	0.731790	0.225120
H611	H61	0.969890	0.725580	0.214980
H621	H62	0.884950	0.790240	0.282970
H631	H63	0.734100	0.722830	0.215150
C641	C64	0.521280	0.059340	0.544880
C651	C65	0.460870	0.070120	0.558240
C661	C66	0.472200	0.093050	0.584040
C671	C67	0.544050	0.103060	0.596690
C681	C68	0.605240	0.092430	0.583810
C691	C69	0.592880	0.069680	0.557930
H701	H70	0.405880	0.062750	0.548290
H711	H71	0.553950	0.122350	0.616440
H721	H72	0.640980	0.064200	0.547580
C731	C73	0.187180	0.390850	0.878180
C741	C74	0.126520	0.401340	0.891500
C751	C75	0.137290	0.423490	0.917360
C761	C76	0.208880	0.433130	0.930090
C771	C77	0.270320	0.422820	0.917250
C781	C78	0.258470	0.400760	0.891310
H791	H79	0.071780	0.394340	0.881470
H801	H80	0.218380	0.451860	0.949890
H811	H81	0.306760	0.395520	0.881000
C821	C82	0.128800	0.272820	0.689260
C831	C83	0.188750	0.260520	0.676190
C841	C84	0.176470	0.234920	0.650590
C851	C85	0.103820	0.223000	0.637970
C861	C86	0.042900	0.234530	0.650630
C871	C87	0.056380	0.260300	0.676230
H881	H88	0.244320	0.269440	0.686150
H891	H89	0.093160	0.201700	0.618410
H901	H90	0.008680	0.266980	0.686390
C911	C91	0.791460	0.597650	0.023340
C921	C92	0.851980	0.586920	0.010010
C931	C93	0.840550	0.563560	0.984230
C941	C94	0.768380	0.552860	0.971610
C951	C95	0.707040	0.563270	0.984470
C961	C96	0.719570	0.586600	0.010300
H971	H97	0.907160	0.594740	0.019950
H981	H98	0.758370	0.533230	0.951890
H991	H99	0.671400	0.592020	0.020630
C1001	C100	0.458960	0.937530	0.356120
C1011	C101	0.386790	0.925640	0.343060
C1021	C102	0.373240	0.899930	0.317460
C1031	C103	0.433740	0.887660	0.304830
C1041	C104	0.506060	0.898860	0.317480
C1051	C105	0.518500	0.924550	0.343070
H1061	H106	0.339350	0.932820	0.353190
H1071	H107	0.423020	0.866370	0.285270
H1081	H108	0.573940	0.933090	0.353020
C1091	C109	0.127370	0.862770	0.690080
C1101	C110	0.187680	0.934120	0.676740
C1111	C111	0.176350	0.945690	0.650920
C1121	C112	0.104500	0.883780	0.638280
C1131	C113	0.043370	0.811930	0.651160
C1141	C114	0.055810	0.801510	0.677020
H1151	H115	0.242610	0.981790	0.686700
H1161	H116	0.094570	0.893140	0.618530
H1171	H117	0.007760	0.747850	0.687350
C1181	C118	0.791850	0.191700	0.023180
C1191	C119	0.852200	0.263000	0.009840
C1201	C120	0.840830	0.274670	0.984040
C1211	C121	0.768930	0.212850	0.971400
C1221	C122	0.707790	0.140990	0.984270
C1231	C123	0.720250	0.130480	0.010130
H1241	H124	0.907150	0.310630	0.019810
H1251	H125	0.758970	0.222300	0.951660
H1261	H126	0.672200	0.076850	0.020480
C1271	C127	0.458070	0.522900	0.356200
C1281	C128	0.518120	0.595020	0.343080
C1291	C129	0.505640	0.608510	0.317510
C1301	C130	0.432760	0.547980	0.304950
C1311	C131	0.371770	0.475680	0.317640
C1321	C132	0.385300	0.463330	0.343230
H1331	H133	0.572860	0.642520	0.353160
H1341	H134	0.422020	0.558680	0.285400
H1351	H135	0.338500	0.407960	0.353230
C1361	C136	0.720040	0.861640	0.690160
C1371	C137	0.730970	0.800760	0.677110
C1381	C138	0.753890	0.811350	0.651240
C1391	C139	0.764080	0.882990	0.638370
C1401	C140	0.753510	0.944520	0.651000
C1411	C141	0.730510	0.932770	0.676810
H1421	H142	0.725800	0.747280	0.687440
H1431	H143	0.783430	0.892470	0.618620
H1441	H144	0.722770	0.980160	0.686760
C1451	C145	0.384520	0.189870	0.023360
C1461	C146	0.395500	0.129460	0.010060
C1471	C147	0.418540	0.140710	0.984250
C1481	C148	0.428590	0.212540	0.971570
C1491	C149	0.417860	0.273730	0.984400
C1501	C150	0.394940	0.261410	0.010260
H1511	H151	0.388140	0.074530	0.020050
H1521	H152	0.447970	0.222410	0.951830
H1531	H153	0.389390	0.309560	0.020560
C1541	C154	0.044610	0.524720	0.356070
C1551	C155	0.057440	0.597210	0.343020
C1561	C156	0.082980	0.610430	0.317420
C1571	C157	0.094200	0.549330	0.304750
C1581	C158	0.082090	0.476630	0.317390
C1591	C159	0.056500	0.464480	0.342990
H1601	H160	0.048960	0.644100	0.353000
H1611	H161	0.115410	0.559880	0.285180
H1621	H162	0.049470	0.409930	0.353130
O1631	O163	0.881630	0.510360	0.949000
O1641	O164	0.013760	0.435690	0.918840
O1651	O165	0.881590	0.369110	0.948850
O1661	O166	0.013200	0.576240	0.918720
O1671	O167	0.095600	0.617380	0.952450
O1681	O168	0.964050	0.410570	0.982570
O1691	O169	0.096110	0.476550	0.952580
O1701	O170	0.964110	0.551380	0.982710
Cu1711	Cu171	0.939120	0.468630	0.930530
Cu1721	Cu172	0.038370	0.518190	0.970900
C1731	C173	0.899020	0.541910	0.971210
C1741	C174	0.078780	0.445090	0.930370
C1751	C175	0.899070	0.354910	0.971040
C1761	C176	0.078220	0.631750	0.930260
O1771	O177	0.546590	0.844530	0.282420
O1781	O178	0.678150	0.769320	0.252160
O1791	O179	0.546510	0.703290	0.282430
O1801	O180	0.678070	0.910050	0.252190
O1811	O181	0.760450	0.951410	0.285920
O1821	O182	0.628950	0.744580	0.316150
O1831	O183	0.760540	0.810430	0.285890
O1841	O184	0.628990	0.885540	0.316150
Cu1851	Cu185	0.603850	0.802530	0.263990
Cu1861	Cu186	0.703140	0.852160	0.304350
C1871	C187	0.564080	0.876290	0.304610
C1881	C188	0.743240	0.778900	0.263680
C1891	C189	0.563930	0.688990	0.304620
C1901	C190	0.743050	0.965650	0.263720
O1911	O191	0.348970	0.105670	0.585510
O1921	O192	0.217490	0.181160	0.615530
O1931	O193	0.349120	0.246590	0.585250
O1941	O194	0.217180	0.039850	0.615640
O1951	O195	0.299740	0.081490	0.649340
O1961	O196	0.431390	0.287960	0.619010
O1971	O197	0.299850	0.222340	0.649270
O1981	O198	0.431510	0.146840	0.619210
Cu1991	Cu199	0.274760	0.139090	0.597160
Cu2001	Cu200	0.374050	0.188910	0.637520
C2011	C201	0.413980	0.115060	0.597040
C2021	C202	0.234850	0.212870	0.637710
C2031	C203	0.414150	0.302180	0.596780
C2041	C204	0.234660	0.025800	0.637860
O2051	O205	0.546990	0.575160	0.918970
O2061	O206	0.471110	0.368280	0.949250
O2071	O207	0.405980	0.434550	0.918800
O2081	O208	0.612360	0.509450	0.949360
O2091	O209	0.570910	0.550530	0.983060
O2101	O210	0.364410	0.475360	0.952530
O2111	O211	0.430060	0.409610	0.982980
O2121	O212	0.505670	0.616450	0.952650
Cu2131	Cu213	0.513310	0.467570	0.930800
Cu2141	Cu214	0.463450	0.517150	0.971110
C2151	C215	0.537580	0.630780	0.930480
C2161	C216	0.439540	0.354030	0.971460
C2171	C217	0.350380	0.444080	0.930280
C2181	C218	0.626570	0.541140	0.971560
O2191	O219	0.237210	0.887390	0.316100
O2201	O220	0.030400	0.812200	0.285790
O2211	O221	0.096160	0.746640	0.316090
O2221	O222	0.171560	0.953490	0.285890
O2231	O223	0.212690	0.912240	0.252160
O2241	O224	0.137220	0.705290	0.282360
O2251	O225	0.071790	0.771180	0.252060
O2261	O226	0.278480	0.846300	0.282370
Cu2271	Cu227	0.129630	0.854170	0.304280
Cu2281	Cu228	0.179290	0.804580	0.263920
C2291	C229	0.292770	0.877910	0.304570
C2301	C230	0.016110	0.780430	0.263600
C2311	C231	0.105460	0.690990	0.304540
C2321	C232	0.203300	0.967830	0.263710
O2331	O233	0.699730	0.145520	0.618990
O2341	O234	0.906510	0.221090	0.649340
O2351	O235	0.840470	0.287050	0.619340
O2361	O236	0.765590	0.080200	0.649460
O2371	O237	0.806520	0.038710	0.615740
O2381	O238	0.881510	0.245660	0.585620
O2391	O239	0.947810	0.179920	0.615630
O2401	O240	0.741070	0.104500	0.585250
Cu2411	Cu241	0.798770	0.187570	0.637600
Cu2421	Cu242	0.848450	0.137960	0.597250
C2431	C243	0.685520	0.114020	0.596760
C2441	C244	0.962180	0.211810	0.637790
C2451	C245	0.872110	0.301280	0.597150
C2461	C246	0.775050	0.024590	0.637960
O2471	O247	0.431060	0.017360	0.982760
O2481	O248	0.506330	0.885770	0.952610
O2491	O249	0.571860	0.017340	0.982900
O2501	O250	0.365090	0.885830	0.952530
O2511	O251	0.406490	0.968350	0.918830
O2521	O252	0.613190	0.099620	0.949150
O2531	O253	0.547390	0.968090	0.918870
O2541	O254	0.472160	0.099880	0.949060
Cu2551	Cu255	0.464340	0.943100	0.971010
Cu2561	Cu256	0.514050	0.042380	0.930660
C2571	C257	0.440480	0.082410	0.971250
C2581	C258	0.538070	0.903150	0.930430
C2591	C259	0.627440	0.082360	0.971370
C2601	C260	0.350790	0.903400	0.930360
O2611	O261	0.170330	0.221830	0.285820
O2621	O262	0.094850	0.353270	0.316080
O2631	O263	0.028820	0.221120	0.286010
O2641	O264	0.235490	0.352680	0.316320
O2651	O265	0.276860	0.435100	0.282590
O2661	O266	0.070130	0.303450	0.252270
O2671	O267	0.135920	0.435590	0.282330
O2681	O268	0.211430	0.304280	0.252100
Cu2691	Cu269	0.128110	0.278790	0.304370
Cu2701	Cu270	0.177770	0.378050	0.264010
C2711	C271	0.202150	0.239340	0.263640
C2721	C272	0.104250	0.418260	0.304520
C2731	C273	0.014570	0.238400	0.263800
C2741	C274	0.291150	0.417620	0.304780
O2751	O275	0.766490	0.687900	0.649820
O2761	O276	0.841850	0.556660	0.619340
O2771	O277	0.907510	0.688140	0.649770
O2781	O278	0.700560	0.556510	0.619440
O2791	O279	0.742100	0.639200	0.585770
O2801	O280	0.948790	0.770460	0.616030
O2811	O281	0.882770	0.639090	0.585620
O2821	O282	0.807600	0.770420	0.616120
Cu2831	Cu283	0.799930	0.613830	0.637900
Cu2841	Cu284	0.849570	0.713270	0.597590
C2851	C285	0.775920	0.752960	0.638320
C2861	C286	0.873240	0.573960	0.597100
C2871	C287	0.963060	0.753200	0.638240
C2881	C288	0.686450	0.574070	0.597240
C2891	C289	0.162700	0.347740	0.796660
C2901	C290	0.190290	0.303550	0.812590
C2911	C291	0.198170	0.317790	0.839010
C2921	C292	0.178670	0.375360	0.850220
C2931	C293	0.151860	0.419290	0.834540
C2941	C294	0.143980	0.405980	0.808290
C2951	C295	0.154890	0.331520	0.769870
C2961	C296	0.127500	0.372050	0.752580
C2971	C297	0.119810	0.353370	0.726610
C2981	C298	0.139380	0.294120	0.716860
C2991	C299	0.167200	0.253710	0.733680
C3001	C300	0.174930	0.271610	0.759870
C3011	C301	0.209610	0.245110	0.802090
C3021	C302	0.202010	0.229340	0.776080
H3031	H303	0.230620	0.211170	0.814090
H3041	H304	0.217280	0.183520	0.768600
H3051	H305	0.218490	0.283080	0.850950
H3061	H306	0.137980	0.465380	0.842570
H3071	H307	0.098930	0.386030	0.714030
H3081	H308	0.181240	0.206720	0.726450
H3091	H309	0.123270	0.442500	0.797660
H3101	H310	0.111290	0.418380	0.758510
C3111	C311	0.494730	0.014230	0.463450
C3121	C312	0.522980	0.970610	0.479380
C3131	C313	0.531580	0.985510	0.505770
C3141	C314	0.512140	0.043180	0.516950
C3151	C315	0.484690	0.086530	0.501260
C3161	C316	0.476070	0.072560	0.475050
C3171	C317	0.486290	0.997430	0.436680
C3181	C318	0.458370	0.037500	0.419400
C3191	C319	0.450250	0.018400	0.393450
C3201	C320	0.469790	0.959100	0.383720
C3211	C321	0.498010	0.919070	0.400560
C3221	C322	0.506290	0.937490	0.426720
C3231	C323	0.542240	0.912110	0.468910
C3241	C324	0.533980	0.895750	0.442930
H3251	H325	0.563770	0.878600	0.480910
H3261	H326	0.549280	0.849930	0.435470
H3271	H327	0.552390	0.951220	0.517710
H3281	H328	0.470840	0.132680	0.509260
H3291	H329	0.429100	0.050850	0.380870
H3301	H330	0.512030	0.872030	0.393360
H3311	H331	0.454850	0.108630	0.464410
H3321	H332	0.442150	0.083840	0.425310
C3331	C333	0.816700	0.643350	0.104740
C3341	C334	0.788730	0.686890	0.088670
C3351	C335	0.780770	0.671960	0.062270
C3361	C336	0.800600	0.614360	0.051240
C3371	C337	0.828030	0.571300	0.067050
C3381	C338	0.835990	0.585280	0.093270
C3391	C339	0.824240	0.659950	0.131520
C3401	C340	0.851700	0.619820	0.148920
C3411	C341	0.859080	0.638770	0.174870
C3421	C342	0.839170	0.697940	0.184490
C3431	C343	0.811180	0.737900	0.167540
C3441	C344	0.803740	0.719700	0.141360
C3451	C345	0.769020	0.745250	0.099020
C3461	C346	0.776460	0.761460	0.125000
H3471	H347	0.747770	0.778770	0.086910
H3481	H348	0.760810	0.807140	0.132370
H3491	H349	0.760000	0.706060	0.050230
H3501	H350	0.842230	0.525260	0.059160
H3511	H351	0.880020	0.606380	0.187540
H3521	H352	0.796810	0.784780	0.174660
H3531	H353	0.857180	0.549370	0.104010
H3541	H354	0.868160	0.573570	0.143120
C3551	C355	0.159270	0.833090	0.798300
C3561	C356	0.138910	0.752830	0.808110
C3571	C357	0.146150	0.741910	0.834280
C3581	C358	0.173800	0.809690	0.851270
C3591	C359	0.193560	0.888790	0.841700
C3601	C360	0.186360	0.900520	0.815750
C3611	C361	0.152000	0.842280	0.771520
C3621	C362	0.171190	0.919640	0.760050
C3631	C363	0.163480	0.925740	0.733820
C3641	C364	0.136410	0.855310	0.717990
C3651	C365	0.116750	0.777940	0.729020
C3661	C366	0.124420	0.770900	0.755420
C3671	C367	0.112000	0.683920	0.791720
C3681	C368	0.104800	0.692830	0.765740
H3691	H369	0.096480	0.622590	0.799060
H3701	H370	0.083820	0.638160	0.753600
H3711	H371	0.131930	0.680670	0.841360
H3721	H372	0.214280	0.942010	0.854410
H3731	H373	0.177580	0.985950	0.725930
H3741	H374	0.096300	0.723150	0.716970
H3751	H375	0.202680	0.963220	0.809970
H3761	H376	0.192090	0.976660	0.770820
C3771	C377	0.502510	0.491230	0.463560
C3781	C378	0.431100	0.463240	0.479670
C3791	C379	0.438270	0.455710	0.506070
C3801	C380	0.515810	0.475930	0.517100
C3811	C381	0.586280	0.503520	0.501250
C3821	C382	0.580050	0.511100	0.475020
C3831	C383	0.493160	0.498250	0.436770
C3841	C384	0.560550	0.525480	0.419300
C3851	C385	0.548670	0.532450	0.393350
C3861	C386	0.469460	0.512380	0.383780
C3871	C387	0.401700	0.484500	0.400790
C3881	C388	0.412760	0.477390	0.426970
C3891	C389	0.352860	0.443040	0.469350
C3901	C390	0.343830	0.450100	0.443370
H3911	H391	0.298160	0.421720	0.481490
H3921	H392	0.282380	0.434140	0.436040
H3931	H393	0.383420	0.434890	0.518120
H3941	H394	0.646640	0.518080	0.509130
H3951	H395	0.601890	0.553260	0.380630
H3961	H396	0.340360	0.470000	0.393730
H3971	H397	0.637130	0.532470	0.464250
H3981	H398	0.623330	0.542060	0.425070
C3991	C399	0.816720	0.172680	0.104650
C4001	C400	0.789560	0.101060	0.088670
C4011	C401	0.781660	0.107530	0.062260
C4021	C402	0.800800	0.184590	0.051100
C4031	C403	0.827410	0.255190	0.066810
C4041	C404	0.835280	0.249650	0.093050
C4051	C405	0.824200	0.164140	0.131450
C4061	C406	0.850870	0.231880	0.148760
C4071	C407	0.858120	0.220790	0.174740
C4081	C408	0.838890	0.142060	0.184490
C4091	C409	0.811780	0.073990	0.167630
C4101	C410	0.804440	0.084250	0.141420
C4111	C411	0.770590	0.023360	0.099150
C4121	C412	0.777980	0.015080	0.125170
H4131	H413	0.749960	0.968500	0.087120
H4141	H414	0.762910	0.954040	0.132630
H4151	H415	0.761500	0.052600	0.050290
H4161	H416	0.841060	0.315150	0.058820
H4171	H417	0.878410	0.274210	0.187340
H4181	H418	0.797970	0.013020	0.174860
H4191	H419	0.855830	0.306810	0.103710
H4201	H420	0.866770	0.294340	0.142850
C4211	C421	0.675180	0.841090	0.771630
C4221	C422	0.631950	0.769520	0.755570
C4231	C423	0.646560	0.776560	0.729160
C4241	C424	0.703580	0.854110	0.718080
C4251	C425	0.746350	0.924710	0.733880
C4261	C426	0.732640	0.918620	0.760120
C4271	C427	0.658840	0.831920	0.798420
C4281	C428	0.698770	0.899490	0.815840
C4291	C429	0.679890	0.887790	0.841790
C4301	C430	0.620940	0.808600	0.851410
C4311	C431	0.581320	0.740650	0.834450
C4321	C432	0.599510	0.751520	0.808270
C4331	C433	0.574160	0.691280	0.765930
C4341	C434	0.558100	0.682420	0.791930
H4351	H435	0.540940	0.636460	0.753830
H4361	H436	0.512780	0.620960	0.799300
H4371	H437	0.612650	0.721610	0.717140
H4381	H438	0.791940	0.985090	0.725970
H4391	H439	0.712120	0.941150	0.854470
H4401	H440	0.534630	0.679300	0.841550
H4411	H441	0.768230	0.975800	0.770850
H4421	H442	0.744800	0.962280	0.810030
C4431	C443	0.970260	0.483310	0.463520
C4441	C444	0.014280	0.555080	0.479470
C4451	C445	0.000090	0.548610	0.505890
C4461	C446	0.942740	0.471430	0.517090
C4471	C447	0.899050	0.400690	0.501400
C4481	C448	0.912330	0.406220	0.475150
C4491	C449	0.986290	0.491850	0.436710
C4501	C450	0.945740	0.423990	0.419420
C4511	C451	0.964220	0.435100	0.393440
C4521	C452	0.023350	0.513980	0.383680
C4531	C453	0.063730	0.582160	0.400530
C4541	C454	0.045960	0.571880	0.426720
C4551	C455	0.072450	0.632930	0.468960
C4561	C456	0.088110	0.641210	0.442950
H4571	H457	0.106260	0.687890	0.480970
H4581	H458	0.133710	0.702380	0.435470
H4591	H459	0.034650	0.603660	0.517830
H4601	H460	0.853140	0.340630	0.509420
H4611	H461	0.931500	0.381580	0.380850
H4621	H462	0.110620	0.643250	0.393310
H4631	H463	0.876040	0.348960	0.464510
H4641	H464	0.899510	0.361410	0.425340
C4651	C465	0.323550	0.159050	0.131640
C4661	C466	0.264000	0.179870	0.141460
C4671	C467	0.245880	0.172730	0.167630
C4681	C468	0.285800	0.144840	0.184630
C4691	C469	0.344970	0.124850	0.175050
C4701	C470	0.363790	0.131860	0.149090
C4711	C471	0.339820	0.166030	0.104840
C4721	C472	0.397510	0.146220	0.093370
C4731	C473	0.411160	0.153670	0.067130
C4741	C474	0.368080	0.181040	0.051290
C4751	C475	0.310790	0.201260	0.062330
C4761	C476	0.296250	0.193880	0.088740
C4771	C477	0.222260	0.207080	0.125070
C4781	C478	0.238230	0.214070	0.099070
H4791	H479	0.176760	0.223010	0.132420
H4801	H480	0.204760	0.235300	0.086940
H4811	H481	0.199020	0.187180	0.174710
H4821	H482	0.377410	0.104040	0.187750
H4831	H483	0.456970	0.139140	0.059240
H4841	H484	0.276620	0.221930	0.050280
H4851	H485	0.410000	0.115320	0.143310
H4861	H486	0.433370	0.125010	0.104130
