data_BOZFON_clean_PM
_symmetry_space_group_name_H-M	'P1'
_cell_length_a	24.660200
_cell_length_b	28.691100
_cell_length_c	12.560200
_cell_angle_alpha	90.000000
_cell_angle_beta	90.000000
_cell_angle_gamma	90.000000
_symmetry_Int_Tables_number 1

loop_
_symmetry_equiv_pos_as_xyz
'x,y,z'

loop_
_atom_site_label
_atom_site_type_symbol
_atom_site_fract_x
_atom_site_fract_y
_atom_site_fract_z
Cd11	Cd1	0.993890	0.312170	0.062860
Cd21	Cd2	0.897860	0.240380	0.190150
Cd31	Cd3	0.798260	0.173380	0.318440
N11	N1	0.613000	0.042900	0.650800
N21	N2	0.522900	0.885700	0.631900
N31	N3	0.735600	0.144500	0.433200
N41	N4	0.586600	0.159700	0.275500
N51	N5	0.558200	0.174300	0.432400
N61	N6	0.848700	0.226400	0.646300
N71	N7	0.625600	0.401900	0.191000
N81	N8	0.599200	0.342700	0.671000
O11	O1	0.976900	0.280900	0.230000
O21	O2	0.066900	0.285700	0.218600
O31	O3	0.819300	0.202700	0.152000
O41	O4	0.731800	0.203000	0.172900
O51	O5	0.894300	0.304000	0.082700
O61	O6	0.924700	0.338200	0.929600
O71	O7	0.501100	0.261400	0.500700
O81	O8	0.441300	0.308700	0.569500
O91	O9	0.853500	0.283200	0.308200
O101	O10	0.786700	0.242500	0.393600
O111	O11	0.400100	0.319600	0.804300
O121	O12	0.366200	0.369000	0.915500
C11	C1	0.634900	0.081600	0.677000
C21	C2	0.633800	0.102400	0.778900
H11	H1	0.650900	0.130700	0.791600
C31	C3	0.604600	0.077800	0.865000
C41	C4	0.585200	0.037700	0.832000
H21	H2	0.565700	0.020400	0.881800
C51	C5	0.590800	0.019100	0.734600
C61	C6	0.599700	0.100600	0.970000
C71	C7	0.596500	0.148600	0.984000
H31	H3	0.598500	0.168200	0.924800
C81	C8	0.590400	0.167400	0.085000
H41	H4	0.588300	0.199500	0.093900
C91	C9	0.587400	0.138200	0.173000
C101	C10	0.590500	0.090200	0.160000
H51	H5	0.588500	0.070600	0.218700
C111	C11	0.596700	0.071400	0.059000
H61	H6	0.598900	0.039200	0.049700
C121	C12	0.537600	0.894600	0.728000
H71	H7	0.534500	0.870700	0.777900
C131	C13	0.557400	0.937000	0.763900
H81	H8	0.566800	0.940400	0.835100
C141	C14	0.563300	0.972800	0.698000
C151	C15	0.555000	0.966000	0.598000
H91	H9	0.563900	0.988700	0.548200
C161	C16	0.532400	0.923700	0.566000
H101	H10	0.522800	0.920800	0.495100
C171	C17	0.737800	0.159700	0.532000
H111	H11	0.765400	0.180300	0.550000
C181	C18	0.700900	0.146700	0.614000
H121	H12	0.697800	0.164000	0.675900
C191	C19	0.667500	0.104600	0.596000
C201	C20	0.664200	0.091600	0.487000
H131	H13	0.636900	0.071600	0.463500
C211	C21	0.700500	0.108400	0.418000
H141	H14	0.702000	0.093800	0.351900
C221	C22	0.552500	0.146100	0.350000
H151	H15	0.528600	0.121100	0.345200
C231	C23	0.599000	0.206600	0.417000
H161	H16	0.609700	0.230800	0.461700
C241	C24	0.619900	0.194300	0.320000
H171	H17	0.650900	0.206800	0.288400
C251	C25	0.892400	0.234100	0.586000
H181	H18	0.886900	0.241500	0.514900
C261	C26	0.944400	0.232100	0.622000
C271	C27	0.952000	0.234800	0.716000
H191	H19	0.987100	0.239200	0.741300
C281	C28	0.907000	0.231300	0.793000
H201	H20	0.913800	0.228300	0.865700
C291	C29	0.852900	0.232700	0.754000
C301	C30	0.023200	0.274300	0.267000
C311	C31	0.026800	0.250900	0.376000
C321	C32	0.983500	0.254100	0.446000
H211	H21	0.952200	0.270100	0.426400
C331	C33	0.986900	0.233300	0.546000
C341	C34	0.033500	0.209300	0.575000
H221	H22	0.035800	0.195400	0.641700
C351	C35	0.076800	0.206100	0.504000
H231	H23	0.108000	0.190100	0.523900
C361	C36	0.073400	0.226900	0.405000
H241	H24	0.102400	0.224800	0.357600
C371	C37	0.774600	0.208300	0.119000
C381	C38	0.764500	0.218400	0.998000
C391	C39	0.810100	0.220600	0.934000
H251	H25	0.844400	0.216000	0.962700
C401	C40	0.804600	0.229800	0.826000
C411	C41	0.753300	0.236700	0.782000
H261	H26	0.749600	0.242800	0.709900
C421	C42	0.707700	0.234500	0.847000
H271	H27	0.673400	0.239200	0.817900
C431	C43	0.713300	0.225400	0.955000
H281	H28	0.682800	0.223900	0.998300
C441	C44	0.662500	0.395500	0.111000
H291	H29	0.663400	0.417400	0.056800
C451	C45	0.697100	0.360400	0.107000
C461	C46	0.689500	0.326300	0.189000
H301	H30	0.712200	0.300500	0.190900
C471	C47	0.649200	0.330500	0.268000
H311	H31	0.646500	0.308400	0.321500
C481	C48	0.612100	0.369100	0.264000
C491	C49	0.887200	0.326600	0.986000
C501	C50	0.828300	0.337800	0.967000
C511	C51	0.789100	0.338800	0.047000
H321	H32	0.797800	0.329300	0.115500
C521	C52	0.736800	0.353900	0.024000
C531	C53	0.723800	0.368000	0.921000
H331	H33	0.688900	0.378100	0.905100
C541	C54	0.763100	0.367100	0.841000
H341	H34	0.754400	0.376500	0.772600
C551	C55	0.815300	0.351900	0.865000
H351	H35	0.841500	0.351300	0.811400
C561	C56	0.482100	0.302100	0.518000
C571	C57	0.505700	0.342500	0.464000
C581	C58	0.546500	0.336000	0.389000
H361	H36	0.557300	0.306000	0.370200
C591	C59	0.571100	0.374300	0.341000
C601	C60	0.554900	0.419100	0.369000
H371	H37	0.571400	0.444700	0.336800
C611	C61	0.514200	0.425600	0.444000
H381	H38	0.503400	0.455600	0.462000
C621	C62	0.489600	0.387300	0.491000
H391	H39	0.462200	0.391600	0.541000
C631	C63	0.646900	0.337000	0.601000
H401	H40	0.654600	0.308700	0.567900
C641	C64	0.678400	0.374700	0.587000
C651	C65	0.671200	0.410100	0.643000
H411	H41	0.696100	0.434100	0.634000
C661	C66	0.633000	0.417800	0.714000
H421	H42	0.630000	0.446400	0.748300
C671	C67	0.597800	0.382300	0.736000
C681	C68	0.809000	0.280500	0.361000
C691	C69	0.787800	0.326400	0.399000
C701	C70	0.748400	0.327100	0.478000
H431	H43	0.739600	0.299900	0.514600
C711	C71	0.722200	0.368600	0.504000
C721	C72	0.735300	0.409300	0.449000
H441	H44	0.717800	0.437100	0.466300
C731	C73	0.774700	0.408600	0.370000
H451	H45	0.783400	0.435900	0.333900
C741	C74	0.800900	0.367200	0.345000
H461	H46	0.827200	0.366700	0.292000
C751	C75	0.406200	0.350800	0.868000
C761	C76	0.460200	0.375400	0.878000
C771	C77	0.500300	0.365300	0.803000
H471	H47	0.492600	0.344700	0.748000
C781	C78	0.551200	0.385200	0.809000
C791	C79	0.562400	0.417600	0.888000
H481	H48	0.596100	0.432000	0.891200
C801	C80	0.522900	0.428400	0.963000
H491	H49	0.531500	0.446800	0.022000
C811	C81	0.470200	0.411300	0.950000
H501	H50	0.441900	0.423800	0.990000
Cd41	Cd4	0.006110	0.687830	0.062860
Cd51	Cd5	0.102140	0.759620	0.190150
Cd61	Cd6	0.201740	0.826620	0.318440
N91	N9	0.387000	0.957100	0.650800
N101	N10	0.477100	0.114300	0.631900
N111	N11	0.264400	0.855500	0.433200
N121	N12	0.413400	0.840300	0.275500
N131	N13	0.441800	0.825700	0.432400
N141	N14	0.151300	0.773600	0.646300
N151	N15	0.374400	0.598100	0.191000
N161	N16	0.400800	0.657300	0.671000
O131	O13	0.023100	0.719100	0.230000
O141	O14	0.933100	0.714300	0.218600
O151	O15	0.180700	0.797300	0.152000
O161	O16	0.268200	0.797000	0.172900
O171	O17	0.105700	0.696000	0.082700
O181	O18	0.075300	0.661800	0.929600
O191	O19	0.498900	0.738600	0.500700
O201	O20	0.558700	0.691300	0.569500
O211	O21	0.146500	0.716800	0.308200
O221	O22	0.213300	0.757500	0.393600
O231	O23	0.599900	0.680400	0.804300
O241	O24	0.633800	0.631000	0.915500
C821	C82	0.365100	0.918400	0.677000
C831	C83	0.366200	0.897600	0.778900
H511	H51	0.349100	0.869300	0.791600
C841	C84	0.395400	0.922200	0.865000
C851	C85	0.414800	0.962300	0.832000
H521	H52	0.434300	0.979600	0.881800
C861	C86	0.409200	0.980900	0.734600
C871	C87	0.400300	0.899400	0.970000
C881	C88	0.403500	0.851400	0.984000
H531	H53	0.401500	0.831800	0.924800
C891	C89	0.409600	0.832600	0.085000
H541	H54	0.411700	0.800500	0.093900
C901	C90	0.412600	0.861800	0.173000
C911	C91	0.409500	0.909800	0.160000
H551	H55	0.411500	0.929400	0.218700
C921	C92	0.403300	0.928600	0.059000
H561	H56	0.401100	0.960800	0.049700
C931	C93	0.462400	0.105400	0.728000
H571	H57	0.465500	0.129300	0.777900
C941	C94	0.442600	0.063000	0.763900
H581	H58	0.433200	0.059600	0.835100
C951	C95	0.436700	0.027200	0.698000
C961	C96	0.445000	0.034000	0.598000
H591	H59	0.436100	0.011300	0.548200
C971	C97	0.467600	0.076300	0.566000
H601	H60	0.477200	0.079200	0.495100
C981	C98	0.262200	0.840300	0.532000
H611	H61	0.234600	0.819700	0.550000
C991	C99	0.299100	0.853300	0.614000
H621	H62	0.302200	0.836000	0.675900
C1001	C100	0.332500	0.895400	0.596000
C1011	C101	0.335800	0.908400	0.487000
H631	H63	0.363100	0.928400	0.463500
C1021	C102	0.299500	0.891600	0.418000
H641	H64	0.298000	0.906200	0.351900
C1031	C103	0.447500	0.853900	0.350000
H651	H65	0.471400	0.878900	0.345200
C1041	C104	0.401000	0.793400	0.417000
H661	H66	0.390300	0.769200	0.461700
C1051	C105	0.380100	0.805700	0.320000
H671	H67	0.349100	0.793200	0.288400
C1061	C106	0.107600	0.765900	0.586000
H681	H68	0.113100	0.758500	0.514900
C1071	C107	0.055600	0.767900	0.622000
C1081	C108	0.048000	0.765200	0.716000
H691	H69	0.012900	0.760800	0.741300
C1091	C109	0.093000	0.768700	0.793000
H701	H70	0.086200	0.771700	0.865700
C1101	C110	0.147100	0.767300	0.754000
C1111	C111	0.976800	0.725700	0.267000
C1121	C112	0.973200	0.749100	0.376000
C1131	C113	0.016500	0.745900	0.446000
H711	H71	0.047800	0.729900	0.426400
C1141	C114	0.013100	0.766700	0.546000
C1151	C115	0.966500	0.790700	0.575000
H721	H72	0.964200	0.804600	0.641700
C1161	C116	0.923200	0.793900	0.504000
H731	H73	0.892000	0.809900	0.523900
C1171	C117	0.926600	0.773100	0.405000
H741	H74	0.897600	0.775200	0.357600
C1181	C118	0.225400	0.791700	0.119000
C1191	C119	0.235500	0.781600	0.998000
C1201	C120	0.189900	0.779400	0.934000
H751	H75	0.155600	0.784000	0.962700
C1211	C121	0.195400	0.770200	0.826000
C1221	C122	0.246700	0.763300	0.782000
H761	H76	0.250400	0.757200	0.709900
C1231	C123	0.292300	0.765500	0.847000
H771	H77	0.326600	0.760800	0.817900
C1241	C124	0.286700	0.774600	0.955000
H781	H78	0.317200	0.776100	0.998300
C1251	C125	0.337500	0.604500	0.111000
H791	H79	0.336600	0.582600	0.056800
C1261	C126	0.302900	0.639600	0.107000
C1271	C127	0.310500	0.673700	0.189000
H801	H80	0.287800	0.699500	0.190900
C1281	C128	0.350800	0.669500	0.268000
H811	H81	0.353500	0.691600	0.321500
C1291	C129	0.387900	0.630900	0.264000
C1301	C130	0.112800	0.673400	0.986000
C1311	C131	0.171700	0.662200	0.967000
C1321	C132	0.210900	0.661200	0.047000
H821	H82	0.202200	0.670700	0.115500
C1331	C133	0.263200	0.646100	0.024000
C1341	C134	0.276200	0.632000	0.921000
H831	H83	0.311100	0.621900	0.905100
C1351	C135	0.236900	0.632900	0.841000
H841	H84	0.245600	0.623500	0.772600
C1361	C136	0.184700	0.648100	0.865000
H851	H85	0.158500	0.648700	0.811400
C1371	C137	0.517900	0.697900	0.518000
C1381	C138	0.494300	0.657500	0.464000
C1391	C139	0.453500	0.664000	0.389000
H861	H86	0.442700	0.694000	0.370200
C1401	C140	0.428900	0.625700	0.341000
C1411	C141	0.445100	0.580900	0.369000
H871	H87	0.428600	0.555300	0.336800
C1421	C142	0.485800	0.574400	0.444000
H881	H88	0.496600	0.544400	0.462000
C1431	C143	0.510400	0.612700	0.491000
H891	H89	0.537800	0.608400	0.541000
C1441	C144	0.353100	0.663000	0.601000
H901	H90	0.345400	0.691300	0.567900
C1451	C145	0.321600	0.625300	0.587000
C1461	C146	0.328800	0.589900	0.643000
H911	H91	0.303900	0.565900	0.634000
C1471	C147	0.367000	0.582200	0.714000
H921	H92	0.370000	0.553600	0.748300
C1481	C148	0.402200	0.617700	0.736000
C1491	C149	0.191000	0.719500	0.361000
C1501	C150	0.212200	0.673600	0.399000
C1511	C151	0.251600	0.672900	0.478000
H931	H93	0.260400	0.700100	0.514600
C1521	C152	0.277800	0.631400	0.504000
C1531	C153	0.264700	0.590700	0.449000
H941	H94	0.282200	0.562900	0.466300
C1541	C154	0.225300	0.591400	0.370000
H951	H95	0.216600	0.564100	0.333900
C1551	C155	0.199100	0.632800	0.345000
H961	H96	0.172800	0.633300	0.292000
C1561	C156	0.593800	0.649200	0.868000
C1571	C157	0.539800	0.624600	0.878000
C1581	C158	0.499700	0.634700	0.803000
H971	H97	0.507400	0.655300	0.748000
C1591	C159	0.448800	0.614800	0.809000
C1601	C160	0.437600	0.582400	0.888000
H981	H98	0.403900	0.568000	0.891200
C1611	C161	0.477100	0.571600	0.963000
H991	H99	0.468500	0.553200	0.022000
C1621	C162	0.529800	0.588700	0.950000
H1001	H100	0.558100	0.576200	0.990000
Cd71	Cd7	0.493890	0.187830	0.562860
Cd81	Cd8	0.397860	0.259620	0.690150
Cd91	Cd9	0.298260	0.326620	0.818440
N171	N17	0.113000	0.457100	0.150800
N181	N18	0.022900	0.614300	0.131900
N191	N19	0.235600	0.355500	0.933200
N201	N20	0.086600	0.340300	0.775500
N211	N21	0.058200	0.325700	0.932400
N221	N22	0.348700	0.273600	0.146300
N231	N23	0.125600	0.098100	0.691000
N241	N24	0.099200	0.157300	0.171000
O251	O25	0.476900	0.219100	0.730000
O261	O26	0.566900	0.214300	0.718600
O271	O27	0.319300	0.297300	0.652000
O281	O28	0.231800	0.297000	0.672900
O291	O29	0.394300	0.196000	0.582700
O301	O30	0.424700	0.161800	0.429600
O311	O31	0.001100	0.238600	0.000700
O321	O32	0.941300	0.191300	0.069500
O331	O33	0.353500	0.216800	0.808200
O341	O34	0.286700	0.257500	0.893600
O351	O35	0.900100	0.180400	0.304300
O361	O36	0.866200	0.131000	0.415500
C1631	C163	0.134900	0.418400	0.177000
C1641	C164	0.133800	0.397600	0.278900
H1011	H101	0.150900	0.369300	0.291600
C1651	C165	0.104600	0.422200	0.365000
C1661	C166	0.085200	0.462300	0.332000
H1021	H102	0.065700	0.479600	0.381800
C1671	C167	0.090800	0.480900	0.234600
C1681	C168	0.099700	0.399400	0.470000
C1691	C169	0.096500	0.351400	0.484000
H1031	H103	0.098500	0.331800	0.424800
C1701	C170	0.090400	0.332600	0.585000
H1041	H104	0.088300	0.300500	0.593900
C1711	C171	0.087400	0.361800	0.673000
C1721	C172	0.090500	0.409800	0.660000
H1051	H105	0.088500	0.429400	0.718700
C1731	C173	0.096700	0.428600	0.559000
H1061	H106	0.098900	0.460800	0.549700
C1741	C174	0.037600	0.605400	0.228000
H1071	H107	0.034500	0.629300	0.277900
C1751	C175	0.057400	0.563000	0.263900
H1081	H108	0.066800	0.559600	0.335100
C1761	C176	0.063300	0.527200	0.198000
C1771	C177	0.055000	0.534000	0.098000
H1091	H109	0.063900	0.511300	0.048200
C1781	C178	0.032400	0.576300	0.066000
H1101	H110	0.022800	0.579200	0.995100
C1791	C179	0.237800	0.340300	0.032000
H1111	H111	0.265400	0.319700	0.050000
C1801	C180	0.200900	0.353300	0.114000
H1121	H112	0.197800	0.336000	0.175900
C1811	C181	0.167500	0.395400	0.096000
C1821	C182	0.164200	0.408400	0.987000
H1131	H113	0.136900	0.428400	0.963500
C1831	C183	0.200500	0.391600	0.918000
H1141	H114	0.202000	0.406200	0.851900
C1841	C184	0.052500	0.353900	0.850000
H1151	H115	0.028600	0.378900	0.845200
C1851	C185	0.099000	0.293400	0.917000
H1161	H116	0.109700	0.269200	0.961700
C1861	C186	0.119900	0.305700	0.820000
H1171	H117	0.150900	0.293200	0.788400
C1871	C187	0.392400	0.265900	0.086000
H1181	H118	0.386900	0.258500	0.014900
C1881	C188	0.444400	0.267900	0.122000
C1891	C189	0.452000	0.265200	0.216000
H1191	H119	0.487100	0.260800	0.241300
C1901	C190	0.407000	0.268700	0.293000
H1201	H120	0.413800	0.271700	0.365700
C1911	C191	0.352900	0.267300	0.254000
C1921	C192	0.523200	0.225700	0.767000
C1931	C193	0.526800	0.249100	0.876000
C1941	C194	0.483500	0.245900	0.946000
H1211	H121	0.452200	0.229900	0.926400
C1951	C195	0.486900	0.266700	0.046000
C1961	C196	0.533500	0.290700	0.075000
H1221	H122	0.535800	0.304600	0.141700
C1971	C197	0.576800	0.293900	0.004000
H1231	H123	0.608000	0.309900	0.023900
C1981	C198	0.573400	0.273100	0.905000
H1241	H124	0.602400	0.275200	0.857600
C1991	C199	0.274600	0.291700	0.619000
C2001	C200	0.264500	0.281600	0.498000
C2011	C201	0.310100	0.279400	0.434000
H1251	H125	0.344400	0.284000	0.462700
C2021	C202	0.304600	0.270200	0.326000
C2031	C203	0.253300	0.263300	0.282000
H1261	H126	0.249600	0.257200	0.209900
C2041	C204	0.207700	0.265500	0.347000
H1271	H127	0.173400	0.260800	0.317900
C2051	C205	0.213300	0.274600	0.455000
H1281	H128	0.182800	0.276100	0.498300
C2061	C206	0.162500	0.104500	0.611000
H1291	H129	0.163400	0.082600	0.556800
C2071	C207	0.197100	0.139600	0.607000
C2081	C208	0.189500	0.173700	0.689000
H1301	H130	0.212200	0.199500	0.690900
C2091	C209	0.149200	0.169500	0.768000
H1311	H131	0.146500	0.191600	0.821500
C2101	C210	0.112100	0.130900	0.764000
C2111	C211	0.387200	0.173400	0.486000
C2121	C212	0.328300	0.162200	0.467000
C2131	C213	0.289100	0.161200	0.547000
H1321	H132	0.297800	0.170700	0.615500
C2141	C214	0.236800	0.146100	0.524000
C2151	C215	0.223800	0.132000	0.421000
H1331	H133	0.188900	0.121900	0.405100
C2161	C216	0.263100	0.132900	0.341000
H1341	H134	0.254400	0.123500	0.272600
C2171	C217	0.315300	0.148100	0.365000
H1351	H135	0.341500	0.148700	0.311400
C2181	C218	0.982100	0.197900	0.018000
C2191	C219	0.005700	0.157500	0.964000
C2201	C220	0.046500	0.164000	0.889000
H1361	H136	0.057300	0.194000	0.870200
C2211	C221	0.071100	0.125700	0.841000
C2221	C222	0.054900	0.080900	0.869000
H1371	H137	0.071400	0.055300	0.836800
C2231	C223	0.014200	0.074400	0.944000
H1381	H138	0.003400	0.044400	0.962000
C2241	C224	0.989600	0.112700	0.991000
H1391	H139	0.962200	0.108400	0.041000
C2251	C225	0.146900	0.163000	0.101000
H1401	H140	0.154600	0.191300	0.067900
C2261	C226	0.178400	0.125300	0.087000
C2271	C227	0.171200	0.089900	0.143000
H1411	H141	0.196100	0.065900	0.134000
C2281	C228	0.133000	0.082200	0.214000
H1421	H142	0.130000	0.053600	0.248300
C2291	C229	0.097800	0.117700	0.236000
C2301	C230	0.309000	0.219500	0.861000
C2311	C231	0.287800	0.173600	0.899000
C2321	C232	0.248400	0.172900	0.978000
H1431	H143	0.239600	0.200100	0.014600
C2331	C233	0.222200	0.131400	0.004000
C2341	C234	0.235300	0.090700	0.949000
H1441	H144	0.217800	0.062900	0.966300
C2351	C235	0.274700	0.091400	0.870000
H1451	H145	0.283400	0.064100	0.833900
C2361	C236	0.300900	0.132800	0.845000
H1461	H146	0.327200	0.133300	0.792000
C2371	C237	0.906200	0.149200	0.368000
C2381	C238	0.960200	0.124600	0.378000
C2391	C239	0.000300	0.134700	0.303000
H1471	H147	0.992600	0.155300	0.248000
C2401	C240	0.051200	0.114800	0.309000
C2411	C241	0.062400	0.082400	0.388000
H1481	H148	0.096100	0.068000	0.391200
C2421	C242	0.022900	0.071600	0.463000
H1491	H149	0.031500	0.053200	0.522000
C2431	C243	0.970200	0.088700	0.450000
H1501	H150	0.941900	0.076200	0.490000
Cd101	Cd10	0.506110	0.812170	0.562860
Cd111	Cd11	0.602140	0.740380	0.690150
Cd121	Cd12	0.701740	0.673380	0.818440
N251	N25	0.887000	0.542900	0.150800
N261	N26	0.977100	0.385700	0.131900
N271	N27	0.764400	0.644500	0.933200
N281	N28	0.913400	0.659700	0.775500
N291	N29	0.941800	0.674300	0.932400
N301	N30	0.651300	0.726400	0.146300
N311	N31	0.874400	0.901900	0.691000
N321	N32	0.900800	0.842700	0.171000
O371	O37	0.523100	0.780900	0.730000
O381	O38	0.433100	0.785700	0.718600
O391	O39	0.680700	0.702700	0.652000
O401	O40	0.768200	0.703000	0.672900
O411	O41	0.605700	0.804000	0.582700
O421	O42	0.575300	0.838200	0.429600
O431	O43	0.998900	0.761400	0.000700
O441	O44	0.058700	0.808700	0.069500
O451	O45	0.646500	0.783200	0.808200
O461	O46	0.713300	0.742500	0.893600
O471	O47	0.099900	0.819600	0.304300
O481	O48	0.133800	0.869000	0.415500
C2441	C244	0.865100	0.581600	0.177000
C2451	C245	0.866200	0.602400	0.278900
H1511	H151	0.849100	0.630700	0.291600
C2461	C246	0.895400	0.577800	0.365000
C2471	C247	0.914800	0.537700	0.332000
H1521	H152	0.934300	0.520400	0.381800
C2481	C248	0.909200	0.519100	0.234600
C2491	C249	0.900300	0.600600	0.470000
C2501	C250	0.903500	0.648600	0.484000
H1531	H153	0.901500	0.668200	0.424800
C2511	C251	0.909600	0.667400	0.585000
H1541	H154	0.911700	0.699500	0.593900
C2521	C252	0.912600	0.638200	0.673000
C2531	C253	0.909500	0.590200	0.660000
H1551	H155	0.911500	0.570600	0.718700
C2541	C254	0.903300	0.571400	0.559000
H1561	H156	0.901100	0.539200	0.549700
C2551	C255	0.962400	0.394600	0.228000
H1571	H157	0.965500	0.370700	0.277900
C2561	C256	0.942600	0.437000	0.263900
H1581	H158	0.933200	0.440400	0.335100
C2571	C257	0.936700	0.472800	0.198000
C2581	C258	0.945000	0.466000	0.098000
H1591	H159	0.936100	0.488700	0.048200
C2591	C259	0.967600	0.423700	0.066000
H1601	H160	0.977200	0.420800	0.995100
C2601	C260	0.762200	0.659700	0.032000
H1611	H161	0.734600	0.680300	0.050000
C2611	C261	0.799100	0.646700	0.114000
H1621	H162	0.802200	0.664000	0.175900
C2621	C262	0.832500	0.604600	0.096000
C2631	C263	0.835800	0.591600	0.987000
H1631	H163	0.863100	0.571600	0.963500
C2641	C264	0.799500	0.608400	0.918000
H1641	H164	0.798000	0.593800	0.851900
C2651	C265	0.947500	0.646100	0.850000
H1651	H165	0.971400	0.621100	0.845200
C2661	C266	0.901000	0.706600	0.917000
H1661	H166	0.890300	0.730800	0.961700
C2671	C267	0.880100	0.694300	0.820000
H1671	H167	0.849100	0.706800	0.788400
C2681	C268	0.607600	0.734100	0.086000
H1681	H168	0.613100	0.741500	0.014900
C2691	C269	0.555600	0.732100	0.122000
C2701	C270	0.548000	0.734800	0.216000
H1691	H169	0.512900	0.739200	0.241300
C2711	C271	0.593000	0.731300	0.293000
H1701	H170	0.586200	0.728300	0.365700
C2721	C272	0.647100	0.732700	0.254000
C2731	C273	0.476800	0.774300	0.767000
C2741	C274	0.473200	0.750900	0.876000
C2751	C275	0.516500	0.754100	0.946000
H1711	H171	0.547800	0.770100	0.926400
C2761	C276	0.513100	0.733300	0.046000
C2771	C277	0.466500	0.709300	0.075000
H1721	H172	0.464200	0.695400	0.141700
C2781	C278	0.423200	0.706100	0.004000
H1731	H173	0.392000	0.690100	0.023900
C2791	C279	0.426600	0.726900	0.905000
H1741	H174	0.397600	0.724800	0.857600
C2801	C280	0.725400	0.708300	0.619000
C2811	C281	0.735500	0.718400	0.498000
C2821	C282	0.689900	0.720600	0.434000
H1751	H175	0.655600	0.716000	0.462700
C2831	C283	0.695400	0.729800	0.326000
C2841	C284	0.746700	0.736700	0.282000
H1761	H176	0.750400	0.742800	0.209900
C2851	C285	0.792300	0.734500	0.347000
H1771	H177	0.826600	0.739200	0.317900
C2861	C286	0.786700	0.725400	0.455000
H1781	H178	0.817200	0.723900	0.498300
C2871	C287	0.837500	0.895500	0.611000
H1791	H179	0.836600	0.917400	0.556800
C2881	C288	0.802900	0.860400	0.607000
C2891	C289	0.810500	0.826300	0.689000
H1801	H180	0.787800	0.800500	0.690900
C2901	C290	0.850800	0.830500	0.768000
H1811	H181	0.853500	0.808400	0.821500
C2911	C291	0.887900	0.869100	0.764000
C2921	C292	0.612800	0.826600	0.486000
C2931	C293	0.671700	0.837800	0.467000
C2941	C294	0.710900	0.838800	0.547000
H1821	H182	0.702200	0.829300	0.615500
C2951	C295	0.763200	0.853900	0.524000
C2961	C296	0.776200	0.868000	0.421000
H1831	H183	0.811100	0.878100	0.405100
C2971	C297	0.736900	0.867100	0.341000
H1841	H184	0.745600	0.876500	0.272600
C2981	C298	0.684700	0.851900	0.365000
H1851	H185	0.658500	0.851300	0.311400
C2991	C299	0.017900	0.802100	0.018000
C3001	C300	0.994300	0.842500	0.964000
C3011	C301	0.953500	0.836000	0.889000
H1861	H186	0.942700	0.806000	0.870200
C3021	C302	0.928900	0.874300	0.841000
C3031	C303	0.945100	0.919100	0.869000
H1871	H187	0.928600	0.944700	0.836800
C3041	C304	0.985800	0.925600	0.944000
H1881	H188	0.996600	0.955600	0.962000
C3051	C305	0.010400	0.887300	0.991000
H1891	H189	0.037800	0.891600	0.041000
C3061	C306	0.853100	0.837000	0.101000
H1901	H190	0.845400	0.808700	0.067900
C3071	C307	0.821600	0.874700	0.087000
C3081	C308	0.828800	0.910100	0.143000
H1911	H191	0.803900	0.934100	0.134000
C3091	C309	0.867000	0.917800	0.214000
H1921	H192	0.870000	0.946400	0.248300
C3101	C310	0.902200	0.882300	0.236000
C3111	C311	0.691000	0.780500	0.861000
C3121	C312	0.712200	0.826400	0.899000
C3131	C313	0.751600	0.827100	0.978000
H1931	H193	0.760400	0.799900	0.014600
C3141	C314	0.777800	0.868600	0.004000
C3151	C315	0.764700	0.909300	0.949000
H1941	H194	0.782200	0.937100	0.966300
C3161	C316	0.725300	0.908600	0.870000
H1951	H195	0.716600	0.935900	0.833900
C3171	C317	0.699100	0.867200	0.845000
H1961	H196	0.672800	0.866700	0.792000
C3181	C318	0.093800	0.850800	0.368000
C3191	C319	0.039800	0.875400	0.378000
C3201	C320	0.999700	0.865300	0.303000
H1971	H197	0.007400	0.844700	0.248000
C3211	C321	0.948800	0.885200	0.309000
C3221	C322	0.937600	0.917600	0.388000
H1981	H198	0.903900	0.932000	0.391200
C3231	C323	0.977100	0.928400	0.463000
H1991	H199	0.968500	0.946800	0.522000
C3241	C324	0.029800	0.911300	0.450000
H2001	H200	0.058100	0.923800	0.490000
