data_BUBTUP_clean_PM
_symmetry_space_group_name_H-M	'P1'
_cell_length_a	17.969300
_cell_length_b	17.969300
_cell_length_c	30.189400
_cell_angle_alpha	90.000000
_cell_angle_beta	90.000000
_cell_angle_gamma	90.000000
_symmetry_Int_Tables_number 1

loop_
_symmetry_equiv_pos_as_xyz
'x,y,z'

loop_
_atom_site_label
_atom_site_type_symbol
_atom_site_fract_x
_atom_site_fract_y
_atom_site_fract_z
Cd11	Cd1	0.680970	0.168200	0.312510
Cd21	Cd2	0.850470	0.672940	0.318370
O11	O1	0.834960	0.803560	0.313970
N11	N1	0.978600	0.505000	0.078090
N21	N2	0.798900	0.658800	0.175270
O21	O2	0.754900	0.064700	0.315760
O31	O3	0.954600	0.776200	0.318260
N31	N3	0.090470	0.552800	0.072770
C11	C1	0.881800	0.032300	0.311430
N41	N4	0.840100	0.674420	0.243540
C21	C2	0.994900	0.926700	0.313710
H11	H1	0.033200	0.891900	0.313800
O41	O4	0.835400	0.155500	0.305340
C31	C3	0.010400	0.001900	0.313530
C41	C4	0.920900	0.903900	0.313790
N51	N5	0.839500	0.682800	0.392920
N61	N6	0.526800	0.981400	0.299170
N71	N7	0.585600	0.087470	0.303880
C51	C5	0.865300	0.956900	0.312290
H21	H2	0.815800	0.941700	0.311800
C61	C6	0.754000	0.631100	0.137460
H31	H3	0.752300	0.669100	0.114600
H41	H4	0.703500	0.622000	0.147400
C71	C7	0.819900	0.089700	0.310730
C81	C8	0.589700	0.015000	0.310670
H51	H5	0.631200	0.990700	0.322000
C91	C9	0.480200	0.034400	0.284190
H61	H6	0.432100	0.027400	0.273700
C101	C10	0.866100	0.568200	0.104320
H71	H7	0.870400	0.610700	0.084700
H81	H8	0.895600	0.578500	0.130500
C111	C11	0.955200	0.055200	0.311480
H91	H9	0.967200	0.105500	0.310200
C121	C12	0.018900	0.566900	0.073370
H101	H10	0.998600	0.614300	0.070800
N81	N8	0.809600	0.651700	0.460390
C131	C13	0.903200	0.821300	0.315470
C141	C14	0.625900	0.744300	0.246270
H111	H11	0.613400	0.693600	0.238200
H121	H12	0.662700	0.742200	0.269700
O51	O5	0.137300	0.980600	0.315500
O61	O6	0.101300	0.092200	0.315200
C151	C15	0.897000	0.501200	0.081610
H131	H13	0.883200	0.456900	0.098000
H141	H14	0.875700	0.497300	0.052200
C161	C16	0.516400	0.098700	0.287380
H151	H15	0.497000	0.144800	0.279400
C171	C17	0.785700	0.559700	0.117830
H161	H16	0.781700	0.520000	0.139500
H171	H17	0.756500	0.545600	0.092200
C181	C18	0.881900	0.716600	0.214840
H181	H18	0.921600	0.746800	0.223000
C191	C19	0.870200	0.732200	0.421200
H191	H19	0.899400	0.772600	0.413000
C201	C20	0.856900	0.707900	0.173380
H201	H20	0.875500	0.730900	0.148100
C211	C21	0.096200	0.478300	0.077260
H211	H21	0.140800	0.452000	0.078300
N91	N9	0.088500	0.026500	0.314750
C221	C22	0.852300	0.714200	0.463350
H221	H22	0.866100	0.739200	0.489000
C231	C23	0.571100	0.862500	0.272200
H231	H23	0.619000	0.867700	0.286800
H241	H24	0.574600	0.887800	0.243900
C241	C24	0.790800	0.640700	0.218320
H251	H25	0.754700	0.608200	0.228900
C251	C25	0.515700	0.900200	0.298800
H261	H26	0.518000	0.881600	0.328900
H271	H27	0.466600	0.889200	0.287200
C261	C26	0.558100	0.781600	0.263470
H281	H28	0.542700	0.757500	0.290700
H291	H29	0.518100	0.776300	0.242100
C271	C27	0.028200	0.447900	0.079950
H301	H30	0.017100	0.397600	0.082600
C281	C28	0.802600	0.636600	0.417200
H311	H31	0.774500	0.597400	0.406000
N101	N10	0.659200	0.782200	0.207120
N111	N11	0.676920	0.816850	0.138420
C291	C29	0.721500	0.825400	0.206730
H321	H32	0.751100	0.837900	0.230900
C301	C30	0.633400	0.778700	0.165500
H331	H33	0.590900	0.753000	0.156900
C311	C31	0.731700	0.846500	0.164360
H341	H34	0.770100	0.876700	0.154300
C321	C32	0.712200	0.667000	0.516910
H351	H35	0.686300	0.642600	0.540600
H361	H36	0.738100	0.709700	0.528100
C331	C33	0.767400	0.615300	0.496000
H371	H37	0.801800	0.597700	0.518400
H381	H38	0.741400	0.572500	0.484000
Cd31	Cd3	0.319030	0.831800	0.812510
Cd41	Cd4	0.149530	0.327060	0.818370
O71	O7	0.165040	0.196440	0.813970
N121	N12	0.021400	0.495000	0.578090
N131	N13	0.201100	0.341200	0.675270
O81	O8	0.245100	0.935300	0.815760
O91	O9	0.045400	0.223800	0.818260
N141	N14	0.909530	0.447200	0.572770
C341	C34	0.118200	0.967700	0.811430
N151	N15	0.159900	0.325580	0.743540
C351	C35	0.005100	0.073300	0.813710
H391	H39	0.966800	0.108100	0.813800
O101	O10	0.164600	0.844500	0.805340
C361	C36	0.989600	0.998100	0.813530
C371	C37	0.079100	0.096100	0.813790
N161	N16	0.160500	0.317200	0.892920
N171	N17	0.473200	0.018600	0.799170
N181	N18	0.414400	0.912530	0.803880
C381	C38	0.134700	0.043100	0.812290
H401	H40	0.184200	0.058300	0.811800
C391	C39	0.246000	0.368900	0.637460
H411	H41	0.247700	0.330900	0.614600
H421	H42	0.296500	0.378000	0.647400
C401	C40	0.180100	0.910300	0.810730
C411	C41	0.410300	0.985000	0.810670
H431	H43	0.368800	0.009300	0.822000
C421	C42	0.519800	0.965600	0.784190
H441	H44	0.567900	0.972600	0.773700
C431	C43	0.133900	0.431800	0.604320
H451	H45	0.129600	0.389300	0.584700
H461	H46	0.104400	0.421500	0.630500
C441	C44	0.044800	0.944800	0.811480
H471	H47	0.032800	0.894500	0.810200
C451	C45	0.981100	0.433100	0.573370
H481	H48	0.001400	0.385700	0.570800
N191	N19	0.190400	0.348300	0.960390
C461	C46	0.096800	0.178700	0.815470
C471	C47	0.374100	0.255700	0.746270
H491	H49	0.386600	0.306400	0.738200
H501	H50	0.337300	0.257800	0.769700
O111	O11	0.862700	0.019400	0.815500
O121	O12	0.898700	0.907800	0.815200
C481	C48	0.103000	0.498800	0.581610
H511	H51	0.116800	0.543100	0.598000
H521	H52	0.124300	0.502700	0.552200
C491	C49	0.483600	0.901300	0.787380
H531	H53	0.503000	0.855200	0.779400
C501	C50	0.214300	0.440300	0.617830
H541	H54	0.218300	0.480000	0.639500
H551	H55	0.243500	0.454400	0.592200
C511	C51	0.118100	0.283400	0.714840
H561	H56	0.078400	0.253200	0.723000
C521	C52	0.129800	0.267800	0.921200
H571	H57	0.100600	0.227400	0.913000
C531	C53	0.143100	0.292100	0.673380
H581	H58	0.124500	0.269100	0.648100
C541	C54	0.903800	0.521700	0.577260
H591	H59	0.859200	0.548000	0.578300
N201	N20	0.911500	0.973500	0.814750
C551	C55	0.147700	0.285800	0.963350
H601	H60	0.133900	0.260800	0.989000
C561	C56	0.428900	0.137500	0.772200
H611	H61	0.381000	0.132300	0.786800
H621	H62	0.425400	0.112200	0.743900
C571	C57	0.209200	0.359300	0.718320
H631	H63	0.245300	0.391800	0.728900
C581	C58	0.484300	0.099800	0.798800
H641	H64	0.482000	0.118400	0.828900
H651	H65	0.533400	0.110800	0.787200
C591	C59	0.441900	0.218400	0.763470
H661	H66	0.457300	0.242500	0.790700
H671	H67	0.481900	0.223700	0.742100
C601	C60	0.971800	0.552100	0.579950
H681	H68	0.982900	0.602400	0.582600
C611	C61	0.197400	0.363400	0.917200
H691	H69	0.225500	0.402600	0.906000
N211	N21	0.340800	0.217800	0.707120
N221	N22	0.323080	0.183150	0.638420
C621	C62	0.278500	0.174600	0.706730
H701	H70	0.248900	0.162100	0.730900
C631	C63	0.366600	0.221300	0.665500
H711	H71	0.409100	0.247000	0.656900
C641	C64	0.268300	0.153500	0.664360
H721	H72	0.229900	0.123300	0.654300
C651	C65	0.287800	0.333000	0.016910
H731	H73	0.313700	0.357400	0.040600
H741	H74	0.261900	0.290300	0.028100
C661	C66	0.232600	0.384700	0.996000
H751	H75	0.198200	0.402300	0.018400
H761	H76	0.258600	0.427500	0.984000
Cd51	Cd5	0.331800	0.180970	0.562510
Cd61	Cd6	0.827060	0.350470	0.568370
O131	O13	0.696440	0.334960	0.563970
N231	N23	0.995000	0.478600	0.328090
N241	N24	0.841200	0.298900	0.425270
O141	O14	0.435300	0.254900	0.565760
O151	O15	0.723800	0.454600	0.568260
N251	N25	0.947200	0.590470	0.322770
C671	C67	0.467700	0.381800	0.561430
N261	N26	0.825580	0.340100	0.493540
C681	C68	0.573300	0.494900	0.563710
H771	H77	0.608100	0.533200	0.563800
O161	O16	0.344500	0.335400	0.555340
C691	C69	0.498100	0.510400	0.563530
C701	C70	0.596100	0.420900	0.563790
N271	N27	0.817200	0.339500	0.642920
N281	N28	0.518600	0.026800	0.549170
N291	N29	0.412530	0.085600	0.553880
C711	C71	0.543100	0.365300	0.562290
H781	H78	0.558300	0.315800	0.561800
C721	C72	0.868900	0.254000	0.387460
H791	H79	0.830900	0.252300	0.364600
H801	H80	0.878000	0.203500	0.397400
C731	C73	0.410300	0.319900	0.560730
C741	C74	0.485000	0.089700	0.560670
H811	H81	0.509300	0.131200	0.572000
C751	C75	0.465600	0.980200	0.534190
H821	H82	0.472600	0.932100	0.523700
C761	C76	0.931800	0.366100	0.354320
H831	H83	0.889300	0.370400	0.334700
H841	H84	0.921500	0.395600	0.380500
C771	C77	0.444800	0.455200	0.561480
H851	H85	0.394500	0.467200	0.560200
C781	C78	0.933100	0.518900	0.323370
H861	H86	0.885700	0.498600	0.320800
N301	N30	0.848300	0.309600	0.710390
C791	C79	0.678700	0.403200	0.565470
C801	C80	0.755700	0.125900	0.496270
H871	H87	0.806400	0.113400	0.488200
H881	H88	0.757800	0.162700	0.519700
O171	O17	0.519400	0.637300	0.565500
O181	O18	0.407800	0.601300	0.565200
C811	C81	0.998800	0.397000	0.331610
H891	H89	0.043100	0.383200	0.348000
H901	H90	0.002700	0.375700	0.302200
C821	C82	0.401300	0.016400	0.537380
H911	H91	0.355200	0.997000	0.529400
C831	C83	0.940300	0.285700	0.367830
H921	H92	0.980000	0.281700	0.389500
H931	H93	0.954400	0.256500	0.342200
C841	C84	0.783400	0.381900	0.464840
H941	H94	0.753200	0.421600	0.473000
C851	C85	0.767800	0.370200	0.671200
H951	H95	0.727400	0.399400	0.663000
C861	C86	0.792100	0.356900	0.423380
H961	H96	0.769100	0.375500	0.398100
C871	C87	0.021700	0.596200	0.327260
H971	H97	0.048000	0.640800	0.328300
N311	N31	0.473500	0.588500	0.564750
C881	C88	0.785800	0.352300	0.713350
H981	H98	0.760800	0.366100	0.739000
C891	C89	0.637500	0.071100	0.522200
H991	H99	0.632300	0.119000	0.536800
H1001	H100	0.612200	0.074600	0.493900
C901	C90	0.859300	0.290800	0.468320
H1011	H101	0.891800	0.254700	0.478900
C911	C91	0.599800	0.015700	0.548800
H1021	H102	0.618400	0.018000	0.578900
H1031	H103	0.610800	0.966600	0.537200
C921	C92	0.718400	0.058100	0.513470
H1041	H104	0.742500	0.042700	0.540700
H1051	H105	0.723700	0.018100	0.492100
C931	C93	0.052100	0.528200	0.329950
H1061	H106	0.102400	0.517100	0.332600
C941	C94	0.863400	0.302600	0.667200
H1071	H107	0.902600	0.274500	0.656000
N321	N32	0.717800	0.159200	0.457120
N331	N33	0.683150	0.176920	0.388420
C951	C95	0.674600	0.221500	0.456730
H1081	H108	0.662100	0.251100	0.480900
C961	C96	0.721300	0.133400	0.415500
H1091	H109	0.747000	0.090900	0.406900
C971	C97	0.653500	0.231700	0.414360
H1101	H110	0.623300	0.270100	0.404300
C981	C98	0.833000	0.212200	0.766910
H1111	H111	0.857400	0.186300	0.790600
H1121	H112	0.790300	0.238100	0.778100
C991	C99	0.884700	0.267400	0.746000
H1131	H113	0.902300	0.301800	0.768400
H1141	H114	0.927500	0.241400	0.734000
Cd71	Cd7	0.668200	0.819030	0.062510
Cd81	Cd8	0.172940	0.649530	0.068370
O191	O19	0.303560	0.665040	0.063970
N341	N34	0.005000	0.521400	0.828090
N351	N35	0.158800	0.701100	0.925270
O201	O20	0.564700	0.745100	0.065760
O211	O21	0.276200	0.545400	0.068260
N361	N36	0.052800	0.409530	0.822770
C1001	C100	0.532300	0.618200	0.061430
N371	N37	0.174420	0.659900	0.993540
C1011	C101	0.426700	0.505100	0.063710
H1151	H115	0.391900	0.466800	0.063800
O221	O22	0.655500	0.664600	0.055340
C1021	C102	0.501900	0.489600	0.063530
C1031	C103	0.403900	0.579100	0.063790
N381	N38	0.182800	0.660500	0.142920
N391	N39	0.481400	0.973200	0.049170
N401	N40	0.587470	0.914400	0.053880
C1041	C104	0.456900	0.634700	0.062290
H1161	H116	0.441700	0.684200	0.061800
C1051	C105	0.131100	0.746000	0.887460
H1171	H117	0.169100	0.747700	0.864600
H1181	H118	0.122000	0.796500	0.897400
C1061	C106	0.589700	0.680100	0.060730
C1071	C107	0.515000	0.910300	0.060670
H1191	H119	0.490700	0.868800	0.072000
C1081	C108	0.534400	0.019800	0.034190
H1201	H120	0.527400	0.067900	0.023700
C1091	C109	0.068200	0.633900	0.854320
H1211	H121	0.110700	0.629600	0.834700
H1221	H122	0.078500	0.604400	0.880500
C1101	C110	0.555200	0.544800	0.061480
H1231	H123	0.605500	0.532800	0.060200
C1111	C111	0.066900	0.481100	0.823370
H1241	H124	0.114300	0.501400	0.820800
N411	N41	0.151700	0.690400	0.210390
C1121	C112	0.321300	0.596800	0.065470
C1131	C113	0.244300	0.874100	0.996270
H1251	H125	0.193600	0.886600	0.988200
H1261	H126	0.242200	0.837300	0.019700
O231	O23	0.480600	0.362700	0.065500
O241	O24	0.592200	0.398700	0.065200
C1141	C114	0.001200	0.603000	0.831610
H1271	H127	0.956900	0.616800	0.848000
H1281	H128	0.997300	0.624300	0.802200
C1151	C115	0.598700	0.983600	0.037380
H1291	H129	0.644800	0.003000	0.029400
C1161	C116	0.059700	0.714300	0.867830
H1301	H130	0.020000	0.718300	0.889500
H1311	H131	0.045600	0.743500	0.842200
C1171	C117	0.216600	0.618100	0.964840
H1321	H132	0.246800	0.578400	0.973000
C1181	C118	0.232200	0.629800	0.171200
H1331	H133	0.272600	0.600600	0.163000
C1191	C119	0.207900	0.643100	0.923380
H1341	H134	0.230900	0.624500	0.898100
C1201	C120	0.978300	0.403800	0.827260
H1351	H135	0.952000	0.359200	0.828300
N421	N42	0.526500	0.411500	0.064750
C1211	C121	0.214200	0.647700	0.213350
H1361	H136	0.239200	0.633900	0.239000
C1221	C122	0.362500	0.928900	0.022200
H1371	H137	0.367700	0.881000	0.036800
H1381	H138	0.387800	0.925400	0.993900
C1231	C123	0.140700	0.709200	0.968320
H1391	H139	0.108200	0.745300	0.978900
C1241	C124	0.400200	0.984300	0.048800
H1401	H140	0.381600	0.982000	0.078900
H1411	H141	0.389200	0.033400	0.037200
C1251	C125	0.281600	0.941900	0.013470
H1421	H142	0.257500	0.957300	0.040700
H1431	H143	0.276300	0.981900	0.992100
C1261	C126	0.947900	0.471800	0.829950
H1441	H144	0.897600	0.482900	0.832600
C1271	C127	0.136600	0.697400	0.167200
H1451	H145	0.097400	0.725500	0.156000
N431	N43	0.282200	0.840800	0.957120
N441	N44	0.316850	0.823080	0.888420
C1281	C128	0.325400	0.778500	0.956730
H1461	H146	0.337900	0.748900	0.980900
C1291	C129	0.278700	0.866600	0.915500
H1471	H147	0.253000	0.909100	0.906900
C1301	C130	0.346500	0.768300	0.914360
H1481	H148	0.376700	0.729900	0.904300
C1311	C131	0.167000	0.787800	0.266910
H1491	H149	0.142600	0.813700	0.290600
H1501	H150	0.209700	0.761900	0.278100
C1321	C132	0.115300	0.732600	0.246000
H1511	H151	0.097700	0.698200	0.268400
H1521	H152	0.072500	0.758600	0.234000
Cd91	Cd9	0.819030	0.668200	0.937500
Cd101	Cd10	0.649530	0.172940	0.931630
O251	O25	0.665040	0.303560	0.936030
N451	N45	0.521400	0.005000	0.171910
N461	N46	0.701100	0.158800	0.074730
O261	O26	0.745100	0.564700	0.934240
O271	O27	0.545400	0.276200	0.931740
N471	N47	0.409530	0.052800	0.177230
C1331	C133	0.618200	0.532300	0.938570
N481	N48	0.659900	0.174420	0.006460
C1341	C134	0.505100	0.426700	0.936290
H1531	H153	0.466800	0.391900	0.936200
O281	O28	0.664600	0.655500	0.944660
C1351	C135	0.489600	0.501900	0.936470
C1361	C136	0.579100	0.403900	0.936210
N491	N49	0.660500	0.182800	0.857080
N501	N50	0.973200	0.481400	0.950830
N511	N51	0.914400	0.587470	0.946120
C1371	C137	0.634700	0.456900	0.937710
H1541	H154	0.684200	0.441700	0.938200
C1381	C138	0.746000	0.131100	0.112540
H1551	H155	0.747700	0.169100	0.135400
H1561	H156	0.796500	0.122000	0.102600
C1391	C139	0.680100	0.589700	0.939270
C1401	C140	0.910300	0.515000	0.939330
H1571	H157	0.868800	0.490700	0.928000
C1411	C141	0.019800	0.534400	0.965810
H1581	H158	0.067900	0.527400	0.976300
C1421	C142	0.633900	0.068200	0.145680
H1591	H159	0.629600	0.110700	0.165300
H1601	H160	0.604400	0.078500	0.119500
C1431	C143	0.544800	0.555200	0.938520
H1611	H161	0.532800	0.605500	0.939800
C1441	C144	0.481100	0.066900	0.176630
H1621	H162	0.501400	0.114300	0.179200
N521	N52	0.690400	0.151700	0.789610
C1451	C145	0.596800	0.321300	0.934530
C1461	C146	0.874100	0.244300	0.003730
H1631	H163	0.886600	0.193600	0.011800
H1641	H164	0.837300	0.242200	0.980300
O291	O29	0.362700	0.480600	0.934500
O301	O30	0.398700	0.592200	0.934800
C1471	C147	0.603000	0.001200	0.168390
H1651	H165	0.616800	0.956900	0.152000
H1661	H166	0.624300	0.997300	0.197800
C1481	C148	0.983600	0.598700	0.962620
H1671	H167	0.003000	0.644800	0.970600
C1491	C149	0.714300	0.059700	0.132170
H1681	H168	0.718300	0.020000	0.110500
H1691	H169	0.743500	0.045600	0.157800
C1501	C150	0.618100	0.216600	0.035160
H1701	H170	0.578400	0.246800	0.027000
C1511	C151	0.629800	0.232200	0.828800
H1711	H171	0.600600	0.272600	0.837000
C1521	C152	0.643100	0.207900	0.076620
H1721	H172	0.624500	0.230900	0.101900
C1531	C153	0.403800	0.978300	0.172740
H1731	H173	0.359200	0.952000	0.171700
N531	N53	0.411500	0.526500	0.935250
C1541	C154	0.647700	0.214200	0.786650
H1741	H174	0.633900	0.239200	0.761000
C1551	C155	0.928900	0.362500	0.977800
H1751	H175	0.881000	0.367700	0.963200
H1761	H176	0.925400	0.387800	0.006100
C1561	C156	0.709200	0.140700	0.031680
H1771	H177	0.745300	0.108200	0.021100
C1571	C157	0.984300	0.400200	0.951200
H1781	H178	0.982000	0.381600	0.921100
H1791	H179	0.033400	0.389200	0.962800
C1581	C158	0.941900	0.281600	0.986530
H1801	H180	0.957300	0.257500	0.959300
H1811	H181	0.981900	0.276300	0.007900
C1591	C159	0.471800	0.947900	0.170050
H1821	H182	0.482900	0.897600	0.167400
C1601	C160	0.697400	0.136600	0.832800
H1831	H183	0.725500	0.097400	0.844000
N541	N54	0.840800	0.282200	0.042880
N551	N55	0.823080	0.316850	0.111580
C1611	C161	0.778500	0.325400	0.043270
H1841	H184	0.748900	0.337900	0.019100
C1621	C162	0.866600	0.278700	0.084500
H1851	H185	0.909100	0.253000	0.093100
C1631	C163	0.768300	0.346500	0.085640
H1861	H186	0.729900	0.376700	0.095700
C1641	C164	0.787800	0.167000	0.733090
H1871	H187	0.813700	0.142600	0.709400
H1881	H188	0.761900	0.209700	0.721900
C1651	C165	0.732600	0.115300	0.754000
H1891	H189	0.698200	0.097700	0.731600
H1901	H190	0.758600	0.072500	0.766000
Cd111	Cd11	0.180970	0.331800	0.437500
Cd121	Cd12	0.350470	0.827060	0.431630
O311	O31	0.334960	0.696440	0.436030
N561	N56	0.478600	0.995000	0.671910
N571	N57	0.298900	0.841200	0.574730
O321	O32	0.254900	0.435300	0.434240
O331	O33	0.454600	0.723800	0.431740
N581	N58	0.590470	0.947200	0.677230
C1661	C166	0.381800	0.467700	0.438570
N591	N59	0.340100	0.825580	0.506460
C1671	C167	0.494900	0.573300	0.436290
H1911	H191	0.533200	0.608100	0.436200
O341	O34	0.335400	0.344500	0.444660
C1681	C168	0.510400	0.498100	0.436470
C1691	C169	0.420900	0.596100	0.436210
N601	N60	0.339500	0.817200	0.357080
N611	N61	0.026800	0.518600	0.450830
N621	N62	0.085600	0.412530	0.446120
C1701	C170	0.365300	0.543100	0.437710
H1921	H192	0.315800	0.558300	0.438200
C1711	C171	0.254000	0.868900	0.612540
H1931	H193	0.252300	0.830900	0.635400
H1941	H194	0.203500	0.878000	0.602600
C1721	C172	0.319900	0.410300	0.439270
C1731	C173	0.089700	0.485000	0.439330
H1951	H195	0.131200	0.509300	0.428000
C1741	C174	0.980200	0.465600	0.465810
H1961	H196	0.932100	0.472600	0.476300
C1751	C175	0.366100	0.931800	0.645680
H1971	H197	0.370400	0.889300	0.665300
H1981	H198	0.395600	0.921500	0.619500
C1761	C176	0.455200	0.444800	0.438520
H1991	H199	0.467200	0.394500	0.439800
C1771	C177	0.518900	0.933100	0.676630
H2001	H200	0.498600	0.885700	0.679200
N631	N63	0.309600	0.848300	0.289610
C1781	C178	0.403200	0.678700	0.434530
C1791	C179	0.125900	0.755700	0.503730
H2011	H201	0.113400	0.806400	0.511800
H2021	H202	0.162700	0.757800	0.480300
O351	O35	0.637300	0.519400	0.434500
O361	O36	0.601300	0.407800	0.434800
C1801	C180	0.397000	0.998800	0.668390
H2031	H203	0.383200	0.043100	0.652000
H2041	H204	0.375700	0.002700	0.697800
C1811	C181	0.016400	0.401300	0.462620
H2051	H205	0.997000	0.355200	0.470600
C1821	C182	0.285700	0.940300	0.632170
H2061	H206	0.281700	0.980000	0.610500
H2071	H207	0.256500	0.954400	0.657800
C1831	C183	0.381900	0.783400	0.535160
H2081	H208	0.421600	0.753200	0.527000
C1841	C184	0.370200	0.767800	0.328800
H2091	H209	0.399400	0.727400	0.337000
C1851	C185	0.356900	0.792100	0.576620
H2101	H210	0.375500	0.769100	0.601900
C1861	C186	0.596200	0.021700	0.672740
H2111	H211	0.640800	0.048000	0.671700
N641	N64	0.588500	0.473500	0.435250
C1871	C187	0.352300	0.785800	0.286650
H2121	H212	0.366100	0.760800	0.261000
C1881	C188	0.071100	0.637500	0.477800
H2131	H213	0.119000	0.632300	0.463200
H2141	H214	0.074600	0.612200	0.506100
C1891	C189	0.290800	0.859300	0.531680
H2151	H215	0.254700	0.891800	0.521100
C1901	C190	0.015700	0.599800	0.451200
H2161	H216	0.018000	0.618400	0.421100
H2171	H217	0.966600	0.610800	0.462800
C1911	C191	0.058100	0.718400	0.486530
H2181	H218	0.042700	0.742500	0.459300
H2191	H219	0.018100	0.723700	0.507900
C1921	C192	0.528200	0.052100	0.670050
H2201	H220	0.517100	0.102400	0.667400
C1931	C193	0.302600	0.863400	0.332800
H2211	H221	0.274500	0.902600	0.344000
N651	N65	0.159200	0.717800	0.542880
N661	N66	0.176920	0.683150	0.611580
C1941	C194	0.221500	0.674600	0.543270
H2221	H222	0.251100	0.662100	0.519100
C1951	C195	0.133400	0.721300	0.584500
H2231	H223	0.090900	0.747000	0.593100
C1961	C196	0.231700	0.653500	0.585640
H2241	H224	0.270100	0.623300	0.595700
C1971	C197	0.212200	0.833000	0.233090
H2251	H225	0.186300	0.857400	0.209400
H2261	H226	0.238100	0.790300	0.221900
C1981	C198	0.267400	0.884700	0.254000
H2271	H227	0.301800	0.902300	0.231600
H2281	H228	0.241400	0.927500	0.266000
Cd131	Cd13	0.168200	0.680970	0.687490
Cd141	Cd14	0.672940	0.850470	0.681630
O371	O37	0.803560	0.834960	0.686030
N671	N67	0.505000	0.978600	0.921910
N681	N68	0.658800	0.798900	0.824730
O381	O38	0.064700	0.754900	0.684240
O391	O39	0.776200	0.954600	0.681740
N691	N69	0.552800	0.090470	0.927230
C1991	C199	0.032300	0.881800	0.688570
N701	N70	0.674420	0.840100	0.756460
C2001	C200	0.926700	0.994900	0.686290
H2291	H229	0.891900	0.033200	0.686200
O401	O40	0.155500	0.835400	0.694660
C2011	C201	0.001900	0.010400	0.686470
C2021	C202	0.903900	0.920900	0.686210
N711	N71	0.682800	0.839500	0.607080
N721	N72	0.981400	0.526800	0.700830
N731	N73	0.087470	0.585600	0.696120
C2031	C203	0.956900	0.865300	0.687710
H2301	H230	0.941700	0.815800	0.688200
C2041	C204	0.631100	0.754000	0.862540
H2311	H231	0.669100	0.752300	0.885400
H2321	H232	0.622000	0.703500	0.852600
C2051	C205	0.089700	0.819900	0.689270
C2061	C206	0.015000	0.589700	0.689330
H2331	H233	0.990700	0.631200	0.678000
C2071	C207	0.034400	0.480200	0.715810
H2341	H234	0.027400	0.432100	0.726300
C2081	C208	0.568200	0.866100	0.895680
H2351	H235	0.610700	0.870400	0.915300
H2361	H236	0.578500	0.895600	0.869500
C2091	C209	0.055200	0.955200	0.688520
H2371	H237	0.105500	0.967200	0.689800
C2101	C210	0.566900	0.018900	0.926630
H2381	H238	0.614300	0.998600	0.929200
N741	N74	0.651700	0.809600	0.539610
C2111	C211	0.821300	0.903200	0.684530
C2121	C212	0.744300	0.625900	0.753730
H2391	H239	0.693600	0.613400	0.761800
H2401	H240	0.742200	0.662700	0.730300
O411	O41	0.980600	0.137300	0.684500
O421	O42	0.092200	0.101300	0.684800
C2131	C213	0.501200	0.897000	0.918390
H2411	H241	0.456900	0.883200	0.902000
H2421	H242	0.497300	0.875700	0.947800
C2141	C214	0.098700	0.516400	0.712620
H2431	H243	0.144800	0.497000	0.720600
C2151	C215	0.559700	0.785700	0.882170
H2441	H244	0.520000	0.781700	0.860500
H2451	H245	0.545600	0.756500	0.907800
C2161	C216	0.716600	0.881900	0.785160
H2461	H246	0.746800	0.921600	0.777000
C2171	C217	0.732200	0.870200	0.578800
H2471	H247	0.772600	0.899400	0.587000
C2181	C218	0.707900	0.856900	0.826620
H2481	H248	0.730900	0.875500	0.851900
C2191	C219	0.478300	0.096200	0.922740
H2491	H249	0.452000	0.140800	0.921700
N751	N75	0.026500	0.088500	0.685250
C2201	C220	0.714200	0.852300	0.536650
H2501	H250	0.739200	0.866100	0.511000
C2211	C221	0.862500	0.571100	0.727800
H2511	H251	0.867700	0.619000	0.713200
H2521	H252	0.887800	0.574600	0.756100
C2221	C222	0.640700	0.790800	0.781680
H2531	H253	0.608200	0.754700	0.771100
C2231	C223	0.900200	0.515700	0.701200
H2541	H254	0.881600	0.518000	0.671100
H2551	H255	0.889200	0.466600	0.712800
C2241	C224	0.781600	0.558100	0.736530
H2561	H256	0.757500	0.542700	0.709300
H2571	H257	0.776300	0.518100	0.757900
C2251	C225	0.447900	0.028200	0.920050
H2581	H258	0.397600	0.017100	0.917400
C2261	C226	0.636600	0.802600	0.582800
H2591	H259	0.597400	0.774500	0.594000
N761	N76	0.782200	0.659200	0.792880
N771	N77	0.816850	0.676920	0.861580
C2271	C227	0.825400	0.721500	0.793270
H2601	H260	0.837900	0.751100	0.769100
C2281	C228	0.778700	0.633400	0.834500
H2611	H261	0.753000	0.590900	0.843100
C2291	C229	0.846500	0.731700	0.835640
H2621	H262	0.876700	0.770100	0.845700
C2301	C230	0.667000	0.712200	0.483090
H2631	H263	0.642600	0.686300	0.459400
H2641	H264	0.709700	0.738100	0.471900
C2311	C231	0.615300	0.767400	0.504000
H2651	H265	0.597700	0.801800	0.481600
H2661	H266	0.572500	0.741400	0.516000
Cd151	Cd15	0.831800	0.319030	0.187490
Cd161	Cd16	0.327060	0.149530	0.181630
O431	O43	0.196440	0.165040	0.186030
N781	N78	0.495000	0.021400	0.421910
N791	N79	0.341200	0.201100	0.324730
O441	O44	0.935300	0.245100	0.184240
O451	O45	0.223800	0.045400	0.181740
N801	N80	0.447200	0.909530	0.427230
C2321	C232	0.967700	0.118200	0.188570
N811	N81	0.325580	0.159900	0.256460
C2331	C233	0.073300	0.005100	0.186290
H2671	H267	0.108100	0.966800	0.186200
O461	O46	0.844500	0.164600	0.194660
C2341	C234	0.998100	0.989600	0.186470
C2351	C235	0.096100	0.079100	0.186210
N821	N82	0.317200	0.160500	0.107080
N831	N83	0.018600	0.473200	0.200830
N841	N84	0.912530	0.414400	0.196120
C2361	C236	0.043100	0.134700	0.187710
H2681	H268	0.058300	0.184200	0.188200
C2371	C237	0.368900	0.246000	0.362540
H2691	H269	0.330900	0.247700	0.385400
H2701	H270	0.378000	0.296500	0.352600
C2381	C238	0.910300	0.180100	0.189270
C2391	C239	0.985000	0.410300	0.189330
H2711	H271	0.009300	0.368800	0.178000
C2401	C240	0.965600	0.519800	0.215810
H2721	H272	0.972600	0.567900	0.226300
C2411	C241	0.431800	0.133900	0.395680
H2731	H273	0.389300	0.129600	0.415300
H2741	H274	0.421500	0.104400	0.369500
C2421	C242	0.944800	0.044800	0.188520
H2751	H275	0.894500	0.032800	0.189800
C2431	C243	0.433100	0.981100	0.426630
H2761	H276	0.385700	0.001400	0.429200
N851	N85	0.348300	0.190400	0.039610
C2441	C244	0.178700	0.096800	0.184530
C2451	C245	0.255700	0.374100	0.253730
H2771	H277	0.306400	0.386600	0.261800
H2781	H278	0.257800	0.337300	0.230300
O471	O47	0.019400	0.862700	0.184500
O481	O48	0.907800	0.898700	0.184800
C2461	C246	0.498800	0.103000	0.418390
H2791	H279	0.543100	0.116800	0.402000
H2801	H280	0.502700	0.124300	0.447800
C2471	C247	0.901300	0.483600	0.212620
H2811	H281	0.855200	0.503000	0.220600
C2481	C248	0.440300	0.214300	0.382170
H2821	H282	0.480000	0.218300	0.360500
H2831	H283	0.454400	0.243500	0.407800
C2491	C249	0.283400	0.118100	0.285160
H2841	H284	0.253200	0.078400	0.277000
C2501	C250	0.267800	0.129800	0.078800
H2851	H285	0.227400	0.100600	0.087000
C2511	C251	0.292100	0.143100	0.326620
H2861	H286	0.269100	0.124500	0.351900
C2521	C252	0.521700	0.903800	0.422740
H2871	H287	0.548000	0.859200	0.421700
N861	N86	0.973500	0.911500	0.185250
C2531	C253	0.285800	0.147700	0.036650
H2881	H288	0.260800	0.133900	0.011000
C2541	C254	0.137500	0.428900	0.227800
H2891	H289	0.132300	0.381000	0.213200
H2901	H290	0.112200	0.425400	0.256100
C2551	C255	0.359300	0.209200	0.281680
H2911	H291	0.391800	0.245300	0.271100
C2561	C256	0.099800	0.484300	0.201200
H2921	H292	0.118400	0.482000	0.171100
H2931	H293	0.110800	0.533400	0.212800
C2571	C257	0.218400	0.441900	0.236530
H2941	H294	0.242500	0.457300	0.209300
H2951	H295	0.223700	0.481900	0.257900
C2581	C258	0.552100	0.971800	0.420050
H2961	H296	0.602400	0.982900	0.417400
C2591	C259	0.363400	0.197400	0.082800
H2971	H297	0.402600	0.225500	0.094000
N871	N87	0.217800	0.340800	0.292880
N881	N88	0.183150	0.323080	0.361580
C2601	C260	0.174600	0.278500	0.293270
H2981	H298	0.162100	0.248900	0.269100
C2611	C261	0.221300	0.366600	0.334500
H2991	H299	0.247000	0.409100	0.343100
C2621	C262	0.153500	0.268300	0.335640
H3001	H300	0.123300	0.229900	0.345700
C2631	C263	0.333000	0.287800	0.983090
H3011	H301	0.357400	0.313700	0.959400
H3021	H302	0.290300	0.261900	0.971900
C2641	C264	0.384700	0.232600	0.004000
H3031	H303	0.402300	0.198200	0.981600
H3041	H304	0.427500	0.258600	0.016000
