data_BUBWOM_clean_PM
_symmetry_space_group_name_H-M	'P1'
_cell_length_a	19.862000
_cell_length_b	11.645000
_cell_length_c	22.813000
_cell_angle_alpha	90.000000
_cell_angle_beta	90.000000
_cell_angle_gamma	90.000000
_symmetry_Int_Tables_number 1

loop_
_symmetry_equiv_pos_as_xyz
'x,y,z'

loop_
_atom_site_label
_atom_site_type_symbol
_atom_site_fract_x
_atom_site_fract_y
_atom_site_fract_z
Zn11	Zn1	0.082410	0.576610	0.618320
O11	O1	0.073050	0.682570	0.537510
O21	O2	0.058250	0.660670	0.440470
O31	O3	0.097460	0.415490	0.662110
O41	O4	0.100720	0.224970	0.646040
O51	O5	0.186580	0.140960	0.526830
O61	O6	0.080760	0.071030	0.530860
O71	O7	0.131390	0.476990	0.361320
O81	O8	0.021370	0.440640	0.362070
N11	N1	0.084790	0.460360	0.551380
N21	N2	0.094570	0.305220	0.461810
N31	N3	0.084050	0.704980	0.679740
N41	N4	0.058260	0.146930	0.886450
H11	H1	0.054200	0.205700	0.912200
C11	C1	0.069810	0.624960	0.490810
C21	C2	0.079570	0.496380	0.496440
C31	C3	0.083250	0.417010	0.450600
C41	C4	0.077780	0.449740	0.386120
C51	C5	0.098030	0.325540	0.629820
C61	C6	0.094250	0.350670	0.564190
C71	C7	0.100440	0.272290	0.518160
C81	C8	0.122520	0.148890	0.526890
C91	C9	0.087660	0.683270	0.737260
H21	H2	0.089500	0.607300	0.749700
C101	C10	0.088710	0.769190	0.778780
H31	H3	0.091700	0.750700	0.818400
C111	C11	0.085230	0.883210	0.761550
C121	C12	0.084400	0.905850	0.701470
H41	H4	0.084300	0.981100	0.687800
C131	C13	0.083670	0.814970	0.662620
H51	H5	0.082900	0.830900	0.622700
C141	C14	0.078500	0.976880	0.805260
C151	C15	0.072140	0.951140	0.865070
H61	H6	0.075300	0.875500	0.877900
C161	C16	0.061260	0.038110	0.904620
H71	H7	0.056000	0.021100	0.944200
C171	C17	0.064690	0.175380	0.829920
H81	H8	0.062300	0.252100	0.818800
C181	C18	0.074830	0.091800	0.788180
H91	H9	0.079200	0.111800	0.748900
C191	C19	0.238180	0.096320	0.652880
H101	H10	0.230300	0.164000	0.632300
C201	C20	0.237180	0.099980	0.713660
H111	H11	0.228000	0.168500	0.733000
C211	C21	0.240060	0.100690	0.843040
H121	H12	0.233400	0.170100	0.823700
C221	C22	0.240110	0.097080	0.903680
H131	H13	0.233000	0.165000	0.924200
Zn21	Zn2	0.417590	0.423390	0.618320
O91	O9	0.426950	0.317430	0.537510
O101	O10	0.441750	0.339330	0.440470
O111	O11	0.402540	0.584510	0.662110
O121	O12	0.399280	0.775030	0.646040
O131	O13	0.313420	0.859040	0.526830
O141	O14	0.419240	0.928970	0.530860
O151	O15	0.368610	0.523010	0.361320
O161	O16	0.478630	0.559360	0.362070
N51	N5	0.415210	0.539640	0.551380
N61	N6	0.405430	0.694780	0.461810
N71	N7	0.415950	0.295020	0.679740
N81	N8	0.441740	0.853070	0.886450
H141	H14	0.445800	0.794300	0.912200
C231	C23	0.430190	0.375040	0.490810
C241	C24	0.420430	0.503620	0.496440
C251	C25	0.416750	0.582990	0.450600
C261	C26	0.422220	0.550260	0.386120
C271	C27	0.401970	0.674460	0.629820
C281	C28	0.405750	0.649330	0.564190
C291	C29	0.399560	0.727710	0.518160
C301	C30	0.377480	0.851110	0.526890
C311	C31	0.412340	0.316730	0.737260
H151	H15	0.410500	0.392700	0.749700
C321	C32	0.411290	0.230810	0.778780
H161	H16	0.408300	0.249300	0.818400
C331	C33	0.414770	0.116790	0.761550
C341	C34	0.415600	0.094150	0.701470
H171	H17	0.415700	0.018900	0.687800
C351	C35	0.416330	0.185030	0.662620
H181	H18	0.417100	0.169100	0.622700
C361	C36	0.421500	0.023120	0.805260
C371	C37	0.427860	0.048860	0.865070
H191	H19	0.424700	0.124500	0.877900
C381	C38	0.438740	0.961890	0.904620
H201	H20	0.444000	0.978900	0.944200
C391	C39	0.435310	0.824620	0.829920
H211	H21	0.437700	0.747900	0.818800
C401	C40	0.425170	0.908200	0.788180
H221	H22	0.420800	0.888200	0.748900
C411	C41	0.261820	0.903680	0.652880
H231	H23	0.269700	0.836000	0.632300
C421	C42	0.262820	0.900020	0.713660
H241	H24	0.272000	0.831500	0.733000
C431	C43	0.259940	0.899310	0.843040
H251	H25	0.266600	0.829900	0.823700
C441	C44	0.259890	0.902920	0.903680
H261	H26	0.267000	0.835000	0.924200
Zn31	Zn3	0.917590	0.576610	0.881680
O171	O17	0.926950	0.682570	0.962490
O181	O18	0.941750	0.660670	0.059530
O191	O19	0.902540	0.415490	0.837890
O201	O20	0.899280	0.224970	0.853960
O211	O21	0.813420	0.140960	0.973170
O221	O22	0.919240	0.071030	0.969140
O231	O23	0.868610	0.476990	0.138680
O241	O24	0.978630	0.440640	0.137930
N91	N9	0.915210	0.460360	0.948620
N101	N10	0.905430	0.305220	0.038190
N111	N11	0.915950	0.704980	0.820260
N121	N12	0.941740	0.146930	0.613550
H271	H27	0.945800	0.205700	0.587800
C451	C45	0.930190	0.624960	0.009190
C461	C46	0.920430	0.496380	0.003560
C471	C47	0.916750	0.417010	0.049400
C481	C48	0.922220	0.449740	0.113880
C491	C49	0.901970	0.325540	0.870180
C501	C50	0.905750	0.350670	0.935810
C511	C51	0.899560	0.272290	0.981840
C521	C52	0.877480	0.148890	0.973110
C531	C53	0.912340	0.683270	0.762740
H281	H28	0.910500	0.607300	0.750300
C541	C54	0.911290	0.769190	0.721220
H291	H29	0.908300	0.750700	0.681600
C551	C55	0.914770	0.883210	0.738450
C561	C56	0.915600	0.905850	0.798530
H301	H30	0.915700	0.981100	0.812200
C571	C57	0.916330	0.814970	0.837380
H311	H31	0.917100	0.830900	0.877300
C581	C58	0.921500	0.976880	0.694740
C591	C59	0.927860	0.951140	0.634930
H321	H32	0.924700	0.875500	0.622100
C601	C60	0.938740	0.038110	0.595380
H331	H33	0.944000	0.021100	0.555800
C611	C61	0.935310	0.175380	0.670080
H341	H34	0.937700	0.252100	0.681200
C621	C62	0.925170	0.091800	0.711820
H351	H35	0.920800	0.111800	0.751100
C631	C63	0.761820	0.096320	0.847120
H361	H36	0.769700	0.164000	0.867700
C641	C64	0.762820	0.099980	0.786340
H371	H37	0.772000	0.168500	0.767000
C651	C65	0.759940	0.100690	0.656960
H381	H38	0.766600	0.170100	0.676300
C661	C66	0.759890	0.097080	0.596320
H391	H39	0.767000	0.165000	0.575800
Zn41	Zn4	0.582410	0.423390	0.881680
O251	O25	0.573050	0.317430	0.962490
O261	O26	0.558250	0.339330	0.059530
O271	O27	0.597460	0.584510	0.837890
O281	O28	0.600720	0.775030	0.853960
O291	O29	0.686580	0.859040	0.973170
O301	O30	0.580760	0.928970	0.969140
O311	O31	0.631390	0.523010	0.138680
O321	O32	0.521370	0.559360	0.137930
N131	N13	0.584790	0.539640	0.948620
N141	N14	0.594570	0.694780	0.038190
N151	N15	0.584050	0.295020	0.820260
N161	N16	0.558260	0.853070	0.613550
H401	H40	0.554200	0.794300	0.587800
C671	C67	0.569810	0.375040	0.009190
C681	C68	0.579570	0.503620	0.003560
C691	C69	0.583250	0.582990	0.049400
C701	C70	0.577780	0.550260	0.113880
C711	C71	0.598030	0.674460	0.870180
C721	C72	0.594250	0.649330	0.935810
C731	C73	0.600440	0.727710	0.981840
C741	C74	0.622520	0.851110	0.973110
C751	C75	0.587660	0.316730	0.762740
H411	H41	0.589500	0.392700	0.750300
C761	C76	0.588710	0.230810	0.721220
H421	H42	0.591700	0.249300	0.681600
C771	C77	0.585230	0.116790	0.738450
C781	C78	0.584400	0.094150	0.798530
H431	H43	0.584300	0.018900	0.812200
C791	C79	0.583670	0.185030	0.837380
H441	H44	0.582900	0.169100	0.877300
C801	C80	0.578500	0.023120	0.694740
C811	C81	0.572140	0.048860	0.634930
H451	H45	0.575300	0.124500	0.622100
C821	C82	0.561260	0.961890	0.595380
H461	H46	0.556000	0.978900	0.555800
C831	C83	0.564690	0.824620	0.670080
H471	H47	0.562300	0.747900	0.681200
C841	C84	0.574830	0.908200	0.711820
H481	H48	0.579200	0.888200	0.751100
C851	C85	0.738180	0.903680	0.847120
H491	H49	0.730300	0.836000	0.867700
C861	C86	0.737180	0.900020	0.786340
H501	H50	0.728000	0.831500	0.767000
C871	C87	0.740060	0.899310	0.656960
H511	H51	0.733400	0.829900	0.676300
C881	C88	0.740110	0.902920	0.596320
H521	H52	0.733000	0.835000	0.575800
Zn51	Zn5	0.917590	0.423390	0.381680
O331	O33	0.926950	0.317430	0.462490
O341	O34	0.941750	0.339330	0.559530
O351	O35	0.902540	0.584510	0.337890
O361	O36	0.899280	0.775030	0.353960
O371	O37	0.813420	0.859040	0.473170
O381	O38	0.919240	0.928970	0.469140
O391	O39	0.868610	0.523010	0.638680
O401	O40	0.978630	0.559360	0.637930
N171	N17	0.915210	0.539640	0.448620
N181	N18	0.905430	0.694780	0.538190
N191	N19	0.915950	0.295020	0.320260
N201	N20	0.941740	0.853070	0.113550
H531	H53	0.945800	0.794300	0.087800
C891	C89	0.930190	0.375040	0.509190
C901	C90	0.920430	0.503620	0.503560
C911	C91	0.916750	0.582990	0.549400
C921	C92	0.922220	0.550260	0.613880
C931	C93	0.901970	0.674460	0.370180
C941	C94	0.905750	0.649330	0.435810
C951	C95	0.899560	0.727710	0.481840
C961	C96	0.877480	0.851110	0.473110
C971	C97	0.912340	0.316730	0.262740
H541	H54	0.910500	0.392700	0.250300
C981	C98	0.911290	0.230810	0.221220
H551	H55	0.908300	0.249300	0.181600
C991	C99	0.914770	0.116790	0.238450
C1001	C100	0.915600	0.094150	0.298530
H561	H56	0.915700	0.018900	0.312200
C1011	C101	0.916330	0.185030	0.337380
H571	H57	0.917100	0.169100	0.377300
C1021	C102	0.921500	0.023120	0.194740
C1031	C103	0.927860	0.048860	0.134930
H581	H58	0.924700	0.124500	0.122100
C1041	C104	0.938740	0.961890	0.095380
H591	H59	0.944000	0.978900	0.055800
C1051	C105	0.935310	0.824620	0.170080
H601	H60	0.937700	0.747900	0.181200
C1061	C106	0.925170	0.908200	0.211820
H611	H61	0.920800	0.888200	0.251100
C1071	C107	0.761820	0.903680	0.347120
H621	H62	0.769700	0.836000	0.367700
C1081	C108	0.762820	0.900020	0.286340
H631	H63	0.772000	0.831500	0.267000
C1091	C109	0.759940	0.899310	0.156960
H641	H64	0.766600	0.829900	0.176300
C1101	C110	0.759890	0.902920	0.096320
H651	H65	0.767000	0.835000	0.075800
Zn61	Zn6	0.582410	0.576610	0.381680
O411	O41	0.573050	0.682570	0.462490
O421	O42	0.558250	0.660670	0.559530
O431	O43	0.597460	0.415490	0.337890
O441	O44	0.600720	0.224970	0.353960
O451	O45	0.686580	0.140960	0.473170
O461	O46	0.580760	0.071030	0.469140
O471	O47	0.631390	0.476990	0.638680
O481	O48	0.521370	0.440640	0.637930
N211	N21	0.584790	0.460360	0.448620
N221	N22	0.594570	0.305220	0.538190
N231	N23	0.584050	0.704980	0.320260
N241	N24	0.558260	0.146930	0.113550
H661	H66	0.554200	0.205700	0.087800
C1111	C111	0.569810	0.624960	0.509190
C1121	C112	0.579570	0.496380	0.503560
C1131	C113	0.583250	0.417010	0.549400
C1141	C114	0.577780	0.449740	0.613880
C1151	C115	0.598030	0.325540	0.370180
C1161	C116	0.594250	0.350670	0.435810
C1171	C117	0.600440	0.272290	0.481840
C1181	C118	0.622520	0.148890	0.473110
C1191	C119	0.587660	0.683270	0.262740
H671	H67	0.589500	0.607300	0.250300
C1201	C120	0.588710	0.769190	0.221220
H681	H68	0.591700	0.750700	0.181600
C1211	C121	0.585230	0.883210	0.238450
C1221	C122	0.584400	0.905850	0.298530
H691	H69	0.584300	0.981100	0.312200
C1231	C123	0.583670	0.814970	0.337380
H701	H70	0.582900	0.830900	0.377300
C1241	C124	0.578500	0.976880	0.194740
C1251	C125	0.572140	0.951140	0.134930
H711	H71	0.575300	0.875500	0.122100
C1261	C126	0.561260	0.038110	0.095380
H721	H72	0.556000	0.021100	0.055800
C1271	C127	0.564690	0.175380	0.170080
H731	H73	0.562300	0.252100	0.181200
C1281	C128	0.574830	0.091800	0.211820
H741	H74	0.579200	0.111800	0.251100
C1291	C129	0.738180	0.096320	0.347120
H751	H75	0.730300	0.164000	0.367700
C1301	C130	0.737180	0.099980	0.286340
H761	H76	0.728000	0.168500	0.267000
C1311	C131	0.740060	0.100690	0.156960
H771	H77	0.733400	0.170100	0.176300
C1321	C132	0.740110	0.097080	0.096320
H781	H78	0.733000	0.165000	0.075800
Zn71	Zn7	0.082410	0.423390	0.118320
O491	O49	0.073050	0.317430	0.037510
O501	O50	0.058250	0.339330	0.940470
O511	O51	0.097460	0.584510	0.162110
O521	O52	0.100720	0.775030	0.146040
O531	O53	0.186580	0.859040	0.026830
O541	O54	0.080760	0.928970	0.030860
O551	O55	0.131390	0.523010	0.861320
O561	O56	0.021370	0.559360	0.862070
N251	N25	0.084790	0.539640	0.051380
N261	N26	0.094570	0.694780	0.961810
N271	N27	0.084050	0.295020	0.179740
N281	N28	0.058260	0.853070	0.386450
H791	H79	0.054200	0.794300	0.412200
C1331	C133	0.069810	0.375040	0.990810
C1341	C134	0.079570	0.503620	0.996440
C1351	C135	0.083250	0.582990	0.950600
C1361	C136	0.077780	0.550260	0.886120
C1371	C137	0.098030	0.674460	0.129820
C1381	C138	0.094250	0.649330	0.064190
C1391	C139	0.100440	0.727710	0.018160
C1401	C140	0.122520	0.851110	0.026890
C1411	C141	0.087660	0.316730	0.237260
H801	H80	0.089500	0.392700	0.249700
C1421	C142	0.088710	0.230810	0.278780
H811	H81	0.091700	0.249300	0.318400
C1431	C143	0.085230	0.116790	0.261550
C1441	C144	0.084400	0.094150	0.201470
H821	H82	0.084300	0.018900	0.187800
C1451	C145	0.083670	0.185030	0.162620
H831	H83	0.082900	0.169100	0.122700
C1461	C146	0.078500	0.023120	0.305260
C1471	C147	0.072140	0.048860	0.365070
H841	H84	0.075300	0.124500	0.377900
C1481	C148	0.061260	0.961890	0.404620
H851	H85	0.056000	0.978900	0.444200
C1491	C149	0.064690	0.824620	0.329920
H861	H86	0.062300	0.747900	0.318800
C1501	C150	0.074830	0.908200	0.288180
H871	H87	0.079200	0.888200	0.248900
C1511	C151	0.238180	0.903680	0.152880
H881	H88	0.230300	0.836000	0.132300
C1521	C152	0.237180	0.900020	0.213660
H891	H89	0.228000	0.831500	0.233000
C1531	C153	0.240060	0.899310	0.343040
H901	H90	0.233400	0.829900	0.323700
C1541	C154	0.240110	0.902920	0.403680
H911	H91	0.233000	0.835000	0.424200
Zn81	Zn8	0.417590	0.576610	0.118320
O571	O57	0.426950	0.682570	0.037510
O581	O58	0.441750	0.660670	0.940470
O591	O59	0.402540	0.415490	0.162110
O601	O60	0.399280	0.224970	0.146040
O611	O61	0.313420	0.140960	0.026830
O621	O62	0.419240	0.071030	0.030860
O631	O63	0.368610	0.476990	0.861320
O641	O64	0.478630	0.440640	0.862070
N291	N29	0.415210	0.460360	0.051380
N301	N30	0.405430	0.305220	0.961810
N311	N31	0.415950	0.704980	0.179740
N321	N32	0.441740	0.146930	0.386450
H921	H92	0.445800	0.205700	0.412200
C1551	C155	0.430190	0.624960	0.990810
C1561	C156	0.420430	0.496380	0.996440
C1571	C157	0.416750	0.417010	0.950600
C1581	C158	0.422220	0.449740	0.886120
C1591	C159	0.401970	0.325540	0.129820
C1601	C160	0.405750	0.350670	0.064190
C1611	C161	0.399560	0.272290	0.018160
C1621	C162	0.377480	0.148890	0.026890
C1631	C163	0.412340	0.683270	0.237260
H931	H93	0.410500	0.607300	0.249700
C1641	C164	0.411290	0.769190	0.278780
H941	H94	0.408300	0.750700	0.318400
C1651	C165	0.414770	0.883210	0.261550
C1661	C166	0.415600	0.905850	0.201470
H951	H95	0.415700	0.981100	0.187800
C1671	C167	0.416330	0.814970	0.162620
H961	H96	0.417100	0.830900	0.122700
C1681	C168	0.421500	0.976880	0.305260
C1691	C169	0.427860	0.951140	0.365070
H971	H97	0.424700	0.875500	0.377900
C1701	C170	0.438740	0.038110	0.404620
H981	H98	0.444000	0.021100	0.444200
C1711	C171	0.435310	0.175380	0.329920
H991	H99	0.437700	0.252100	0.318800
C1721	C172	0.425170	0.091800	0.288180
H1001	H100	0.420800	0.111800	0.248900
C1731	C173	0.261820	0.096320	0.152880
H1011	H101	0.269700	0.164000	0.132300
C1741	C174	0.262820	0.099980	0.213660
H1021	H102	0.272000	0.168500	0.233000
C1751	C175	0.259940	0.100690	0.343040
H1031	H103	0.266600	0.170100	0.323700
C1761	C176	0.259890	0.097080	0.403680
H1041	H104	0.267000	0.165000	0.424200
Zn91	Zn9	0.250000	0.000000	0.529110
N331	N33	0.250000	0.000000	0.622250
N341	N34	0.250000	0.000000	0.934190
C1771	C177	0.250000	0.000000	0.745480
C1781	C178	0.250000	0.000000	0.810830
Zn101	Zn10	0.750000	0.000000	0.970890
N351	N35	0.750000	0.000000	0.877750
N361	N36	0.750000	0.000000	0.565810
C1791	C179	0.750000	0.000000	0.754520
C1801	C180	0.750000	0.000000	0.689170
Zn111	Zn11	0.750000	0.000000	0.470890
N371	N37	0.750000	0.000000	0.377750
N381	N38	0.750000	0.000000	0.065810
C1811	C181	0.750000	0.000000	0.254520
C1821	C182	0.750000	0.000000	0.189170
Zn121	Zn12	0.250000	0.000000	0.029110
N391	N39	0.250000	0.000000	0.122250
N401	N40	0.250000	0.000000	0.434190
C1831	C183	0.250000	0.000000	0.245480
C1841	C184	0.250000	0.000000	0.310830
