data_BUCROH_charged_PM
_symmetry_space_group_name_H-M	'P1'
_cell_length_a	13.532000
_cell_length_b	14.661000
_cell_length_c	16.931000
_cell_angle_alpha	90.000000
_cell_angle_beta	90.000000
_cell_angle_gamma	90.000000
_symmetry_Int_Tables_number 1

loop_
_symmetry_equiv_pos_as_xyz
'x,y,z'

loop_
_atom_site_label
_atom_site_type_symbol
_atom_site_fract_x
_atom_site_fract_y
_atom_site_fract_z
Fe11	Fe1	0.774670	0.893140	0.280860
Fe21	Fe2	0.225330	0.106860	0.280860
Fe31	Fe3	0.725330	0.393140	0.219140
Fe41	Fe4	0.274670	0.606860	0.219140
Fe51	Fe5	0.225330	0.106860	0.719140
Fe61	Fe6	0.774670	0.893140	0.719140
Fe71	Fe7	0.274670	0.606860	0.780860
Fe81	Fe8	0.725330	0.393140	0.780860
Ni11	Ni1	0.000000	0.000000	0.000000
Ni21	Ni2	0.500000	0.500000	0.500000
Ni31	Ni3	0.738530	0.591760	0.500000
Ni41	Ni4	0.261470	0.408240	0.500000
Ni51	Ni5	0.761470	0.091760	0.000000
Ni61	Ni6	0.238530	0.908240	0.000000
H11	H1	0.879100	0.729000	0.302400
H21	H2	0.934800	0.818000	0.195500
H31	H3	0.910000	0.567000	0.465000
H41	H4	0.650600	0.892500	0.147100
H51	H5	0.082000	0.853000	0.037000
H61	H6	0.594700	0.801700	0.252900
H71	H7	0.735000	0.900800	0.437300
H81	H8	0.613700	0.981300	0.346800
H91	H9	0.712100	0.065600	0.242200
H101	H10	0.894200	0.037200	0.268100
H111	H11	0.908300	0.935300	0.388600
H121	H12	0.120900	0.271000	0.302400
H131	H13	0.065200	0.182000	0.195500
H141	H14	0.090000	0.433000	0.465000
H151	H15	0.349400	0.107500	0.147100
H161	H16	0.918000	0.147000	0.037000
H171	H17	0.405300	0.198300	0.252900
H181	H18	0.265000	0.099200	0.437300
H191	H19	0.386300	0.018700	0.346800
H201	H20	0.287900	0.934400	0.242200
H211	H21	0.105800	0.962800	0.268100
H221	H22	0.091700	0.064700	0.388600
H231	H23	0.620900	0.229000	0.197600
H241	H24	0.565200	0.318000	0.304500
H251	H25	0.590000	0.067000	0.035000
H261	H26	0.849400	0.392500	0.352900
H271	H27	0.418000	0.353000	0.463000
H281	H28	0.905300	0.301700	0.247100
H291	H29	0.765000	0.400800	0.062700
H301	H30	0.886300	0.481300	0.153200
H311	H31	0.787900	0.565600	0.257800
H321	H32	0.605800	0.537200	0.231900
H331	H33	0.591700	0.435300	0.111400
H341	H34	0.379100	0.771000	0.197600
H351	H35	0.434800	0.682000	0.304500
H361	H36	0.410000	0.933000	0.035000
H371	H37	0.150600	0.607500	0.352900
H381	H38	0.582000	0.647000	0.463000
H391	H39	0.094700	0.698300	0.247100
H401	H40	0.235000	0.599200	0.062700
H411	H41	0.113700	0.518700	0.153200
H421	H42	0.212100	0.434400	0.257800
H431	H43	0.394200	0.462800	0.231900
H441	H44	0.408300	0.564700	0.111400
H451	H45	0.120900	0.271000	0.697600
H461	H46	0.065200	0.182000	0.804500
H471	H47	0.090000	0.433000	0.535000
H481	H48	0.349400	0.107500	0.852900
H491	H49	0.918000	0.147000	0.963000
H501	H50	0.405300	0.198300	0.747100
H511	H51	0.265000	0.099200	0.562700
H521	H52	0.386300	0.018700	0.653200
H531	H53	0.287900	0.934400	0.757800
H541	H54	0.105800	0.962800	0.731900
H551	H55	0.091700	0.064700	0.611400
H561	H56	0.879100	0.729000	0.697600
H571	H57	0.934800	0.818000	0.804500
H581	H58	0.910000	0.567000	0.535000
H591	H59	0.650600	0.892500	0.852900
H601	H60	0.082000	0.853000	0.963000
H611	H61	0.594700	0.801700	0.747100
H621	H62	0.735000	0.900800	0.562700
H631	H63	0.613700	0.981300	0.653200
H641	H64	0.712100	0.065600	0.757800
H651	H65	0.894200	0.037200	0.731900
H661	H66	0.908300	0.935300	0.611400
H671	H67	0.379100	0.771000	0.802400
H681	H68	0.434800	0.682000	0.695500
H691	H69	0.410000	0.933000	0.965000
H701	H70	0.150600	0.607500	0.647100
H711	H71	0.582000	0.647000	0.537000
H721	H72	0.094700	0.698300	0.752900
H731	H73	0.235000	0.599200	0.937300
H741	H74	0.113700	0.518700	0.846800
H751	H75	0.212100	0.434400	0.742200
H761	H76	0.394200	0.462800	0.768100
H771	H77	0.408300	0.564700	0.888600
H781	H78	0.620900	0.229000	0.802400
H791	H79	0.565200	0.318000	0.695500
H801	H80	0.590000	0.067000	0.965000
H811	H81	0.849400	0.392500	0.647100
H821	H82	0.418000	0.353000	0.537000
H831	H83	0.905300	0.301700	0.752900
H841	H84	0.765000	0.400800	0.937300
H851	H85	0.886300	0.481300	0.846800
H861	H86	0.787900	0.565600	0.742200
H871	H87	0.605800	0.537200	0.768100
H881	H88	0.591700	0.435300	0.888600
C11	C1	0.731900	0.758100	0.289440
C21	C2	0.833000	0.762500	0.271530
C31	C3	0.866400	0.816200	0.208090
C41	C4	0.798300	0.867400	0.163300
C51	C5	0.696800	0.860500	0.179000
C61	C6	0.663400	0.806100	0.242100
C71	C7	0.694600	0.709700	0.362900
C81	C8	0.832700	0.938900	0.104200
C91	C9	0.751600	0.937500	0.393000
C101	C10	0.683700	0.982500	0.342300
C111	C11	0.738800	0.029700	0.283700
C121	C12	0.840700	0.013800	0.298200
C131	C13	0.848600	0.956800	0.365700
C141	C14	0.268100	0.241900	0.289440
C151	C15	0.167000	0.237500	0.271530
C161	C16	0.133600	0.183800	0.208090
C171	C17	0.201700	0.132600	0.163300
C181	C18	0.303200	0.139500	0.179000
C191	C19	0.336600	0.193900	0.242100
C201	C20	0.305400	0.290300	0.362900
C211	C21	0.167300	0.061100	0.104200
C221	C22	0.248400	0.062500	0.393000
C231	C23	0.316300	0.017500	0.342300
C241	C24	0.261200	0.970300	0.283700
C251	C25	0.159300	0.986200	0.298200
C261	C26	0.151400	0.043200	0.365700
C271	C27	0.768100	0.258100	0.210560
C281	C28	0.667000	0.262500	0.228470
C291	C29	0.633600	0.316200	0.291910
C301	C30	0.701700	0.367400	0.336700
C311	C31	0.803200	0.360500	0.321000
C321	C32	0.836600	0.306100	0.257900
C331	C33	0.805400	0.209700	0.137100
C341	C34	0.667300	0.438900	0.395800
C351	C35	0.748400	0.437500	0.107000
C361	C36	0.816300	0.482500	0.157700
C371	C37	0.761200	0.529700	0.216300
C381	C38	0.659300	0.513800	0.201800
C391	C39	0.651400	0.456800	0.134300
C401	C40	0.231900	0.741900	0.210560
C411	C41	0.333000	0.737500	0.228470
C421	C42	0.366400	0.683800	0.291910
C431	C43	0.298300	0.632600	0.336700
C441	C44	0.196800	0.639500	0.321000
C451	C45	0.163400	0.693900	0.257900
C461	C46	0.194600	0.790300	0.137100
C471	C47	0.332700	0.561100	0.395800
C481	C48	0.251600	0.562500	0.107000
C491	C49	0.183700	0.517500	0.157700
C501	C50	0.238800	0.470300	0.216300
C511	C51	0.340700	0.486200	0.201800
C521	C52	0.348600	0.543200	0.134300
C531	C53	0.268100	0.241900	0.710560
C541	C54	0.167000	0.237500	0.728470
C551	C55	0.133600	0.183800	0.791910
C561	C56	0.201700	0.132600	0.836700
C571	C57	0.303200	0.139500	0.821000
C581	C58	0.336600	0.193900	0.757900
C591	C59	0.305400	0.290300	0.637100
C601	C60	0.167300	0.061100	0.895800
C611	C61	0.248400	0.062500	0.607000
C621	C62	0.316300	0.017500	0.657700
C631	C63	0.261200	0.970300	0.716300
C641	C64	0.159300	0.986200	0.701800
C651	C65	0.151400	0.043200	0.634300
C661	C66	0.731900	0.758100	0.710560
C671	C67	0.833000	0.762500	0.728470
C681	C68	0.866400	0.816200	0.791910
C691	C69	0.798300	0.867400	0.836700
C701	C70	0.696800	0.860500	0.821000
C711	C71	0.663400	0.806100	0.757900
C721	C72	0.694600	0.709700	0.637100
C731	C73	0.832700	0.938900	0.895800
C741	C74	0.751600	0.937500	0.607000
C751	C75	0.683700	0.982500	0.657700
C761	C76	0.738800	0.029700	0.716300
C771	C77	0.840700	0.013800	0.701800
C781	C78	0.848600	0.956800	0.634300
C791	C79	0.231900	0.741900	0.789440
C801	C80	0.333000	0.737500	0.771530
C811	C81	0.366400	0.683800	0.708090
C821	C82	0.298300	0.632600	0.663300
C831	C83	0.196800	0.639500	0.679000
C841	C84	0.163400	0.693900	0.742100
C851	C85	0.194600	0.790300	0.862900
C861	C86	0.332700	0.561100	0.604200
C871	C87	0.251600	0.562500	0.893000
C881	C88	0.183700	0.517500	0.842300
C891	C89	0.238800	0.470300	0.783700
C901	C90	0.340700	0.486200	0.798200
C911	C91	0.348600	0.543200	0.865700
C921	C92	0.768100	0.258100	0.789440
C931	C93	0.667000	0.262500	0.771530
C941	C94	0.633600	0.316200	0.708090
C951	C95	0.701700	0.367400	0.663300
C961	C96	0.803200	0.360500	0.679000
C971	C97	0.836600	0.306100	0.742100
C981	C98	0.805400	0.209700	0.862900
C991	C99	0.667300	0.438900	0.604200
C1001	C100	0.748400	0.437500	0.893000
C1011	C101	0.816300	0.482500	0.842300
C1021	C102	0.761200	0.529700	0.783700
C1031	C103	0.659300	0.513800	0.798200
C1041	C104	0.651400	0.456800	0.865700
O11	O1	0.603850	0.699300	0.368550
O21	O2	0.758960	0.685410	0.411620
O31	O3	0.920890	0.935330	0.085330
O41	O4	0.768300	0.993730	0.083150
O51	O5	0.396150	0.300700	0.368550
O61	O6	0.241040	0.314590	0.411620
O71	O7	0.079110	0.064670	0.085330
O81	O8	0.231700	0.006270	0.083150
O91	O9	0.896150	0.199300	0.131450
O101	O10	0.741040	0.185410	0.088380
O111	O11	0.579110	0.435330	0.414670
O121	O12	0.731700	0.493730	0.416850
O131	O13	0.103850	0.800700	0.131450
O141	O14	0.258960	0.814590	0.088380
O151	O15	0.420890	0.564670	0.414670
O161	O16	0.268300	0.506270	0.416850
O171	O17	0.396150	0.300700	0.631450
O181	O18	0.241040	0.314590	0.588380
O191	O19	0.079110	0.064670	0.914670
O201	O20	0.231700	0.006270	0.916850
O211	O21	0.603850	0.699300	0.631450
O221	O22	0.758960	0.685410	0.588380
O231	O23	0.920890	0.935330	0.914670
O241	O24	0.768300	0.993730	0.916850
O251	O25	0.103850	0.800700	0.868550
O261	O26	0.258960	0.814590	0.911620
O271	O27	0.420890	0.564670	0.585330
O281	O28	0.268300	0.506270	0.583150
O291	O29	0.896150	0.199300	0.868550
O301	O30	0.741040	0.185410	0.911620
O311	O31	0.579110	0.435330	0.585330
O321	O32	0.731700	0.493730	0.583150
O331	O33	0.889900	0.585300	0.500000
O341	O34	0.110100	0.414700	0.500000
O351	O35	0.610100	0.085300	0.000000
O361	O36	0.389900	0.914700	0.000000
O371	O37	0.087700	0.887080	0.000000
O381	O38	0.912300	0.112920	0.000000
O391	O39	0.412300	0.387080	0.500000
O401	O40	0.587700	0.612920	0.500000
N11	N1	0.500000	0.000000	0.813600
O411	O41	0.473300	0.930700	0.777300
O421	O42	0.526700	0.069300	0.777300
O431	O43	0.500000	0.000000	0.887600
N21	N2	0.000000	0.500000	0.686400
O441	O44	0.026700	0.430700	0.722700
O451	O45	0.973300	0.569300	0.722700
O461	O46	0.000000	0.500000	0.612400
N31	N3	0.500000	0.000000	0.186400
O471	O47	0.526700	0.069300	0.222700
O481	O48	0.473300	0.930700	0.222700
O491	O49	0.500000	0.000000	0.112400
N41	N4	0.000000	0.500000	0.313600
O501	O50	0.973300	0.569300	0.277300
O511	O51	0.026700	0.430700	0.277300
O521	O52	0.000000	0.500000	0.387600
