data_BUCSEY_clean_PM
_symmetry_space_group_name_H-M	'P1'
_cell_length_a	13.442200
_cell_length_b	15.265000
_cell_length_c	15.858000
_cell_angle_alpha	90.000000
_cell_angle_beta	94.543000
_cell_angle_gamma	90.000000
_symmetry_Int_Tables_number 1

loop_
_symmetry_equiv_pos_as_xyz
'x,y,z'

loop_
_atom_site_label
_atom_site_type_symbol
_atom_site_fract_x
_atom_site_fract_y
_atom_site_fract_z
Ni11	Ni1	0.737960	0.409440	0.497050
Fe11	Fe1	0.785180	0.153150	0.257920
Fe21	Fe2	0.756150	0.188340	0.775810
O11	O1	0.601500	0.337600	0.328200
O21	O2	0.759200	0.357800	0.378300
O31	O3	0.917100	0.084300	0.063400
O41	O4	0.763000	0.031700	0.053400
O51	O5	0.913900	0.892800	0.022400
H11	H1	0.929600	0.874200	0.081800
H21	H2	0.933600	0.844400	0.985700
O61	O6	0.775200	0.960300	0.884700
O71	O7	0.922400	0.026900	0.889100
O81	O8	0.598700	0.258500	0.579500
O91	O9	0.754400	0.288000	0.550300
C11	C1	0.695500	0.330000	0.326800
C21	C2	0.729200	0.276900	0.251800
C31	C3	0.829400	0.276200	0.231000
H31	H3	0.876400	0.314500	0.259700
C41	C4	0.859900	0.221300	0.170400
H41	H4	0.926400	0.225000	0.154300
C51	C5	0.792600	0.157800	0.130300
C61	C6	0.692000	0.161100	0.149300
H51	H5	0.645200	0.122000	0.121500
C71	C7	0.659100	0.221900	0.209000
H61	H6	0.590700	0.225100	0.219600
C81	C8	0.825600	0.084800	0.076300
C91	C9	0.811000	0.135400	0.386900
H71	H7	0.806500	0.179100	0.429100
C101	C10	0.894400	0.108600	0.344000
H81	H8	0.960000	0.132000	0.350900
C111	C11	0.860000	0.039200	0.288300
H91	H9	0.901700	0.006300	0.254400
C121	C12	0.758900	0.026100	0.290200
H101	H10	0.717900	0.987400	0.255700
C131	C13	0.731700	0.077000	0.348200
H111	H11	0.665500	0.077400	0.365200
C141	C14	0.839700	0.011900	0.857900
C151	C15	0.803500	0.061600	0.778300
C161	C16	0.703400	0.066200	0.752500
H121	H12	0.657500	0.031300	0.780400
C171	C17	0.668500	0.119900	0.687500
H131	H13	0.599400	0.118200	0.669300
C181	C18	0.729600	0.176300	0.647400
C191	C19	0.830900	0.170300	0.673100
H141	H14	0.877000	0.205900	0.646200
C201	C20	0.866200	0.113500	0.736800
H151	H15	0.935900	0.110700	0.752000
C211	C21	0.691600	0.246800	0.587500
C221	C22	0.711500	0.217500	0.892500
H161	H16	0.680300	0.180000	0.930300
C231	C23	0.662600	0.264900	0.824100
H171	H17	0.593000	0.264700	0.808200
C241	C24	0.736000	0.312700	0.783800
H181	H18	0.724200	0.350100	0.736200
C251	C25	0.830400	0.294900	0.827300
H191	H19	0.892700	0.318200	0.813800
C261	C26	0.815100	0.236000	0.894400
H201	H20	0.865500	0.213100	0.933700
Ni21	Ni2	0.762040	0.909440	0.002950
Fe31	Fe3	0.714820	0.653150	0.242080
Fe41	Fe4	0.743850	0.688340	0.724190
O101	O10	0.898500	0.837600	0.171800
O111	O11	0.740800	0.857800	0.121700
O121	O12	0.582900	0.584300	0.436600
O131	O13	0.737000	0.531700	0.446600
O141	O14	0.586100	0.392800	0.477600
H211	H21	0.570400	0.374200	0.418200
H221	H22	0.566400	0.344400	0.514300
O151	O15	0.724800	0.460300	0.615300
O161	O16	0.577600	0.526900	0.610900
O171	O17	0.901300	0.758500	0.920500
O181	O18	0.745600	0.788000	0.949700
C271	C27	0.804500	0.830000	0.173200
C281	C28	0.770800	0.776900	0.248200
C291	C29	0.670600	0.776200	0.269000
H231	H23	0.623600	0.814500	0.240300
C301	C30	0.640100	0.721300	0.329600
H241	H24	0.573600	0.725000	0.345700
C311	C31	0.707400	0.657800	0.369700
C321	C32	0.808000	0.661100	0.350700
H251	H25	0.854800	0.622000	0.378500
C331	C33	0.840900	0.721900	0.291000
H261	H26	0.909300	0.725100	0.280400
C341	C34	0.674400	0.584800	0.423700
C351	C35	0.689000	0.635400	0.113100
H271	H27	0.693500	0.679100	0.070900
C361	C36	0.605600	0.608600	0.156000
H281	H28	0.540000	0.632000	0.149100
C371	C37	0.640000	0.539200	0.211700
H291	H29	0.598300	0.506300	0.245600
C381	C38	0.741100	0.526100	0.209800
H301	H30	0.782100	0.487400	0.244300
C391	C39	0.768300	0.577000	0.151800
H311	H31	0.834500	0.577400	0.134800
C401	C40	0.660300	0.511900	0.642100
C411	C41	0.696500	0.561600	0.721700
C421	C42	0.796600	0.566200	0.747500
H321	H32	0.842500	0.531300	0.719600
C431	C43	0.831500	0.619900	0.812500
H331	H33	0.900600	0.618200	0.830700
C441	C44	0.770400	0.676300	0.852600
C451	C45	0.669100	0.670300	0.826900
H341	H34	0.623000	0.705900	0.853800
C461	C46	0.633800	0.613500	0.763200
H351	H35	0.564100	0.610700	0.748000
C471	C47	0.808400	0.746800	0.912500
C481	C48	0.788500	0.717500	0.607500
H361	H36	0.819700	0.680000	0.569700
C491	C49	0.837400	0.764900	0.675900
H371	H37	0.907000	0.764700	0.691800
C501	C50	0.764000	0.812700	0.716200
H381	H38	0.775800	0.850100	0.763800
C511	C51	0.669600	0.794900	0.672700
H391	H39	0.607300	0.818200	0.686200
C521	C52	0.684900	0.736000	0.605600
H401	H40	0.634500	0.713100	0.566300
Ni31	Ni3	0.262040	0.590560	0.502950
Fe51	Fe5	0.214820	0.846850	0.742080
Fe61	Fe6	0.243850	0.811660	0.224190
O191	O19	0.398500	0.662400	0.671800
O201	O20	0.240800	0.642200	0.621700
O211	O21	0.082900	0.915700	0.936600
O221	O22	0.237000	0.968300	0.946600
O231	O23	0.086100	0.107200	0.977600
H411	H41	0.070400	0.125800	0.918200
H421	H42	0.066400	0.155600	0.014300
O241	O24	0.224800	0.039700	0.115300
O251	O25	0.077600	0.973100	0.110900
O261	O26	0.401300	0.741500	0.420500
O271	O27	0.245600	0.712000	0.449700
C531	C53	0.304500	0.670000	0.673200
C541	C54	0.270800	0.723100	0.748200
C551	C55	0.170600	0.723800	0.769000
H431	H43	0.123600	0.685500	0.740300
C561	C56	0.140100	0.778700	0.829600
H441	H44	0.073600	0.775000	0.845700
C571	C57	0.207400	0.842200	0.869700
C581	C58	0.308000	0.838900	0.850700
H451	H45	0.354800	0.878000	0.878500
C591	C59	0.340900	0.778100	0.791000
H461	H46	0.409300	0.774900	0.780400
C601	C60	0.174400	0.915200	0.923700
C611	C61	0.189000	0.864600	0.613100
H471	H47	0.193500	0.820900	0.570900
C621	C62	0.105600	0.891400	0.656000
H481	H48	0.040000	0.868000	0.649100
C631	C63	0.140000	0.960800	0.711700
H491	H49	0.098300	0.993700	0.745600
C641	C64	0.241100	0.973900	0.709800
H501	H50	0.282100	0.012600	0.744300
C651	C65	0.268300	0.923000	0.651800
H511	H51	0.334500	0.922600	0.634800
C661	C66	0.160300	0.988100	0.142100
C671	C67	0.196500	0.938400	0.221700
C681	C68	0.296600	0.933800	0.247500
H521	H52	0.342500	0.968700	0.219600
C691	C69	0.331500	0.880100	0.312500
H531	H53	0.400600	0.881800	0.330700
C701	C70	0.270400	0.823700	0.352600
C711	C71	0.169100	0.829700	0.326900
H541	H54	0.123000	0.794100	0.353800
C721	C72	0.133800	0.886500	0.263200
H551	H55	0.064100	0.889300	0.248000
C731	C73	0.308400	0.753200	0.412500
C741	C74	0.288500	0.782500	0.107500
H561	H56	0.319700	0.820000	0.069700
C751	C75	0.337400	0.735100	0.175900
H571	H57	0.407000	0.735300	0.191800
C761	C76	0.264000	0.687300	0.216200
H581	H58	0.275800	0.649900	0.263800
C771	C77	0.169600	0.705100	0.172700
H591	H59	0.107300	0.681800	0.186200
C781	C78	0.184900	0.764000	0.105600
H601	H60	0.134500	0.786900	0.066300
Ni41	Ni4	0.237960	0.090560	0.997050
Fe71	Fe7	0.285180	0.346850	0.757920
Fe81	Fe8	0.256150	0.311660	0.275810
O281	O28	0.101500	0.162400	0.828200
O291	O29	0.259200	0.142200	0.878300
O301	O30	0.417100	0.415700	0.563400
O311	O31	0.263000	0.468300	0.553400
O321	O32	0.413900	0.607200	0.522400
H611	H61	0.429600	0.625800	0.581800
H621	H62	0.433600	0.655600	0.485700
O331	O33	0.275200	0.539700	0.384700
O341	O34	0.422400	0.473100	0.389100
O351	O35	0.098700	0.241500	0.079500
O361	O36	0.254400	0.212000	0.050300
C791	C79	0.195500	0.170000	0.826800
C801	C80	0.229200	0.223100	0.751800
C811	C81	0.329400	0.223800	0.731000
H631	H63	0.376400	0.185500	0.759700
C821	C82	0.359900	0.278700	0.670400
H641	H64	0.426400	0.275000	0.654300
C831	C83	0.292600	0.342200	0.630300
C841	C84	0.192000	0.338900	0.649300
H651	H65	0.145200	0.378000	0.621500
C851	C85	0.159100	0.278100	0.709000
H661	H66	0.090700	0.274900	0.719600
C861	C86	0.325600	0.415200	0.576300
C871	C87	0.311000	0.364600	0.886900
H671	H67	0.306500	0.320900	0.929100
C881	C88	0.394400	0.391400	0.844000
H681	H68	0.460000	0.368000	0.850900
C891	C89	0.360000	0.460800	0.788300
H691	H69	0.401700	0.493700	0.754400
C901	C90	0.258900	0.473900	0.790200
H701	H70	0.217900	0.512600	0.755700
C911	C91	0.231700	0.423000	0.848200
H711	H71	0.165500	0.422600	0.865200
C921	C92	0.339700	0.488100	0.357900
C931	C93	0.303500	0.438400	0.278300
C941	C94	0.203400	0.433800	0.252500
H721	H72	0.157500	0.468700	0.280400
C951	C95	0.168500	0.380100	0.187500
H731	H73	0.099400	0.381800	0.169300
C961	C96	0.229600	0.323700	0.147400
C971	C97	0.330900	0.329700	0.173100
H741	H74	0.377000	0.294100	0.146200
C981	C98	0.366200	0.386500	0.236800
H751	H75	0.435900	0.389300	0.252000
C991	C99	0.191600	0.253200	0.087500
C1001	C100	0.211500	0.282500	0.392500
H761	H76	0.180300	0.320000	0.430300
C1011	C101	0.162600	0.235100	0.324100
H771	H77	0.093000	0.235300	0.308200
C1021	C102	0.236000	0.187300	0.283800
H781	H78	0.224200	0.149900	0.236200
C1031	C103	0.330400	0.205100	0.327300
H791	H79	0.392700	0.181800	0.313800
C1041	C104	0.315100	0.264000	0.394400
H801	H80	0.365500	0.286900	0.433700
Ni51	Ni5	0.000000	0.000000	0.000000
Ni61	Ni6	0.500000	0.500000	0.500000
