data_BUCWAZ_clean_PM
_symmetry_space_group_name_H-M	'P1'
_cell_length_a	14.151200
_cell_length_b	14.507600
_cell_length_c	25.807300
_cell_angle_alpha	90.000000
_cell_angle_beta	92.166000
_cell_angle_gamma	90.000000
_symmetry_Int_Tables_number 1

loop_
_symmetry_equiv_pos_as_xyz
'x,y,z'

loop_
_atom_site_label
_atom_site_type_symbol
_atom_site_fract_x
_atom_site_fract_y
_atom_site_fract_z
Cd11	Cd1	0.837130	0.209750	0.375850
Cd21	Cd2	0.749830	0.292440	0.500260
Cd31	Cd3	0.663250	0.374560	0.624740
Cd41	Cd4	0.246690	0.054310	0.018530
Cd51	Cd5	0.328250	0.165860	0.911430
O11	O1	0.705400	0.278200	0.354200
O21	O2	0.655300	0.325900	0.431500
O31	O3	0.200000	0.659700	0.539800
O41	O4	0.062500	0.615600	0.568900
O51	O5	0.873300	0.378700	0.471100
O61	O6	0.926900	0.329400	0.395600
O71	O7	0.330200	0.152700	0.066700
O81	O8	0.381500	0.202800	0.992900
O91	O9	0.623800	0.446700	0.989200
O101	O10	0.667900	0.516400	0.060200
O111	O11	0.845700	0.260400	0.569500
O121	O12	0.797300	0.302700	0.645500
O131	O13	0.818800	0.474200	0.913500
O141	O14	0.865100	0.436500	0.993600
O151	O15	0.109100	0.180900	0.016700
O161	O16	0.185500	0.139000	0.949500
O171	O17	0.571000	0.258000	0.603700
O181	O18	0.627200	0.207000	0.529800
O191	O19	0.436700	0.972000	0.429400
O201	O20	0.302300	0.921400	0.458900
O211	O21	0.246400	0.453200	0.383500
O221	O22	0.481100	0.374300	0.198400
O231	O23	0.997700	0.271700	0.798800
O241	O24	0.250900	0.132400	0.615500
C11	C1	0.645000	0.315700	0.382900
C21	C2	0.554300	0.346600	0.357400
C31	C3	0.531600	0.323500	0.307300
H11	H1	0.573700	0.289000	0.288500
C41	C4	0.444800	0.351300	0.283800
C51	C5	0.385800	0.406500	0.312200
H21	H2	0.329900	0.428500	0.296600
C61	C6	0.409000	0.430100	0.364700
C71	C7	0.491400	0.399200	0.386500
H31	H3	0.506800	0.412800	0.421000
C81	C8	0.340100	0.487500	0.394800
H41	H4	0.355100	0.482900	0.431700
H51	H5	0.344300	0.551700	0.384700
C91	C9	0.176500	0.474400	0.417800
C101	C10	0.185300	0.536300	0.456900
H61	H6	0.240700	0.570600	0.461000
C111	C11	0.112900	0.549400	0.491100
C121	C12	0.126000	0.613500	0.535400
C131	C13	0.031300	0.495400	0.484000
H71	H7	0.982800	0.500800	0.507100
C141	C14	0.021800	0.433500	0.442300
C151	C15	0.933300	0.374200	0.436100
C161	C16	0.094100	0.424800	0.410800
H81	H8	0.088400	0.383900	0.383100
C171	C17	0.431000	0.289200	0.121400
H91	H9	0.393400	0.250700	0.140700
C181	C18	0.434500	0.277100	0.067600
C191	C19	0.378300	0.203700	0.040600
C201	C20	0.494000	0.333600	0.041600
H101	H10	0.497700	0.326300	0.005900
C211	C21	0.550500	0.403000	0.066500
C221	C22	0.617600	0.456500	0.036300
C231	C23	0.537600	0.414500	0.118600
H111	H11	0.567600	0.463200	0.136000
C241	C24	0.482500	0.356800	0.145300
C251	C25	0.421200	0.327000	0.229600
H121	H12	0.428500	0.261200	0.224500
H131	H13	0.356100	0.343400	0.220800
C261	C26	0.853000	0.267000	0.615000
C271	C27	0.942400	0.228100	0.641700
C281	C28	0.957200	0.234100	0.694300
H141	H14	0.910600	0.259600	0.714400
C291	C29	0.042000	0.202000	0.718700
C301	C30	0.104400	0.154400	0.689300
H151	H15	0.157900	0.128600	0.705500
C311	C31	0.090500	0.143400	0.636700
C321	C32	0.006900	0.181100	0.613400
H161	H16	0.995400	0.173700	0.578000
C331	C33	0.059400	0.203300	0.776200
H171	H17	0.046700	0.142900	0.790500
H181	H18	0.125000	0.218600	0.784400
C341	C34	0.002200	0.280600	0.850600
C351	C35	0.939300	0.345800	0.871600
H191	H19	0.900700	0.381900	0.849900
C361	C36	0.936300	0.354500	0.923000
C371	C37	0.866900	0.424000	0.945300
C381	C38	0.997000	0.302800	0.955500
H201	H20	0.994300	0.309800	0.991300
C391	C39	0.058900	0.243600	0.936300
C401	C40	0.120700	0.185000	0.971600
C411	C41	0.064700	0.235900	0.883200
H211	H21	0.111900	0.199700	0.869500
C421	C42	0.403300	0.164100	0.589200
H221	H22	0.408400	0.206400	0.616200
C431	C43	0.479100	0.151900	0.555500
C441	C44	0.567300	0.209600	0.563700
C451	C45	0.468300	0.090700	0.513700
H231	H23	0.515500	0.085400	0.489800
C461	C46	0.388100	0.038900	0.508400
C471	C47	0.378500	0.975300	0.464900
C481	C48	0.312700	0.047800	0.542300
H241	H24	0.258800	0.011500	0.538300
C491	C49	0.321500	0.112400	0.581600
C501	C50	0.158300	0.090800	0.604700
H251	H25	0.158800	0.026200	0.614200
H261	H26	0.140600	0.096000	0.568100
Cd61	Cd6	0.162870	0.709750	0.624150
Cd71	Cd7	0.250170	0.792440	0.499740
Cd81	Cd8	0.336750	0.874560	0.375260
Cd91	Cd9	0.753310	0.554310	0.981470
Cd101	Cd10	0.671750	0.665860	0.088570
O251	O25	0.294600	0.778200	0.645800
O261	O26	0.344700	0.825900	0.568500
O271	O27	0.800000	0.159700	0.460200
O281	O28	0.937500	0.115600	0.431100
O291	O29	0.126700	0.878700	0.528900
O301	O30	0.073100	0.829400	0.604400
O311	O31	0.669800	0.652700	0.933300
O321	O32	0.618500	0.702800	0.007100
O331	O33	0.376200	0.946700	0.010800
O341	O34	0.332100	0.016400	0.939800
O351	O35	0.154300	0.760400	0.430500
O361	O36	0.202700	0.802700	0.354500
O371	O37	0.181200	0.974200	0.086500
O381	O38	0.134900	0.936500	0.006400
O391	O39	0.890900	0.680900	0.983300
O401	O40	0.814500	0.639000	0.050500
O411	O41	0.429000	0.758000	0.396300
O421	O42	0.372800	0.707000	0.470200
O431	O43	0.563300	0.472000	0.570600
O441	O44	0.697700	0.421400	0.541100
O451	O45	0.753600	0.953200	0.616500
O461	O46	0.518900	0.874300	0.801600
O471	O47	0.002300	0.771700	0.201200
O481	O48	0.749100	0.632400	0.384500
C511	C51	0.355000	0.815700	0.617100
C521	C52	0.445700	0.846600	0.642600
C531	C53	0.468400	0.823500	0.692700
H271	H27	0.426300	0.789000	0.711500
C541	C54	0.555200	0.851300	0.716200
C551	C55	0.614200	0.906500	0.687800
H281	H28	0.670100	0.928500	0.703400
C561	C56	0.591000	0.930100	0.635300
C571	C57	0.508600	0.899200	0.613500
H291	H29	0.493200	0.912800	0.579000
C581	C58	0.659900	0.987500	0.605200
H301	H30	0.644900	0.982900	0.568300
H311	H31	0.655700	0.051700	0.615300
C591	C59	0.823500	0.974400	0.582200
C601	C60	0.814700	0.036300	0.543100
H321	H32	0.759300	0.070600	0.539000
C611	C61	0.887100	0.049400	0.508900
C621	C62	0.874000	0.113500	0.464600
C631	C63	0.968700	0.995400	0.516000
H331	H33	0.017200	0.000800	0.492900
C641	C64	0.978200	0.933500	0.557700
C651	C65	0.066700	0.874200	0.563900
C661	C66	0.905900	0.924800	0.589200
H341	H34	0.911600	0.883900	0.616900
C671	C67	0.569000	0.789200	0.878600
H351	H35	0.606600	0.750700	0.859300
C681	C68	0.565500	0.777100	0.932400
C691	C69	0.621700	0.703700	0.959400
C701	C70	0.506000	0.833600	0.958400
H361	H36	0.502300	0.826300	0.994100
C711	C71	0.449500	0.903000	0.933500
C721	C72	0.382400	0.956500	0.963700
C731	C73	0.462400	0.914500	0.881400
H371	H37	0.432400	0.963200	0.864000
C741	C74	0.517500	0.856800	0.854700
C751	C75	0.578800	0.827000	0.770400
H381	H38	0.571500	0.761200	0.775500
H391	H39	0.643900	0.843400	0.779200
C761	C76	0.147000	0.767000	0.385000
C771	C77	0.057600	0.728100	0.358300
C781	C78	0.042800	0.734100	0.305700
H401	H40	0.089400	0.759600	0.285600
C791	C79	0.958000	0.702000	0.281300
C801	C80	0.895600	0.654400	0.310700
H411	H41	0.842100	0.628600	0.294500
C811	C81	0.909500	0.643400	0.363300
C821	C82	0.993100	0.681100	0.386600
H421	H42	0.004600	0.673700	0.422000
C831	C83	0.940600	0.703300	0.223800
H431	H43	0.953300	0.642900	0.209500
H441	H44	0.875000	0.718600	0.215600
C841	C84	0.997800	0.780600	0.149400
C851	C85	0.060700	0.845800	0.128400
H451	H45	0.099300	0.881900	0.150100
C861	C86	0.063700	0.854500	0.077000
C871	C87	0.133100	0.924000	0.054700
C881	C88	0.003000	0.802800	0.044500
H461	H46	0.005700	0.809800	0.008700
C891	C89	0.941100	0.743600	0.063700
C901	C90	0.879300	0.685000	0.028400
C911	C91	0.935300	0.735900	0.116800
H471	H47	0.888100	0.699700	0.130500
C921	C92	0.596700	0.664100	0.410800
H481	H48	0.591600	0.706400	0.383800
C931	C93	0.520900	0.651900	0.444500
C941	C94	0.432700	0.709600	0.436300
C951	C95	0.531700	0.590700	0.486300
H491	H49	0.484500	0.585400	0.510200
C961	C96	0.611900	0.538900	0.491600
C971	C97	0.621500	0.475300	0.535100
C981	C98	0.687300	0.547800	0.457700
H501	H50	0.741200	0.511500	0.461700
C991	C99	0.678500	0.612400	0.418400
C1001	C100	0.841700	0.590800	0.395300
H511	H51	0.841200	0.526200	0.385800
H521	H52	0.859400	0.596000	0.431900
