data_BUGSIG_clean_PM
_symmetry_space_group_name_H-M	'P1'
_cell_length_a	5.515000
_cell_length_b	13.393000
_cell_length_c	20.810500
_cell_angle_alpha	90.000000
_cell_angle_beta	95.382000
_cell_angle_gamma	90.000000
_symmetry_Int_Tables_number 1

loop_
_symmetry_equiv_pos_as_xyz
'x,y,z'

loop_
_atom_site_label
_atom_site_type_symbol
_atom_site_fract_x
_atom_site_fract_y
_atom_site_fract_z
Gd11	Gd1	0.872440	0.632550	0.527770
Gd21	Gd2	0.127560	0.132550	0.972230
Gd31	Gd3	0.127560	0.367450	0.472230
Gd41	Gd4	0.872440	0.867450	0.027770
P11	P1	0.590700	0.521210	0.414160
P21	P2	0.409300	0.021210	0.085840
P31	P3	0.409300	0.478790	0.585840
P41	P4	0.590700	0.978790	0.914160
H11	H1	0.832400	0.582200	0.336700
H21	H2	0.743500	0.474500	0.317700
H31	H3	0.621200	0.727700	0.299200
H41	H4	0.409500	0.697000	0.340900
H51	H5	0.255500	0.805100	0.255900
H61	H6	0.126500	0.700800	0.248500
H71	H7	0.518400	0.760000	0.175000
H81	H8	0.247300	0.573900	0.167900
H91	H9	0.451300	0.598500	0.122400
H101	H10	0.625300	0.496900	0.209500
H111	H11	0.750000	0.602600	0.214900
H121	H12	0.167600	0.082200	0.163300
H131	H13	0.256500	0.974500	0.182300
H141	H14	0.378800	0.227700	0.200800
H151	H15	0.590500	0.197000	0.159100
H161	H16	0.744500	0.305100	0.244100
H171	H17	0.873500	0.200800	0.251500
H181	H18	0.481600	0.260000	0.325000
H191	H19	0.752700	0.073900	0.332100
H201	H20	0.548700	0.098500	0.377600
H211	H21	0.374700	0.996900	0.290500
H221	H22	0.250000	0.102600	0.285100
H231	H23	0.167600	0.417800	0.663300
H241	H24	0.256500	0.525500	0.682300
H251	H25	0.378800	0.272300	0.700800
H261	H26	0.590500	0.303000	0.659100
H271	H27	0.744500	0.194900	0.744100
H281	H28	0.873500	0.299200	0.751500
H291	H29	0.481600	0.240000	0.825000
H301	H30	0.752700	0.426100	0.832100
H311	H31	0.548700	0.401500	0.877600
H321	H32	0.374700	0.503100	0.790500
H331	H33	0.250000	0.397400	0.785100
H341	H34	0.832400	0.917800	0.836700
H351	H35	0.743500	0.025500	0.817700
H361	H36	0.621200	0.772300	0.799200
H371	H37	0.409500	0.803000	0.840900
H381	H38	0.255500	0.694900	0.755900
H391	H39	0.126500	0.799200	0.748500
H401	H40	0.518400	0.740000	0.675000
H411	H41	0.247300	0.926100	0.667900
H421	H42	0.451300	0.901500	0.622400
H431	H43	0.625300	0.003100	0.709500
H441	H44	0.750000	0.897400	0.714900
C11	C1	0.691100	0.538800	0.332900
C21	C2	0.468900	0.691300	0.298700
C31	C3	0.280700	0.735100	0.246700
C41	C4	0.364000	0.724700	0.177600
C51	C5	0.400000	0.608900	0.165200
C61	C6	0.597600	0.567200	0.217200
C71	C7	0.171300	0.763900	0.125000
C81	C8	0.308900	0.038800	0.167100
C91	C9	0.531100	0.191300	0.201300
C101	C10	0.719300	0.235100	0.253300
C111	C11	0.636000	0.224700	0.322400
C121	C12	0.600000	0.108900	0.334800
C131	C13	0.402400	0.067200	0.282800
C141	C14	0.828700	0.263900	0.375000
C151	C15	0.308900	0.461200	0.667100
C161	C16	0.531100	0.308700	0.701300
C171	C17	0.719300	0.264900	0.753300
C181	C18	0.636000	0.275300	0.822400
C191	C19	0.600000	0.391100	0.834800
C201	C20	0.402400	0.432800	0.782800
C211	C21	0.828700	0.236100	0.875000
C221	C22	0.691100	0.961200	0.832900
C231	C23	0.468900	0.808700	0.798700
C241	C24	0.280700	0.764900	0.746700
C251	C25	0.364000	0.775300	0.677600
C261	C26	0.400000	0.891100	0.665200
C271	C27	0.597600	0.932800	0.717200
C281	C28	0.171300	0.736100	0.625000
N11	N1	0.508800	0.581300	0.282500
N21	N2	0.491200	0.081300	0.217500
N31	N3	0.491200	0.418700	0.717500
N41	N4	0.508800	0.918700	0.782500
O11	O1	0.540700	0.622700	0.444400
O21	O2	0.821400	0.480800	0.454800
O31	O3	0.374600	0.450300	0.408780
O41	O4	0.001900	0.819100	0.140800
O51	O5	0.198900	0.748900	0.067700
O61	O6	0.459300	0.122700	0.055600
O71	O7	0.178600	0.980800	0.045200
O81	O8	0.625400	0.950300	0.091220
O91	O9	0.998100	0.319100	0.359200
O101	O10	0.801100	0.248900	0.432300
O111	O11	0.459300	0.377300	0.555600
O121	O12	0.178600	0.519200	0.545200
O131	O13	0.625400	0.549700	0.591220
O141	O14	0.998100	0.180900	0.859200
O151	O15	0.801100	0.251100	0.932300
O161	O16	0.540700	0.877300	0.944400
O171	O17	0.821400	0.019200	0.954800
O181	O18	0.374600	0.049700	0.908780
O191	O19	0.001900	0.680900	0.640800
O201	O20	0.198900	0.751100	0.567700
