data_BUKMUQ01_clean_PM
_symmetry_space_group_name_H-M	'P1'
_cell_length_a	10.828500
_cell_length_b	11.193300
_cell_length_c	14.799000
_cell_angle_alpha	90.000000
_cell_angle_beta	90.000000
_cell_angle_gamma	90.000000
_symmetry_Int_Tables_number 1

loop_
_symmetry_equiv_pos_as_xyz
'x,y,z'

loop_
_atom_site_label
_atom_site_type_symbol
_atom_site_fract_x
_atom_site_fract_y
_atom_site_fract_z
Zn11	Zn1	0.342790	0.815770	0.158400
O11	O1	0.260050	0.247180	0.562380
O21	O2	0.106020	0.370470	0.524900
O31	O3	0.403040	0.703870	0.247900
O41	O4	0.210250	0.698360	0.298720
N11	N1	0.497010	0.396890	0.379970
C11	C1	0.464360	0.499090	0.338160
H11	H1	0.522000	0.536300	0.298800
C21	C2	0.416040	0.346010	0.437040
H21	H2	0.438600	0.273900	0.466700
C31	C3	0.301050	0.394900	0.454140
C41	C4	0.267200	0.499500	0.409800
H31	H3	0.188500	0.534500	0.420100
C51	C5	0.350200	0.551790	0.350450
C61	C6	0.212000	0.335600	0.518740
C71	C7	0.315800	0.660900	0.296020
Zn21	Zn2	0.157210	0.184230	0.658400
O51	O5	0.239950	0.752820	0.062380
O61	O6	0.393980	0.629530	0.024900
O71	O7	0.096960	0.296130	0.747900
O81	O8	0.289750	0.301640	0.798720
N21	N2	0.002990	0.603110	0.879970
C81	C8	0.035640	0.500910	0.838160
H41	H4	0.978000	0.463700	0.798800
C91	C9	0.083960	0.653990	0.937040
H51	H5	0.061400	0.726100	0.966700
C101	C10	0.198950	0.605100	0.954140
C111	C11	0.232800	0.500500	0.909800
H61	H6	0.311500	0.465500	0.920100
C121	C12	0.149800	0.448210	0.850450
C131	C13	0.288000	0.664400	0.018740
C141	C14	0.184200	0.339100	0.796020
Zn31	Zn3	0.657210	0.315770	0.341600
O91	O9	0.739950	0.747180	0.937620
O101	O10	0.893980	0.870470	0.975100
O111	O11	0.596960	0.203870	0.252100
O121	O12	0.789750	0.198360	0.201280
N31	N3	0.502990	0.896890	0.120030
C151	C15	0.535640	0.999090	0.161840
H71	H7	0.478000	0.036300	0.201200
C161	C16	0.583960	0.846010	0.062960
H81	H8	0.561400	0.773900	0.033300
C171	C17	0.698950	0.894900	0.045860
C181	C18	0.732800	0.999500	0.090200
H91	H9	0.811500	0.034500	0.079900
C191	C19	0.649800	0.051790	0.149550
C201	C20	0.788000	0.835600	0.981260
C211	C21	0.684200	0.160900	0.203980
Zn41	Zn4	0.842790	0.684230	0.841600
O131	O13	0.760050	0.252820	0.437620
O141	O14	0.606020	0.129530	0.475100
O151	O15	0.903040	0.796130	0.752100
O161	O16	0.710250	0.801640	0.701280
N41	N4	0.997010	0.103110	0.620030
C221	C22	0.964360	0.000910	0.661840
H101	H10	0.022000	0.963700	0.701200
C231	C23	0.916040	0.153990	0.562960
H111	H11	0.938600	0.226100	0.533300
C241	C24	0.801050	0.105100	0.545860
C251	C25	0.767200	0.000500	0.590200
H121	H12	0.688500	0.965500	0.579900
C261	C26	0.850200	0.948210	0.649550
C271	C27	0.712000	0.164400	0.481260
C281	C28	0.815800	0.839100	0.703980
