data_BUKRUW01_clean_PM
_symmetry_space_group_name_H-M	'P1'
_cell_length_a	20.161900
_cell_length_b	20.161900
_cell_length_c	20.161900
_cell_angle_alpha	90.000000
_cell_angle_beta	90.000000
_cell_angle_gamma	90.000000
_symmetry_Int_Tables_number 1

loop_
_symmetry_equiv_pos_as_xyz
'x,y,z'

loop_
_atom_site_label
_atom_site_type_symbol
_atom_site_fract_x
_atom_site_fract_y
_atom_site_fract_z
N11	N1	0.273000	0.737400	0.107800
Zn11	Zn1	0.190080	0.809830	0.195820
N21	N2	0.223070	0.779770	0.102240
C11	C1	0.292900	0.721500	0.047200
N31	N3	0.207700	0.900800	0.219700
N41	N4	0.098600	0.790000	0.219400
C21	C2	0.212100	0.790000	0.038300
H11	H1	0.328000	0.691900	0.036400
C31	C3	0.255200	0.753900	0.004200
C41	C4	0.210000	0.959700	0.213400
C51	C5	0.290800	0.958500	0.289300
H21	H2	0.179000	0.818200	0.020000
C61	C6	0.257700	0.735900	0.932700
H31	H3	0.186400	0.980000	0.178000
C71	C7	0.249700	0.002700	0.260300
H41	H4	0.329900	0.974500	0.310100
O11	O1	0.257100	0.703600	0.891100
C81	C8	0.250600	0.081200	0.264200
Zn21	Zn2	0.304040	0.692290	0.809180
O21	O2	0.217950	0.105330	0.220000
O31	O3	0.291400	0.111500	0.292000
N51	N5	0.227000	0.262600	0.607800
Zn31	Zn3	0.309920	0.190170	0.695820
N61	N6	0.276930	0.220230	0.602240
C91	C9	0.207100	0.278500	0.547200
N71	N7	0.292300	0.099200	0.719700
N81	N8	0.401400	0.210000	0.719400
C101	C10	0.287900	0.210000	0.538300
H51	H5	0.172000	0.308100	0.536400
C111	C11	0.244800	0.246100	0.504200
C121	C12	0.290000	0.040300	0.713400
C131	C13	0.209200	0.041500	0.789300
H61	H6	0.321000	0.181800	0.520000
C141	C14	0.242300	0.264100	0.432700
H71	H7	0.313600	0.020000	0.678000
C151	C15	0.250300	0.997300	0.760300
H81	H8	0.170100	0.025500	0.810100
O41	O4	0.242900	0.296400	0.391100
C161	C16	0.249400	0.918800	0.764200
Zn41	Zn4	0.195960	0.307710	0.309180
O51	O5	0.282050	0.894670	0.720000
O61	O6	0.208600	0.888500	0.792000
N91	N9	0.727000	0.237400	0.392200
Zn51	Zn5	0.809920	0.309830	0.304180
N101	N10	0.776930	0.279770	0.397760
C171	C17	0.707100	0.221500	0.452800
N111	N11	0.792300	0.400800	0.280300
N121	N12	0.901400	0.290000	0.280600
C181	C18	0.787900	0.290000	0.461700
H91	H9	0.672000	0.191900	0.463600
C191	C19	0.744800	0.253900	0.495800
C201	C20	0.790000	0.459700	0.286600
C211	C21	0.709200	0.458500	0.210700
H101	H10	0.821000	0.318200	0.480000
C221	C22	0.742300	0.235900	0.567300
H111	H11	0.813600	0.480000	0.322000
C231	C23	0.750300	0.502700	0.239700
H121	H12	0.670100	0.474500	0.189900
O71	O7	0.742900	0.203600	0.608900
C241	C24	0.749400	0.581200	0.235800
Zn61	Zn6	0.695960	0.192290	0.690820
O81	O8	0.782050	0.605330	0.280000
O91	O9	0.708600	0.611500	0.208000
N131	N13	0.773000	0.762600	0.892200
Zn71	Zn7	0.690080	0.690170	0.804180
N141	N14	0.723070	0.720230	0.897760
C251	C25	0.792900	0.778500	0.952800
N151	N15	0.707700	0.599200	0.780300
N161	N16	0.598600	0.710000	0.780600
C261	C26	0.712100	0.710000	0.961700
H131	H13	0.828000	0.808100	0.963600
C271	C27	0.755200	0.746100	0.995800
C281	C28	0.710000	0.540300	0.786600
C291	C29	0.790800	0.541500	0.710700
H141	H14	0.679000	0.681800	0.980000
C301	C30	0.757700	0.764100	0.067300
H151	H15	0.686400	0.520000	0.822000
C311	C31	0.749700	0.497300	0.739700
H161	H16	0.829900	0.525500	0.689900
O101	O10	0.757100	0.796400	0.108900
C321	C32	0.750600	0.418800	0.735800
Zn81	Zn8	0.804040	0.807710	0.190820
O111	O11	0.717950	0.394670	0.780000
O121	O12	0.791400	0.388500	0.708000
N171	N17	0.107800	0.273000	0.737400
Zn91	Zn9	0.195820	0.190080	0.809830
N181	N18	0.102240	0.223070	0.779770
C331	C33	0.047200	0.292900	0.721500
N191	N19	0.219700	0.207700	0.900800
N201	N20	0.219400	0.098600	0.790000
C341	C34	0.038300	0.212100	0.790000
H171	H17	0.036400	0.328000	0.691900
C351	C35	0.004200	0.255200	0.753900
C361	C36	0.213400	0.210000	0.959700
C371	C37	0.289300	0.290800	0.958500
H181	H18	0.020000	0.179000	0.818200
C381	C38	0.932700	0.257700	0.735900
H191	H19	0.178000	0.186400	0.980000
C391	C39	0.260300	0.249700	0.002700
H201	H20	0.310100	0.329900	0.974500
O131	O13	0.891100	0.257100	0.703600
C401	C40	0.264200	0.250600	0.081200
Zn101	Zn10	0.809180	0.304040	0.692290
O141	O14	0.220000	0.217950	0.105330
O151	O15	0.292000	0.291400	0.111500
N211	N21	0.607800	0.227000	0.262600
Zn111	Zn11	0.695820	0.309920	0.190170
N221	N22	0.602240	0.276930	0.220230
C411	C41	0.547200	0.207100	0.278500
N231	N23	0.719700	0.292300	0.099200
N241	N24	0.719400	0.401400	0.210000
C421	C42	0.538300	0.287900	0.210000
H211	H21	0.536400	0.172000	0.308100
C431	C43	0.504200	0.244800	0.246100
C441	C44	0.713400	0.290000	0.040300
C451	C45	0.789300	0.209200	0.041500
H221	H22	0.520000	0.321000	0.181800
C461	C46	0.432700	0.242300	0.264100
H231	H23	0.678000	0.313600	0.020000
C471	C47	0.760300	0.250300	0.997300
H241	H24	0.810100	0.170100	0.025500
O161	O16	0.391100	0.242900	0.296400
C481	C48	0.764200	0.249400	0.918800
Zn121	Zn12	0.309180	0.195960	0.307710
O171	O17	0.720000	0.282050	0.894670
O181	O18	0.792000	0.208600	0.888500
N251	N25	0.392200	0.727000	0.237400
Zn131	Zn13	0.304180	0.809920	0.309830
N261	N26	0.397760	0.776930	0.279770
C491	C49	0.452800	0.707100	0.221500
N271	N27	0.280300	0.792300	0.400800
N281	N28	0.280600	0.901400	0.290000
C501	C50	0.461700	0.787900	0.290000
H251	H25	0.463600	0.672000	0.191900
C511	C51	0.495800	0.744800	0.253900
C521	C52	0.286600	0.790000	0.459700
C531	C53	0.210700	0.709200	0.458500
H261	H26	0.480000	0.821000	0.318200
C541	C54	0.567300	0.742300	0.235900
H271	H27	0.322000	0.813600	0.480000
C551	C55	0.239700	0.750300	0.502700
H281	H28	0.189900	0.670100	0.474500
O191	O19	0.608900	0.742900	0.203600
C561	C56	0.235800	0.749400	0.581200
Zn141	Zn14	0.690820	0.695960	0.192290
O201	O20	0.280000	0.782050	0.605330
O211	O21	0.208000	0.708600	0.611500
N291	N29	0.892200	0.773000	0.762600
Zn151	Zn15	0.804180	0.690080	0.690170
N301	N30	0.897760	0.723070	0.720230
C571	C57	0.952800	0.792900	0.778500
N311	N31	0.780300	0.707700	0.599200
N321	N32	0.780600	0.598600	0.710000
C581	C58	0.961700	0.712100	0.710000
H291	H29	0.963600	0.828000	0.808100
C591	C59	0.995800	0.755200	0.746100
C601	C60	0.786600	0.710000	0.540300
C611	C61	0.710700	0.790800	0.541500
H301	H30	0.980000	0.679000	0.681800
C621	C62	0.067300	0.757700	0.764100
H311	H31	0.822000	0.686400	0.520000
C631	C63	0.739700	0.749700	0.497300
H321	H32	0.689900	0.829900	0.525500
O221	O22	0.108900	0.757100	0.796400
C641	C64	0.735800	0.750600	0.418800
Zn161	Zn16	0.190820	0.804040	0.807710
O231	O23	0.780000	0.717950	0.394670
O241	O24	0.708000	0.791400	0.388500
N331	N33	0.737400	0.107800	0.273000
Zn171	Zn17	0.809830	0.195820	0.190080
N341	N34	0.779770	0.102240	0.223070
C651	C65	0.721500	0.047200	0.292900
N351	N35	0.900800	0.219700	0.207700
N361	N36	0.790000	0.219400	0.098600
C661	C66	0.790000	0.038300	0.212100
H331	H33	0.691900	0.036400	0.328000
C671	C67	0.753900	0.004200	0.255200
C681	C68	0.959700	0.213400	0.210000
C691	C69	0.958500	0.289300	0.290800
H341	H34	0.818200	0.020000	0.179000
C701	C70	0.735900	0.932700	0.257700
H351	H35	0.980000	0.178000	0.186400
C711	C71	0.002700	0.260300	0.249700
H361	H36	0.974500	0.310100	0.329900
O251	O25	0.703600	0.891100	0.257100
C721	C72	0.081200	0.264200	0.250600
Zn181	Zn18	0.692290	0.809180	0.304040
O261	O26	0.105330	0.220000	0.217950
O271	O27	0.111500	0.292000	0.291400
N371	N37	0.262600	0.607800	0.227000
Zn191	Zn19	0.190170	0.695820	0.309920
N381	N38	0.220230	0.602240	0.276930
C731	C73	0.278500	0.547200	0.207100
N391	N39	0.099200	0.719700	0.292300
N401	N40	0.210000	0.719400	0.401400
C741	C74	0.210000	0.538300	0.287900
H371	H37	0.308100	0.536400	0.172000
C751	C75	0.246100	0.504200	0.244800
C761	C76	0.040300	0.713400	0.290000
C771	C77	0.041500	0.789300	0.209200
H381	H38	0.181800	0.520000	0.321000
C781	C78	0.264100	0.432700	0.242300
H391	H39	0.020000	0.678000	0.313600
C791	C79	0.997300	0.760300	0.250300
H401	H40	0.025500	0.810100	0.170100
O281	O28	0.296400	0.391100	0.242900
C801	C80	0.918800	0.764200	0.249400
Zn201	Zn20	0.307710	0.309180	0.195960
O291	O29	0.894670	0.720000	0.282050
O301	O30	0.888500	0.792000	0.208600
N411	N41	0.237400	0.392200	0.727000
Zn211	Zn21	0.309830	0.304180	0.809920
N421	N42	0.279770	0.397760	0.776930
C811	C81	0.221500	0.452800	0.707100
N431	N43	0.400800	0.280300	0.792300
N441	N44	0.290000	0.280600	0.901400
C821	C82	0.290000	0.461700	0.787900
H411	H41	0.191900	0.463600	0.672000
C831	C83	0.253900	0.495800	0.744800
C841	C84	0.459700	0.286600	0.790000
C851	C85	0.458500	0.210700	0.709200
H421	H42	0.318200	0.480000	0.821000
C861	C86	0.235900	0.567300	0.742300
H431	H43	0.480000	0.322000	0.813600
C871	C87	0.502700	0.239700	0.750300
H441	H44	0.474500	0.189900	0.670100
O311	O31	0.203600	0.608900	0.742900
C881	C88	0.581200	0.235800	0.749400
Zn221	Zn22	0.192290	0.690820	0.695960
O321	O32	0.605330	0.280000	0.782050
O331	O33	0.611500	0.208000	0.708600
N451	N45	0.762600	0.892200	0.773000
Zn231	Zn23	0.690170	0.804180	0.690080
N461	N46	0.720230	0.897760	0.723070
C891	C89	0.778500	0.952800	0.792900
N471	N47	0.599200	0.780300	0.707700
N481	N48	0.710000	0.780600	0.598600
C901	C90	0.710000	0.961700	0.712100
H451	H45	0.808100	0.963600	0.828000
C911	C91	0.746100	0.995800	0.755200
C921	C92	0.540300	0.786600	0.710000
C931	C93	0.541500	0.710700	0.790800
H461	H46	0.681800	0.980000	0.679000
C941	C94	0.764100	0.067300	0.757700
H471	H47	0.520000	0.822000	0.686400
C951	C95	0.497300	0.739700	0.749700
H481	H48	0.525500	0.689900	0.829900
O341	O34	0.796400	0.108900	0.757100
C961	C96	0.418800	0.735800	0.750600
Zn241	Zn24	0.807710	0.190820	0.804040
O351	O35	0.394670	0.780000	0.717950
O361	O36	0.388500	0.708000	0.791400
Zn251	Zn25	0.300800	0.699200	0.199200
O371	O37	0.244860	0.755140	0.255140
Zn261	Zn26	0.199200	0.300800	0.699200
O381	O38	0.255140	0.244860	0.755140
Zn271	Zn27	0.699200	0.199200	0.300800
O391	O39	0.755140	0.255140	0.244860
Zn281	Zn28	0.800800	0.800800	0.800800
O401	O40	0.744860	0.744860	0.744860
O411	O41	0.244400	0.744400	0.755600
O421	O42	0.255600	0.255600	0.255600
O431	O43	0.755600	0.244400	0.744400
O441	O44	0.744400	0.755600	0.244400
Zn291	Zn29	0.196620	0.196620	0.196620
Zn301	Zn30	0.303380	0.803380	0.696620
Zn311	Zn31	0.803380	0.696620	0.303380
Zn321	Zn32	0.696620	0.303380	0.803380
