data_BUKRUW03_clean_PM
_symmetry_space_group_name_H-M	'P1'
_cell_length_a	20.140500
_cell_length_b	20.140500
_cell_length_c	20.140500
_cell_angle_alpha	90.000000
_cell_angle_beta	90.000000
_cell_angle_gamma	90.000000
_symmetry_Int_Tables_number 1

loop_
_symmetry_equiv_pos_as_xyz
'x,y,z'

loop_
_atom_site_label
_atom_site_type_symbol
_atom_site_fract_x
_atom_site_fract_y
_atom_site_fract_z
Zn11	Zn1	0.303300	0.808900	0.196970
Zn21	Zn2	0.303320	0.804040	0.807940
C11	C1	0.209900	0.708000	0.963800
H11	H1	0.183000	0.672100	0.978400
C21	C2	0.241500	0.752600	0.005400
C31	C3	0.238800	0.755700	0.074800
C41	C4	0.290200	0.779800	0.961300
H21	H2	0.330700	0.799700	0.974800
C51	C5	0.237300	0.952610	0.710600
H31	H3	0.235300	0.956400	0.663600
C61	C6	0.293300	0.969760	0.784100
H41	H4	0.325200	0.989200	0.812900
C71	C7	0.250900	0.003300	0.736600
N11	N1	0.270400	0.773000	0.898100
N21	N2	0.222300	0.722200	0.900900
N31	N3	0.225300	0.896400	0.729800
N41	N4	0.275400	0.896900	0.777800
O11	O1	0.277700	0.792200	0.105800
O21	O2	0.204700	0.726800	0.106500
Zn31	Zn3	0.196700	0.191100	0.696970
Zn41	Zn4	0.196680	0.195960	0.307940
C81	C8	0.290100	0.292000	0.463800
H51	H5	0.317000	0.327900	0.478400
C91	C9	0.258500	0.247400	0.505400
C101	C10	0.261200	0.244300	0.574800
C111	C11	0.209800	0.220200	0.461300
H61	H6	0.169300	0.200300	0.474800
C121	C12	0.262700	0.047390	0.210600
H71	H7	0.264700	0.043600	0.163600
C131	C13	0.206700	0.030240	0.284100
H81	H8	0.174800	0.010800	0.312900
C141	C14	0.249100	0.996700	0.236600
N51	N5	0.229600	0.227000	0.398100
N61	N6	0.277700	0.277800	0.400900
N71	N7	0.274700	0.103600	0.229800
N81	N8	0.224600	0.103100	0.277800
O31	O3	0.222300	0.207800	0.605800
O41	O4	0.295300	0.273200	0.606500
Zn51	Zn5	0.696700	0.308900	0.303030
Zn61	Zn6	0.696680	0.304040	0.692060
C151	C15	0.790100	0.208000	0.536200
H91	H9	0.817000	0.172100	0.521600
C161	C16	0.758500	0.252600	0.494600
C171	C17	0.761200	0.255700	0.425200
C181	C18	0.709800	0.279800	0.538700
H101	H10	0.669300	0.299700	0.525200
C191	C19	0.762700	0.452610	0.789400
H111	H11	0.764700	0.456400	0.836400
C201	C20	0.706700	0.469760	0.715900
H121	H12	0.674800	0.489200	0.687100
C211	C21	0.749100	0.503300	0.763400
N91	N9	0.729600	0.273000	0.601900
N101	N10	0.777700	0.222200	0.599100
N111	N11	0.774700	0.396400	0.770200
N121	N12	0.724600	0.396900	0.722200
O51	O5	0.722300	0.292200	0.394200
O61	O6	0.795300	0.226800	0.393500
Zn71	Zn7	0.803300	0.691100	0.803030
Zn81	Zn8	0.803320	0.695960	0.192060
C221	C22	0.709900	0.792000	0.036200
H131	H13	0.683000	0.827900	0.021600
C231	C23	0.741500	0.747400	0.994600
C241	C24	0.738800	0.744300	0.925200
C251	C25	0.790200	0.720200	0.038700
H141	H14	0.830700	0.700300	0.025200
C261	C26	0.737300	0.547390	0.289400
H151	H15	0.735300	0.543600	0.336400
C271	C27	0.793300	0.530240	0.215900
H161	H16	0.825200	0.510800	0.187100
C281	C28	0.750900	0.496700	0.263400
N131	N13	0.770400	0.727000	0.101900
N141	N14	0.722300	0.777800	0.099100
N151	N15	0.725300	0.603600	0.270200
N161	N16	0.775400	0.603100	0.222200
O71	O7	0.777700	0.707800	0.894200
O81	O8	0.704700	0.773200	0.893500
Zn91	Zn9	0.196970	0.303300	0.808900
Zn101	Zn10	0.807940	0.303320	0.804040
C291	C29	0.963800	0.209900	0.708000
H171	H17	0.978400	0.183000	0.672100
C301	C30	0.005400	0.241500	0.752600
C311	C31	0.074800	0.238800	0.755700
C321	C32	0.961300	0.290200	0.779800
H181	H18	0.974800	0.330700	0.799700
C331	C33	0.710600	0.237300	0.952610
H191	H19	0.663600	0.235300	0.956400
C341	C34	0.784100	0.293300	0.969760
H201	H20	0.812900	0.325200	0.989200
C351	C35	0.736600	0.250900	0.003300
N171	N17	0.898100	0.270400	0.773000
N181	N18	0.900900	0.222300	0.722200
N191	N19	0.729800	0.225300	0.896400
N201	N20	0.777800	0.275400	0.896900
O91	O9	0.105800	0.277700	0.792200
O101	O10	0.106500	0.204700	0.726800
Zn111	Zn11	0.696970	0.196700	0.191100
Zn121	Zn12	0.307940	0.196680	0.195960
C361	C36	0.463800	0.290100	0.292000
H211	H21	0.478400	0.317000	0.327900
C371	C37	0.505400	0.258500	0.247400
C381	C38	0.574800	0.261200	0.244300
C391	C39	0.461300	0.209800	0.220200
H221	H22	0.474800	0.169300	0.200300
C401	C40	0.210600	0.262700	0.047390
H231	H23	0.163600	0.264700	0.043600
C411	C41	0.284100	0.206700	0.030240
H241	H24	0.312900	0.174800	0.010800
C421	C42	0.236600	0.249100	0.996700
N211	N21	0.398100	0.229600	0.227000
N221	N22	0.400900	0.277700	0.277800
N231	N23	0.229800	0.274700	0.103600
N241	N24	0.277800	0.224600	0.103100
O111	O11	0.605800	0.222300	0.207800
O121	O12	0.606500	0.295300	0.273200
Zn131	Zn13	0.303030	0.696700	0.308900
Zn141	Zn14	0.692060	0.696680	0.304040
C431	C43	0.536200	0.790100	0.208000
H251	H25	0.521600	0.817000	0.172100
C441	C44	0.494600	0.758500	0.252600
C451	C45	0.425200	0.761200	0.255700
C461	C46	0.538700	0.709800	0.279800
H261	H26	0.525200	0.669300	0.299700
C471	C47	0.789400	0.762700	0.452610
H271	H27	0.836400	0.764700	0.456400
C481	C48	0.715900	0.706700	0.469760
H281	H28	0.687100	0.674800	0.489200
C491	C49	0.763400	0.749100	0.503300
N251	N25	0.601900	0.729600	0.273000
N261	N26	0.599100	0.777700	0.222200
N271	N27	0.770200	0.774700	0.396400
N281	N28	0.722200	0.724600	0.396900
O131	O13	0.394200	0.722300	0.292200
O141	O14	0.393500	0.795300	0.226800
Zn151	Zn15	0.803030	0.803300	0.691100
Zn161	Zn16	0.192060	0.803320	0.695960
C501	C50	0.036200	0.709900	0.792000
H291	H29	0.021600	0.683000	0.827900
C511	C51	0.994600	0.741500	0.747400
C521	C52	0.925200	0.738800	0.744300
C531	C53	0.038700	0.790200	0.720200
H301	H30	0.025200	0.830700	0.700300
C541	C54	0.289400	0.737300	0.547390
H311	H31	0.336400	0.735300	0.543600
C551	C55	0.215900	0.793300	0.530240
H321	H32	0.187100	0.825200	0.510800
C561	C56	0.263400	0.750900	0.496700
N291	N29	0.101900	0.770400	0.727000
N301	N30	0.099100	0.722300	0.777800
N311	N31	0.270200	0.725300	0.603600
N321	N32	0.222200	0.775400	0.603100
O151	O15	0.894200	0.777700	0.707800
O161	O16	0.893500	0.704700	0.773200
Zn171	Zn17	0.808900	0.196970	0.303300
Zn181	Zn18	0.804040	0.807940	0.303320
C571	C57	0.708000	0.963800	0.209900
H331	H33	0.672100	0.978400	0.183000
C581	C58	0.752600	0.005400	0.241500
C591	C59	0.755700	0.074800	0.238800
C601	C60	0.779800	0.961300	0.290200
H341	H34	0.799700	0.974800	0.330700
C611	C61	0.952610	0.710600	0.237300
H351	H35	0.956400	0.663600	0.235300
C621	C62	0.969760	0.784100	0.293300
H361	H36	0.989200	0.812900	0.325200
C631	C63	0.003300	0.736600	0.250900
N331	N33	0.773000	0.898100	0.270400
N341	N34	0.722200	0.900900	0.222300
N351	N35	0.896400	0.729800	0.225300
N361	N36	0.896900	0.777800	0.275400
O171	O17	0.792200	0.105800	0.277700
O181	O18	0.726800	0.106500	0.204700
Zn191	Zn19	0.191100	0.696970	0.196700
Zn201	Zn20	0.195960	0.307940	0.196680
C641	C64	0.292000	0.463800	0.290100
H371	H37	0.327900	0.478400	0.317000
C651	C65	0.247400	0.505400	0.258500
C661	C66	0.244300	0.574800	0.261200
C671	C67	0.220200	0.461300	0.209800
H381	H38	0.200300	0.474800	0.169300
C681	C68	0.047390	0.210600	0.262700
H391	H39	0.043600	0.163600	0.264700
C691	C69	0.030240	0.284100	0.206700
H401	H40	0.010800	0.312900	0.174800
C701	C70	0.996700	0.236600	0.249100
N371	N37	0.227000	0.398100	0.229600
N381	N38	0.277800	0.400900	0.277700
N391	N39	0.103600	0.229800	0.274700
N401	N40	0.103100	0.277800	0.224600
O191	O19	0.207800	0.605800	0.222300
O201	O20	0.273200	0.606500	0.295300
Zn211	Zn21	0.308900	0.303030	0.696700
Zn221	Zn22	0.304040	0.692060	0.696680
C711	C71	0.208000	0.536200	0.790100
H411	H41	0.172100	0.521600	0.817000
C721	C72	0.252600	0.494600	0.758500
C731	C73	0.255700	0.425200	0.761200
C741	C74	0.279800	0.538700	0.709800
H421	H42	0.299700	0.525200	0.669300
C751	C75	0.452610	0.789400	0.762700
H431	H43	0.456400	0.836400	0.764700
C761	C76	0.469760	0.715900	0.706700
H441	H44	0.489200	0.687100	0.674800
C771	C77	0.503300	0.763400	0.749100
N411	N41	0.273000	0.601900	0.729600
N421	N42	0.222200	0.599100	0.777700
N431	N43	0.396400	0.770200	0.774700
N441	N44	0.396900	0.722200	0.724600
O211	O21	0.292200	0.394200	0.722300
O221	O22	0.226800	0.393500	0.795300
Zn231	Zn23	0.691100	0.803030	0.803300
Zn241	Zn24	0.695960	0.192060	0.803320
C781	C78	0.792000	0.036200	0.709900
H451	H45	0.827900	0.021600	0.683000
C791	C79	0.747400	0.994600	0.741500
C801	C80	0.744300	0.925200	0.738800
C811	C81	0.720200	0.038700	0.790200
H461	H46	0.700300	0.025200	0.830700
C821	C82	0.547390	0.289400	0.737300
H471	H47	0.543600	0.336400	0.735300
C831	C83	0.530240	0.215900	0.793300
H481	H48	0.510800	0.187100	0.825200
C841	C84	0.496700	0.263400	0.750900
N451	N45	0.727000	0.101900	0.770400
N461	N46	0.777800	0.099100	0.722300
N471	N47	0.603600	0.270200	0.725300
N481	N48	0.603100	0.222200	0.775400
O231	O23	0.707800	0.894200	0.777700
O241	O24	0.773200	0.893500	0.704700
Zn251	Zn25	0.190330	0.690330	0.809670
O251	O25	0.248300	0.748300	0.751700
Zn261	Zn26	0.309670	0.309670	0.309670
O261	O26	0.251700	0.251700	0.251700
Zn271	Zn27	0.809670	0.190330	0.690330
O271	O27	0.751700	0.248300	0.748300
Zn281	Zn28	0.690330	0.809670	0.190330
O281	O28	0.748300	0.751700	0.248300
O291	O29	0.245700	0.754300	0.254300
O301	O30	0.254300	0.245700	0.754300
O311	O31	0.754300	0.254300	0.245700
O321	O32	0.745700	0.745700	0.745700
