data_BUPDUM_clean_PM
_symmetry_space_group_name_H-M	'P1'
_cell_length_a	36.577000
_cell_length_b	36.577000
_cell_length_c	36.577000
_cell_angle_alpha	90.000000
_cell_angle_beta	90.000000
_cell_angle_gamma	90.000000
_symmetry_Int_Tables_number 1

loop_
_symmetry_equiv_pos_as_xyz
'x,y,z'

loop_
_atom_site_label
_atom_site_type_symbol
_atom_site_fract_x
_atom_site_fract_y
_atom_site_fract_z
Cu11	Cu1	0.891210	0.668820	0.585990
Cu21	Cu2	0.953480	0.731250	0.554810
S11	S1	0.967860	0.711440	0.457470
S21	S2	0.831650	0.683910	0.601060
N11	N1	0.930640	0.695170	0.520980
N21	N2	0.903940	0.669920	0.533040
N31	N3	0.915530	0.660520	0.474980
H11	H1	0.914700	0.651100	0.453500
N41	N4	0.870510	0.622370	0.503960
H21	H2	0.858200	0.617200	0.523300
H31	H3	0.866900	0.610300	0.484100
N51	N5	0.805370	0.618740	0.573520
N61	N6	0.781590	0.607140	0.546110
N71	N7	0.784220	0.667220	0.545310
H41	H4	0.780600	0.689600	0.539100
N81	N8	0.744600	0.638900	0.502000
H51	H5	0.735500	0.619100	0.493200
H61	H6	0.738100	0.659700	0.493200
C11	C1	0.936680	0.689030	0.486060
C21	C2	0.896060	0.649920	0.504780
C31	C3	0.806290	0.654910	0.572740
C41	C4	0.769270	0.637340	0.530000
Cu31	Cu3	0.891210	0.168820	0.085990
Cu41	Cu4	0.953480	0.231250	0.054810
S31	S3	0.967860	0.211440	0.957470
S41	S4	0.831650	0.183910	0.101060
N91	N9	0.930640	0.195170	0.020980
N101	N10	0.903940	0.169920	0.033040
N111	N11	0.915530	0.160520	0.974980
H71	H7	0.914700	0.151100	0.953500
N121	N12	0.870510	0.122370	0.003960
H81	H8	0.858200	0.117200	0.023300
H91	H9	0.866900	0.110300	0.984100
N131	N13	0.805370	0.118740	0.073520
N141	N14	0.781590	0.107140	0.046110
N151	N15	0.784220	0.167220	0.045310
H101	H10	0.780600	0.189600	0.039100
N161	N16	0.744600	0.138900	0.002000
H111	H11	0.735500	0.119100	0.993200
H121	H12	0.738100	0.159700	0.993200
C51	C5	0.936680	0.189030	0.986060
C61	C6	0.896060	0.149920	0.004780
C71	C7	0.806290	0.154910	0.072740
C81	C8	0.769270	0.137340	0.030000
Cu51	Cu5	0.391210	0.668820	0.085990
Cu61	Cu6	0.453480	0.731250	0.054810
S51	S5	0.467860	0.711440	0.957470
S61	S6	0.331650	0.683910	0.101060
N171	N17	0.430640	0.695170	0.020980
N181	N18	0.403940	0.669920	0.033040
N191	N19	0.415530	0.660520	0.974980
H131	H13	0.414700	0.651100	0.953500
N201	N20	0.370510	0.622370	0.003960
H141	H14	0.358200	0.617200	0.023300
H151	H15	0.366900	0.610300	0.984100
N211	N21	0.305370	0.618740	0.073520
N221	N22	0.281590	0.607140	0.046110
N231	N23	0.284220	0.667220	0.045310
H161	H16	0.280600	0.689600	0.039100
N241	N24	0.244600	0.638900	0.002000
H171	H17	0.235500	0.619100	0.993200
H181	H18	0.238100	0.659700	0.993200
C91	C9	0.436680	0.689030	0.986060
C101	C10	0.396060	0.649920	0.004780
C111	C11	0.306290	0.654910	0.072740
C121	C12	0.269270	0.637340	0.030000
Cu71	Cu7	0.391210	0.168820	0.585990
Cu81	Cu8	0.453480	0.231250	0.554810
S71	S7	0.467860	0.211440	0.457470
S81	S8	0.331650	0.183910	0.601060
N251	N25	0.430640	0.195170	0.520980
N261	N26	0.403940	0.169920	0.533040
N271	N27	0.415530	0.160520	0.474980
H191	H19	0.414700	0.151100	0.453500
N281	N28	0.370510	0.122370	0.503960
H201	H20	0.358200	0.117200	0.523300
H211	H21	0.366900	0.110300	0.484100
N291	N29	0.305370	0.118740	0.573520
N301	N30	0.281590	0.107140	0.546110
N311	N31	0.284220	0.167220	0.545310
H221	H22	0.280600	0.189600	0.539100
N321	N32	0.244600	0.138900	0.502000
H231	H23	0.235500	0.119100	0.493200
H241	H24	0.238100	0.159700	0.493200
C131	C13	0.436680	0.189030	0.486060
C141	C14	0.396060	0.149920	0.504780
C151	C15	0.306290	0.154910	0.572740
C161	C16	0.269270	0.137340	0.530000
Cu91	Cu9	0.108790	0.331180	0.585990
Cu101	Cu10	0.046520	0.268750	0.554810
S91	S9	0.032140	0.288560	0.457470
S101	S10	0.168350	0.316090	0.601060
N331	N33	0.069360	0.304830	0.520980
N341	N34	0.096060	0.330080	0.533040
N351	N35	0.084470	0.339480	0.474980
H251	H25	0.085300	0.348900	0.453500
N361	N36	0.129490	0.377630	0.503960
H261	H26	0.141800	0.382800	0.523300
H271	H27	0.133100	0.389700	0.484100
N371	N37	0.194630	0.381260	0.573520
N381	N38	0.218410	0.392860	0.546110
N391	N39	0.215780	0.332780	0.545310
H281	H28	0.219400	0.310400	0.539100
N401	N40	0.255400	0.361100	0.502000
H291	H29	0.264500	0.380900	0.493200
H301	H30	0.261900	0.340300	0.493200
C171	C17	0.063320	0.310970	0.486060
C181	C18	0.103940	0.350080	0.504780
C191	C19	0.193710	0.345090	0.572740
C201	C20	0.230730	0.362660	0.530000
Cu111	Cu11	0.108790	0.831180	0.085990
Cu121	Cu12	0.046520	0.768750	0.054810
S111	S11	0.032140	0.788560	0.957470
S121	S12	0.168350	0.816090	0.101060
N411	N41	0.069360	0.804830	0.020980
N421	N42	0.096060	0.830080	0.033040
N431	N43	0.084470	0.839480	0.974980
H311	H31	0.085300	0.848900	0.953500
N441	N44	0.129490	0.877630	0.003960
H321	H32	0.141800	0.882800	0.023300
H331	H33	0.133100	0.889700	0.984100
N451	N45	0.194630	0.881260	0.073520
N461	N46	0.218410	0.892860	0.046110
N471	N47	0.215780	0.832780	0.045310
H341	H34	0.219400	0.810400	0.039100
N481	N48	0.255400	0.861100	0.002000
H351	H35	0.264500	0.880900	0.993200
H361	H36	0.261900	0.840300	0.993200
C211	C21	0.063320	0.810970	0.986060
C221	C22	0.103940	0.850080	0.004780
C231	C23	0.193710	0.845090	0.072740
C241	C24	0.230730	0.862660	0.030000
Cu131	Cu13	0.608790	0.331180	0.085990
Cu141	Cu14	0.546520	0.268750	0.054810
S131	S13	0.532140	0.288560	0.957470
S141	S14	0.668350	0.316090	0.101060
N491	N49	0.569360	0.304830	0.020980
N501	N50	0.596060	0.330080	0.033040
N511	N51	0.584470	0.339480	0.974980
H371	H37	0.585300	0.348900	0.953500
N521	N52	0.629490	0.377630	0.003960
H381	H38	0.641800	0.382800	0.023300
H391	H39	0.633100	0.389700	0.984100
N531	N53	0.694630	0.381260	0.073520
N541	N54	0.718410	0.392860	0.046110
N551	N55	0.715780	0.332780	0.045310
H401	H40	0.719400	0.310400	0.039100
N561	N56	0.755400	0.361100	0.002000
H411	H41	0.764500	0.380900	0.993200
H421	H42	0.761900	0.340300	0.993200
C251	C25	0.563320	0.310970	0.986060
C261	C26	0.603940	0.350080	0.004780
C271	C27	0.693710	0.345090	0.072740
C281	C28	0.730730	0.362660	0.030000
Cu151	Cu15	0.608790	0.831180	0.585990
Cu161	Cu16	0.546520	0.768750	0.554810
S151	S15	0.532140	0.788560	0.457470
S161	S16	0.668350	0.816090	0.601060
N571	N57	0.569360	0.804830	0.520980
N581	N58	0.596060	0.830080	0.533040
N591	N59	0.584470	0.839480	0.474980
H431	H43	0.585300	0.848900	0.453500
N601	N60	0.629490	0.877630	0.503960
H441	H44	0.641800	0.882800	0.523300
H451	H45	0.633100	0.889700	0.484100
N611	N61	0.694630	0.881260	0.573520
N621	N62	0.718410	0.892860	0.546110
N631	N63	0.715780	0.832780	0.545310
H461	H46	0.719400	0.810400	0.539100
N641	N64	0.755400	0.861100	0.502000
H471	H47	0.764500	0.880900	0.493200
H481	H48	0.761900	0.840300	0.493200
C291	C29	0.563320	0.810970	0.486060
C301	C30	0.603940	0.850080	0.504780
C311	C31	0.693710	0.845090	0.572740
C321	C32	0.730730	0.862660	0.530000
Cu171	Cu17	0.108790	0.668820	0.414010
Cu181	Cu18	0.046520	0.731250	0.445190
S171	S17	0.032140	0.711440	0.542530
S181	S18	0.168350	0.683910	0.398940
N651	N65	0.069360	0.695170	0.479020
N661	N66	0.096060	0.669920	0.466960
N671	N67	0.084470	0.660520	0.525020
H491	H49	0.085300	0.651100	0.546500
N681	N68	0.129490	0.622370	0.496040
H501	H50	0.141800	0.617200	0.476700
H511	H51	0.133100	0.610300	0.515900
N691	N69	0.194630	0.618740	0.426480
N701	N70	0.218410	0.607140	0.453890
N711	N71	0.215780	0.667220	0.454690
H521	H52	0.219400	0.689600	0.460900
N721	N72	0.255400	0.638900	0.498000
H531	H53	0.264500	0.619100	0.506800
H541	H54	0.261900	0.659700	0.506800
C331	C33	0.063320	0.689030	0.513940
C341	C34	0.103940	0.649920	0.495220
C351	C35	0.193710	0.654910	0.427260
C361	C36	0.230730	0.637340	0.470000
Cu191	Cu19	0.108790	0.168820	0.914010
Cu201	Cu20	0.046520	0.231250	0.945190
S191	S19	0.032140	0.211440	0.042530
S201	S20	0.168350	0.183910	0.898940
N731	N73	0.069360	0.195170	0.979020
N741	N74	0.096060	0.169920	0.966960
N751	N75	0.084470	0.160520	0.025020
H551	H55	0.085300	0.151100	0.046500
N761	N76	0.129490	0.122370	0.996040
H561	H56	0.141800	0.117200	0.976700
H571	H57	0.133100	0.110300	0.015900
N771	N77	0.194630	0.118740	0.926480
N781	N78	0.218410	0.107140	0.953890
N791	N79	0.215780	0.167220	0.954690
H581	H58	0.219400	0.189600	0.960900
N801	N80	0.255400	0.138900	0.998000
H591	H59	0.264500	0.119100	0.006800
H601	H60	0.261900	0.159700	0.006800
C371	C37	0.063320	0.189030	0.013940
C381	C38	0.103940	0.149920	0.995220
C391	C39	0.193710	0.154910	0.927260
C401	C40	0.230730	0.137340	0.970000
Cu211	Cu21	0.608790	0.668820	0.914010
Cu221	Cu22	0.546520	0.731250	0.945190
S211	S21	0.532140	0.711440	0.042530
S221	S22	0.668350	0.683910	0.898940
N811	N81	0.569360	0.695170	0.979020
N821	N82	0.596060	0.669920	0.966960
N831	N83	0.584470	0.660520	0.025020
H611	H61	0.585300	0.651100	0.046500
N841	N84	0.629490	0.622370	0.996040
H621	H62	0.641800	0.617200	0.976700
H631	H63	0.633100	0.610300	0.015900
N851	N85	0.694630	0.618740	0.926480
N861	N86	0.718410	0.607140	0.953890
N871	N87	0.715780	0.667220	0.954690
H641	H64	0.719400	0.689600	0.960900
N881	N88	0.755400	0.638900	0.998000
H651	H65	0.764500	0.619100	0.006800
H661	H66	0.761900	0.659700	0.006800
C411	C41	0.563320	0.689030	0.013940
C421	C42	0.603940	0.649920	0.995220
C431	C43	0.693710	0.654910	0.927260
C441	C44	0.730730	0.637340	0.970000
Cu231	Cu23	0.608790	0.168820	0.414010
Cu241	Cu24	0.546520	0.231250	0.445190
S231	S23	0.532140	0.211440	0.542530
S241	S24	0.668350	0.183910	0.398940
N891	N89	0.569360	0.195170	0.479020
N901	N90	0.596060	0.169920	0.466960
N911	N91	0.584470	0.160520	0.525020
H671	H67	0.585300	0.151100	0.546500
N921	N92	0.629490	0.122370	0.496040
H681	H68	0.641800	0.117200	0.476700
H691	H69	0.633100	0.110300	0.515900
N931	N93	0.694630	0.118740	0.426480
N941	N94	0.718410	0.107140	0.453890
N951	N95	0.715780	0.167220	0.454690
H701	H70	0.719400	0.189600	0.460900
N961	N96	0.755400	0.138900	0.498000
H711	H71	0.764500	0.119100	0.506800
H721	H72	0.761900	0.159700	0.506800
C451	C45	0.563320	0.189030	0.513940
C461	C46	0.603940	0.149920	0.495220
C471	C47	0.693710	0.154910	0.427260
C481	C48	0.730730	0.137340	0.470000
Cu251	Cu25	0.891210	0.331180	0.414010
Cu261	Cu26	0.953480	0.268750	0.445190
S251	S25	0.967860	0.288560	0.542530
S261	S26	0.831650	0.316090	0.398940
N971	N97	0.930640	0.304830	0.479020
N981	N98	0.903940	0.330080	0.466960
N991	N99	0.915530	0.339480	0.525020
H731	H73	0.914700	0.348900	0.546500
N1001	N100	0.870510	0.377630	0.496040
H741	H74	0.858200	0.382800	0.476700
H751	H75	0.866900	0.389700	0.515900
N1011	N101	0.805370	0.381260	0.426480
N1021	N102	0.781590	0.392860	0.453890
N1031	N103	0.784220	0.332780	0.454690
H761	H76	0.780600	0.310400	0.460900
N1041	N104	0.744600	0.361100	0.498000
H771	H77	0.735500	0.380900	0.506800
H781	H78	0.738100	0.340300	0.506800
C491	C49	0.936680	0.310970	0.513940
C501	C50	0.896060	0.350080	0.495220
C511	C51	0.806290	0.345090	0.427260
C521	C52	0.769270	0.362660	0.470000
Cu271	Cu27	0.891210	0.831180	0.914010
Cu281	Cu28	0.953480	0.768750	0.945190
S271	S27	0.967860	0.788560	0.042530
S281	S28	0.831650	0.816090	0.898940
N1051	N105	0.930640	0.804830	0.979020
N1061	N106	0.903940	0.830080	0.966960
N1071	N107	0.915530	0.839480	0.025020
H791	H79	0.914700	0.848900	0.046500
N1081	N108	0.870510	0.877630	0.996040
H801	H80	0.858200	0.882800	0.976700
H811	H81	0.866900	0.889700	0.015900
N1091	N109	0.805370	0.881260	0.926480
N1101	N110	0.781590	0.892860	0.953890
N1111	N111	0.784220	0.832780	0.954690
H821	H82	0.780600	0.810400	0.960900
N1121	N112	0.744600	0.861100	0.998000
H831	H83	0.735500	0.880900	0.006800
H841	H84	0.738100	0.840300	0.006800
C531	C53	0.936680	0.810970	0.013940
C541	C54	0.896060	0.850080	0.995220
C551	C55	0.806290	0.845090	0.927260
C561	C56	0.769270	0.862660	0.970000
Cu291	Cu29	0.391210	0.331180	0.914010
Cu301	Cu30	0.453480	0.268750	0.945190
S291	S29	0.467860	0.288560	0.042530
S301	S30	0.331650	0.316090	0.898940
N1131	N113	0.430640	0.304830	0.979020
N1141	N114	0.403940	0.330080	0.966960
N1151	N115	0.415530	0.339480	0.025020
H851	H85	0.414700	0.348900	0.046500
N1161	N116	0.370510	0.377630	0.996040
H861	H86	0.358200	0.382800	0.976700
H871	H87	0.366900	0.389700	0.015900
N1171	N117	0.305370	0.381260	0.926480
N1181	N118	0.281590	0.392860	0.953890
N1191	N119	0.284220	0.332780	0.954690
H881	H88	0.280600	0.310400	0.960900
N1201	N120	0.244600	0.361100	0.998000
H891	H89	0.235500	0.380900	0.006800
H901	H90	0.238100	0.340300	0.006800
C571	C57	0.436680	0.310970	0.013940
C581	C58	0.396060	0.350080	0.995220
C591	C59	0.306290	0.345090	0.927260
C601	C60	0.269270	0.362660	0.970000
Cu311	Cu31	0.391210	0.831180	0.414010
Cu321	Cu32	0.453480	0.768750	0.445190
S311	S31	0.467860	0.788560	0.542530
S321	S32	0.331650	0.816090	0.398940
N1211	N121	0.430640	0.804830	0.479020
N1221	N122	0.403940	0.830080	0.466960
N1231	N123	0.415530	0.839480	0.525020
H911	H91	0.414700	0.848900	0.546500
N1241	N124	0.370510	0.877630	0.496040
H921	H92	0.358200	0.882800	0.476700
H931	H93	0.366900	0.889700	0.515900
N1251	N125	0.305370	0.881260	0.426480
N1261	N126	0.281590	0.892860	0.453890
N1271	N127	0.284220	0.832780	0.454690
H941	H94	0.280600	0.810400	0.460900
N1281	N128	0.244600	0.861100	0.498000
H951	H95	0.235500	0.880900	0.506800
H961	H96	0.238100	0.840300	0.506800
C611	C61	0.436680	0.810970	0.513940
C621	C62	0.396060	0.850080	0.495220
C631	C63	0.306290	0.845090	0.427260
C641	C64	0.269270	0.862660	0.470000
Cu331	Cu33	0.585990	0.891210	0.668820
Cu341	Cu34	0.554810	0.953480	0.731250
S331	S33	0.457470	0.967860	0.711440
S341	S34	0.601060	0.831650	0.683910
N1291	N129	0.520980	0.930640	0.695170
N1301	N130	0.533040	0.903940	0.669920
N1311	N131	0.474980	0.915530	0.660520
H971	H97	0.453500	0.914700	0.651100
N1321	N132	0.503960	0.870510	0.622370
H981	H98	0.523300	0.858200	0.617200
H991	H99	0.484100	0.866900	0.610300
N1331	N133	0.573520	0.805370	0.618740
N1341	N134	0.546110	0.781590	0.607140
N1351	N135	0.545310	0.784220	0.667220
H1001	H100	0.539100	0.780600	0.689600
N1361	N136	0.502000	0.744600	0.638900
H1011	H101	0.493200	0.735500	0.619100
H1021	H102	0.493200	0.738100	0.659700
C651	C65	0.486060	0.936680	0.689030
C661	C66	0.504780	0.896060	0.649920
C671	C67	0.572740	0.806290	0.654910
C681	C68	0.530000	0.769270	0.637340
Cu351	Cu35	0.585990	0.391210	0.168820
Cu361	Cu36	0.554810	0.453480	0.231250
S351	S35	0.457470	0.467860	0.211440
S361	S36	0.601060	0.331650	0.183910
N1371	N137	0.520980	0.430640	0.195170
N1381	N138	0.533040	0.403940	0.169920
N1391	N139	0.474980	0.415530	0.160520
H1031	H103	0.453500	0.414700	0.151100
N1401	N140	0.503960	0.370510	0.122370
H1041	H104	0.523300	0.358200	0.117200
H1051	H105	0.484100	0.366900	0.110300
N1411	N141	0.573520	0.305370	0.118740
N1421	N142	0.546110	0.281590	0.107140
N1431	N143	0.545310	0.284220	0.167220
H1061	H106	0.539100	0.280600	0.189600
N1441	N144	0.502000	0.244600	0.138900
H1071	H107	0.493200	0.235500	0.119100
H1081	H108	0.493200	0.238100	0.159700
C691	C69	0.486060	0.436680	0.189030
C701	C70	0.504780	0.396060	0.149920
C711	C71	0.572740	0.306290	0.154910
C721	C72	0.530000	0.269270	0.137340
Cu371	Cu37	0.085990	0.891210	0.168820
Cu381	Cu38	0.054810	0.953480	0.231250
S371	S37	0.957470	0.967860	0.211440
S381	S38	0.101060	0.831650	0.183910
N1451	N145	0.020980	0.930640	0.195170
N1461	N146	0.033040	0.903940	0.169920
N1471	N147	0.974980	0.915530	0.160520
H1091	H109	0.953500	0.914700	0.151100
N1481	N148	0.003960	0.870510	0.122370
H1101	H110	0.023300	0.858200	0.117200
H1111	H111	0.984100	0.866900	0.110300
N1491	N149	0.073520	0.805370	0.118740
N1501	N150	0.046110	0.781590	0.107140
N1511	N151	0.045310	0.784220	0.167220
H1121	H112	0.039100	0.780600	0.189600
N1521	N152	0.002000	0.744600	0.138900
H1131	H113	0.993200	0.735500	0.119100
H1141	H114	0.993200	0.738100	0.159700
C731	C73	0.986060	0.936680	0.189030
C741	C74	0.004780	0.896060	0.149920
C751	C75	0.072740	0.806290	0.154910
C761	C76	0.030000	0.769270	0.137340
Cu391	Cu39	0.085990	0.391210	0.668820
Cu401	Cu40	0.054810	0.453480	0.731250
S391	S39	0.957470	0.467860	0.711440
S401	S40	0.101060	0.331650	0.683910
N1531	N153	0.020980	0.430640	0.695170
N1541	N154	0.033040	0.403940	0.669920
N1551	N155	0.974980	0.415530	0.660520
H1151	H115	0.953500	0.414700	0.651100
N1561	N156	0.003960	0.370510	0.622370
H1161	H116	0.023300	0.358200	0.617200
H1171	H117	0.984100	0.366900	0.610300
N1571	N157	0.073520	0.305370	0.618740
N1581	N158	0.046110	0.281590	0.607140
N1591	N159	0.045310	0.284220	0.667220
H1181	H118	0.039100	0.280600	0.689600
N1601	N160	0.002000	0.244600	0.638900
H1191	H119	0.993200	0.235500	0.619100
H1201	H120	0.993200	0.238100	0.659700
C771	C77	0.986060	0.436680	0.689030
C781	C78	0.004780	0.396060	0.649920
C791	C79	0.072740	0.306290	0.654910
C801	C80	0.030000	0.269270	0.637340
Cu411	Cu41	0.585990	0.108790	0.331180
Cu421	Cu42	0.554810	0.046520	0.268750
S411	S41	0.457470	0.032140	0.288560
S421	S42	0.601060	0.168350	0.316090
N1611	N161	0.520980	0.069360	0.304830
N1621	N162	0.533040	0.096060	0.330080
N1631	N163	0.474980	0.084470	0.339480
H1211	H121	0.453500	0.085300	0.348900
N1641	N164	0.503960	0.129490	0.377630
H1221	H122	0.523300	0.141800	0.382800
H1231	H123	0.484100	0.133100	0.389700
N1651	N165	0.573520	0.194630	0.381260
N1661	N166	0.546110	0.218410	0.392860
N1671	N167	0.545310	0.215780	0.332780
H1241	H124	0.539100	0.219400	0.310400
N1681	N168	0.502000	0.255400	0.361100
H1251	H125	0.493200	0.264500	0.380900
H1261	H126	0.493200	0.261900	0.340300
C811	C81	0.486060	0.063320	0.310970
C821	C82	0.504780	0.103940	0.350080
C831	C83	0.572740	0.193710	0.345090
C841	C84	0.530000	0.230730	0.362660
Cu431	Cu43	0.585990	0.608790	0.831180
Cu441	Cu44	0.554810	0.546520	0.768750
S431	S43	0.457470	0.532140	0.788560
S441	S44	0.601060	0.668350	0.816090
N1691	N169	0.520980	0.569360	0.804830
N1701	N170	0.533040	0.596060	0.830080
N1711	N171	0.474980	0.584470	0.839480
H1271	H127	0.453500	0.585300	0.848900
N1721	N172	0.503960	0.629490	0.877630
H1281	H128	0.523300	0.641800	0.882800
H1291	H129	0.484100	0.633100	0.889700
N1731	N173	0.573520	0.694630	0.881260
N1741	N174	0.546110	0.718410	0.892860
N1751	N175	0.545310	0.715780	0.832780
H1301	H130	0.539100	0.719400	0.810400
N1761	N176	0.502000	0.755400	0.861100
H1311	H131	0.493200	0.764500	0.880900
H1321	H132	0.493200	0.761900	0.840300
C851	C85	0.486060	0.563320	0.810970
C861	C86	0.504780	0.603940	0.850080
C871	C87	0.572740	0.693710	0.845090
C881	C88	0.530000	0.730730	0.862660
Cu451	Cu45	0.085990	0.108790	0.831180
Cu461	Cu46	0.054810	0.046520	0.768750
S451	S45	0.957470	0.032140	0.788560
S461	S46	0.101060	0.168350	0.816090
N1771	N177	0.020980	0.069360	0.804830
N1781	N178	0.033040	0.096060	0.830080
N1791	N179	0.974980	0.084470	0.839480
H1331	H133	0.953500	0.085300	0.848900
N1801	N180	0.003960	0.129490	0.877630
H1341	H134	0.023300	0.141800	0.882800
H1351	H135	0.984100	0.133100	0.889700
N1811	N181	0.073520	0.194630	0.881260
N1821	N182	0.046110	0.218410	0.892860
N1831	N183	0.045310	0.215780	0.832780
H1361	H136	0.039100	0.219400	0.810400
N1841	N184	0.002000	0.255400	0.861100
H1371	H137	0.993200	0.264500	0.880900
H1381	H138	0.993200	0.261900	0.840300
C891	C89	0.986060	0.063320	0.810970
C901	C90	0.004780	0.103940	0.850080
C911	C91	0.072740	0.193710	0.845090
C921	C92	0.030000	0.230730	0.862660
Cu471	Cu47	0.085990	0.608790	0.331180
Cu481	Cu48	0.054810	0.546520	0.268750
S471	S47	0.957470	0.532140	0.288560
S481	S48	0.101060	0.668350	0.316090
N1851	N185	0.020980	0.569360	0.304830
N1861	N186	0.033040	0.596060	0.330080
N1871	N187	0.974980	0.584470	0.339480
H1391	H139	0.953500	0.585300	0.348900
N1881	N188	0.003960	0.629490	0.377630
H1401	H140	0.023300	0.641800	0.382800
H1411	H141	0.984100	0.633100	0.389700
N1891	N189	0.073520	0.694630	0.381260
N1901	N190	0.046110	0.718410	0.392860
N1911	N191	0.045310	0.715780	0.332780
H1421	H142	0.039100	0.719400	0.310400
N1921	N192	0.002000	0.755400	0.361100
H1431	H143	0.993200	0.764500	0.380900
H1441	H144	0.993200	0.761900	0.340300
C931	C93	0.986060	0.563320	0.310970
C941	C94	0.004780	0.603940	0.350080
C951	C95	0.072740	0.693710	0.345090
C961	C96	0.030000	0.730730	0.362660
Cu491	Cu49	0.414010	0.108790	0.668820
Cu501	Cu50	0.445190	0.046520	0.731250
S491	S49	0.542530	0.032140	0.711440
S501	S50	0.398940	0.168350	0.683910
N1931	N193	0.479020	0.069360	0.695170
N1941	N194	0.466960	0.096060	0.669920
N1951	N195	0.525020	0.084470	0.660520
H1451	H145	0.546500	0.085300	0.651100
N1961	N196	0.496040	0.129490	0.622370
H1461	H146	0.476700	0.141800	0.617200
H1471	H147	0.515900	0.133100	0.610300
N1971	N197	0.426480	0.194630	0.618740
N1981	N198	0.453890	0.218410	0.607140
N1991	N199	0.454690	0.215780	0.667220
H1481	H148	0.460900	0.219400	0.689600
N2001	N200	0.498000	0.255400	0.638900
H1491	H149	0.506800	0.264500	0.619100
H1501	H150	0.506800	0.261900	0.659700
C971	C97	0.513940	0.063320	0.689030
C981	C98	0.495220	0.103940	0.649920
C991	C99	0.427260	0.193710	0.654910
C1001	C100	0.470000	0.230730	0.637340
Cu511	Cu51	0.414010	0.608790	0.168820
Cu521	Cu52	0.445190	0.546520	0.231250
S511	S51	0.542530	0.532140	0.211440
S521	S52	0.398940	0.668350	0.183910
N2011	N201	0.479020	0.569360	0.195170
N2021	N202	0.466960	0.596060	0.169920
N2031	N203	0.525020	0.584470	0.160520
H1511	H151	0.546500	0.585300	0.151100
N2041	N204	0.496040	0.629490	0.122370
H1521	H152	0.476700	0.641800	0.117200
H1531	H153	0.515900	0.633100	0.110300
N2051	N205	0.426480	0.694630	0.118740
N2061	N206	0.453890	0.718410	0.107140
N2071	N207	0.454690	0.715780	0.167220
H1541	H154	0.460900	0.719400	0.189600
N2081	N208	0.498000	0.755400	0.138900
H1551	H155	0.506800	0.764500	0.119100
H1561	H156	0.506800	0.761900	0.159700
C1011	C101	0.513940	0.563320	0.189030
C1021	C102	0.495220	0.603940	0.149920
C1031	C103	0.427260	0.693710	0.154910
C1041	C104	0.470000	0.730730	0.137340
Cu531	Cu53	0.914010	0.108790	0.168820
Cu541	Cu54	0.945190	0.046520	0.231250
S531	S53	0.042530	0.032140	0.211440
S541	S54	0.898940	0.168350	0.183910
N2091	N209	0.979020	0.069360	0.195170
N2101	N210	0.966960	0.096060	0.169920
N2111	N211	0.025020	0.084470	0.160520
H1571	H157	0.046500	0.085300	0.151100
N2121	N212	0.996040	0.129490	0.122370
H1581	H158	0.976700	0.141800	0.117200
H1591	H159	0.015900	0.133100	0.110300
N2131	N213	0.926480	0.194630	0.118740
N2141	N214	0.953890	0.218410	0.107140
N2151	N215	0.954690	0.215780	0.167220
H1601	H160	0.960900	0.219400	0.189600
N2161	N216	0.998000	0.255400	0.138900
H1611	H161	0.006800	0.264500	0.119100
H1621	H162	0.006800	0.261900	0.159700
C1051	C105	0.013940	0.063320	0.189030
C1061	C106	0.995220	0.103940	0.149920
C1071	C107	0.927260	0.193710	0.154910
C1081	C108	0.970000	0.230730	0.137340
Cu551	Cu55	0.914010	0.608790	0.668820
Cu561	Cu56	0.945190	0.546520	0.731250
S551	S55	0.042530	0.532140	0.711440
S561	S56	0.898940	0.668350	0.683910
N2171	N217	0.979020	0.569360	0.695170
N2181	N218	0.966960	0.596060	0.669920
N2191	N219	0.025020	0.584470	0.660520
H1631	H163	0.046500	0.585300	0.651100
N2201	N220	0.996040	0.629490	0.622370
H1641	H164	0.976700	0.641800	0.617200
H1651	H165	0.015900	0.633100	0.610300
N2211	N221	0.926480	0.694630	0.618740
N2221	N222	0.953890	0.718410	0.607140
N2231	N223	0.954690	0.715780	0.667220
H1661	H166	0.960900	0.719400	0.689600
N2241	N224	0.998000	0.755400	0.638900
H1671	H167	0.006800	0.764500	0.619100
H1681	H168	0.006800	0.761900	0.659700
C1091	C109	0.013940	0.563320	0.689030
C1101	C110	0.995220	0.603940	0.649920
C1111	C111	0.927260	0.693710	0.654910
C1121	C112	0.970000	0.730730	0.637340
Cu571	Cu57	0.414010	0.891210	0.331180
Cu581	Cu58	0.445190	0.953480	0.268750
S571	S57	0.542530	0.967860	0.288560
S581	S58	0.398940	0.831650	0.316090
N2251	N225	0.479020	0.930640	0.304830
N2261	N226	0.466960	0.903940	0.330080
N2271	N227	0.525020	0.915530	0.339480
H1691	H169	0.546500	0.914700	0.348900
N2281	N228	0.496040	0.870510	0.377630
H1701	H170	0.476700	0.858200	0.382800
H1711	H171	0.515900	0.866900	0.389700
N2291	N229	0.426480	0.805370	0.381260
N2301	N230	0.453890	0.781590	0.392860
N2311	N231	0.454690	0.784220	0.332780
H1721	H172	0.460900	0.780600	0.310400
N2321	N232	0.498000	0.744600	0.361100
H1731	H173	0.506800	0.735500	0.380900
H1741	H174	0.506800	0.738100	0.340300
C1131	C113	0.513940	0.936680	0.310970
C1141	C114	0.495220	0.896060	0.350080
C1151	C115	0.427260	0.806290	0.345090
C1161	C116	0.470000	0.769270	0.362660
Cu591	Cu59	0.414010	0.391210	0.831180
Cu601	Cu60	0.445190	0.453480	0.768750
S591	S59	0.542530	0.467860	0.788560
S601	S60	0.398940	0.331650	0.816090
N2331	N233	0.479020	0.430640	0.804830
N2341	N234	0.466960	0.403940	0.830080
N2351	N235	0.525020	0.415530	0.839480
H1751	H175	0.546500	0.414700	0.848900
N2361	N236	0.496040	0.370510	0.877630
H1761	H176	0.476700	0.358200	0.882800
H1771	H177	0.515900	0.366900	0.889700
N2371	N237	0.426480	0.305370	0.881260
N2381	N238	0.453890	0.281590	0.892860
N2391	N239	0.454690	0.284220	0.832780
H1781	H178	0.460900	0.280600	0.810400
N2401	N240	0.498000	0.244600	0.861100
H1791	H179	0.506800	0.235500	0.880900
H1801	H180	0.506800	0.238100	0.840300
C1171	C117	0.513940	0.436680	0.810970
C1181	C118	0.495220	0.396060	0.850080
C1191	C119	0.427260	0.306290	0.845090
C1201	C120	0.470000	0.269270	0.862660
Cu611	Cu61	0.914010	0.891210	0.831180
Cu621	Cu62	0.945190	0.953480	0.768750
S611	S61	0.042530	0.967860	0.788560
S621	S62	0.898940	0.831650	0.816090
N2411	N241	0.979020	0.930640	0.804830
N2421	N242	0.966960	0.903940	0.830080
N2431	N243	0.025020	0.915530	0.839480
H1811	H181	0.046500	0.914700	0.848900
N2441	N244	0.996040	0.870510	0.877630
H1821	H182	0.976700	0.858200	0.882800
H1831	H183	0.015900	0.866900	0.889700
N2451	N245	0.926480	0.805370	0.881260
N2461	N246	0.953890	0.781590	0.892860
N2471	N247	0.954690	0.784220	0.832780
H1841	H184	0.960900	0.780600	0.810400
N2481	N248	0.998000	0.744600	0.861100
H1851	H185	0.006800	0.735500	0.880900
H1861	H186	0.006800	0.738100	0.840300
C1211	C121	0.013940	0.936680	0.810970
C1221	C122	0.995220	0.896060	0.850080
C1231	C123	0.927260	0.806290	0.845090
C1241	C124	0.970000	0.769270	0.862660
Cu631	Cu63	0.914010	0.391210	0.331180
Cu641	Cu64	0.945190	0.453480	0.268750
S631	S63	0.042530	0.467860	0.288560
S641	S64	0.898940	0.331650	0.316090
N2491	N249	0.979020	0.430640	0.304830
N2501	N250	0.966960	0.403940	0.330080
N2511	N251	0.025020	0.415530	0.339480
H1871	H187	0.046500	0.414700	0.348900
N2521	N252	0.996040	0.370510	0.377630
H1881	H188	0.976700	0.358200	0.382800
H1891	H189	0.015900	0.366900	0.389700
N2531	N253	0.926480	0.305370	0.381260
N2541	N254	0.953890	0.281590	0.392860
N2551	N255	0.954690	0.284220	0.332780
H1901	H190	0.960900	0.280600	0.310400
N2561	N256	0.998000	0.244600	0.361100
H1911	H191	0.006800	0.235500	0.380900
H1921	H192	0.006800	0.238100	0.340300
C1251	C125	0.013940	0.436680	0.310970
C1261	C126	0.995220	0.396060	0.350080
C1271	C127	0.927260	0.306290	0.345090
C1281	C128	0.970000	0.269270	0.362660
Cu651	Cu65	0.668820	0.585990	0.891210
Cu661	Cu66	0.731250	0.554810	0.953480
S651	S65	0.711440	0.457470	0.967860
S661	S66	0.683910	0.601060	0.831650
N2571	N257	0.695170	0.520980	0.930640
N2581	N258	0.669920	0.533040	0.903940
N2591	N259	0.660520	0.474980	0.915530
H1931	H193	0.651100	0.453500	0.914700
N2601	N260	0.622370	0.503960	0.870510
H1941	H194	0.617200	0.523300	0.858200
H1951	H195	0.610300	0.484100	0.866900
N2611	N261	0.618740	0.573520	0.805370
N2621	N262	0.607140	0.546110	0.781590
N2631	N263	0.667220	0.545310	0.784220
H1961	H196	0.689600	0.539100	0.780600
N2641	N264	0.638900	0.502000	0.744600
H1971	H197	0.619100	0.493200	0.735500
H1981	H198	0.659700	0.493200	0.738100
C1291	C129	0.689030	0.486060	0.936680
C1301	C130	0.649920	0.504780	0.896060
C1311	C131	0.654910	0.572740	0.806290
C1321	C132	0.637340	0.530000	0.769270
Cu671	Cu67	0.668820	0.085990	0.391210
Cu681	Cu68	0.731250	0.054810	0.453480
S671	S67	0.711440	0.957470	0.467860
S681	S68	0.683910	0.101060	0.331650
N2651	N265	0.695170	0.020980	0.430640
N2661	N266	0.669920	0.033040	0.403940
N2671	N267	0.660520	0.974980	0.415530
H1991	H199	0.651100	0.953500	0.414700
N2681	N268	0.622370	0.003960	0.370510
H2001	H200	0.617200	0.023300	0.358200
H2011	H201	0.610300	0.984100	0.366900
N2691	N269	0.618740	0.073520	0.305370
N2701	N270	0.607140	0.046110	0.281590
N2711	N271	0.667220	0.045310	0.284220
H2021	H202	0.689600	0.039100	0.280600
N2721	N272	0.638900	0.002000	0.244600
H2031	H203	0.619100	0.993200	0.235500
H2041	H204	0.659700	0.993200	0.238100
C1331	C133	0.689030	0.986060	0.436680
C1341	C134	0.649920	0.004780	0.396060
C1351	C135	0.654910	0.072740	0.306290
C1361	C136	0.637340	0.030000	0.269270
Cu691	Cu69	0.168820	0.585990	0.391210
Cu701	Cu70	0.231250	0.554810	0.453480
S691	S69	0.211440	0.457470	0.467860
S701	S70	0.183910	0.601060	0.331650
N2731	N273	0.195170	0.520980	0.430640
N2741	N274	0.169920	0.533040	0.403940
N2751	N275	0.160520	0.474980	0.415530
H2051	H205	0.151100	0.453500	0.414700
N2761	N276	0.122370	0.503960	0.370510
H2061	H206	0.117200	0.523300	0.358200
H2071	H207	0.110300	0.484100	0.366900
N2771	N277	0.118740	0.573520	0.305370
N2781	N278	0.107140	0.546110	0.281590
N2791	N279	0.167220	0.545310	0.284220
H2081	H208	0.189600	0.539100	0.280600
N2801	N280	0.138900	0.502000	0.244600
H2091	H209	0.119100	0.493200	0.235500
H2101	H210	0.159700	0.493200	0.238100
C1371	C137	0.189030	0.486060	0.436680
C1381	C138	0.149920	0.504780	0.396060
C1391	C139	0.154910	0.572740	0.306290
C1401	C140	0.137340	0.530000	0.269270
Cu711	Cu71	0.168820	0.085990	0.891210
Cu721	Cu72	0.231250	0.054810	0.953480
S711	S71	0.211440	0.957470	0.967860
S721	S72	0.183910	0.101060	0.831650
N2811	N281	0.195170	0.020980	0.930640
N2821	N282	0.169920	0.033040	0.903940
N2831	N283	0.160520	0.974980	0.915530
H2111	H211	0.151100	0.953500	0.914700
N2841	N284	0.122370	0.003960	0.870510
H2121	H212	0.117200	0.023300	0.858200
H2131	H213	0.110300	0.984100	0.866900
N2851	N285	0.118740	0.073520	0.805370
N2861	N286	0.107140	0.046110	0.781590
N2871	N287	0.167220	0.045310	0.784220
H2141	H214	0.189600	0.039100	0.780600
N2881	N288	0.138900	0.002000	0.744600
H2151	H215	0.119100	0.993200	0.735500
H2161	H216	0.159700	0.993200	0.738100
C1411	C141	0.189030	0.986060	0.936680
C1421	C142	0.149920	0.004780	0.896060
C1431	C143	0.154910	0.072740	0.806290
C1441	C144	0.137340	0.030000	0.769270
Cu731	Cu73	0.331180	0.585990	0.108790
Cu741	Cu74	0.268750	0.554810	0.046520
S731	S73	0.288560	0.457470	0.032140
S741	S74	0.316090	0.601060	0.168350
N2891	N289	0.304830	0.520980	0.069360
N2901	N290	0.330080	0.533040	0.096060
N2911	N291	0.339480	0.474980	0.084470
H2171	H217	0.348900	0.453500	0.085300
N2921	N292	0.377630	0.503960	0.129490
H2181	H218	0.382800	0.523300	0.141800
H2191	H219	0.389700	0.484100	0.133100
N2931	N293	0.381260	0.573520	0.194630
N2941	N294	0.392860	0.546110	0.218410
N2951	N295	0.332780	0.545310	0.215780
H2201	H220	0.310400	0.539100	0.219400
N2961	N296	0.361100	0.502000	0.255400
H2211	H221	0.380900	0.493200	0.264500
H2221	H222	0.340300	0.493200	0.261900
C1451	C145	0.310970	0.486060	0.063320
C1461	C146	0.350080	0.504780	0.103940
C1471	C147	0.345090	0.572740	0.193710
C1481	C148	0.362660	0.530000	0.230730
Cu751	Cu75	0.331180	0.085990	0.608790
Cu761	Cu76	0.268750	0.054810	0.546520
S751	S75	0.288560	0.957470	0.532140
S761	S76	0.316090	0.101060	0.668350
N2971	N297	0.304830	0.020980	0.569360
N2981	N298	0.330080	0.033040	0.596060
N2991	N299	0.339480	0.974980	0.584470
H2231	H223	0.348900	0.953500	0.585300
N3001	N300	0.377630	0.003960	0.629490
H2241	H224	0.382800	0.023300	0.641800
H2251	H225	0.389700	0.984100	0.633100
N3011	N301	0.381260	0.073520	0.694630
N3021	N302	0.392860	0.046110	0.718410
N3031	N303	0.332780	0.045310	0.715780
H2261	H226	0.310400	0.039100	0.719400
N3041	N304	0.361100	0.002000	0.755400
H2271	H227	0.380900	0.993200	0.764500
H2281	H228	0.340300	0.993200	0.761900
C1491	C149	0.310970	0.986060	0.563320
C1501	C150	0.350080	0.004780	0.603940
C1511	C151	0.345090	0.072740	0.693710
C1521	C152	0.362660	0.030000	0.730730
Cu771	Cu77	0.831180	0.585990	0.608790
Cu781	Cu78	0.768750	0.554810	0.546520
S771	S77	0.788560	0.457470	0.532140
S781	S78	0.816090	0.601060	0.668350
N3051	N305	0.804830	0.520980	0.569360
N3061	N306	0.830080	0.533040	0.596060
N3071	N307	0.839480	0.474980	0.584470
H2291	H229	0.848900	0.453500	0.585300
N3081	N308	0.877630	0.503960	0.629490
H2301	H230	0.882800	0.523300	0.641800
H2311	H231	0.889700	0.484100	0.633100
N3091	N309	0.881260	0.573520	0.694630
N3101	N310	0.892860	0.546110	0.718410
N3111	N311	0.832780	0.545310	0.715780
H2321	H232	0.810400	0.539100	0.719400
N3121	N312	0.861100	0.502000	0.755400
H2331	H233	0.880900	0.493200	0.764500
H2341	H234	0.840300	0.493200	0.761900
C1531	C153	0.810970	0.486060	0.563320
C1541	C154	0.850080	0.504780	0.603940
C1551	C155	0.845090	0.572740	0.693710
C1561	C156	0.862660	0.530000	0.730730
Cu791	Cu79	0.831180	0.085990	0.108790
Cu801	Cu80	0.768750	0.054810	0.046520
S791	S79	0.788560	0.957470	0.032140
S801	S80	0.816090	0.101060	0.168350
N3131	N313	0.804830	0.020980	0.069360
N3141	N314	0.830080	0.033040	0.096060
N3151	N315	0.839480	0.974980	0.084470
H2351	H235	0.848900	0.953500	0.085300
N3161	N316	0.877630	0.003960	0.129490
H2361	H236	0.882800	0.023300	0.141800
H2371	H237	0.889700	0.984100	0.133100
N3171	N317	0.881260	0.073520	0.194630
N3181	N318	0.892860	0.046110	0.218410
N3191	N319	0.832780	0.045310	0.215780
H2381	H238	0.810400	0.039100	0.219400
N3201	N320	0.861100	0.002000	0.255400
H2391	H239	0.880900	0.993200	0.264500
H2401	H240	0.840300	0.993200	0.261900
C1571	C157	0.810970	0.986060	0.063320
C1581	C158	0.850080	0.004780	0.103940
C1591	C159	0.845090	0.072740	0.193710
C1601	C160	0.862660	0.030000	0.230730
Cu811	Cu81	0.668820	0.414010	0.108790
Cu821	Cu82	0.731250	0.445190	0.046520
S811	S81	0.711440	0.542530	0.032140
S821	S82	0.683910	0.398940	0.168350
N3211	N321	0.695170	0.479020	0.069360
N3221	N322	0.669920	0.466960	0.096060
N3231	N323	0.660520	0.525020	0.084470
H2411	H241	0.651100	0.546500	0.085300
N3241	N324	0.622370	0.496040	0.129490
H2421	H242	0.617200	0.476700	0.141800
H2431	H243	0.610300	0.515900	0.133100
N3251	N325	0.618740	0.426480	0.194630
N3261	N326	0.607140	0.453890	0.218410
N3271	N327	0.667220	0.454690	0.215780
H2441	H244	0.689600	0.460900	0.219400
N3281	N328	0.638900	0.498000	0.255400
H2451	H245	0.619100	0.506800	0.264500
H2461	H246	0.659700	0.506800	0.261900
C1611	C161	0.689030	0.513940	0.063320
C1621	C162	0.649920	0.495220	0.103940
C1631	C163	0.654910	0.427260	0.193710
C1641	C164	0.637340	0.470000	0.230730
Cu831	Cu83	0.668820	0.914010	0.608790
Cu841	Cu84	0.731250	0.945190	0.546520
S831	S83	0.711440	0.042530	0.532140
S841	S84	0.683910	0.898940	0.668350
N3291	N329	0.695170	0.979020	0.569360
N3301	N330	0.669920	0.966960	0.596060
N3311	N331	0.660520	0.025020	0.584470
H2471	H247	0.651100	0.046500	0.585300
N3321	N332	0.622370	0.996040	0.629490
H2481	H248	0.617200	0.976700	0.641800
H2491	H249	0.610300	0.015900	0.633100
N3331	N333	0.618740	0.926480	0.694630
N3341	N334	0.607140	0.953890	0.718410
N3351	N335	0.667220	0.954690	0.715780
H2501	H250	0.689600	0.960900	0.719400
N3361	N336	0.638900	0.998000	0.755400
H2511	H251	0.619100	0.006800	0.764500
H2521	H252	0.659700	0.006800	0.761900
C1651	C165	0.689030	0.013940	0.563320
C1661	C166	0.649920	0.995220	0.603940
C1671	C167	0.654910	0.927260	0.693710
C1681	C168	0.637340	0.970000	0.730730
Cu851	Cu85	0.168820	0.414010	0.608790
Cu861	Cu86	0.231250	0.445190	0.546520
S851	S85	0.211440	0.542530	0.532140
S861	S86	0.183910	0.398940	0.668350
N3371	N337	0.195170	0.479020	0.569360
N3381	N338	0.169920	0.466960	0.596060
N3391	N339	0.160520	0.525020	0.584470
H2531	H253	0.151100	0.546500	0.585300
N3401	N340	0.122370	0.496040	0.629490
H2541	H254	0.117200	0.476700	0.641800
H2551	H255	0.110300	0.515900	0.633100
N3411	N341	0.118740	0.426480	0.694630
N3421	N342	0.107140	0.453890	0.718410
N3431	N343	0.167220	0.454690	0.715780
H2561	H256	0.189600	0.460900	0.719400
N3441	N344	0.138900	0.498000	0.755400
H2571	H257	0.119100	0.506800	0.764500
H2581	H258	0.159700	0.506800	0.761900
C1691	C169	0.189030	0.513940	0.563320
C1701	C170	0.149920	0.495220	0.603940
C1711	C171	0.154910	0.427260	0.693710
C1721	C172	0.137340	0.470000	0.730730
Cu871	Cu87	0.168820	0.914010	0.108790
Cu881	Cu88	0.231250	0.945190	0.046520
S871	S87	0.211440	0.042530	0.032140
S881	S88	0.183910	0.898940	0.168350
N3451	N345	0.195170	0.979020	0.069360
N3461	N346	0.169920	0.966960	0.096060
N3471	N347	0.160520	0.025020	0.084470
H2591	H259	0.151100	0.046500	0.085300
N3481	N348	0.122370	0.996040	0.129490
H2601	H260	0.117200	0.976700	0.141800
H2611	H261	0.110300	0.015900	0.133100
N3491	N349	0.118740	0.926480	0.194630
N3501	N350	0.107140	0.953890	0.218410
N3511	N351	0.167220	0.954690	0.215780
H2621	H262	0.189600	0.960900	0.219400
N3521	N352	0.138900	0.998000	0.255400
H2631	H263	0.119100	0.006800	0.264500
H2641	H264	0.159700	0.006800	0.261900
C1731	C173	0.189030	0.013940	0.063320
C1741	C174	0.149920	0.995220	0.103940
C1751	C175	0.154910	0.927260	0.193710
C1761	C176	0.137340	0.970000	0.230730
Cu891	Cu89	0.331180	0.414010	0.891210
Cu901	Cu90	0.268750	0.445190	0.953480
S891	S89	0.288560	0.542530	0.967860
S901	S90	0.316090	0.398940	0.831650
N3531	N353	0.304830	0.479020	0.930640
N3541	N354	0.330080	0.466960	0.903940
N3551	N355	0.339480	0.525020	0.915530
H2651	H265	0.348900	0.546500	0.914700
N3561	N356	0.377630	0.496040	0.870510
H2661	H266	0.382800	0.476700	0.858200
H2671	H267	0.389700	0.515900	0.866900
N3571	N357	0.381260	0.426480	0.805370
N3581	N358	0.392860	0.453890	0.781590
N3591	N359	0.332780	0.454690	0.784220
H2681	H268	0.310400	0.460900	0.780600
N3601	N360	0.361100	0.498000	0.744600
H2691	H269	0.380900	0.506800	0.735500
H2701	H270	0.340300	0.506800	0.738100
C1771	C177	0.310970	0.513940	0.936680
C1781	C178	0.350080	0.495220	0.896060
C1791	C179	0.345090	0.427260	0.806290
C1801	C180	0.362660	0.470000	0.769270
Cu911	Cu91	0.331180	0.914010	0.391210
Cu921	Cu92	0.268750	0.945190	0.453480
S911	S91	0.288560	0.042530	0.467860
S921	S92	0.316090	0.898940	0.331650
N3611	N361	0.304830	0.979020	0.430640
N3621	N362	0.330080	0.966960	0.403940
N3631	N363	0.339480	0.025020	0.415530
H2711	H271	0.348900	0.046500	0.414700
N3641	N364	0.377630	0.996040	0.370510
H2721	H272	0.382800	0.976700	0.358200
H2731	H273	0.389700	0.015900	0.366900
N3651	N365	0.381260	0.926480	0.305370
N3661	N366	0.392860	0.953890	0.281590
N3671	N367	0.332780	0.954690	0.284220
H2741	H274	0.310400	0.960900	0.280600
N3681	N368	0.361100	0.998000	0.244600
H2751	H275	0.380900	0.006800	0.235500
H2761	H276	0.340300	0.006800	0.238100
C1811	C181	0.310970	0.013940	0.436680
C1821	C182	0.350080	0.995220	0.396060
C1831	C183	0.345090	0.927260	0.306290
C1841	C184	0.362660	0.970000	0.269270
Cu931	Cu93	0.831180	0.414010	0.391210
Cu941	Cu94	0.768750	0.445190	0.453480
S931	S93	0.788560	0.542530	0.467860
S941	S94	0.816090	0.398940	0.331650
N3691	N369	0.804830	0.479020	0.430640
N3701	N370	0.830080	0.466960	0.403940
N3711	N371	0.839480	0.525020	0.415530
H2771	H277	0.848900	0.546500	0.414700
N3721	N372	0.877630	0.496040	0.370510
H2781	H278	0.882800	0.476700	0.358200
H2791	H279	0.889700	0.515900	0.366900
N3731	N373	0.881260	0.426480	0.305370
N3741	N374	0.892860	0.453890	0.281590
N3751	N375	0.832780	0.454690	0.284220
H2801	H280	0.810400	0.460900	0.280600
N3761	N376	0.861100	0.498000	0.244600
H2811	H281	0.880900	0.506800	0.235500
H2821	H282	0.840300	0.506800	0.238100
C1851	C185	0.810970	0.513940	0.436680
C1861	C186	0.850080	0.495220	0.396060
C1871	C187	0.845090	0.427260	0.306290
C1881	C188	0.862660	0.470000	0.269270
Cu951	Cu95	0.831180	0.914010	0.891210
Cu961	Cu96	0.768750	0.945190	0.953480
S951	S95	0.788560	0.042530	0.967860
S961	S96	0.816090	0.898940	0.831650
N3771	N377	0.804830	0.979020	0.930640
N3781	N378	0.830080	0.966960	0.903940
N3791	N379	0.839480	0.025020	0.915530
H2831	H283	0.848900	0.046500	0.914700
N3801	N380	0.877630	0.996040	0.870510
H2841	H284	0.882800	0.976700	0.858200
H2851	H285	0.889700	0.015900	0.866900
N3811	N381	0.881260	0.926480	0.805370
N3821	N382	0.892860	0.953890	0.781590
N3831	N383	0.832780	0.954690	0.784220
H2861	H286	0.810400	0.960900	0.780600
N3841	N384	0.861100	0.998000	0.744600
H2871	H287	0.880900	0.006800	0.735500
H2881	H288	0.840300	0.006800	0.738100
C1891	C189	0.810970	0.013940	0.936680
C1901	C190	0.850080	0.995220	0.896060
C1911	C191	0.845090	0.927260	0.806290
C1921	C192	0.862660	0.970000	0.769270
Cu971	Cu97	0.168820	0.391210	0.085990
Cu981	Cu98	0.231250	0.453480	0.054810
S971	S97	0.211440	0.467860	0.957470
S981	S98	0.183910	0.331650	0.101060
N3851	N385	0.195170	0.430640	0.020980
N3861	N386	0.169920	0.403940	0.033040
N3871	N387	0.160520	0.415530	0.974980
H2891	H289	0.151100	0.414700	0.953500
N3881	N388	0.122370	0.370510	0.003960
H2901	H290	0.117200	0.358200	0.023300
H2911	H291	0.110300	0.366900	0.984100
N3891	N389	0.118740	0.305370	0.073520
N3901	N390	0.107140	0.281590	0.046110
N3911	N391	0.167220	0.284220	0.045310
H2921	H292	0.189600	0.280600	0.039100
N3921	N392	0.138900	0.244600	0.002000
H2931	H293	0.119100	0.235500	0.993200
H2941	H294	0.159700	0.238100	0.993200
C1931	C193	0.189030	0.436680	0.986060
C1941	C194	0.149920	0.396060	0.004780
C1951	C195	0.154910	0.306290	0.072740
C1961	C196	0.137340	0.269270	0.030000
Cu991	Cu99	0.168820	0.891210	0.585990
Cu1001	Cu100	0.231250	0.953480	0.554810
S991	S99	0.211440	0.967860	0.457470
S1001	S100	0.183910	0.831650	0.601060
N3931	N393	0.195170	0.930640	0.520980
N3941	N394	0.169920	0.903940	0.533040
N3951	N395	0.160520	0.915530	0.474980
H2951	H295	0.151100	0.914700	0.453500
N3961	N396	0.122370	0.870510	0.503960
H2961	H296	0.117200	0.858200	0.523300
H2971	H297	0.110300	0.866900	0.484100
N3971	N397	0.118740	0.805370	0.573520
N3981	N398	0.107140	0.781590	0.546110
N3991	N399	0.167220	0.784220	0.545310
H2981	H298	0.189600	0.780600	0.539100
N4001	N400	0.138900	0.744600	0.502000
H2991	H299	0.119100	0.735500	0.493200
H3001	H300	0.159700	0.738100	0.493200
C1971	C197	0.189030	0.936680	0.486060
C1981	C198	0.149920	0.896060	0.504780
C1991	C199	0.154910	0.806290	0.572740
C2001	C200	0.137340	0.769270	0.530000
Cu1011	Cu101	0.668820	0.391210	0.585990
Cu1021	Cu102	0.731250	0.453480	0.554810
S1011	S101	0.711440	0.467860	0.457470
S1021	S102	0.683910	0.331650	0.601060
N4011	N401	0.695170	0.430640	0.520980
N4021	N402	0.669920	0.403940	0.533040
N4031	N403	0.660520	0.415530	0.474980
H3011	H301	0.651100	0.414700	0.453500
N4041	N404	0.622370	0.370510	0.503960
H3021	H302	0.617200	0.358200	0.523300
H3031	H303	0.610300	0.366900	0.484100
N4051	N405	0.618740	0.305370	0.573520
N4061	N406	0.607140	0.281590	0.546110
N4071	N407	0.667220	0.284220	0.545310
H3041	H304	0.689600	0.280600	0.539100
N4081	N408	0.638900	0.244600	0.502000
H3051	H305	0.619100	0.235500	0.493200
H3061	H306	0.659700	0.238100	0.493200
C2011	C201	0.689030	0.436680	0.486060
C2021	C202	0.649920	0.396060	0.504780
C2031	C203	0.654910	0.306290	0.572740
C2041	C204	0.637340	0.269270	0.530000
Cu1031	Cu103	0.668820	0.891210	0.085990
Cu1041	Cu104	0.731250	0.953480	0.054810
S1031	S103	0.711440	0.967860	0.957470
S1041	S104	0.683910	0.831650	0.101060
N4091	N409	0.695170	0.930640	0.020980
N4101	N410	0.669920	0.903940	0.033040
N4111	N411	0.660520	0.915530	0.974980
H3071	H307	0.651100	0.914700	0.953500
N4121	N412	0.622370	0.870510	0.003960
H3081	H308	0.617200	0.858200	0.023300
H3091	H309	0.610300	0.866900	0.984100
N4131	N413	0.618740	0.805370	0.073520
N4141	N414	0.607140	0.781590	0.046110
N4151	N415	0.667220	0.784220	0.045310
H3101	H310	0.689600	0.780600	0.039100
N4161	N416	0.638900	0.744600	0.002000
H3111	H311	0.619100	0.735500	0.993200
H3121	H312	0.659700	0.738100	0.993200
C2051	C205	0.689030	0.936680	0.986060
C2061	C206	0.649920	0.896060	0.004780
C2071	C207	0.654910	0.806290	0.072740
C2081	C208	0.637340	0.769270	0.030000
Cu1051	Cu105	0.831180	0.608790	0.085990
Cu1061	Cu106	0.768750	0.546520	0.054810
S1051	S105	0.788560	0.532140	0.957470
S1061	S106	0.816090	0.668350	0.101060
N4171	N417	0.804830	0.569360	0.020980
N4181	N418	0.830080	0.596060	0.033040
N4191	N419	0.839480	0.584470	0.974980
H3131	H313	0.848900	0.585300	0.953500
N4201	N420	0.877630	0.629490	0.003960
H3141	H314	0.882800	0.641800	0.023300
H3151	H315	0.889700	0.633100	0.984100
N4211	N421	0.881260	0.694630	0.073520
N4221	N422	0.892860	0.718410	0.046110
N4231	N423	0.832780	0.715780	0.045310
H3161	H316	0.810400	0.719400	0.039100
N4241	N424	0.861100	0.755400	0.002000
H3171	H317	0.880900	0.764500	0.993200
H3181	H318	0.840300	0.761900	0.993200
C2091	C209	0.810970	0.563320	0.986060
C2101	C210	0.850080	0.603940	0.004780
C2111	C211	0.845090	0.693710	0.072740
C2121	C212	0.862660	0.730730	0.030000
Cu1071	Cu107	0.831180	0.108790	0.585990
Cu1081	Cu108	0.768750	0.046520	0.554810
S1071	S107	0.788560	0.032140	0.457470
S1081	S108	0.816090	0.168350	0.601060
N4251	N425	0.804830	0.069360	0.520980
N4261	N426	0.830080	0.096060	0.533040
N4271	N427	0.839480	0.084470	0.474980
H3191	H319	0.848900	0.085300	0.453500
N4281	N428	0.877630	0.129490	0.503960
H3201	H320	0.882800	0.141800	0.523300
H3211	H321	0.889700	0.133100	0.484100
N4291	N429	0.881260	0.194630	0.573520
N4301	N430	0.892860	0.218410	0.546110
N4311	N431	0.832780	0.215780	0.545310
H3221	H322	0.810400	0.219400	0.539100
N4321	N432	0.861100	0.255400	0.502000
H3231	H323	0.880900	0.264500	0.493200
H3241	H324	0.840300	0.261900	0.493200
C2131	C213	0.810970	0.063320	0.486060
C2141	C214	0.850080	0.103940	0.504780
C2151	C215	0.845090	0.193710	0.572740
C2161	C216	0.862660	0.230730	0.530000
Cu1091	Cu109	0.331180	0.608790	0.585990
Cu1101	Cu110	0.268750	0.546520	0.554810
S1091	S109	0.288560	0.532140	0.457470
S1101	S110	0.316090	0.668350	0.601060
N4331	N433	0.304830	0.569360	0.520980
N4341	N434	0.330080	0.596060	0.533040
N4351	N435	0.339480	0.584470	0.474980
H3251	H325	0.348900	0.585300	0.453500
N4361	N436	0.377630	0.629490	0.503960
H3261	H326	0.382800	0.641800	0.523300
H3271	H327	0.389700	0.633100	0.484100
N4371	N437	0.381260	0.694630	0.573520
N4381	N438	0.392860	0.718410	0.546110
N4391	N439	0.332780	0.715780	0.545310
H3281	H328	0.310400	0.719400	0.539100
N4401	N440	0.361100	0.755400	0.502000
H3291	H329	0.380900	0.764500	0.493200
H3301	H330	0.340300	0.761900	0.493200
C2171	C217	0.310970	0.563320	0.486060
C2181	C218	0.350080	0.603940	0.504780
C2191	C219	0.345090	0.693710	0.572740
C2201	C220	0.362660	0.730730	0.530000
Cu1111	Cu111	0.331180	0.108790	0.085990
Cu1121	Cu112	0.268750	0.046520	0.054810
S1111	S111	0.288560	0.032140	0.957470
S1121	S112	0.316090	0.168350	0.101060
N4411	N441	0.304830	0.069360	0.020980
N4421	N442	0.330080	0.096060	0.033040
N4431	N443	0.339480	0.084470	0.974980
H3311	H331	0.348900	0.085300	0.953500
N4441	N444	0.377630	0.129490	0.003960
H3321	H332	0.382800	0.141800	0.023300
H3331	H333	0.389700	0.133100	0.984100
N4451	N445	0.381260	0.194630	0.073520
N4461	N446	0.392860	0.218410	0.046110
N4471	N447	0.332780	0.215780	0.045310
H3341	H334	0.310400	0.219400	0.039100
N4481	N448	0.361100	0.255400	0.002000
H3351	H335	0.380900	0.264500	0.993200
H3361	H336	0.340300	0.261900	0.993200
C2211	C221	0.310970	0.063320	0.986060
C2221	C222	0.350080	0.103940	0.004780
C2231	C223	0.345090	0.193710	0.072740
C2241	C224	0.362660	0.230730	0.030000
Cu1131	Cu113	0.168820	0.608790	0.914010
Cu1141	Cu114	0.231250	0.546520	0.945190
S1131	S113	0.211440	0.532140	0.042530
S1141	S114	0.183910	0.668350	0.898940
N4491	N449	0.195170	0.569360	0.979020
N4501	N450	0.169920	0.596060	0.966960
N4511	N451	0.160520	0.584470	0.025020
H3371	H337	0.151100	0.585300	0.046500
N4521	N452	0.122370	0.629490	0.996040
H3381	H338	0.117200	0.641800	0.976700
H3391	H339	0.110300	0.633100	0.015900
N4531	N453	0.118740	0.694630	0.926480
N4541	N454	0.107140	0.718410	0.953890
N4551	N455	0.167220	0.715780	0.954690
H3401	H340	0.189600	0.719400	0.960900
N4561	N456	0.138900	0.755400	0.998000
H3411	H341	0.119100	0.764500	0.006800
H3421	H342	0.159700	0.761900	0.006800
C2251	C225	0.189030	0.563320	0.013940
C2261	C226	0.149920	0.603940	0.995220
C2271	C227	0.154910	0.693710	0.927260
C2281	C228	0.137340	0.730730	0.970000
Cu1151	Cu115	0.168820	0.108790	0.414010
Cu1161	Cu116	0.231250	0.046520	0.445190
S1151	S115	0.211440	0.032140	0.542530
S1161	S116	0.183910	0.168350	0.398940
N4571	N457	0.195170	0.069360	0.479020
N4581	N458	0.169920	0.096060	0.466960
N4591	N459	0.160520	0.084470	0.525020
H3431	H343	0.151100	0.085300	0.546500
N4601	N460	0.122370	0.129490	0.496040
H3441	H344	0.117200	0.141800	0.476700
H3451	H345	0.110300	0.133100	0.515900
N4611	N461	0.118740	0.194630	0.426480
N4621	N462	0.107140	0.218410	0.453890
N4631	N463	0.167220	0.215780	0.454690
H3461	H346	0.189600	0.219400	0.460900
N4641	N464	0.138900	0.255400	0.498000
H3471	H347	0.119100	0.264500	0.506800
H3481	H348	0.159700	0.261900	0.506800
C2291	C229	0.189030	0.063320	0.513940
C2301	C230	0.149920	0.103940	0.495220
C2311	C231	0.154910	0.193710	0.427260
C2321	C232	0.137340	0.230730	0.470000
Cu1171	Cu117	0.668820	0.608790	0.414010
Cu1181	Cu118	0.731250	0.546520	0.445190
S1171	S117	0.711440	0.532140	0.542530
S1181	S118	0.683910	0.668350	0.398940
N4651	N465	0.695170	0.569360	0.479020
N4661	N466	0.669920	0.596060	0.466960
N4671	N467	0.660520	0.584470	0.525020
H3491	H349	0.651100	0.585300	0.546500
N4681	N468	0.622370	0.629490	0.496040
H3501	H350	0.617200	0.641800	0.476700
H3511	H351	0.610300	0.633100	0.515900
N4691	N469	0.618740	0.694630	0.426480
N4701	N470	0.607140	0.718410	0.453890
N4711	N471	0.667220	0.715780	0.454690
H3521	H352	0.689600	0.719400	0.460900
N4721	N472	0.638900	0.755400	0.498000
H3531	H353	0.619100	0.764500	0.506800
H3541	H354	0.659700	0.761900	0.506800
C2331	C233	0.689030	0.563320	0.513940
C2341	C234	0.649920	0.603940	0.495220
C2351	C235	0.654910	0.693710	0.427260
C2361	C236	0.637340	0.730730	0.470000
Cu1191	Cu119	0.668820	0.108790	0.914010
Cu1201	Cu120	0.731250	0.046520	0.945190
S1191	S119	0.711440	0.032140	0.042530
S1201	S120	0.683910	0.168350	0.898940
N4731	N473	0.695170	0.069360	0.979020
N4741	N474	0.669920	0.096060	0.966960
N4751	N475	0.660520	0.084470	0.025020
H3551	H355	0.651100	0.085300	0.046500
N4761	N476	0.622370	0.129490	0.996040
H3561	H356	0.617200	0.141800	0.976700
H3571	H357	0.610300	0.133100	0.015900
N4771	N477	0.618740	0.194630	0.926480
N4781	N478	0.607140	0.218410	0.953890
N4791	N479	0.667220	0.215780	0.954690
H3581	H358	0.689600	0.219400	0.960900
N4801	N480	0.638900	0.255400	0.998000
H3591	H359	0.619100	0.264500	0.006800
H3601	H360	0.659700	0.261900	0.006800
C2371	C237	0.689030	0.063320	0.013940
C2381	C238	0.649920	0.103940	0.995220
C2391	C239	0.654910	0.193710	0.927260
C2401	C240	0.637340	0.230730	0.970000
Cu1211	Cu121	0.831180	0.391210	0.914010
Cu1221	Cu122	0.768750	0.453480	0.945190
S1211	S121	0.788560	0.467860	0.042530
S1221	S122	0.816090	0.331650	0.898940
N4811	N481	0.804830	0.430640	0.979020
N4821	N482	0.830080	0.403940	0.966960
N4831	N483	0.839480	0.415530	0.025020
H3611	H361	0.848900	0.414700	0.046500
N4841	N484	0.877630	0.370510	0.996040
H3621	H362	0.882800	0.358200	0.976700
H3631	H363	0.889700	0.366900	0.015900
N4851	N485	0.881260	0.305370	0.926480
N4861	N486	0.892860	0.281590	0.953890
N4871	N487	0.832780	0.284220	0.954690
H3641	H364	0.810400	0.280600	0.960900
N4881	N488	0.861100	0.244600	0.998000
H3651	H365	0.880900	0.235500	0.006800
H3661	H366	0.840300	0.238100	0.006800
C2411	C241	0.810970	0.436680	0.013940
C2421	C242	0.850080	0.396060	0.995220
C2431	C243	0.845090	0.306290	0.927260
C2441	C244	0.862660	0.269270	0.970000
Cu1231	Cu123	0.831180	0.891210	0.414010
Cu1241	Cu124	0.768750	0.953480	0.445190
S1231	S123	0.788560	0.967860	0.542530
S1241	S124	0.816090	0.831650	0.398940
N4891	N489	0.804830	0.930640	0.479020
N4901	N490	0.830080	0.903940	0.466960
N4911	N491	0.839480	0.915530	0.525020
H3671	H367	0.848900	0.914700	0.546500
N4921	N492	0.877630	0.870510	0.496040
H3681	H368	0.882800	0.858200	0.476700
H3691	H369	0.889700	0.866900	0.515900
N4931	N493	0.881260	0.805370	0.426480
N4941	N494	0.892860	0.781590	0.453890
N4951	N495	0.832780	0.784220	0.454690
H3701	H370	0.810400	0.780600	0.460900
N4961	N496	0.861100	0.744600	0.498000
H3711	H371	0.880900	0.735500	0.506800
H3721	H372	0.840300	0.738100	0.506800
C2451	C245	0.810970	0.936680	0.513940
C2461	C246	0.850080	0.896060	0.495220
C2471	C247	0.845090	0.806290	0.427260
C2481	C248	0.862660	0.769270	0.470000
Cu1251	Cu125	0.331180	0.391210	0.414010
Cu1261	Cu126	0.268750	0.453480	0.445190
S1251	S125	0.288560	0.467860	0.542530
S1261	S126	0.316090	0.331650	0.398940
N4971	N497	0.304830	0.430640	0.479020
N4981	N498	0.330080	0.403940	0.466960
N4991	N499	0.339480	0.415530	0.525020
H3731	H373	0.348900	0.414700	0.546500
N5001	N500	0.377630	0.370510	0.496040
H3741	H374	0.382800	0.358200	0.476700
H3751	H375	0.389700	0.366900	0.515900
N5011	N501	0.381260	0.305370	0.426480
N5021	N502	0.392860	0.281590	0.453890
N5031	N503	0.332780	0.284220	0.454690
H3761	H376	0.310400	0.280600	0.460900
N5041	N504	0.361100	0.244600	0.498000
H3771	H377	0.380900	0.235500	0.506800
H3781	H378	0.340300	0.238100	0.506800
C2491	C249	0.310970	0.436680	0.513940
C2501	C250	0.350080	0.396060	0.495220
C2511	C251	0.345090	0.306290	0.427260
C2521	C252	0.362660	0.269270	0.470000
Cu1271	Cu127	0.331180	0.891210	0.914010
Cu1281	Cu128	0.268750	0.953480	0.945190
S1271	S127	0.288560	0.967860	0.042530
S1281	S128	0.316090	0.831650	0.898940
N5051	N505	0.304830	0.930640	0.979020
N5061	N506	0.330080	0.903940	0.966960
N5071	N507	0.339480	0.915530	0.025020
H3791	H379	0.348900	0.914700	0.046500
N5081	N508	0.377630	0.870510	0.996040
H3801	H380	0.382800	0.858200	0.976700
H3811	H381	0.389700	0.866900	0.015900
N5091	N509	0.381260	0.805370	0.926480
N5101	N510	0.392860	0.781590	0.953890
N5111	N511	0.332780	0.784220	0.954690
H3821	H382	0.310400	0.780600	0.960900
N5121	N512	0.361100	0.744600	0.998000
H3831	H383	0.380900	0.735500	0.006800
H3841	H384	0.340300	0.738100	0.006800
C2531	C253	0.310970	0.936680	0.013940
C2541	C254	0.350080	0.896060	0.995220
C2551	C255	0.345090	0.806290	0.927260
C2561	C256	0.362660	0.769270	0.970000
Cu1291	Cu129	0.391210	0.085990	0.168820
Cu1301	Cu130	0.453480	0.054810	0.231250
S1291	S129	0.467860	0.957470	0.211440
S1301	S130	0.331650	0.101060	0.183910
N5131	N513	0.430640	0.020980	0.195170
N5141	N514	0.403940	0.033040	0.169920
N5151	N515	0.415530	0.974980	0.160520
H3851	H385	0.414700	0.953500	0.151100
N5161	N516	0.370510	0.003960	0.122370
H3861	H386	0.358200	0.023300	0.117200
H3871	H387	0.366900	0.984100	0.110300
N5171	N517	0.305370	0.073520	0.118740
N5181	N518	0.281590	0.046110	0.107140
N5191	N519	0.284220	0.045310	0.167220
H3881	H388	0.280600	0.039100	0.189600
N5201	N520	0.244600	0.002000	0.138900
H3891	H389	0.235500	0.993200	0.119100
H3901	H390	0.238100	0.993200	0.159700
C2571	C257	0.436680	0.986060	0.189030
C2581	C258	0.396060	0.004780	0.149920
C2591	C259	0.306290	0.072740	0.154910
C2601	C260	0.269270	0.030000	0.137340
Cu1311	Cu131	0.391210	0.585990	0.668820
Cu1321	Cu132	0.453480	0.554810	0.731250
S1311	S131	0.467860	0.457470	0.711440
S1321	S132	0.331650	0.601060	0.683910
N5211	N521	0.430640	0.520980	0.695170
N5221	N522	0.403940	0.533040	0.669920
N5231	N523	0.415530	0.474980	0.660520
H3911	H391	0.414700	0.453500	0.651100
N5241	N524	0.370510	0.503960	0.622370
H3921	H392	0.358200	0.523300	0.617200
H3931	H393	0.366900	0.484100	0.610300
N5251	N525	0.305370	0.573520	0.618740
N5261	N526	0.281590	0.546110	0.607140
N5271	N527	0.284220	0.545310	0.667220
H3941	H394	0.280600	0.539100	0.689600
N5281	N528	0.244600	0.502000	0.638900
H3951	H395	0.235500	0.493200	0.619100
H3961	H396	0.238100	0.493200	0.659700
C2611	C261	0.436680	0.486060	0.689030
C2621	C262	0.396060	0.504780	0.649920
C2631	C263	0.306290	0.572740	0.654910
C2641	C264	0.269270	0.530000	0.637340
Cu1331	Cu133	0.891210	0.085990	0.668820
Cu1341	Cu134	0.953480	0.054810	0.731250
S1331	S133	0.967860	0.957470	0.711440
S1341	S134	0.831650	0.101060	0.683910
N5291	N529	0.930640	0.020980	0.695170
N5301	N530	0.903940	0.033040	0.669920
N5311	N531	0.915530	0.974980	0.660520
H3971	H397	0.914700	0.953500	0.651100
N5321	N532	0.870510	0.003960	0.622370
H3981	H398	0.858200	0.023300	0.617200
H3991	H399	0.866900	0.984100	0.610300
N5331	N533	0.805370	0.073520	0.618740
N5341	N534	0.781590	0.046110	0.607140
N5351	N535	0.784220	0.045310	0.667220
H4001	H400	0.780600	0.039100	0.689600
N5361	N536	0.744600	0.002000	0.638900
H4011	H401	0.735500	0.993200	0.619100
H4021	H402	0.738100	0.993200	0.659700
C2651	C265	0.936680	0.986060	0.689030
C2661	C266	0.896060	0.004780	0.649920
C2671	C267	0.806290	0.072740	0.654910
C2681	C268	0.769270	0.030000	0.637340
Cu1351	Cu135	0.891210	0.585990	0.168820
Cu1361	Cu136	0.953480	0.554810	0.231250
S1351	S135	0.967860	0.457470	0.211440
S1361	S136	0.831650	0.601060	0.183910
N5371	N537	0.930640	0.520980	0.195170
N5381	N538	0.903940	0.533040	0.169920
N5391	N539	0.915530	0.474980	0.160520
H4031	H403	0.914700	0.453500	0.151100
N5401	N540	0.870510	0.503960	0.122370
H4041	H404	0.858200	0.523300	0.117200
H4051	H405	0.866900	0.484100	0.110300
N5411	N541	0.805370	0.573520	0.118740
N5421	N542	0.781590	0.546110	0.107140
N5431	N543	0.784220	0.545310	0.167220
H4061	H406	0.780600	0.539100	0.189600
N5441	N544	0.744600	0.502000	0.138900
H4071	H407	0.735500	0.493200	0.119100
H4081	H408	0.738100	0.493200	0.159700
C2691	C269	0.936680	0.486060	0.189030
C2701	C270	0.896060	0.504780	0.149920
C2711	C271	0.806290	0.572740	0.154910
C2721	C272	0.769270	0.530000	0.137340
Cu1371	Cu137	0.608790	0.085990	0.831180
Cu1381	Cu138	0.546520	0.054810	0.768750
S1371	S137	0.532140	0.957470	0.788560
S1381	S138	0.668350	0.101060	0.816090
N5451	N545	0.569360	0.020980	0.804830
N5461	N546	0.596060	0.033040	0.830080
N5471	N547	0.584470	0.974980	0.839480
H4091	H409	0.585300	0.953500	0.848900
N5481	N548	0.629490	0.003960	0.877630
H4101	H410	0.641800	0.023300	0.882800
H4111	H411	0.633100	0.984100	0.889700
N5491	N549	0.694630	0.073520	0.881260
N5501	N550	0.718410	0.046110	0.892860
N5511	N551	0.715780	0.045310	0.832780
H4121	H412	0.719400	0.039100	0.810400
N5521	N552	0.755400	0.002000	0.861100
H4131	H413	0.764500	0.993200	0.880900
H4141	H414	0.761900	0.993200	0.840300
C2731	C273	0.563320	0.986060	0.810970
C2741	C274	0.603940	0.004780	0.850080
C2751	C275	0.693710	0.072740	0.845090
C2761	C276	0.730730	0.030000	0.862660
Cu1391	Cu139	0.608790	0.585990	0.331180
Cu1401	Cu140	0.546520	0.554810	0.268750
S1391	S139	0.532140	0.457470	0.288560
S1401	S140	0.668350	0.601060	0.316090
N5531	N553	0.569360	0.520980	0.304830
N5541	N554	0.596060	0.533040	0.330080
N5551	N555	0.584470	0.474980	0.339480
H4151	H415	0.585300	0.453500	0.348900
N5561	N556	0.629490	0.503960	0.377630
H4161	H416	0.641800	0.523300	0.382800
H4171	H417	0.633100	0.484100	0.389700
N5571	N557	0.694630	0.573520	0.381260
N5581	N558	0.718410	0.546110	0.392860
N5591	N559	0.715780	0.545310	0.332780
H4181	H418	0.719400	0.539100	0.310400
N5601	N560	0.755400	0.502000	0.361100
H4191	H419	0.764500	0.493200	0.380900
H4201	H420	0.761900	0.493200	0.340300
C2771	C277	0.563320	0.486060	0.310970
C2781	C278	0.603940	0.504780	0.350080
C2791	C279	0.693710	0.572740	0.345090
C2801	C280	0.730730	0.530000	0.362660
Cu1411	Cu141	0.108790	0.085990	0.331180
Cu1421	Cu142	0.046520	0.054810	0.268750
S1411	S141	0.032140	0.957470	0.288560
S1421	S142	0.168350	0.101060	0.316090
N5611	N561	0.069360	0.020980	0.304830
N5621	N562	0.096060	0.033040	0.330080
N5631	N563	0.084470	0.974980	0.339480
H4211	H421	0.085300	0.953500	0.348900
N5641	N564	0.129490	0.003960	0.377630
H4221	H422	0.141800	0.023300	0.382800
H4231	H423	0.133100	0.984100	0.389700
N5651	N565	0.194630	0.073520	0.381260
N5661	N566	0.218410	0.046110	0.392860
N5671	N567	0.215780	0.045310	0.332780
H4241	H424	0.219400	0.039100	0.310400
N5681	N568	0.255400	0.002000	0.361100
H4251	H425	0.264500	0.993200	0.380900
H4261	H426	0.261900	0.993200	0.340300
C2811	C281	0.063320	0.986060	0.310970
C2821	C282	0.103940	0.004780	0.350080
C2831	C283	0.193710	0.072740	0.345090
C2841	C284	0.230730	0.030000	0.362660
Cu1431	Cu143	0.108790	0.585990	0.831180
Cu1441	Cu144	0.046520	0.554810	0.768750
S1431	S143	0.032140	0.457470	0.788560
S1441	S144	0.168350	0.601060	0.816090
N5691	N569	0.069360	0.520980	0.804830
N5701	N570	0.096060	0.533040	0.830080
N5711	N571	0.084470	0.474980	0.839480
H4271	H427	0.085300	0.453500	0.848900
N5721	N572	0.129490	0.503960	0.877630
H4281	H428	0.141800	0.523300	0.882800
H4291	H429	0.133100	0.484100	0.889700
N5731	N573	0.194630	0.573520	0.881260
N5741	N574	0.218410	0.546110	0.892860
N5751	N575	0.215780	0.545310	0.832780
H4301	H430	0.219400	0.539100	0.810400
N5761	N576	0.255400	0.502000	0.861100
H4311	H431	0.264500	0.493200	0.880900
H4321	H432	0.261900	0.493200	0.840300
C2851	C285	0.063320	0.486060	0.810970
C2861	C286	0.103940	0.504780	0.850080
C2871	C287	0.193710	0.572740	0.845090
C2881	C288	0.230730	0.530000	0.862660
Cu1451	Cu145	0.608790	0.914010	0.168820
Cu1461	Cu146	0.546520	0.945190	0.231250
S1451	S145	0.532140	0.042530	0.211440
S1461	S146	0.668350	0.898940	0.183910
N5771	N577	0.569360	0.979020	0.195170
N5781	N578	0.596060	0.966960	0.169920
N5791	N579	0.584470	0.025020	0.160520
H4331	H433	0.585300	0.046500	0.151100
N5801	N580	0.629490	0.996040	0.122370
H4341	H434	0.641800	0.976700	0.117200
H4351	H435	0.633100	0.015900	0.110300
N5811	N581	0.694630	0.926480	0.118740
N5821	N582	0.718410	0.953890	0.107140
N5831	N583	0.715780	0.954690	0.167220
H4361	H436	0.719400	0.960900	0.189600
N5841	N584	0.755400	0.998000	0.138900
H4371	H437	0.764500	0.006800	0.119100
H4381	H438	0.761900	0.006800	0.159700
C2891	C289	0.563320	0.013940	0.189030
C2901	C290	0.603940	0.995220	0.149920
C2911	C291	0.693710	0.927260	0.154910
C2921	C292	0.730730	0.970000	0.137340
Cu1471	Cu147	0.608790	0.414010	0.668820
Cu1481	Cu148	0.546520	0.445190	0.731250
S1471	S147	0.532140	0.542530	0.711440
S1481	S148	0.668350	0.398940	0.683910
N5851	N585	0.569360	0.479020	0.695170
N5861	N586	0.596060	0.466960	0.669920
N5871	N587	0.584470	0.525020	0.660520
H4391	H439	0.585300	0.546500	0.651100
N5881	N588	0.629490	0.496040	0.622370
H4401	H440	0.641800	0.476700	0.617200
H4411	H441	0.633100	0.515900	0.610300
N5891	N589	0.694630	0.426480	0.618740
N5901	N590	0.718410	0.453890	0.607140
N5911	N591	0.715780	0.454690	0.667220
H4421	H442	0.719400	0.460900	0.689600
N5921	N592	0.755400	0.498000	0.638900
H4431	H443	0.764500	0.506800	0.619100
H4441	H444	0.761900	0.506800	0.659700
C2931	C293	0.563320	0.513940	0.689030
C2941	C294	0.603940	0.495220	0.649920
C2951	C295	0.693710	0.427260	0.654910
C2961	C296	0.730730	0.470000	0.637340
Cu1491	Cu149	0.108790	0.914010	0.668820
Cu1501	Cu150	0.046520	0.945190	0.731250
S1491	S149	0.032140	0.042530	0.711440
S1501	S150	0.168350	0.898940	0.683910
N5931	N593	0.069360	0.979020	0.695170
N5941	N594	0.096060	0.966960	0.669920
N5951	N595	0.084470	0.025020	0.660520
H4451	H445	0.085300	0.046500	0.651100
N5961	N596	0.129490	0.996040	0.622370
H4461	H446	0.141800	0.976700	0.617200
H4471	H447	0.133100	0.015900	0.610300
N5971	N597	0.194630	0.926480	0.618740
N5981	N598	0.218410	0.953890	0.607140
N5991	N599	0.215780	0.954690	0.667220
H4481	H448	0.219400	0.960900	0.689600
N6001	N600	0.255400	0.998000	0.638900
H4491	H449	0.264500	0.006800	0.619100
H4501	H450	0.261900	0.006800	0.659700
C2971	C297	0.063320	0.013940	0.689030
C2981	C298	0.103940	0.995220	0.649920
C2991	C299	0.193710	0.927260	0.654910
C3001	C300	0.230730	0.970000	0.637340
Cu1511	Cu151	0.108790	0.414010	0.168820
Cu1521	Cu152	0.046520	0.445190	0.231250
S1511	S151	0.032140	0.542530	0.211440
S1521	S152	0.168350	0.398940	0.183910
N6011	N601	0.069360	0.479020	0.195170
N6021	N602	0.096060	0.466960	0.169920
N6031	N603	0.084470	0.525020	0.160520
H4511	H451	0.085300	0.546500	0.151100
N6041	N604	0.129490	0.496040	0.122370
H4521	H452	0.141800	0.476700	0.117200
H4531	H453	0.133100	0.515900	0.110300
N6051	N605	0.194630	0.426480	0.118740
N6061	N606	0.218410	0.453890	0.107140
N6071	N607	0.215780	0.454690	0.167220
H4541	H454	0.219400	0.460900	0.189600
N6081	N608	0.255400	0.498000	0.138900
H4551	H455	0.264500	0.506800	0.119100
H4561	H456	0.261900	0.506800	0.159700
C3011	C301	0.063320	0.513940	0.189030
C3021	C302	0.103940	0.495220	0.149920
C3031	C303	0.193710	0.427260	0.154910
C3041	C304	0.230730	0.470000	0.137340
Cu1531	Cu153	0.391210	0.914010	0.831180
Cu1541	Cu154	0.453480	0.945190	0.768750
S1531	S153	0.467860	0.042530	0.788560
S1541	S154	0.331650	0.898940	0.816090
N6091	N609	0.430640	0.979020	0.804830
N6101	N610	0.403940	0.966960	0.830080
N6111	N611	0.415530	0.025020	0.839480
H4571	H457	0.414700	0.046500	0.848900
N6121	N612	0.370510	0.996040	0.877630
H4581	H458	0.358200	0.976700	0.882800
H4591	H459	0.366900	0.015900	0.889700
N6131	N613	0.305370	0.926480	0.881260
N6141	N614	0.281590	0.953890	0.892860
N6151	N615	0.284220	0.954690	0.832780
H4601	H460	0.280600	0.960900	0.810400
N6161	N616	0.244600	0.998000	0.861100
H4611	H461	0.235500	0.006800	0.880900
H4621	H462	0.238100	0.006800	0.840300
C3051	C305	0.436680	0.013940	0.810970
C3061	C306	0.396060	0.995220	0.850080
C3071	C307	0.306290	0.927260	0.845090
C3081	C308	0.269270	0.970000	0.862660
Cu1551	Cu155	0.391210	0.414010	0.331180
Cu1561	Cu156	0.453480	0.445190	0.268750
S1551	S155	0.467860	0.542530	0.288560
S1561	S156	0.331650	0.398940	0.316090
N6171	N617	0.430640	0.479020	0.304830
N6181	N618	0.403940	0.466960	0.330080
N6191	N619	0.415530	0.525020	0.339480
H4631	H463	0.414700	0.546500	0.348900
N6201	N620	0.370510	0.496040	0.377630
H4641	H464	0.358200	0.476700	0.382800
H4651	H465	0.366900	0.515900	0.389700
N6211	N621	0.305370	0.426480	0.381260
N6221	N622	0.281590	0.453890	0.392860
N6231	N623	0.284220	0.454690	0.332780
H4661	H466	0.280600	0.460900	0.310400
N6241	N624	0.244600	0.498000	0.361100
H4671	H467	0.235500	0.506800	0.380900
H4681	H468	0.238100	0.506800	0.340300
C3091	C309	0.436680	0.513940	0.310970
C3101	C310	0.396060	0.495220	0.350080
C3111	C311	0.306290	0.427260	0.345090
C3121	C312	0.269270	0.470000	0.362660
Cu1571	Cu157	0.891210	0.914010	0.331180
Cu1581	Cu158	0.953480	0.945190	0.268750
S1571	S157	0.967860	0.042530	0.288560
S1581	S158	0.831650	0.898940	0.316090
N6251	N625	0.930640	0.979020	0.304830
N6261	N626	0.903940	0.966960	0.330080
N6271	N627	0.915530	0.025020	0.339480
H4691	H469	0.914700	0.046500	0.348900
N6281	N628	0.870510	0.996040	0.377630
H4701	H470	0.858200	0.976700	0.382800
H4711	H471	0.866900	0.015900	0.389700
N6291	N629	0.805370	0.926480	0.381260
N6301	N630	0.781590	0.953890	0.392860
N6311	N631	0.784220	0.954690	0.332780
H4721	H472	0.780600	0.960900	0.310400
N6321	N632	0.744600	0.998000	0.361100
H4731	H473	0.735500	0.006800	0.380900
H4741	H474	0.738100	0.006800	0.340300
C3131	C313	0.936680	0.013940	0.310970
C3141	C314	0.896060	0.995220	0.350080
C3151	C315	0.806290	0.927260	0.345090
C3161	C316	0.769270	0.970000	0.362660
Cu1591	Cu159	0.891210	0.414010	0.831180
Cu1601	Cu160	0.953480	0.445190	0.768750
S1591	S159	0.967860	0.542530	0.788560
S1601	S160	0.831650	0.398940	0.816090
N6331	N633	0.930640	0.479020	0.804830
N6341	N634	0.903940	0.466960	0.830080
N6351	N635	0.915530	0.525020	0.839480
H4751	H475	0.914700	0.546500	0.848900
N6361	N636	0.870510	0.496040	0.877630
H4761	H476	0.858200	0.476700	0.882800
H4771	H477	0.866900	0.515900	0.889700
N6371	N637	0.805370	0.426480	0.881260
N6381	N638	0.781590	0.453890	0.892860
N6391	N639	0.784220	0.454690	0.832780
H4781	H478	0.780600	0.460900	0.810400
N6401	N640	0.744600	0.498000	0.861100
H4791	H479	0.735500	0.506800	0.880900
H4801	H480	0.738100	0.506800	0.840300
C3171	C317	0.936680	0.513940	0.810970
C3181	C318	0.896060	0.495220	0.850080
C3191	C319	0.806290	0.427260	0.845090
C3201	C320	0.769270	0.470000	0.862660
Cu1611	Cu161	0.085990	0.168820	0.391210
Cu1621	Cu162	0.054810	0.231250	0.453480
S1611	S161	0.957470	0.211440	0.467860
S1621	S162	0.101060	0.183910	0.331650
N6411	N641	0.020980	0.195170	0.430640
N6421	N642	0.033040	0.169920	0.403940
N6431	N643	0.974980	0.160520	0.415530
H4811	H481	0.953500	0.151100	0.414700
N6441	N644	0.003960	0.122370	0.370510
H4821	H482	0.023300	0.117200	0.358200
H4831	H483	0.984100	0.110300	0.366900
N6451	N645	0.073520	0.118740	0.305370
N6461	N646	0.046110	0.107140	0.281590
N6471	N647	0.045310	0.167220	0.284220
H4841	H484	0.039100	0.189600	0.280600
N6481	N648	0.002000	0.138900	0.244600
H4851	H485	0.993200	0.119100	0.235500
H4861	H486	0.993200	0.159700	0.238100
C3211	C321	0.986060	0.189030	0.436680
C3221	C322	0.004780	0.149920	0.396060
C3231	C323	0.072740	0.154910	0.306290
C3241	C324	0.030000	0.137340	0.269270
Cu1631	Cu163	0.085990	0.668820	0.891210
Cu1641	Cu164	0.054810	0.731250	0.953480
S1631	S163	0.957470	0.711440	0.967860
S1641	S164	0.101060	0.683910	0.831650
N6491	N649	0.020980	0.695170	0.930640
N6501	N650	0.033040	0.669920	0.903940
N6511	N651	0.974980	0.660520	0.915530
H4871	H487	0.953500	0.651100	0.914700
N6521	N652	0.003960	0.622370	0.870510
H4881	H488	0.023300	0.617200	0.858200
H4891	H489	0.984100	0.610300	0.866900
N6531	N653	0.073520	0.618740	0.805370
N6541	N654	0.046110	0.607140	0.781590
N6551	N655	0.045310	0.667220	0.784220
H4901	H490	0.039100	0.689600	0.780600
N6561	N656	0.002000	0.638900	0.744600
H4911	H491	0.993200	0.619100	0.735500
H4921	H492	0.993200	0.659700	0.738100
C3251	C325	0.986060	0.689030	0.936680
C3261	C326	0.004780	0.649920	0.896060
C3271	C327	0.072740	0.654910	0.806290
C3281	C328	0.030000	0.637340	0.769270
Cu1651	Cu165	0.585990	0.168820	0.891210
Cu1661	Cu166	0.554810	0.231250	0.953480
S1651	S165	0.457470	0.211440	0.967860
S1661	S166	0.601060	0.183910	0.831650
N6571	N657	0.520980	0.195170	0.930640
N6581	N658	0.533040	0.169920	0.903940
N6591	N659	0.474980	0.160520	0.915530
H4931	H493	0.453500	0.151100	0.914700
N6601	N660	0.503960	0.122370	0.870510
H4941	H494	0.523300	0.117200	0.858200
H4951	H495	0.484100	0.110300	0.866900
N6611	N661	0.573520	0.118740	0.805370
N6621	N662	0.546110	0.107140	0.781590
N6631	N663	0.545310	0.167220	0.784220
H4961	H496	0.539100	0.189600	0.780600
N6641	N664	0.502000	0.138900	0.744600
H4971	H497	0.493200	0.119100	0.735500
H4981	H498	0.493200	0.159700	0.738100
C3291	C329	0.486060	0.189030	0.936680
C3301	C330	0.504780	0.149920	0.896060
C3311	C331	0.572740	0.154910	0.806290
C3321	C332	0.530000	0.137340	0.769270
Cu1671	Cu167	0.585990	0.668820	0.391210
Cu1681	Cu168	0.554810	0.731250	0.453480
S1671	S167	0.457470	0.711440	0.467860
S1681	S168	0.601060	0.683910	0.331650
N6651	N665	0.520980	0.695170	0.430640
N6661	N666	0.533040	0.669920	0.403940
N6671	N667	0.474980	0.660520	0.415530
H4991	H499	0.453500	0.651100	0.414700
N6681	N668	0.503960	0.622370	0.370510
H5001	H500	0.523300	0.617200	0.358200
H5011	H501	0.484100	0.610300	0.366900
N6691	N669	0.573520	0.618740	0.305370
N6701	N670	0.546110	0.607140	0.281590
N6711	N671	0.545310	0.667220	0.284220
H5021	H502	0.539100	0.689600	0.280600
N6721	N672	0.502000	0.638900	0.244600
H5031	H503	0.493200	0.619100	0.235500
H5041	H504	0.493200	0.659700	0.238100
C3331	C333	0.486060	0.689030	0.436680
C3341	C334	0.504780	0.649920	0.396060
C3351	C335	0.572740	0.654910	0.306290
C3361	C336	0.530000	0.637340	0.269270
Cu1691	Cu169	0.085990	0.831180	0.608790
Cu1701	Cu170	0.054810	0.768750	0.546520
S1691	S169	0.957470	0.788560	0.532140
S1701	S170	0.101060	0.816090	0.668350
N6731	N673	0.020980	0.804830	0.569360
N6741	N674	0.033040	0.830080	0.596060
N6751	N675	0.974980	0.839480	0.584470
H5051	H505	0.953500	0.848900	0.585300
N6761	N676	0.003960	0.877630	0.629490
H5061	H506	0.023300	0.882800	0.641800
H5071	H507	0.984100	0.889700	0.633100
N6771	N677	0.073520	0.881260	0.694630
N6781	N678	0.046110	0.892860	0.718410
N6791	N679	0.045310	0.832780	0.715780
H5081	H508	0.039100	0.810400	0.719400
N6801	N680	0.002000	0.861100	0.755400
H5091	H509	0.993200	0.880900	0.764500
H5101	H510	0.993200	0.840300	0.761900
C3371	C337	0.986060	0.810970	0.563320
C3381	C338	0.004780	0.850080	0.603940
C3391	C339	0.072740	0.845090	0.693710
C3401	C340	0.030000	0.862660	0.730730
Cu1711	Cu171	0.085990	0.331180	0.108790
Cu1721	Cu172	0.054810	0.268750	0.046520
S1711	S171	0.957470	0.288560	0.032140
S1721	S172	0.101060	0.316090	0.168350
N6811	N681	0.020980	0.304830	0.069360
N6821	N682	0.033040	0.330080	0.096060
N6831	N683	0.974980	0.339480	0.084470
H5111	H511	0.953500	0.348900	0.085300
N6841	N684	0.003960	0.377630	0.129490
H5121	H512	0.023300	0.382800	0.141800
H5131	H513	0.984100	0.389700	0.133100
N6851	N685	0.073520	0.381260	0.194630
N6861	N686	0.046110	0.392860	0.218410
N6871	N687	0.045310	0.332780	0.215780
H5141	H514	0.039100	0.310400	0.219400
N6881	N688	0.002000	0.361100	0.255400
H5151	H515	0.993200	0.380900	0.264500
H5161	H516	0.993200	0.340300	0.261900
C3411	C341	0.986060	0.310970	0.063320
C3421	C342	0.004780	0.350080	0.103940
C3431	C343	0.072740	0.345090	0.193710
C3441	C344	0.030000	0.362660	0.230730
Cu1731	Cu173	0.585990	0.831180	0.108790
Cu1741	Cu174	0.554810	0.768750	0.046520
S1731	S173	0.457470	0.788560	0.032140
S1741	S174	0.601060	0.816090	0.168350
N6891	N689	0.520980	0.804830	0.069360
N6901	N690	0.533040	0.830080	0.096060
N6911	N691	0.474980	0.839480	0.084470
H5171	H517	0.453500	0.848900	0.085300
N6921	N692	0.503960	0.877630	0.129490
H5181	H518	0.523300	0.882800	0.141800
H5191	H519	0.484100	0.889700	0.133100
N6931	N693	0.573520	0.881260	0.194630
N6941	N694	0.546110	0.892860	0.218410
N6951	N695	0.545310	0.832780	0.215780
H5201	H520	0.539100	0.810400	0.219400
N6961	N696	0.502000	0.861100	0.255400
H5211	H521	0.493200	0.880900	0.264500
H5221	H522	0.493200	0.840300	0.261900
C3451	C345	0.486060	0.810970	0.063320
C3461	C346	0.504780	0.850080	0.103940
C3471	C347	0.572740	0.845090	0.193710
C3481	C348	0.530000	0.862660	0.230730
Cu1751	Cu175	0.585990	0.331180	0.608790
Cu1761	Cu176	0.554810	0.268750	0.546520
S1751	S175	0.457470	0.288560	0.532140
S1761	S176	0.601060	0.316090	0.668350
N6971	N697	0.520980	0.304830	0.569360
N6981	N698	0.533040	0.330080	0.596060
N6991	N699	0.474980	0.339480	0.584470
H5231	H523	0.453500	0.348900	0.585300
N7001	N700	0.503960	0.377630	0.629490
H5241	H524	0.523300	0.382800	0.641800
H5251	H525	0.484100	0.389700	0.633100
N7011	N701	0.573520	0.381260	0.694630
N7021	N702	0.546110	0.392860	0.718410
N7031	N703	0.545310	0.332780	0.715780
H5261	H526	0.539100	0.310400	0.719400
N7041	N704	0.502000	0.361100	0.755400
H5271	H527	0.493200	0.380900	0.764500
H5281	H528	0.493200	0.340300	0.761900
C3491	C349	0.486060	0.310970	0.563320
C3501	C350	0.504780	0.350080	0.603940
C3511	C351	0.572740	0.345090	0.693710
C3521	C352	0.530000	0.362660	0.730730
Cu1771	Cu177	0.914010	0.168820	0.608790
Cu1781	Cu178	0.945190	0.231250	0.546520
S1771	S177	0.042530	0.211440	0.532140
S1781	S178	0.898940	0.183910	0.668350
N7051	N705	0.979020	0.195170	0.569360
N7061	N706	0.966960	0.169920	0.596060
N7071	N707	0.025020	0.160520	0.584470
H5291	H529	0.046500	0.151100	0.585300
N7081	N708	0.996040	0.122370	0.629490
H5301	H530	0.976700	0.117200	0.641800
H5311	H531	0.015900	0.110300	0.633100
N7091	N709	0.926480	0.118740	0.694630
N7101	N710	0.953890	0.107140	0.718410
N7111	N711	0.954690	0.167220	0.715780
H5321	H532	0.960900	0.189600	0.719400
N7121	N712	0.998000	0.138900	0.755400
H5331	H533	0.006800	0.119100	0.764500
H5341	H534	0.006800	0.159700	0.761900
C3531	C353	0.013940	0.189030	0.563320
C3541	C354	0.995220	0.149920	0.603940
C3551	C355	0.927260	0.154910	0.693710
C3561	C356	0.970000	0.137340	0.730730
Cu1791	Cu179	0.914010	0.668820	0.108790
Cu1801	Cu180	0.945190	0.731250	0.046520
S1791	S179	0.042530	0.711440	0.032140
S1801	S180	0.898940	0.683910	0.168350
N7131	N713	0.979020	0.695170	0.069360
N7141	N714	0.966960	0.669920	0.096060
N7151	N715	0.025020	0.660520	0.084470
H5351	H535	0.046500	0.651100	0.085300
N7161	N716	0.996040	0.622370	0.129490
H5361	H536	0.976700	0.617200	0.141800
H5371	H537	0.015900	0.610300	0.133100
N7171	N717	0.926480	0.618740	0.194630
N7181	N718	0.953890	0.607140	0.218410
N7191	N719	0.954690	0.667220	0.215780
H5381	H538	0.960900	0.689600	0.219400
N7201	N720	0.998000	0.638900	0.255400
H5391	H539	0.006800	0.619100	0.264500
H5401	H540	0.006800	0.659700	0.261900
C3571	C357	0.013940	0.689030	0.063320
C3581	C358	0.995220	0.649920	0.103940
C3591	C359	0.927260	0.654910	0.193710
C3601	C360	0.970000	0.637340	0.230730
Cu1811	Cu181	0.414010	0.168820	0.108790
Cu1821	Cu182	0.445190	0.231250	0.046520
S1811	S181	0.542530	0.211440	0.032140
S1821	S182	0.398940	0.183910	0.168350
N7211	N721	0.479020	0.195170	0.069360
N7221	N722	0.466960	0.169920	0.096060
N7231	N723	0.525020	0.160520	0.084470
H5411	H541	0.546500	0.151100	0.085300
N7241	N724	0.496040	0.122370	0.129490
H5421	H542	0.476700	0.117200	0.141800
H5431	H543	0.515900	0.110300	0.133100
N7251	N725	0.426480	0.118740	0.194630
N7261	N726	0.453890	0.107140	0.218410
N7271	N727	0.454690	0.167220	0.215780
H5441	H544	0.460900	0.189600	0.219400
N7281	N728	0.498000	0.138900	0.255400
H5451	H545	0.506800	0.119100	0.264500
H5461	H546	0.506800	0.159700	0.261900
C3611	C361	0.513940	0.189030	0.063320
C3621	C362	0.495220	0.149920	0.103940
C3631	C363	0.427260	0.154910	0.193710
C3641	C364	0.470000	0.137340	0.230730
Cu1831	Cu183	0.414010	0.668820	0.608790
Cu1841	Cu184	0.445190	0.731250	0.546520
S1831	S183	0.542530	0.711440	0.532140
S1841	S184	0.398940	0.683910	0.668350
N7291	N729	0.479020	0.695170	0.569360
N7301	N730	0.466960	0.669920	0.596060
N7311	N731	0.525020	0.660520	0.584470
H5471	H547	0.546500	0.651100	0.585300
N7321	N732	0.496040	0.622370	0.629490
H5481	H548	0.476700	0.617200	0.641800
H5491	H549	0.515900	0.610300	0.633100
N7331	N733	0.426480	0.618740	0.694630
N7341	N734	0.453890	0.607140	0.718410
N7351	N735	0.454690	0.667220	0.715780
H5501	H550	0.460900	0.689600	0.719400
N7361	N736	0.498000	0.638900	0.755400
H5511	H551	0.506800	0.619100	0.764500
H5521	H552	0.506800	0.659700	0.761900
C3651	C365	0.513940	0.689030	0.563320
C3661	C366	0.495220	0.649920	0.603940
C3671	C367	0.427260	0.654910	0.693710
C3681	C368	0.470000	0.637340	0.730730
Cu1851	Cu185	0.914010	0.831180	0.391210
Cu1861	Cu186	0.945190	0.768750	0.453480
S1851	S185	0.042530	0.788560	0.467860
S1861	S186	0.898940	0.816090	0.331650
N7371	N737	0.979020	0.804830	0.430640
N7381	N738	0.966960	0.830080	0.403940
N7391	N739	0.025020	0.839480	0.415530
H5531	H553	0.046500	0.848900	0.414700
N7401	N740	0.996040	0.877630	0.370510
H5541	H554	0.976700	0.882800	0.358200
H5551	H555	0.015900	0.889700	0.366900
N7411	N741	0.926480	0.881260	0.305370
N7421	N742	0.953890	0.892860	0.281590
N7431	N743	0.954690	0.832780	0.284220
H5561	H556	0.960900	0.810400	0.280600
N7441	N744	0.998000	0.861100	0.244600
H5571	H557	0.006800	0.880900	0.235500
H5581	H558	0.006800	0.840300	0.238100
C3691	C369	0.013940	0.810970	0.436680
C3701	C370	0.995220	0.850080	0.396060
C3711	C371	0.927260	0.845090	0.306290
C3721	C372	0.970000	0.862660	0.269270
Cu1871	Cu187	0.914010	0.331180	0.891210
Cu1881	Cu188	0.945190	0.268750	0.953480
S1871	S187	0.042530	0.288560	0.967860
S1881	S188	0.898940	0.316090	0.831650
N7451	N745	0.979020	0.304830	0.930640
N7461	N746	0.966960	0.330080	0.903940
N7471	N747	0.025020	0.339480	0.915530
H5591	H559	0.046500	0.348900	0.914700
N7481	N748	0.996040	0.377630	0.870510
H5601	H560	0.976700	0.382800	0.858200
H5611	H561	0.015900	0.389700	0.866900
N7491	N749	0.926480	0.381260	0.805370
N7501	N750	0.953890	0.392860	0.781590
N7511	N751	0.954690	0.332780	0.784220
H5621	H562	0.960900	0.310400	0.780600
N7521	N752	0.998000	0.361100	0.744600
H5631	H563	0.006800	0.380900	0.735500
H5641	H564	0.006800	0.340300	0.738100
C3731	C373	0.013940	0.310970	0.936680
C3741	C374	0.995220	0.350080	0.896060
C3751	C375	0.927260	0.345090	0.806290
C3761	C376	0.970000	0.362660	0.769270
Cu1891	Cu189	0.414010	0.831180	0.891210
Cu1901	Cu190	0.445190	0.768750	0.953480
S1891	S189	0.542530	0.788560	0.967860
S1901	S190	0.398940	0.816090	0.831650
N7531	N753	0.479020	0.804830	0.930640
N7541	N754	0.466960	0.830080	0.903940
N7551	N755	0.525020	0.839480	0.915530
H5651	H565	0.546500	0.848900	0.914700
N7561	N756	0.496040	0.877630	0.870510
H5661	H566	0.476700	0.882800	0.858200
H5671	H567	0.515900	0.889700	0.866900
N7571	N757	0.426480	0.881260	0.805370
N7581	N758	0.453890	0.892860	0.781590
N7591	N759	0.454690	0.832780	0.784220
H5681	H568	0.460900	0.810400	0.780600
N7601	N760	0.498000	0.861100	0.744600
H5691	H569	0.506800	0.880900	0.735500
H5701	H570	0.506800	0.840300	0.738100
C3771	C377	0.513940	0.810970	0.936680
C3781	C378	0.495220	0.850080	0.896060
C3791	C379	0.427260	0.845090	0.806290
C3801	C380	0.470000	0.862660	0.769270
Cu1911	Cu191	0.414010	0.331180	0.391210
Cu1921	Cu192	0.445190	0.268750	0.453480
S1911	S191	0.542530	0.288560	0.467860
S1921	S192	0.398940	0.316090	0.331650
N7611	N761	0.479020	0.304830	0.430640
N7621	N762	0.466960	0.330080	0.403940
N7631	N763	0.525020	0.339480	0.415530
H5711	H571	0.546500	0.348900	0.414700
N7641	N764	0.496040	0.377630	0.370510
H5721	H572	0.476700	0.382800	0.358200
H5731	H573	0.515900	0.389700	0.366900
N7651	N765	0.426480	0.381260	0.305370
N7661	N766	0.453890	0.392860	0.281590
N7671	N767	0.454690	0.332780	0.284220
H5741	H574	0.460900	0.310400	0.280600
N7681	N768	0.498000	0.361100	0.244600
H5751	H575	0.506800	0.380900	0.235500
H5761	H576	0.506800	0.340300	0.238100
C3811	C381	0.513940	0.310970	0.436680
C3821	C382	0.495220	0.350080	0.396060
C3831	C383	0.427260	0.345090	0.306290
C3841	C384	0.470000	0.362660	0.269270
Cu1931	Cu193	0.852100	0.647900	0.647900
Cl11	Cl1	0.900380	0.599620	0.599620
Cu1941	Cu194	0.852100	0.147900	0.147900
Cl21	Cl2	0.900380	0.099620	0.099620
Cu1951	Cu195	0.147900	0.352100	0.647900
Cl31	Cl3	0.099620	0.400380	0.599620
Cu1961	Cu196	0.147900	0.852100	0.147900
Cl41	Cl4	0.099620	0.900380	0.099620
Cu1971	Cu197	0.147900	0.647900	0.352100
Cl51	Cl5	0.099620	0.599620	0.400380
Cu1981	Cu198	0.147900	0.147900	0.852100
Cl61	Cl6	0.099620	0.099620	0.900380
Cu1991	Cu199	0.852100	0.352100	0.352100
Cl71	Cl7	0.900380	0.400380	0.400380
Cu2001	Cu200	0.852100	0.852100	0.852100
Cl81	Cl8	0.900380	0.900380	0.900380
Cu2011	Cu201	0.647900	0.852100	0.647900
Cl91	Cl9	0.599620	0.900380	0.599620
Cu2021	Cu202	0.647900	0.147900	0.352100
Cl101	Cl10	0.599620	0.099620	0.400380
Cu2031	Cu203	0.352100	0.147900	0.647900
Cl111	Cl11	0.400380	0.099620	0.599620
Cu2041	Cu204	0.352100	0.852100	0.352100
Cl121	Cl12	0.400380	0.900380	0.400380
Cu2051	Cu205	0.647900	0.647900	0.852100
Cl131	Cl13	0.599620	0.599620	0.900380
Cu2061	Cu206	0.352100	0.647900	0.147900
Cl141	Cl14	0.400380	0.599620	0.099620
Cu2071	Cu207	0.647900	0.352100	0.147900
Cl151	Cl15	0.599620	0.400380	0.099620
Cu2081	Cu208	0.352100	0.352100	0.852100
Cl161	Cl16	0.400380	0.400380	0.900380
Cu2091	Cu209	0.147900	0.352100	0.147900
Cl171	Cl17	0.099620	0.400380	0.099620
Cu2101	Cu210	0.852100	0.647900	0.147900
Cl181	Cl18	0.900380	0.599620	0.099620
Cu2111	Cu211	0.147900	0.647900	0.852100
Cl191	Cl19	0.099620	0.599620	0.900380
Cu2121	Cu212	0.852100	0.352100	0.852100
Cl201	Cl20	0.900380	0.400380	0.900380
Cu2131	Cu213	0.352100	0.147900	0.147900
Cl211	Cl21	0.400380	0.099620	0.099620
Cu2141	Cu214	0.352100	0.647900	0.647900
Cl221	Cl22	0.400380	0.599620	0.599620
Cu2151	Cu215	0.647900	0.147900	0.852100
Cl231	Cl23	0.599620	0.099620	0.900380
Cu2161	Cu216	0.647900	0.647900	0.352100
Cl241	Cl24	0.599620	0.599620	0.400380
Cu2171	Cu217	0.647900	0.852100	0.147900
Cl251	Cl25	0.599620	0.900380	0.099620
Cu2181	Cu218	0.647900	0.352100	0.647900
Cl261	Cl26	0.599620	0.400380	0.599620
Cu2191	Cu219	0.352100	0.852100	0.852100
Cl271	Cl27	0.400380	0.900380	0.900380
Cu2201	Cu220	0.352100	0.352100	0.352100
Cl281	Cl28	0.400380	0.400380	0.400380
Cu2211	Cu221	0.147900	0.147900	0.352100
Cl291	Cl29	0.099620	0.099620	0.400380
Cu2221	Cu222	0.147900	0.852100	0.647900
Cl301	Cl30	0.099620	0.900380	0.599620
Cu2231	Cu223	0.852100	0.147900	0.647900
Cl311	Cl31	0.900380	0.099620	0.599620
Cu2241	Cu224	0.852100	0.852100	0.352100
Cl321	Cl32	0.900380	0.900380	0.400380
Cu2251	Cu225	0.000000	0.750000	0.500000
Cu2261	Cu226	0.000000	0.250000	0.000000
Cu2271	Cu227	0.500000	0.750000	0.000000
Cu2281	Cu228	0.500000	0.250000	0.500000
Cu2291	Cu229	0.000000	0.250000	0.500000
Cu2301	Cu230	0.000000	0.750000	0.000000
Cu2311	Cu231	0.500000	0.250000	0.000000
Cu2321	Cu232	0.500000	0.750000	0.500000
Cu2331	Cu233	0.500000	0.000000	0.750000
Cu2341	Cu234	0.500000	0.500000	0.250000
Cu2351	Cu235	0.000000	0.000000	0.250000
Cu2361	Cu236	0.000000	0.500000	0.750000
Cu2371	Cu237	0.500000	0.000000	0.250000
Cu2381	Cu238	0.500000	0.500000	0.750000
Cu2391	Cu239	0.000000	0.000000	0.750000
Cu2401	Cu240	0.000000	0.500000	0.250000
Cu2411	Cu241	0.750000	0.500000	0.000000
Cu2421	Cu242	0.750000	0.000000	0.500000
Cu2431	Cu243	0.250000	0.500000	0.500000
Cu2441	Cu244	0.250000	0.000000	0.000000
Cu2451	Cu245	0.250000	0.500000	0.000000
Cu2461	Cu246	0.250000	0.000000	0.500000
Cu2471	Cu247	0.750000	0.500000	0.500000
Cu2481	Cu248	0.750000	0.000000	0.000000
