data_BURHUS_clean_PM
_symmetry_space_group_name_H-M	'P1'
_cell_length_a	15.882000
_cell_length_b	8.462000
_cell_length_c	16.096000
_cell_angle_alpha	90.000000
_cell_angle_beta	112.563000
_cell_angle_gamma	90.000000
_symmetry_Int_Tables_number 1

loop_
_symmetry_equiv_pos_as_xyz
'x,y,z'

loop_
_atom_site_label
_atom_site_type_symbol
_atom_site_fract_x
_atom_site_fract_y
_atom_site_fract_z
Co11	Co1	0.363900	0.136540	0.476260
P11	P1	0.152530	0.136760	0.363340
P21	P2	0.020180	0.629880	0.400780
O11	O1	0.111300	0.248800	0.284660
O21	O2	0.248150	0.096500	0.375670
O31	O3	0.139600	0.189900	0.446420
O41	O4	0.108490	0.580700	0.476360
O51	O5	0.974430	0.491900	0.340590
O61	O6	0.956190	0.715100	0.434600
H11	H1	0.110000	0.006000	0.344000
H21	H2	0.042000	0.737000	0.353000
Co21	Co2	0.863900	0.636540	0.476260
P31	P3	0.652530	0.636760	0.363340
P41	P4	0.520180	0.129880	0.400780
O71	O7	0.611300	0.748800	0.284660
O81	O8	0.748150	0.596500	0.375670
O91	O9	0.639600	0.689900	0.446420
O101	O10	0.608490	0.080700	0.476360
O111	O11	0.474430	0.991900	0.340590
O121	O12	0.456190	0.215100	0.434600
H31	H3	0.610000	0.506000	0.344000
H41	H4	0.542000	0.237000	0.353000
Co31	Co3	0.636100	0.136540	0.023740
P51	P5	0.847470	0.136760	0.136660
P61	P6	0.979820	0.629880	0.099220
O131	O13	0.888700	0.248800	0.215340
O141	O14	0.751850	0.096500	0.124330
O151	O15	0.860400	0.189900	0.053580
O161	O16	0.891510	0.580700	0.023640
O171	O17	0.025570	0.491900	0.159410
O181	O18	0.043810	0.715100	0.065400
H51	H5	0.890000	0.006000	0.156000
H61	H6	0.958000	0.737000	0.147000
Co41	Co4	0.136100	0.636540	0.023740
P71	P7	0.347470	0.636760	0.136660
P81	P8	0.479820	0.129880	0.099220
O191	O19	0.388700	0.748800	0.215340
O201	O20	0.251850	0.596500	0.124330
O211	O21	0.360400	0.689900	0.053580
O221	O22	0.391510	0.080700	0.023640
O231	O23	0.525570	0.991900	0.159410
O241	O24	0.543810	0.215100	0.065400
H71	H7	0.390000	0.506000	0.156000
H81	H8	0.458000	0.237000	0.147000
Co51	Co5	0.636100	0.863460	0.523740
P91	P9	0.847470	0.863240	0.636660
P101	P10	0.979820	0.370120	0.599220
O251	O25	0.888700	0.751200	0.715340
O261	O26	0.751850	0.903500	0.624330
O271	O27	0.860400	0.810100	0.553580
O281	O28	0.891510	0.419300	0.523640
O291	O29	0.025570	0.508100	0.659410
O301	O30	0.043810	0.284900	0.565400
H91	H9	0.890000	0.994000	0.656000
H101	H10	0.958000	0.263000	0.647000
Co61	Co6	0.136100	0.363460	0.523740
P111	P11	0.347470	0.363240	0.636660
P121	P12	0.479820	0.870120	0.599220
O311	O31	0.388700	0.251200	0.715340
O321	O32	0.251850	0.403500	0.624330
O331	O33	0.360400	0.310100	0.553580
O341	O34	0.391510	0.919300	0.523640
O351	O35	0.525570	0.008100	0.659410
O361	O36	0.543810	0.784900	0.565400
H111	H11	0.390000	0.494000	0.656000
H121	H12	0.458000	0.763000	0.647000
Co71	Co7	0.363900	0.863460	0.976260
P131	P13	0.152530	0.863240	0.863340
P141	P14	0.020180	0.370120	0.900780
O371	O37	0.111300	0.751200	0.784660
O381	O38	0.248150	0.903500	0.875670
O391	O39	0.139600	0.810100	0.946420
O401	O40	0.108490	0.419300	0.976360
O411	O41	0.974430	0.508100	0.840590
O421	O42	0.956190	0.284900	0.934600
H131	H13	0.110000	0.994000	0.844000
H141	H14	0.042000	0.263000	0.853000
Co81	Co8	0.863900	0.363460	0.976260
P151	P15	0.652530	0.363240	0.863340
P161	P16	0.520180	0.870120	0.900780
O431	O43	0.611300	0.251200	0.784660
O441	O44	0.748150	0.403500	0.875670
O451	O45	0.639600	0.310100	0.946420
O461	O46	0.608490	0.919300	0.976360
O471	O47	0.474430	0.008100	0.840590
O481	O48	0.456190	0.784900	0.934600
H151	H15	0.610000	0.494000	0.844000
H161	H16	0.542000	0.763000	0.853000
Co91	Co9	0.000000	0.373280	0.250000
Co101	Co10	0.500000	0.873280	0.250000
Co111	Co11	0.000000	0.626720	0.750000
Co121	Co12	0.500000	0.126720	0.750000
