data_BUSNAF_clean_PM
_symmetry_space_group_name_H-M	'P1'
_cell_length_a	10.126000
_cell_length_b	15.989200
_cell_length_c	15.989200
_cell_angle_alpha	64.332100
_cell_angle_beta	77.813100
_cell_angle_gamma	102.187000
_symmetry_Int_Tables_number 1

loop_
_symmetry_equiv_pos_as_xyz
'x,y,z'

loop_
_atom_site_label
_atom_site_type_symbol
_atom_site_fract_x
_atom_site_fract_y
_atom_site_fract_z
Co11	Co1	0.500000	0.000000	0.500000
Co21	Co2	0.000000	0.500000	0.500000
Co31	Co3	0.500000	0.500000	0.000000
H11	H1	0.374700	0.862800	0.733800
H21	H2	0.459800	0.808800	0.862800
H31	H3	0.700000	0.880100	0.835100
H41	H4	0.011400	0.226000	0.177500
H51	H5	0.216900	0.337600	0.051500
H61	H6	0.392800	0.370900	0.233000
H71	H7	0.191100	0.258800	0.365700
H81	H8	0.966600	0.060700	0.602300
H91	H9	0.959100	0.962500	0.691300
H101	H10	0.926900	0.046300	0.709100
H111	H11	0.108500	0.733800	0.403400
H121	H12	0.322600	0.862800	0.328400
H131	H13	0.535100	0.835100	0.284800
H141	H14	0.188900	0.177500	0.596500
H151	H15	0.268400	0.051500	0.610900
H161	H16	0.625800	0.233000	0.396100
H171	H17	0.556800	0.365700	0.375500
H181	H18	0.568900	0.602300	0.337000
H191	H19	0.650400	0.691300	0.346200
H201	H20	0.636000	0.709100	0.244600
H211	H21	0.511900	0.403400	0.862800
H221	H22	0.651000	0.328400	0.808800
H231	H23	0.819900	0.284800	0.880100
H241	H24	0.785400	0.596500	0.226000
H251	H25	0.879300	0.610900	0.337600
H261	H26	0.021900	0.396100	0.370900
H271	H27	0.932300	0.375500	0.258800
H281	H28	0.905900	0.337000	0.060700
H291	H29	0.996600	0.346200	0.962500
H301	H30	0.880600	0.244600	0.046300
H311	H31	0.625300	0.137200	0.266200
H321	H32	0.540200	0.191200	0.137200
H331	H33	0.300000	0.119900	0.164900
H341	H34	0.988600	0.774000	0.822500
H351	H35	0.783100	0.662400	0.948500
H361	H36	0.607200	0.629100	0.767000
H371	H37	0.808900	0.741200	0.634300
H381	H38	0.033400	0.939300	0.397700
H391	H39	0.040900	0.037500	0.308700
H401	H40	0.073100	0.953700	0.290900
H411	H41	0.891500	0.266200	0.596600
H421	H42	0.677400	0.137200	0.671600
H431	H43	0.464900	0.164900	0.715200
H441	H44	0.811100	0.822500	0.403500
H451	H45	0.731600	0.948500	0.389100
H461	H46	0.374200	0.767000	0.603900
H471	H47	0.443200	0.634300	0.624500
H481	H48	0.431100	0.397700	0.663000
H491	H49	0.349600	0.308700	0.653800
H501	H50	0.364000	0.290900	0.755400
H511	H51	0.488100	0.596600	0.137200
H521	H52	0.349000	0.671600	0.191200
H531	H53	0.180100	0.715200	0.119900
H541	H54	0.214600	0.403500	0.774000
H551	H55	0.120700	0.389100	0.662400
H561	H56	0.978100	0.603900	0.629100
H571	H57	0.067700	0.624500	0.741200
H581	H58	0.094100	0.663000	0.939300
H591	H59	0.003400	0.653800	0.037500
H601	H60	0.119400	0.755400	0.953700
C11	C1	0.472300	0.888700	0.722200
C21	C2	0.521800	0.857300	0.799700
C31	C3	0.666100	0.899300	0.782300
C41	C4	0.759700	0.968400	0.689400
C51	C5	0.702300	0.995500	0.613300
C61	C6	0.784100	0.065300	0.508200
C71	C7	0.938200	0.163000	0.368900
C81	C8	0.073900	0.231300	0.286900
C91	C9	0.087400	0.255600	0.190900
C101	C10	0.211100	0.322500	0.115600
C111	C11	0.313900	0.342000	0.221500
C121	C12	0.192800	0.274700	0.302100
C131	C13	0.917600	0.013700	0.671400
C141	C14	0.194500	0.722200	0.389100
C151	C15	0.321500	0.799700	0.343000
C161	C16	0.448400	0.782300	0.318400
C171	C17	0.449100	0.689400	0.342200
C181	C18	0.315600	0.613300	0.391200
C191	C19	0.292300	0.508200	0.426500
C201	C20	0.307100	0.368900	0.468100
C211	C21	0.360800	0.286900	0.481800
C221	C22	0.278300	0.190900	0.553500
C231	C23	0.326700	0.115600	0.561900
C241	C24	0.535400	0.221500	0.436500
C251	C25	0.494900	0.302100	0.423200
C261	C26	0.589000	0.671400	0.314900
C271	C27	0.583600	0.389100	0.888700
C281	C28	0.664500	0.343000	0.857300
C291	C29	0.766800	0.318400	0.899300
C301	C30	0.791300	0.342200	0.968400
C311	C31	0.706800	0.391200	0.995500
C321	C32	0.718800	0.426500	0.065300
C331	C33	0.775200	0.468100	0.163000
C341	C34	0.842600	0.481800	0.231300
C351	C35	0.831800	0.553500	0.255600
C361	C36	0.888600	0.561900	0.322500
C371	C37	0.971900	0.436500	0.342000
C381	C38	0.918100	0.423200	0.274700
C391	C39	0.903900	0.314900	0.013700
C401	C40	0.527700	0.111300	0.277800
C411	C41	0.478200	0.142700	0.200300
C421	C42	0.333900	0.100700	0.217700
C431	C43	0.240300	0.031600	0.310600
C441	C44	0.297700	0.004500	0.386700
C451	C45	0.215900	0.934700	0.491800
C461	C46	0.061800	0.837000	0.631100
C471	C47	0.926100	0.768700	0.713100
C481	C48	0.912600	0.744400	0.809100
C491	C49	0.788900	0.677500	0.884400
C501	C50	0.686100	0.658000	0.778500
C511	C51	0.807200	0.725300	0.697900
C521	C52	0.082400	0.986300	0.328600
C531	C53	0.805500	0.277800	0.610900
C541	C54	0.678500	0.200300	0.657000
C551	C55	0.551600	0.217700	0.681600
C561	C56	0.550900	0.310600	0.657800
C571	C57	0.684400	0.386700	0.608800
C581	C58	0.707700	0.491800	0.573500
C591	C59	0.692900	0.631100	0.531900
C601	C60	0.639200	0.713100	0.518200
C611	C61	0.721700	0.809100	0.446500
C621	C62	0.673300	0.884400	0.438100
C631	C63	0.464600	0.778500	0.563500
C641	C64	0.505100	0.697900	0.576800
C651	C65	0.411000	0.328600	0.685100
C661	C66	0.416400	0.610900	0.111300
C671	C67	0.335500	0.657000	0.142700
C681	C68	0.233200	0.681600	0.100700
C691	C69	0.208700	0.657800	0.031600
C701	C70	0.293200	0.608800	0.004500
C711	C71	0.281200	0.573500	0.934700
C721	C72	0.224800	0.531900	0.837000
C731	C73	0.157400	0.518200	0.768700
C741	C74	0.168200	0.446500	0.744400
C751	C75	0.111400	0.438100	0.677500
C761	C76	0.028100	0.563500	0.658000
C771	C77	0.081900	0.576800	0.725300
C781	C78	0.096100	0.685100	0.986300
N11	N1	0.560200	0.955500	0.630600
N21	N2	0.715020	0.077540	0.442980
N31	N3	0.815790	0.140780	0.350910
N41	N4	0.926200	0.119200	0.465200
N51	N5	0.325600	0.368400	0.128800
N61	N6	0.190800	0.630600	0.413900
N71	N7	0.158000	0.442980	0.479480
N81	N8	0.166700	0.350910	0.508310
N91	N9	0.391400	0.465200	0.415600
N101	N10	0.454400	0.128800	0.502800
N111	N11	0.604700	0.413900	0.955500
N121	N12	0.637480	0.479480	0.077540
N131	N13	0.675010	0.508310	0.140780
N141	N14	0.807000	0.415600	0.119200
N151	N15	0.957200	0.502800	0.368400
N161	N16	0.439800	0.044500	0.369400
N171	N17	0.284980	0.922460	0.557020
N181	N18	0.184210	0.859220	0.649090
N191	N19	0.073800	0.880800	0.534800
N201	N20	0.674400	0.631600	0.871200
N211	N21	0.809200	0.369400	0.586100
N221	N22	0.842000	0.557020	0.520520
N231	N23	0.833300	0.649090	0.491690
N241	N24	0.608600	0.534800	0.584400
N251	N25	0.545600	0.871200	0.497200
N261	N26	0.395300	0.586100	0.044500
N271	N27	0.362520	0.520520	0.922460
N281	N28	0.324990	0.491690	0.859220
N291	N29	0.193000	0.584400	0.880800
N301	N30	0.042800	0.497200	0.631600
