data_BUSQIQ_clean_PM
_symmetry_space_group_name_H-M	'P1'
_cell_length_a	6.994100
_cell_length_b	7.489000
_cell_length_c	11.146100
_cell_angle_alpha	107.822000
_cell_angle_beta	106.364000
_cell_angle_gamma	95.466400
_symmetry_Int_Tables_number 1

loop_
_symmetry_equiv_pos_as_xyz
'x,y,z'

loop_
_atom_site_label
_atom_site_type_symbol
_atom_site_fract_x
_atom_site_fract_y
_atom_site_fract_z
Al11	Al1	0.295180	0.295180	0.590360
Al21	Al2	0.704820	0.704820	0.409640
Al31	Al3	0.000000	0.500000	0.500000
Al41	Al4	0.500000	0.000000	0.500000
H11	H1	0.994000	0.310000	0.648000
H21	H2	0.142000	0.973000	0.478000
H31	H3	0.654000	0.338000	0.648000
H41	H4	0.336000	0.505000	0.478000
H51	H5	0.006000	0.690000	0.352000
H61	H6	0.858000	0.027000	0.522000
H71	H7	0.346000	0.662000	0.352000
H81	H8	0.664000	0.495000	0.522000
H91	H9	0.551900	0.312100	0.000000
H101	H10	0.448100	0.687900	0.000000
C11	C1	0.426800	0.069500	0.751400
C21	C2	0.455800	0.033900	0.880400
C31	C3	0.324600	0.681900	0.751400
C41	C4	0.424600	0.846500	0.880400
C51	C5	0.573200	0.930500	0.248600
C61	C6	0.544200	0.966100	0.119600
C71	C7	0.675400	0.318100	0.248600
C81	C8	0.575400	0.153500	0.119600
C91	C9	0.530700	0.184900	0.000000
C101	C10	0.469300	0.815100	0.000000
O11	O1	0.027700	0.316200	0.583600
O21	O2	0.235500	0.042500	0.467000
O31	O3	0.327900	0.199000	0.735600
O41	O4	0.503400	0.970200	0.669400
O51	O5	0.555900	0.267400	0.583600
O61	O6	0.231500	0.424500	0.467000
O71	O7	0.407700	0.536600	0.735600
O81	O8	0.166000	0.699200	0.669400
O91	O9	0.972300	0.683800	0.416400
O101	O10	0.764500	0.957500	0.533000
O111	O11	0.672100	0.801000	0.264400
O121	O12	0.496600	0.029800	0.330600
O131	O13	0.444100	0.732600	0.416400
O141	O14	0.768500	0.575500	0.533000
O151	O15	0.592300	0.463400	0.264400
O161	O16	0.834000	0.300800	0.330600
