data_BUVWOF03_clean_PM
_symmetry_space_group_name_H-M	'P1'
_cell_length_a	16.139000
_cell_length_b	18.099200
_cell_length_c	18.099200
_cell_angle_alpha	68.439700
_cell_angle_beta	72.708600
_cell_angle_gamma	107.291000
_symmetry_Int_Tables_number 1

loop_
_symmetry_equiv_pos_as_xyz
'x,y,z'

loop_
_atom_site_label
_atom_site_type_symbol
_atom_site_fract_x
_atom_site_fract_y
_atom_site_fract_z
Fe11	Fe1	0.500000	0.000000	0.500000
Fe21	Fe2	0.000000	0.500000	0.500000
Fe31	Fe3	0.500000	0.500000	0.000000
H11	H1	0.290700	0.943200	0.792100
H21	H2	0.255200	0.061800	0.747200
H31	H3	0.314900	0.155500	0.595800
H41	H4	0.407900	0.129300	0.495800
H51	H5	0.664400	0.315700	0.086700
H61	H6	0.640400	0.422400	0.996300
H71	H7	0.429200	0.384200	0.196600
H81	H8	0.449300	0.275700	0.292400
H91	H9	0.082800	0.792100	0.264700
H101	H10	0.002400	0.747200	0.191000
H111	H11	0.910700	0.595800	0.248700
H121	H12	0.903700	0.495800	0.374900
H131	H13	0.751100	0.086700	0.597600
H141	H14	0.636700	0.996300	0.581300
H151	H15	0.625800	0.196600	0.419200
H161	H16	0.741700	0.292400	0.431900
H171	H17	0.347500	0.264700	0.943200
H181	H18	0.193400	0.191000	0.061800
H191	H19	0.159400	0.248700	0.155500
H201	H20	0.278600	0.374900	0.129300
H211	H21	0.348700	0.597600	0.315700
H221	H22	0.218000	0.581300	0.422400
H231	H23	0.045000	0.419200	0.384200
H241	H24	0.173600	0.431900	0.275700
H251	H25	0.709300	0.056800	0.207900
H261	H26	0.744800	0.938200	0.252800
H271	H27	0.685100	0.844500	0.404200
H281	H28	0.592100	0.870700	0.504200
H291	H29	0.335600	0.684300	0.913300
H301	H30	0.359600	0.577600	0.003700
H311	H31	0.570800	0.615800	0.803400
H321	H32	0.550700	0.724300	0.707600
H331	H33	0.917200	0.207900	0.735300
H341	H34	0.997600	0.252800	0.809000
H351	H35	0.089300	0.404200	0.751300
H361	H36	0.096300	0.504200	0.625100
H371	H37	0.248900	0.913300	0.402400
H381	H38	0.363300	0.003700	0.418700
H391	H39	0.374200	0.803400	0.580800
H401	H40	0.258300	0.707600	0.568100
H411	H41	0.652500	0.735300	0.056800
H421	H42	0.806600	0.809000	0.938200
H431	H43	0.840600	0.751300	0.844500
H441	H44	0.721400	0.625100	0.870700
H451	H45	0.651300	0.402400	0.684300
H461	H46	0.782000	0.418700	0.577600
H471	H47	0.955000	0.580800	0.615800
H481	H48	0.826400	0.568100	0.724300
C11	C1	0.593600	0.096500	0.311200
C21	C2	0.439200	0.798600	0.739000
C31	C3	0.625600	0.028900	0.329400
C41	C4	0.316000	0.982800	0.731500
C51	C5	0.293600	0.052500	0.705200
C61	C6	0.329100	0.107800	0.615900
C71	C7	0.385700	0.092400	0.556400
C81	C8	0.444500	0.720900	0.799600
C91	C9	0.386400	0.672900	0.888400
C101	C10	0.400900	0.607900	0.942500
C111	C11	0.477800	0.370200	0.172700
C121	C12	0.488700	0.303600	0.231200
C131	C13	0.904800	0.311200	0.592300
C141	C14	0.178200	0.739000	0.462400
C151	C15	0.955000	0.329400	0.641700
C161	C16	0.047500	0.731500	0.285700
C171	C17	0.998800	0.705200	0.242300
C181	C18	0.945000	0.615900	0.276300
C191	C19	0.942100	0.556400	0.351200
C201	C20	0.244100	0.799600	0.479500
C211	C21	0.274800	0.888400	0.438700
C221	C22	0.343400	0.942500	0.449600
C231	C23	0.650500	0.172700	0.457100
C241	C24	0.719900	0.231200	0.465200
C251	C25	0.497100	0.592300	0.096500
C261	C26	0.640600	0.462400	0.798600
C271	C27	0.596700	0.641700	0.028900
C281	C28	0.333200	0.285700	0.982800
C291	C29	0.241100	0.242300	0.052500
C301	C30	0.221300	0.276300	0.107800
C311	C31	0.293300	0.351200	0.092400
C321	C32	0.723600	0.479500	0.720900
C331	C33	0.713500	0.438700	0.672900
C341	C34	0.793000	0.449600	0.607900
C351	C35	0.107600	0.457100	0.370200
C361	C36	0.185100	0.465200	0.303600
C371	C37	0.406400	0.903500	0.688800
C381	C38	0.560800	0.201400	0.261000
C391	C39	0.374400	0.971100	0.670600
C401	C40	0.684000	0.017200	0.268500
C411	C41	0.706400	0.947500	0.294800
C421	C42	0.670900	0.892200	0.384100
C431	C43	0.614300	0.907600	0.443600
C441	C44	0.555500	0.279100	0.200400
C451	C45	0.613600	0.327100	0.111600
C461	C46	0.599100	0.392100	0.057500
C471	C47	0.522200	0.629800	0.827300
C481	C48	0.511300	0.696400	0.768800
C491	C49	0.095200	0.688800	0.407700
C501	C50	0.821800	0.261000	0.537600
C511	C51	0.045000	0.670600	0.358300
C521	C52	0.952500	0.268500	0.714300
C531	C53	0.001200	0.294800	0.757700
C541	C54	0.055000	0.384100	0.723700
C551	C55	0.057900	0.443600	0.648800
C561	C56	0.755900	0.200400	0.520500
C571	C57	0.725200	0.111600	0.561300
C581	C58	0.656600	0.057500	0.550400
C591	C59	0.349500	0.827300	0.542900
C601	C60	0.280100	0.768800	0.534800
C611	C61	0.502900	0.407700	0.903500
C621	C62	0.359400	0.537600	0.201400
C631	C63	0.403300	0.358300	0.971100
C641	C64	0.666800	0.714300	0.017200
C651	C65	0.758900	0.757700	0.947500
C661	C66	0.778700	0.723700	0.892200
C671	C67	0.706700	0.648800	0.907600
C681	C68	0.276400	0.520500	0.279100
C691	C69	0.286500	0.561300	0.327100
C701	C70	0.207000	0.550400	0.392100
C711	C71	0.892400	0.542900	0.629800
C721	C72	0.814900	0.534800	0.696400
N11	N1	0.468630	0.905630	0.617040
N21	N2	0.488710	0.837130	0.651500
N31	N3	0.613570	0.163240	0.233430
N41	N4	0.589300	0.973850	0.418350
N51	N5	0.468200	0.584670	0.915370
N61	N6	0.085670	0.617040	0.477330
N71	N7	0.140210	0.651500	0.511370
N81	N8	0.847000	0.233430	0.603330
N91	N9	0.007650	0.418350	0.607800
N101	N10	0.383570	0.915370	0.499960
N111	N11	0.563000	0.477330	0.905630
N121	N12	0.651580	0.511370	0.837130
N131	N13	0.450330	0.603330	0.163240
N141	N14	0.615450	0.607800	0.973850
N151	N15	0.883530	0.499960	0.584670
N161	N16	0.531370	0.094370	0.382960
N171	N17	0.511290	0.162870	0.348500
N181	N18	0.386430	0.836760	0.766570
N191	N19	0.410700	0.026150	0.581650
N201	N20	0.531800	0.415330	0.084630
N211	N21	0.914330	0.382960	0.522670
N221	N22	0.859790	0.348500	0.488630
N231	N23	0.153000	0.766570	0.396670
N241	N24	0.992350	0.581650	0.392200
N251	N25	0.616430	0.084630	0.500040
N261	N26	0.437000	0.522670	0.094370
N271	N27	0.348420	0.488630	0.162870
N281	N28	0.549670	0.396670	0.836760
N291	N29	0.384550	0.392200	0.026150
N301	N30	0.116470	0.500040	0.415330
Fe41	Fe4	0.500000	0.500000	0.500000
Fe51	Fe5	0.000000	0.000000	0.500000
Fe61	Fe6	0.000000	0.500000	0.000000
H491	H49	0.417200	0.264700	0.792100
H501	H50	0.497600	0.191000	0.747200
H511	H51	0.589300	0.248700	0.595800
H521	H52	0.596300	0.374900	0.495800
H531	H53	0.748900	0.597600	0.086700
H541	H54	0.863300	0.581300	0.996300
H551	H55	0.874200	0.419200	0.196600
H561	H56	0.758300	0.431900	0.292400
H571	H57	0.152500	0.943200	0.264700
H581	H58	0.306600	0.061800	0.191000
H591	H59	0.340600	0.155500	0.248700
H601	H60	0.221400	0.129300	0.374900
H611	H61	0.151300	0.315700	0.597600
H621	H62	0.282000	0.422400	0.581300
H631	H63	0.455000	0.384200	0.419200
H641	H64	0.326400	0.275700	0.431900
H651	H65	0.209300	0.792100	0.943200
H661	H66	0.244800	0.747200	0.061800
H671	H67	0.185100	0.595800	0.155500
H681	H68	0.092100	0.495800	0.129300
H691	H69	0.835600	0.086700	0.315700
H701	H70	0.859600	0.996300	0.422400
H711	H71	0.070800	0.196600	0.384200
H721	H72	0.050700	0.292400	0.275700
H731	H73	0.582800	0.735300	0.207900
H741	H74	0.502400	0.809000	0.252800
H751	H75	0.410700	0.751300	0.404200
H761	H76	0.403700	0.625100	0.504200
H771	H77	0.251100	0.402400	0.913300
H781	H78	0.136700	0.418700	0.003700
H791	H79	0.125800	0.580800	0.803400
H801	H80	0.241700	0.568100	0.707600
H811	H81	0.847500	0.056800	0.735300
H821	H82	0.693400	0.938200	0.809000
H831	H83	0.659400	0.844500	0.751300
H841	H84	0.778600	0.870700	0.625100
H851	H85	0.848700	0.684300	0.402400
H861	H86	0.718000	0.577600	0.418700
H871	H87	0.545000	0.615800	0.580800
H881	H88	0.673600	0.724300	0.568100
H891	H89	0.790700	0.207900	0.056800
H901	H90	0.755200	0.252800	0.938200
H911	H91	0.814900	0.404200	0.844500
H921	H92	0.907900	0.504200	0.870700
H931	H93	0.164400	0.913300	0.684300
H941	H94	0.140400	0.003700	0.577600
H951	H95	0.929200	0.803400	0.615800
H961	H96	0.949300	0.707600	0.724300
C731	C73	0.595200	0.592300	0.311200
C741	C74	0.321800	0.462400	0.739000
C751	C75	0.545000	0.641700	0.329400
C761	C76	0.452500	0.285700	0.731500
C771	C77	0.501200	0.242300	0.705200
C781	C78	0.555000	0.276300	0.615900
C791	C79	0.557900	0.351200	0.556400
C801	C80	0.255900	0.479500	0.799600
C811	C81	0.225200	0.438700	0.888400
C821	C82	0.156600	0.449600	0.942500
C831	C83	0.849500	0.457100	0.172700
C841	C84	0.780100	0.465200	0.231200
C851	C85	0.002900	0.096500	0.592300
C861	C86	0.859400	0.798600	0.462400
C871	C87	0.903300	0.028900	0.641700
C881	C88	0.166800	0.982800	0.285700
C891	C89	0.258900	0.052500	0.242300
C901	C90	0.278700	0.107800	0.276300
C911	C91	0.206700	0.092400	0.351200
C921	C92	0.776400	0.720900	0.479500
C931	C93	0.786500	0.672900	0.438700
C941	C94	0.707000	0.607900	0.449600
C951	C95	0.392400	0.370200	0.457100
C961	C96	0.314900	0.303600	0.465200
C971	C97	0.906400	0.311200	0.096500
C981	C98	0.060800	0.739000	0.798600
C991	C99	0.874400	0.329400	0.028900
C1001	C100	0.184000	0.731500	0.982800
C1011	C101	0.206400	0.705200	0.052500
C1021	C102	0.170900	0.615900	0.107800
C1031	C103	0.114300	0.556400	0.092400
C1041	C104	0.055500	0.799600	0.720900
C1051	C105	0.113600	0.888400	0.672900
C1061	C106	0.099100	0.942500	0.607900
C1071	C107	0.022200	0.172700	0.370200
C1081	C108	0.011300	0.231200	0.303600
C1091	C109	0.404800	0.407700	0.688800
C1101	C110	0.678200	0.537600	0.261000
C1111	C111	0.455000	0.358300	0.670600
C1121	C112	0.547500	0.714300	0.268500
C1131	C113	0.498800	0.757700	0.294800
C1141	C114	0.445000	0.723700	0.384100
C1151	C115	0.442100	0.648800	0.443600
C1161	C116	0.744100	0.520500	0.200400
C1171	C117	0.774800	0.561300	0.111600
C1181	C118	0.843400	0.550400	0.057500
C1191	C119	0.150500	0.542900	0.827300
C1201	C120	0.219900	0.534800	0.768800
C1211	C121	0.997100	0.903500	0.407700
C1221	C122	0.140600	0.201400	0.537600
C1231	C123	0.096700	0.971100	0.358300
C1241	C124	0.833200	0.017200	0.714300
C1251	C125	0.741100	0.947500	0.757700
C1261	C126	0.721300	0.892200	0.723700
C1271	C127	0.793300	0.907600	0.648800
C1281	C128	0.223600	0.279100	0.520500
C1291	C129	0.213500	0.327100	0.561300
C1301	C130	0.293000	0.392100	0.550400
C1311	C131	0.607600	0.629800	0.542900
C1321	C132	0.685100	0.696400	0.534800
C1331	C133	0.093600	0.688800	0.903500
C1341	C134	0.939200	0.261000	0.201400
C1351	C135	0.125600	0.670600	0.971100
C1361	C136	0.816000	0.268500	0.017200
C1371	C137	0.793600	0.294800	0.947500
C1381	C138	0.829100	0.384100	0.892200
C1391	C139	0.885700	0.443600	0.907600
C1401	C140	0.944500	0.200400	0.279100
C1411	C141	0.886400	0.111600	0.327100
C1421	C142	0.900900	0.057500	0.392100
C1431	C143	0.977800	0.827300	0.629800
C1441	C144	0.988700	0.768800	0.696400
N311	N31	0.414330	0.477330	0.617040
N321	N32	0.359790	0.511370	0.651500
N331	N33	0.653000	0.603330	0.233430
N341	N34	0.492350	0.607800	0.418350
N351	N35	0.116430	0.499960	0.915370
N361	N36	0.937000	0.905630	0.477330
N371	N37	0.848420	0.837130	0.511370
N381	N38	0.049670	0.163240	0.603330
N391	N39	0.884550	0.973850	0.607800
N401	N40	0.616470	0.584670	0.499960
N411	N41	0.031370	0.617040	0.905630
N421	N42	0.011290	0.651500	0.837130
N431	N43	0.886430	0.233430	0.163240
N441	N44	0.910700	0.418350	0.973850
N451	N45	0.031800	0.915370	0.584670
N461	N46	0.585670	0.522670	0.382960
N471	N47	0.640210	0.488630	0.348500
N481	N48	0.347000	0.396670	0.766570
N491	N49	0.507650	0.392200	0.581650
N501	N50	0.883570	0.500040	0.084630
N511	N51	0.063000	0.094370	0.522670
N521	N52	0.151580	0.162870	0.488630
N531	N53	0.950330	0.836760	0.396670
N541	N54	0.115450	0.026150	0.392200
N551	N55	0.383530	0.415330	0.500040
N561	N56	0.968630	0.382960	0.094370
N571	N57	0.988710	0.348500	0.162870
N581	N58	0.113570	0.766570	0.836760
N591	N59	0.089300	0.581650	0.026150
N601	N60	0.968200	0.084630	0.415330
