data_BUVWOF02_clean_PM
_symmetry_space_group_name_H-M	'P1'
_cell_length_a	9.087900
_cell_length_b	16.337200
_cell_length_c	16.337200
_cell_angle_alpha	63.357200
_cell_angle_beta	79.314100
_cell_angle_gamma	100.686000
_symmetry_Int_Tables_number 1

loop_
_symmetry_equiv_pos_as_xyz
'x,y,z'

loop_
_atom_site_label
_atom_site_type_symbol
_atom_site_fract_x
_atom_site_fract_y
_atom_site_fract_z
Fe11	Fe1	0.500000	0.500000	0.500000
Fe21	Fe2	0.000000	0.500000	0.000000
Fe31	Fe3	0.000000	0.000000	0.500000
H11	H1	0.601600	0.724800	0.405200
H21	H2	0.834700	0.849100	0.314400
H31	H3	0.062100	0.818100	0.266300
H41	H4	0.060400	0.659900	0.321100
H51	H5	0.695900	0.175800	0.603500
H61	H6	0.770900	0.048600	0.611900
H71	H7	0.142200	0.216400	0.390600
H81	H8	0.078300	0.350200	0.379200
H91	H9	0.006800	0.405200	0.870000
H101	H10	0.149100	0.314400	0.836500
H111	H11	0.328400	0.266300	0.915600
H121	H12	0.381500	0.321100	0.019000
H131	H13	0.299400	0.603500	0.220700
H141	H14	0.382800	0.611900	0.339500
H151	H15	0.532800	0.390600	0.393000
H161	H16	0.457500	0.379200	0.270600
H171	H17	0.876800	0.870000	0.724800
H181	H18	0.985600	0.836500	0.849100
H191	H19	0.244000	0.915600	0.818100
H201	H20	0.400500	0.019000	0.659900
H211	H21	0.520100	0.220700	0.175800
H221	H22	0.722300	0.339500	0.048600
H231	H23	0.925800	0.393000	0.216400
H241	H24	0.728100	0.270600	0.350200
H251	H25	0.398400	0.275200	0.594800
H261	H26	0.165300	0.150900	0.685600
H271	H27	0.937900	0.181900	0.733700
H281	H28	0.939600	0.340100	0.678900
H291	H29	0.304100	0.824200	0.396500
H301	H30	0.229100	0.951400	0.388100
H311	H31	0.857800	0.783600	0.609400
H321	H32	0.921700	0.649800	0.620800
H331	H33	0.993200	0.594800	0.130000
H341	H34	0.850900	0.685600	0.163500
H351	H35	0.671600	0.733700	0.084400
H361	H36	0.618500	0.678900	0.981000
H371	H37	0.700600	0.396500	0.779300
H381	H38	0.617200	0.388100	0.660500
H391	H39	0.467200	0.609400	0.607000
H401	H40	0.542500	0.620800	0.729400
H411	H41	0.123200	0.130000	0.275200
H421	H42	0.014400	0.163500	0.150900
H431	H43	0.756000	0.084400	0.181900
H441	H44	0.599500	0.981000	0.340100
H451	H45	0.479900	0.779300	0.824200
H461	H46	0.277700	0.660500	0.951400
H471	H47	0.074200	0.607000	0.783600
H481	H48	0.271900	0.729400	0.649800
C11	C1	0.693660	0.711320	0.387940
C21	C2	0.833600	0.786200	0.332800
C31	C3	0.969500	0.767700	0.305600
C41	C4	0.968400	0.674300	0.336400
C51	C5	0.825850	0.601640	0.391390
C61	C6	0.807360	0.498950	0.431470
C71	C7	0.824140	0.362520	0.476600
C81	C8	0.877350	0.279150	0.488000
C91	C9	0.787290	0.185960	0.558790
C101	C10	0.832240	0.110030	0.562810
C111	C11	0.050220	0.208140	0.433580
C121	C12	0.012120	0.289240	0.426180
C131	C13	0.081600	0.387940	0.900740
C141	C14	0.166400	0.332800	0.881000
C151	C15	0.275100	0.305600	0.926700
C161	C16	0.304800	0.336400	0.989300
C171	C17	0.217240	0.391390	0.006970
C181	C18	0.238830	0.431470	0.069580
C191	C19	0.300740	0.476600	0.160880
C201	C20	0.365350	0.488000	0.232850
C211	C21	0.346080	0.558790	0.255250
C221	C22	0.395050	0.562810	0.327160
C231	C23	0.483800	0.433580	0.358280
C241	C24	0.438300	0.426180	0.284580
C251	C25	0.982340	0.900740	0.711320
C261	C26	0.047400	0.881000	0.786200
C271	C27	0.201800	0.926700	0.767700
C281	C28	0.294100	0.989300	0.674300
C291	C29	0.224210	0.006970	0.601640
C301	C30	0.308410	0.069580	0.498950
C311	C31	0.461620	0.160880	0.362520
C321	C32	0.598200	0.232850	0.279150
C331	C33	0.601330	0.255250	0.185960
C341	C34	0.722210	0.327160	0.110030
C351	C35	0.842080	0.358280	0.208140
C361	C36	0.722880	0.284580	0.289240
C371	C37	0.306340	0.288680	0.612060
C381	C38	0.166400	0.213800	0.667200
C391	C39	0.030500	0.232300	0.694400
C401	C40	0.031600	0.325700	0.663600
C411	C41	0.174150	0.398360	0.608610
C421	C42	0.192640	0.501050	0.568530
C431	C43	0.175860	0.637480	0.523400
C441	C44	0.122650	0.720850	0.512000
C451	C45	0.212710	0.814040	0.441210
C461	C46	0.167760	0.889970	0.437190
C471	C47	0.949780	0.791860	0.566420
C481	C48	0.987880	0.710760	0.573820
C491	C49	0.918400	0.612060	0.099260
C501	C50	0.833600	0.667200	0.119000
C511	C51	0.724900	0.694400	0.073300
C521	C52	0.695200	0.663600	0.010700
C531	C53	0.782760	0.608610	0.993030
C541	C54	0.761170	0.568530	0.930420
C551	C55	0.699260	0.523400	0.839120
C561	C56	0.634650	0.512000	0.767150
C571	C57	0.653920	0.441210	0.744750
C581	C58	0.604950	0.437190	0.672840
C591	C59	0.516200	0.566420	0.641720
C601	C60	0.561700	0.573820	0.715420
C611	C61	0.017660	0.099260	0.288680
C621	C62	0.952600	0.119000	0.213800
C631	C63	0.798200	0.073300	0.232300
C641	C64	0.705900	0.010700	0.325700
C651	C65	0.775790	0.993030	0.398360
C661	C66	0.691590	0.930420	0.501050
C671	C67	0.538380	0.839120	0.637480
C681	C68	0.401800	0.767150	0.720850
C691	C69	0.398670	0.744750	0.814040
C701	C70	0.277790	0.672840	0.889970
C711	C71	0.157920	0.641720	0.791860
C721	C72	0.277120	0.715420	0.710760
N11	N1	0.689330	0.618700	0.417210
N21	N2	0.665860	0.440030	0.489850
N31	N3	0.674450	0.348630	0.521780
N41	N4	0.913500	0.455280	0.419480
N51	N5	0.960220	0.118530	0.499970
N61	N6	0.106540	0.417210	0.964090
N71	N7	0.155710	0.489850	0.070120
N81	N8	0.196230	0.521780	0.129590
N91	N9	0.332980	0.419480	0.125240
N101	N10	0.460190	0.499970	0.381500
N111	N11	0.070630	0.964090	0.618700
N121	N12	0.225830	0.070120	0.440030
N131	N13	0.325820	0.129590	0.348630
N141	N14	0.458220	0.125240	0.455280
N151	N15	0.841690	0.381500	0.118530
N161	N16	0.310670	0.381300	0.582790
N171	N17	0.334140	0.559970	0.510150
N181	N18	0.325550	0.651370	0.478220
N191	N19	0.086500	0.544720	0.580520
N201	N20	0.039780	0.881470	0.500030
N211	N21	0.893460	0.582790	0.035910
N221	N22	0.844290	0.510150	0.929880
N231	N23	0.803770	0.478220	0.870410
N241	N24	0.667020	0.580520	0.874760
N251	N25	0.539810	0.500030	0.618500
N261	N26	0.929370	0.035910	0.381300
N271	N27	0.774170	0.929880	0.559970
N281	N28	0.674180	0.870410	0.651370
N291	N29	0.541780	0.874760	0.544720
N301	N30	0.158310	0.618500	0.881470
