data_BUWMEN_clean_PM
_symmetry_space_group_name_H-M	'P1'
_cell_length_a	17.755000
_cell_length_b	19.838000
_cell_length_c	13.311000
_cell_angle_alpha	90.000000
_cell_angle_beta	131.834000
_cell_angle_gamma	90.000000
_symmetry_Int_Tables_number 1

loop_
_symmetry_equiv_pos_as_xyz
'x,y,z'

loop_
_atom_site_label
_atom_site_type_symbol
_atom_site_fract_x
_atom_site_fract_y
_atom_site_fract_z
La11	La1	0.891950	0.266960	0.283940
La21	La2	0.608050	0.516950	0.216150
O11	O1	0.584000	0.388800	0.144300
H11	H1	0.557800	0.386100	0.180300
H21	H2	0.610300	0.350000	0.146900
O21	O2	0.438800	0.712500	0.165300
O31	O3	0.527600	0.616200	0.240000
O41	O4	0.556200	0.542500	0.825000
O51	O5	0.600400	0.505350	0.017400
O61	O6	0.788500	0.366600	0.260300
O71	O7	0.772800	0.462400	0.334500
O81	O8	0.083700	0.255100	0.482800
O91	O9	0.231600	0.292100	0.675100
N11	N1	0.514200	0.611200	0.027800
N21	N2	0.985600	0.361100	0.471300
C11	C1	0.479400	0.663800	0.156500
C21	C2	0.469500	0.663000	0.034700
C31	C3	0.416700	0.713000	0.935400
H31	H3	0.383900	0.747500	0.940400
C41	C4	0.414500	0.709600	0.829400
H41	H4	0.380900	0.742500	0.762500
C51	C5	0.462800	0.656900	0.823900
H51	H5	0.463800	0.654400	0.755100
C61	C6	0.509600	0.607800	0.923500
C71	C7	0.559600	0.546800	0.921600
C81	C8	0.823200	0.414000	0.343700
C91	C9	0.934800	0.412900	0.465600
C101	C10	0.981200	0.463100	0.563900
H61	H6	0.943200	0.497600	0.558600
C111	C11	0.084700	0.460600	0.669400
H71	H7	0.117800	0.494000	0.735100
C121	C12	0.139000	0.407000	0.675800
H81	H8	0.208800	0.404300	0.745300
C131	C13	0.086300	0.357900	0.576000
C141	C14	0.137800	0.296800	0.578000
La31	La3	0.391950	0.766960	0.283940
La41	La4	0.108050	0.016950	0.216150
O101	O10	0.084000	0.888800	0.144300
H91	H9	0.057800	0.886100	0.180300
H101	H10	0.110300	0.850000	0.146900
O111	O11	0.938800	0.212500	0.165300
O121	O12	0.027600	0.116200	0.240000
O131	O13	0.056200	0.042500	0.825000
O141	O14	0.100400	0.005350	0.017400
O151	O15	0.288500	0.866600	0.260300
O161	O16	0.272800	0.962400	0.334500
O171	O17	0.583700	0.755100	0.482800
O181	O18	0.731600	0.792100	0.675100
N31	N3	0.014200	0.111200	0.027800
N41	N4	0.485600	0.861100	0.471300
C151	C15	0.979400	0.163800	0.156500
C161	C16	0.969500	0.163000	0.034700
C171	C17	0.916700	0.213000	0.935400
H111	H11	0.883900	0.247500	0.940400
C181	C18	0.914500	0.209600	0.829400
H121	H12	0.880900	0.242500	0.762500
C191	C19	0.962800	0.156900	0.823900
H131	H13	0.963800	0.154400	0.755100
C201	C20	0.009600	0.107800	0.923500
C211	C21	0.059600	0.046800	0.921600
C221	C22	0.323200	0.914000	0.343700
C231	C23	0.434800	0.912900	0.465600
C241	C24	0.481200	0.963100	0.563900
H141	H14	0.443200	0.997600	0.558600
C251	C25	0.584700	0.960600	0.669400
H151	H15	0.617800	0.994000	0.735100
C261	C26	0.639000	0.907000	0.675800
H161	H16	0.708800	0.904300	0.745300
C271	C27	0.586300	0.857900	0.576000
C281	C28	0.637800	0.796800	0.578000
La51	La5	0.891950	0.733040	0.783940
La61	La6	0.608050	0.483050	0.716150
O191	O19	0.584000	0.611200	0.644300
H171	H17	0.557800	0.613900	0.680300
H181	H18	0.610300	0.650000	0.646900
O201	O20	0.438800	0.287500	0.665300
O211	O21	0.527600	0.383800	0.740000
O221	O22	0.556200	0.457500	0.325000
O231	O23	0.600400	0.494650	0.517400
O241	O24	0.788500	0.633400	0.760300
O251	O25	0.772800	0.537600	0.834500
O261	O26	0.083700	0.744900	0.982800
O271	O27	0.231600	0.707900	0.175100
N51	N5	0.514200	0.388800	0.527800
N61	N6	0.985600	0.638900	0.971300
C291	C29	0.479400	0.336200	0.656500
C301	C30	0.469500	0.337000	0.534700
C311	C31	0.416700	0.287000	0.435400
H191	H19	0.383900	0.252500	0.440400
C321	C32	0.414500	0.290400	0.329400
H201	H20	0.380900	0.257500	0.262500
C331	C33	0.462800	0.343100	0.323900
H211	H21	0.463800	0.345600	0.255100
C341	C34	0.509600	0.392200	0.423500
C351	C35	0.559600	0.453200	0.421600
C361	C36	0.823200	0.586000	0.843700
C371	C37	0.934800	0.587100	0.965600
C381	C38	0.981200	0.536900	0.063900
H221	H22	0.943200	0.502400	0.058600
C391	C39	0.084700	0.539400	0.169400
H231	H23	0.117800	0.506000	0.235100
C401	C40	0.139000	0.593000	0.175800
H241	H24	0.208800	0.595700	0.245300
C411	C41	0.086300	0.642100	0.076000
C421	C42	0.137800	0.703200	0.078000
La71	La7	0.391950	0.233040	0.783940
La81	La8	0.108050	0.983050	0.716150
O281	O28	0.084000	0.111200	0.644300
H251	H25	0.057800	0.113900	0.680300
H261	H26	0.110300	0.150000	0.646900
O291	O29	0.938800	0.787500	0.665300
O301	O30	0.027600	0.883800	0.740000
O311	O31	0.056200	0.957500	0.325000
O321	O32	0.100400	0.994650	0.517400
O331	O33	0.288500	0.133400	0.760300
O341	O34	0.272800	0.037600	0.834500
O351	O35	0.583700	0.244900	0.982800
O361	O36	0.731600	0.207900	0.175100
N71	N7	0.014200	0.888800	0.527800
N81	N8	0.485600	0.138900	0.971300
C431	C43	0.979400	0.836200	0.656500
C441	C44	0.969500	0.837000	0.534700
C451	C45	0.916700	0.787000	0.435400
H271	H27	0.883900	0.752500	0.440400
C461	C46	0.914500	0.790400	0.329400
H281	H28	0.880900	0.757500	0.262500
C471	C47	0.962800	0.843100	0.323900
H291	H29	0.963800	0.845600	0.255100
C481	C48	0.009600	0.892200	0.423500
C491	C49	0.059600	0.953200	0.421600
C501	C50	0.323200	0.086000	0.843700
C511	C51	0.434800	0.087100	0.965600
C521	C52	0.481200	0.036900	0.063900
H301	H30	0.443200	0.002400	0.058600
C531	C53	0.584700	0.039400	0.169400
H311	H31	0.617800	0.006000	0.235100
C541	C54	0.639000	0.093000	0.175800
H321	H32	0.708800	0.095700	0.245300
C551	C55	0.586300	0.142100	0.076000
C561	C56	0.637800	0.203200	0.078000
