data_BUXNOZ_clean_PM
_symmetry_space_group_name_H-M	'P1'
_cell_length_a	27.670000
_cell_length_b	29.297000
_cell_length_c	25.912000
_cell_angle_alpha	90.000000
_cell_angle_beta	90.000000
_cell_angle_gamma	90.000000
_symmetry_Int_Tables_number 1

loop_
_symmetry_equiv_pos_as_xyz
'x,y,z'

loop_
_atom_site_label
_atom_site_type_symbol
_atom_site_fract_x
_atom_site_fract_y
_atom_site_fract_z
C11	C1	0.153600	0.455900	0.074100
C21	C2	0.143200	0.408800	0.097400
H11	H1	0.122000	0.401400	0.124000
C31	C3	0.170400	0.382600	0.072100
C41	C4	0.142100	0.499100	0.097500
C51	C5	0.138800	0.580900	0.079400
C61	C6	0.109900	0.593600	0.123700
H21	H2	0.094400	0.571300	0.143100
C71	C7	0.105600	0.640200	0.137200
C81	C8	0.128300	0.672610	0.112100
H31	H3	0.124900	0.702900	0.122000
C91	C9	0.157700	0.661200	0.070300
C101	C10	0.161900	0.616000	0.054100
H41	H4	0.180800	0.609400	0.025300
C111	C11	0.071300	0.650800	0.180500
C121	C12	0.184400	0.697400	0.039300
C131	C13	0.174300	0.332300	0.081100
C141	C14	0.132400	0.262000	0.103300
C151	C15	0.161600	0.228100	0.080100
H51	H5	0.185600	0.236600	0.056900
C161	C16	0.154900	0.182900	0.091500
C171	C17	0.119400	0.170100	0.125500
H61	H6	0.116200	0.139600	0.134800
C181	C18	0.088000	0.202400	0.146300
C191	C19	0.096100	0.248300	0.134900
H71	H7	0.075900	0.270300	0.149400
C201	C20	0.185900	0.147800	0.067300
C211	C21	0.049000	0.189400	0.184400
C221	C22	0.331300	0.475400	0.069500
C231	C23	0.361200	0.444000	0.099400
H81	H8	0.386600	0.449700	0.122100
C241	C24	0.339500	0.401400	0.083300
C251	C25	0.358000	0.357000	0.105500
C261	C26	0.364400	0.275100	0.095500
C271	C27	0.339000	0.240300	0.068300
H91	H9	0.316900	0.246700	0.042200
C281	C28	0.349800	0.195500	0.083900
C291	C29	0.383100	0.185900	0.118400
H101	H10	0.390700	0.155400	0.124400
C301	C30	0.407600	0.219200	0.146000
C311	C31	0.397600	0.265300	0.131900
H111	H11	0.414200	0.288900	0.148000
C321	C32	0.443700	0.207500	0.182800
C331	C33	0.322600	0.157300	0.053500
C341	C34	0.328000	0.521500	0.067900
C351	C35	0.364600	0.594500	0.092300
C361	C36	0.393400	0.611100	0.133300
H121	H12	0.410200	0.590700	0.154100
C371	C37	0.396800	0.657400	0.142600
C381	C38	0.368000	0.687800	0.115700
H131	H13	0.368600	0.718700	0.123600
C391	C39	0.338700	0.671800	0.077200
C401	C40	0.336200	0.626200	0.064800
H141	H14	0.316000	0.616400	0.038400
C411	C41	0.308400	0.704700	0.046700
C421	C42	0.433200	0.671500	0.181400
Cu11	Cu1	0.254450	0.368950	0.015680
Cu21	Cu2	0.248310	0.484890	0.010220
Cu31	Cu3	0.245080	0.721890	0.959320
N11	N1	0.202700	0.404440	0.045800
N21	N2	0.192700	0.448560	0.045600
N31	N3	0.302500	0.405590	0.054400
N41	N4	0.296400	0.450270	0.046600
N51	N5	0.135600	0.309300	0.093700
H151	H15	0.109200	0.324600	0.096500
N61	N6	0.349500	0.319320	0.083300
H161	H16	0.331600	0.321300	0.056200
N71	N7	0.148400	0.537190	0.068000
H171	H17	0.160300	0.532500	0.037800
N81	N8	0.364100	0.547400	0.085200
H181	H18	0.390400	0.533300	0.092900
O11	O1	0.217900	0.314750	0.072400
O21	O2	0.292700	0.537250	0.040400
O31	O3	0.114000	0.497700	0.135000
O41	O4	0.381900	0.361200	0.143800
O51	O5	0.022050	0.221710	0.199400
O61	O6	0.049050	0.148930	0.197800
O71	O7	0.184100	0.107180	0.082000
O81	O8	0.212710	0.161600	0.031500
O91	O9	0.303170	0.169930	0.011600
O101	O10	0.322100	0.119470	0.072000
O111	O11	0.447300	0.167250	0.196400
O121	O12	0.471650	0.240340	0.197200
O131	O13	0.461100	0.641070	0.197600
O141	O14	0.432760	0.712270	0.195800
O151	O15	0.296910	0.741560	0.069800
O161	O16	0.291300	0.690500	0.005600
O171	O17	0.195200	0.689090	0.996100
O181	O18	0.197950	0.732650	0.067400
O191	O19	0.071880	0.691140	0.195900
O201	O20	0.044110	0.618640	0.197300
C431	C43	0.846400	0.544100	0.574100
C441	C44	0.856800	0.591200	0.597400
H191	H19	0.878000	0.598600	0.624000
C451	C45	0.829600	0.617400	0.572100
C461	C46	0.857900	0.500900	0.597500
C471	C47	0.861200	0.419100	0.579400
C481	C48	0.890100	0.406400	0.623700
H201	H20	0.905600	0.428700	0.643100
C491	C49	0.894400	0.359800	0.637200
C501	C50	0.871700	0.327390	0.612100
H211	H21	0.875100	0.297100	0.622000
C511	C51	0.842300	0.338800	0.570300
C521	C52	0.838100	0.384000	0.554100
H221	H22	0.819200	0.390600	0.525300
C531	C53	0.928700	0.349200	0.680500
C541	C54	0.815600	0.302600	0.539300
C551	C55	0.825700	0.667700	0.581100
C561	C56	0.867600	0.738000	0.603300
C571	C57	0.838400	0.771900	0.580100
H231	H23	0.814400	0.763400	0.556900
C581	C58	0.845100	0.817100	0.591500
C591	C59	0.880600	0.829900	0.625500
H241	H24	0.883800	0.860400	0.634800
C601	C60	0.912000	0.797600	0.646300
C611	C61	0.903900	0.751700	0.634900
H251	H25	0.924100	0.729700	0.649400
C621	C62	0.814100	0.852200	0.567300
C631	C63	0.951000	0.810600	0.684400
C641	C64	0.668700	0.524600	0.569500
C651	C65	0.638800	0.556000	0.599400
H261	H26	0.613400	0.550300	0.622100
C661	C66	0.660500	0.598600	0.583300
C671	C67	0.642000	0.643000	0.605500
C681	C68	0.635600	0.724900	0.595500
C691	C69	0.661000	0.759700	0.568300
H271	H27	0.683100	0.753300	0.542200
C701	C70	0.650200	0.804500	0.583900
C711	C71	0.616900	0.814100	0.618400
H281	H28	0.609300	0.844600	0.624400
C721	C72	0.592400	0.780800	0.646000
C731	C73	0.602400	0.734700	0.631900
H291	H29	0.585800	0.711100	0.648000
C741	C74	0.556300	0.792500	0.682800
C751	C75	0.677400	0.842700	0.553500
C761	C76	0.672000	0.478500	0.567900
C771	C77	0.635400	0.405500	0.592300
C781	C78	0.606600	0.388900	0.633300
H301	H30	0.589800	0.409300	0.654100
C791	C79	0.603200	0.342600	0.642600
C801	C80	0.632000	0.312200	0.615700
H311	H31	0.631400	0.281300	0.623600
C811	C81	0.661300	0.328200	0.577200
C821	C82	0.663800	0.373800	0.564800
H321	H32	0.684000	0.383600	0.538400
C831	C83	0.691600	0.295300	0.546700
C841	C84	0.566800	0.328500	0.681400
Cu41	Cu4	0.745550	0.631050	0.515680
Cu51	Cu5	0.751690	0.515110	0.510220
Cu61	Cu6	0.754920	0.278110	0.459320
N91	N9	0.797300	0.595560	0.545800
N101	N10	0.807300	0.551440	0.545600
N111	N11	0.697500	0.594410	0.554400
N121	N12	0.703600	0.549730	0.546600
N131	N13	0.864400	0.690700	0.593700
H331	H33	0.890800	0.675400	0.596500
N141	N14	0.650500	0.680680	0.583300
H341	H34	0.668400	0.678700	0.556200
N151	N15	0.851600	0.462810	0.568000
H351	H35	0.839700	0.467500	0.537800
N161	N16	0.635900	0.452600	0.585200
H361	H36	0.609600	0.466700	0.592900
O211	O21	0.782100	0.685250	0.572400
O221	O22	0.707300	0.462750	0.540400
O231	O23	0.886000	0.502300	0.635000
O241	O24	0.618100	0.638800	0.643800
O251	O25	0.977950	0.778290	0.699400
O261	O26	0.950950	0.851070	0.697800
O271	O27	0.815900	0.892820	0.582000
O281	O28	0.787290	0.838400	0.531500
O291	O29	0.696830	0.830070	0.511600
O301	O30	0.677900	0.880530	0.572000
O311	O31	0.552700	0.832750	0.696400
O321	O32	0.528350	0.759660	0.697200
O331	O33	0.538900	0.358930	0.697600
O341	O34	0.567240	0.287730	0.695800
O351	O35	0.703090	0.258440	0.569800
O361	O36	0.708700	0.309500	0.505600
O371	O37	0.804800	0.310910	0.496100
O381	O38	0.802050	0.267350	0.567400
O391	O39	0.928120	0.308860	0.695900
O401	O40	0.955890	0.381360	0.697300
C851	C85	0.846400	0.955900	0.425900
C861	C86	0.856800	0.908800	0.402600
H371	H37	0.878000	0.901400	0.376000
C871	C87	0.829600	0.882600	0.427900
C881	C88	0.857900	0.999100	0.402500
C891	C89	0.861200	0.080900	0.420600
C901	C90	0.890100	0.093600	0.376300
H381	H38	0.905600	0.071300	0.356900
C911	C91	0.894400	0.140200	0.362800
C921	C92	0.871700	0.172610	0.387900
H391	H39	0.875100	0.202900	0.378000
C931	C93	0.842300	0.161200	0.429700
C941	C94	0.838100	0.116000	0.445900
H401	H40	0.819200	0.109400	0.474700
C951	C95	0.928700	0.150800	0.319500
C961	C96	0.815600	0.197400	0.460700
C971	C97	0.825700	0.832300	0.418900
C981	C98	0.867600	0.762000	0.396700
C991	C99	0.838400	0.728100	0.419900
H411	H41	0.814400	0.736600	0.443100
C1001	C100	0.845100	0.682900	0.408500
C1011	C101	0.880600	0.670100	0.374500
H421	H42	0.883800	0.639600	0.365200
C1021	C102	0.912000	0.702400	0.353700
C1031	C103	0.903900	0.748300	0.365100
H431	H43	0.924100	0.770300	0.350600
C1041	C104	0.814100	0.647800	0.432700
C1051	C105	0.951000	0.689400	0.315600
C1061	C106	0.668700	0.975400	0.430500
C1071	C107	0.638800	0.944000	0.400600
H441	H44	0.613400	0.949700	0.377900
C1081	C108	0.660500	0.901400	0.416700
C1091	C109	0.642000	0.857000	0.394500
C1101	C110	0.635600	0.775100	0.404500
C1111	C111	0.661000	0.740300	0.431700
H451	H45	0.683100	0.746700	0.457800
C1121	C112	0.650200	0.695500	0.416100
C1131	C113	0.616900	0.685900	0.381600
H461	H46	0.609300	0.655400	0.375600
C1141	C114	0.592400	0.719200	0.354000
C1151	C115	0.602400	0.765300	0.368100
H471	H47	0.585800	0.788900	0.352000
C1161	C116	0.556300	0.707500	0.317200
C1171	C117	0.677400	0.657300	0.446500
C1181	C118	0.672000	0.021500	0.432100
C1191	C119	0.635400	0.094500	0.407700
C1201	C120	0.606600	0.111100	0.366700
H481	H48	0.589800	0.090700	0.345900
C1211	C121	0.603200	0.157400	0.357400
C1221	C122	0.632000	0.187800	0.384300
H491	H49	0.631400	0.218700	0.376400
C1231	C123	0.661300	0.171800	0.422800
C1241	C124	0.663800	0.126200	0.435200
H501	H50	0.684000	0.116400	0.461600
C1251	C125	0.691600	0.204700	0.453300
C1261	C126	0.566800	0.171500	0.318600
Cu71	Cu7	0.745550	0.868950	0.484320
Cu81	Cu8	0.751690	0.984890	0.489780
Cu91	Cu9	0.754920	0.221890	0.540680
N171	N17	0.797300	0.904440	0.454200
N181	N18	0.807300	0.948560	0.454400
N191	N19	0.697500	0.905590	0.445600
N201	N20	0.703600	0.950270	0.453400
N211	N21	0.864400	0.809300	0.406300
H511	H51	0.890800	0.824600	0.403500
N221	N22	0.650500	0.819320	0.416700
H521	H52	0.668400	0.821300	0.443800
N231	N23	0.851600	0.037190	0.432000
H531	H53	0.839700	0.032500	0.462200
N241	N24	0.635900	0.047400	0.414800
H541	H54	0.609600	0.033300	0.407100
O411	O41	0.782100	0.814750	0.427600
O421	O42	0.707300	0.037250	0.459600
O431	O43	0.886000	0.997700	0.365000
O441	O44	0.618100	0.861200	0.356200
O451	O45	0.977950	0.721710	0.300600
O461	O46	0.950950	0.648930	0.302200
O471	O47	0.815900	0.607180	0.418000
O481	O48	0.787290	0.661600	0.468500
O491	O49	0.696830	0.669930	0.488400
O501	O50	0.677900	0.619470	0.428000
O511	O51	0.552700	0.667250	0.303600
O521	O52	0.528350	0.740340	0.302800
O531	O53	0.538900	0.141070	0.302400
O541	O54	0.567240	0.212270	0.304200
O551	O55	0.703090	0.241560	0.430200
O561	O56	0.708700	0.190500	0.494400
O571	O57	0.804800	0.189090	0.503900
O581	O58	0.802050	0.232650	0.432600
O591	O59	0.928120	0.191140	0.304100
O601	O60	0.955890	0.118640	0.302700
C1271	C127	0.153600	0.044100	0.925900
C1281	C128	0.143200	0.091200	0.902600
H551	H55	0.122000	0.098600	0.876000
C1291	C129	0.170400	0.117400	0.927900
C1301	C130	0.142100	0.000900	0.902500
C1311	C131	0.138800	0.919100	0.920600
C1321	C132	0.109900	0.906400	0.876300
H561	H56	0.094400	0.928700	0.856900
C1331	C133	0.105600	0.859800	0.862800
C1341	C134	0.128300	0.827390	0.887900
H571	H57	0.124900	0.797100	0.878000
C1351	C135	0.157700	0.838800	0.929700
C1361	C136	0.161900	0.884000	0.945900
H581	H58	0.180800	0.890600	0.974700
C1371	C137	0.071300	0.849200	0.819500
C1381	C138	0.184400	0.802600	0.960700
C1391	C139	0.174300	0.167700	0.918900
C1401	C140	0.132400	0.238000	0.896700
C1411	C141	0.161600	0.271900	0.919900
H591	H59	0.185600	0.263400	0.943100
C1421	C142	0.154900	0.317100	0.908500
C1431	C143	0.119400	0.329900	0.874500
H601	H60	0.116200	0.360400	0.865200
C1441	C144	0.088000	0.297600	0.853700
C1451	C145	0.096100	0.251700	0.865100
H611	H61	0.075900	0.229700	0.850600
C1461	C146	0.185900	0.352200	0.932700
C1471	C147	0.049000	0.310600	0.815600
C1481	C148	0.331300	0.024600	0.930500
C1491	C149	0.361200	0.056000	0.900600
H621	H62	0.386600	0.050300	0.877900
C1501	C150	0.339500	0.098600	0.916700
C1511	C151	0.358000	0.143000	0.894500
C1521	C152	0.364400	0.224900	0.904500
C1531	C153	0.339000	0.259700	0.931700
H631	H63	0.316900	0.253300	0.957800
C1541	C154	0.349800	0.304500	0.916100
C1551	C155	0.383100	0.314100	0.881600
H641	H64	0.390700	0.344600	0.875600
C1561	C156	0.407600	0.280800	0.854000
C1571	C157	0.397600	0.234700	0.868100
H651	H65	0.414200	0.211100	0.852000
C1581	C158	0.443700	0.292500	0.817200
C1591	C159	0.322600	0.342700	0.946500
C1601	C160	0.328000	0.978500	0.932100
C1611	C161	0.364600	0.905500	0.907700
C1621	C162	0.393400	0.888900	0.866700
H661	H66	0.410200	0.909300	0.845900
C1631	C163	0.396800	0.842600	0.857400
C1641	C164	0.368000	0.812200	0.884300
H671	H67	0.368600	0.781300	0.876400
C1651	C165	0.338700	0.828200	0.922800
C1661	C166	0.336200	0.873800	0.935200
H681	H68	0.316000	0.883600	0.961600
C1671	C167	0.308400	0.795300	0.953300
C1681	C168	0.433200	0.828500	0.818600
Cu101	Cu10	0.254450	0.131050	0.984320
Cu111	Cu11	0.248310	0.015110	0.989780
Cu121	Cu12	0.245080	0.778110	0.040680
N251	N25	0.202700	0.095560	0.954200
N261	N26	0.192700	0.051440	0.954400
N271	N27	0.302500	0.094410	0.945600
N281	N28	0.296400	0.049730	0.953400
N291	N29	0.135600	0.190700	0.906300
H691	H69	0.109200	0.175400	0.903500
N301	N30	0.349500	0.180680	0.916700
H701	H70	0.331600	0.178700	0.943800
N311	N31	0.148400	0.962810	0.932000
H711	H71	0.160300	0.967500	0.962200
N321	N32	0.364100	0.952600	0.914800
H721	H72	0.390400	0.966700	0.907100
O611	O61	0.217900	0.185250	0.927600
O621	O62	0.292700	0.962750	0.959600
O631	O63	0.114000	0.002300	0.865000
O641	O64	0.381900	0.138800	0.856200
O651	O65	0.022050	0.278290	0.800600
O661	O66	0.049050	0.351070	0.802200
O671	O67	0.184100	0.392820	0.918000
O681	O68	0.212710	0.338400	0.968500
O691	O69	0.303170	0.330070	0.988400
O701	O70	0.322100	0.380530	0.928000
O711	O71	0.447300	0.332750	0.803600
O721	O72	0.471650	0.259660	0.802800
O731	O73	0.461100	0.858930	0.802400
O741	O74	0.432760	0.787730	0.804200
O751	O75	0.296910	0.758440	0.930200
O761	O76	0.291300	0.809500	0.994400
O771	O77	0.195200	0.810910	0.003900
O781	O78	0.197950	0.767350	0.932600
O791	O79	0.071880	0.808860	0.804100
O801	O80	0.044110	0.881360	0.802700
C1691	C169	0.846400	0.544100	0.925900
C1701	C170	0.856800	0.591200	0.902600
H731	H73	0.878000	0.598600	0.876000
C1711	C171	0.829600	0.617400	0.927900
C1721	C172	0.857900	0.500900	0.902500
C1731	C173	0.861200	0.419100	0.920600
C1741	C174	0.890100	0.406400	0.876300
H741	H74	0.905600	0.428700	0.856900
C1751	C175	0.894400	0.359800	0.862800
C1761	C176	0.871700	0.327390	0.887900
H751	H75	0.875100	0.297100	0.878000
C1771	C177	0.842300	0.338800	0.929700
C1781	C178	0.838100	0.384000	0.945900
H761	H76	0.819200	0.390600	0.974700
C1791	C179	0.928700	0.349200	0.819500
C1801	C180	0.815600	0.302600	0.960700
C1811	C181	0.825700	0.667700	0.918900
C1821	C182	0.867600	0.738000	0.896700
C1831	C183	0.838400	0.771900	0.919900
H771	H77	0.814400	0.763400	0.943100
C1841	C184	0.845100	0.817100	0.908500
C1851	C185	0.880600	0.829900	0.874500
H781	H78	0.883800	0.860400	0.865200
C1861	C186	0.912000	0.797600	0.853700
C1871	C187	0.903900	0.751700	0.865100
H791	H79	0.924100	0.729700	0.850600
C1881	C188	0.814100	0.852200	0.932700
C1891	C189	0.951000	0.810600	0.815600
C1901	C190	0.668700	0.524600	0.930500
C1911	C191	0.638800	0.556000	0.900600
H801	H80	0.613400	0.550300	0.877900
C1921	C192	0.660500	0.598600	0.916700
C1931	C193	0.642000	0.643000	0.894500
C1941	C194	0.635600	0.724900	0.904500
C1951	C195	0.661000	0.759700	0.931700
H811	H81	0.683100	0.753300	0.957800
C1961	C196	0.650200	0.804500	0.916100
C1971	C197	0.616900	0.814100	0.881600
H821	H82	0.609300	0.844600	0.875600
C1981	C198	0.592400	0.780800	0.854000
C1991	C199	0.602400	0.734700	0.868100
H831	H83	0.585800	0.711100	0.852000
C2001	C200	0.556300	0.792500	0.817200
C2011	C201	0.677400	0.842700	0.946500
C2021	C202	0.672000	0.478500	0.932100
C2031	C203	0.635400	0.405500	0.907700
C2041	C204	0.606600	0.388900	0.866700
H841	H84	0.589800	0.409300	0.845900
C2051	C205	0.603200	0.342600	0.857400
C2061	C206	0.632000	0.312200	0.884300
H851	H85	0.631400	0.281300	0.876400
C2071	C207	0.661300	0.328200	0.922800
C2081	C208	0.663800	0.373800	0.935200
H861	H86	0.684000	0.383600	0.961600
C2091	C209	0.691600	0.295300	0.953300
C2101	C210	0.566800	0.328500	0.818600
Cu131	Cu13	0.745550	0.631050	0.984320
Cu141	Cu14	0.751690	0.515110	0.989780
Cu151	Cu15	0.754920	0.278110	0.040680
N331	N33	0.797300	0.595560	0.954200
N341	N34	0.807300	0.551440	0.954400
N351	N35	0.697500	0.594410	0.945600
N361	N36	0.703600	0.549730	0.953400
N371	N37	0.864400	0.690700	0.906300
H871	H87	0.890800	0.675400	0.903500
N381	N38	0.650500	0.680680	0.916700
H881	H88	0.668400	0.678700	0.943800
N391	N39	0.851600	0.462810	0.932000
H891	H89	0.839700	0.467500	0.962200
N401	N40	0.635900	0.452600	0.914800
H901	H90	0.609600	0.466700	0.907100
O811	O81	0.782100	0.685250	0.927600
O821	O82	0.707300	0.462750	0.959600
O831	O83	0.886000	0.502300	0.865000
O841	O84	0.618100	0.638800	0.856200
O851	O85	0.977950	0.778290	0.800600
O861	O86	0.950950	0.851070	0.802200
O871	O87	0.815900	0.892820	0.918000
O881	O88	0.787290	0.838400	0.968500
O891	O89	0.696830	0.830070	0.988400
O901	O90	0.677900	0.880530	0.928000
O911	O91	0.552700	0.832750	0.803600
O921	O92	0.528350	0.759660	0.802800
O931	O93	0.538900	0.358930	0.802400
O941	O94	0.567240	0.287730	0.804200
O951	O95	0.703090	0.258440	0.930200
O961	O96	0.708700	0.309500	0.994400
O971	O97	0.804800	0.310910	0.003900
O981	O98	0.802050	0.267350	0.932600
O991	O99	0.928120	0.308860	0.804100
O1001	O100	0.955890	0.381360	0.802700
C2111	C211	0.153600	0.455900	0.425900
C2121	C212	0.143200	0.408800	0.402600
H911	H91	0.122000	0.401400	0.376000
C2131	C213	0.170400	0.382600	0.427900
C2141	C214	0.142100	0.499100	0.402500
C2151	C215	0.138800	0.580900	0.420600
C2161	C216	0.109900	0.593600	0.376300
H921	H92	0.094400	0.571300	0.356900
C2171	C217	0.105600	0.640200	0.362800
C2181	C218	0.128300	0.672610	0.387900
H931	H93	0.124900	0.702900	0.378000
C2191	C219	0.157700	0.661200	0.429700
C2201	C220	0.161900	0.616000	0.445900
H941	H94	0.180800	0.609400	0.474700
C2211	C221	0.071300	0.650800	0.319500
C2221	C222	0.184400	0.697400	0.460700
C2231	C223	0.174300	0.332300	0.418900
C2241	C224	0.132400	0.262000	0.396700
C2251	C225	0.161600	0.228100	0.419900
H951	H95	0.185600	0.236600	0.443100
C2261	C226	0.154900	0.182900	0.408500
C2271	C227	0.119400	0.170100	0.374500
H961	H96	0.116200	0.139600	0.365200
C2281	C228	0.088000	0.202400	0.353700
C2291	C229	0.096100	0.248300	0.365100
H971	H97	0.075900	0.270300	0.350600
C2301	C230	0.185900	0.147800	0.432700
C2311	C231	0.049000	0.189400	0.315600
C2321	C232	0.331300	0.475400	0.430500
C2331	C233	0.361200	0.444000	0.400600
H981	H98	0.386600	0.449700	0.377900
C2341	C234	0.339500	0.401400	0.416700
C2351	C235	0.358000	0.357000	0.394500
C2361	C236	0.364400	0.275100	0.404500
C2371	C237	0.339000	0.240300	0.431700
H991	H99	0.316900	0.246700	0.457800
C2381	C238	0.349800	0.195500	0.416100
C2391	C239	0.383100	0.185900	0.381600
H1001	H100	0.390700	0.155400	0.375600
C2401	C240	0.407600	0.219200	0.354000
C2411	C241	0.397600	0.265300	0.368100
H1011	H101	0.414200	0.288900	0.352000
C2421	C242	0.443700	0.207500	0.317200
C2431	C243	0.322600	0.157300	0.446500
C2441	C244	0.328000	0.521500	0.432100
C2451	C245	0.364600	0.594500	0.407700
C2461	C246	0.393400	0.611100	0.366700
H1021	H102	0.410200	0.590700	0.345900
C2471	C247	0.396800	0.657400	0.357400
C2481	C248	0.368000	0.687800	0.384300
H1031	H103	0.368600	0.718700	0.376400
C2491	C249	0.338700	0.671800	0.422800
C2501	C250	0.336200	0.626200	0.435200
H1041	H104	0.316000	0.616400	0.461600
C2511	C251	0.308400	0.704700	0.453300
C2521	C252	0.433200	0.671500	0.318600
Cu161	Cu16	0.254450	0.368950	0.484320
Cu171	Cu17	0.248310	0.484890	0.489780
Cu181	Cu18	0.245080	0.721890	0.540680
N411	N41	0.202700	0.404440	0.454200
N421	N42	0.192700	0.448560	0.454400
N431	N43	0.302500	0.405590	0.445600
N441	N44	0.296400	0.450270	0.453400
N451	N45	0.135600	0.309300	0.406300
H1051	H105	0.109200	0.324600	0.403500
N461	N46	0.349500	0.319320	0.416700
H1061	H106	0.331600	0.321300	0.443800
N471	N47	0.148400	0.537190	0.432000
H1071	H107	0.160300	0.532500	0.462200
N481	N48	0.364100	0.547400	0.414800
H1081	H108	0.390400	0.533300	0.407100
O1011	O101	0.217900	0.314750	0.427600
O1021	O102	0.292700	0.537250	0.459600
O1031	O103	0.114000	0.497700	0.365000
O1041	O104	0.381900	0.361200	0.356200
O1051	O105	0.022050	0.221710	0.300600
O1061	O106	0.049050	0.148930	0.302200
O1071	O107	0.184100	0.107180	0.418000
O1081	O108	0.212710	0.161600	0.468500
O1091	O109	0.303170	0.169930	0.488400
O1101	O110	0.322100	0.119470	0.428000
O1111	O111	0.447300	0.167250	0.303600
O1121	O112	0.471650	0.240340	0.302800
O1131	O113	0.461100	0.641070	0.302400
O1141	O114	0.432760	0.712270	0.304200
O1151	O115	0.296910	0.741560	0.430200
O1161	O116	0.291300	0.690500	0.494400
O1171	O117	0.195200	0.689090	0.503900
O1181	O118	0.197950	0.732650	0.432600
O1191	O119	0.071880	0.691140	0.304100
O1201	O120	0.044110	0.618640	0.302700
C2531	C253	0.153600	0.044100	0.574100
C2541	C254	0.143200	0.091200	0.597400
H1091	H109	0.122000	0.098600	0.624000
C2551	C255	0.170400	0.117400	0.572100
C2561	C256	0.142100	0.000900	0.597500
C2571	C257	0.138800	0.919100	0.579400
C2581	C258	0.109900	0.906400	0.623700
H1101	H110	0.094400	0.928700	0.643100
C2591	C259	0.105600	0.859800	0.637200
C2601	C260	0.128300	0.827390	0.612100
H1111	H111	0.124900	0.797100	0.622000
C2611	C261	0.157700	0.838800	0.570300
C2621	C262	0.161900	0.884000	0.554100
H1121	H112	0.180800	0.890600	0.525300
C2631	C263	0.071300	0.849200	0.680500
C2641	C264	0.184400	0.802600	0.539300
C2651	C265	0.174300	0.167700	0.581100
C2661	C266	0.132400	0.238000	0.603300
C2671	C267	0.161600	0.271900	0.580100
H1131	H113	0.185600	0.263400	0.556900
C2681	C268	0.154900	0.317100	0.591500
C2691	C269	0.119400	0.329900	0.625500
H1141	H114	0.116200	0.360400	0.634800
C2701	C270	0.088000	0.297600	0.646300
C2711	C271	0.096100	0.251700	0.634900
H1151	H115	0.075900	0.229700	0.649400
C2721	C272	0.185900	0.352200	0.567300
C2731	C273	0.049000	0.310600	0.684400
C2741	C274	0.331300	0.024600	0.569500
C2751	C275	0.361200	0.056000	0.599400
H1161	H116	0.386600	0.050300	0.622100
C2761	C276	0.339500	0.098600	0.583300
C2771	C277	0.358000	0.143000	0.605500
C2781	C278	0.364400	0.224900	0.595500
C2791	C279	0.339000	0.259700	0.568300
H1171	H117	0.316900	0.253300	0.542200
C2801	C280	0.349800	0.304500	0.583900
C2811	C281	0.383100	0.314100	0.618400
H1181	H118	0.390700	0.344600	0.624400
C2821	C282	0.407600	0.280800	0.646000
C2831	C283	0.397600	0.234700	0.631900
H1191	H119	0.414200	0.211100	0.648000
C2841	C284	0.443700	0.292500	0.682800
C2851	C285	0.322600	0.342700	0.553500
C2861	C286	0.328000	0.978500	0.567900
C2871	C287	0.364600	0.905500	0.592300
C2881	C288	0.393400	0.888900	0.633300
H1201	H120	0.410200	0.909300	0.654100
C2891	C289	0.396800	0.842600	0.642600
C2901	C290	0.368000	0.812200	0.615700
H1211	H121	0.368600	0.781300	0.623600
C2911	C291	0.338700	0.828200	0.577200
C2921	C292	0.336200	0.873800	0.564800
H1221	H122	0.316000	0.883600	0.538400
C2931	C293	0.308400	0.795300	0.546700
C2941	C294	0.433200	0.828500	0.681400
Cu191	Cu19	0.254450	0.131050	0.515680
Cu201	Cu20	0.248310	0.015110	0.510220
Cu211	Cu21	0.245080	0.778110	0.459320
N491	N49	0.202700	0.095560	0.545800
N501	N50	0.192700	0.051440	0.545600
N511	N51	0.302500	0.094410	0.554400
N521	N52	0.296400	0.049730	0.546600
N531	N53	0.135600	0.190700	0.593700
H1231	H123	0.109200	0.175400	0.596500
N541	N54	0.349500	0.180680	0.583300
H1241	H124	0.331600	0.178700	0.556200
N551	N55	0.148400	0.962810	0.568000
H1251	H125	0.160300	0.967500	0.537800
N561	N56	0.364100	0.952600	0.585200
H1261	H126	0.390400	0.966700	0.592900
O1211	O121	0.217900	0.185250	0.572400
O1221	O122	0.292700	0.962750	0.540400
O1231	O123	0.114000	0.002300	0.635000
O1241	O124	0.381900	0.138800	0.643800
O1251	O125	0.022050	0.278290	0.699400
O1261	O126	0.049050	0.351070	0.697800
O1271	O127	0.184100	0.392820	0.582000
O1281	O128	0.212710	0.338400	0.531500
O1291	O129	0.303170	0.330070	0.511600
O1301	O130	0.322100	0.380530	0.572000
O1311	O131	0.447300	0.332750	0.696400
O1321	O132	0.471650	0.259660	0.697200
O1331	O133	0.461100	0.858930	0.697600
O1341	O134	0.432760	0.787730	0.695800
O1351	O135	0.296910	0.758440	0.569800
O1361	O136	0.291300	0.809500	0.505600
O1371	O137	0.195200	0.810910	0.496100
O1381	O138	0.197950	0.767350	0.567400
O1391	O139	0.071880	0.808860	0.695900
O1401	O140	0.044110	0.881360	0.697300
C2951	C295	0.846400	0.955900	0.074100
C2961	C296	0.856800	0.908800	0.097400
H1271	H127	0.878000	0.901400	0.124000
C2971	C297	0.829600	0.882600	0.072100
C2981	C298	0.857900	0.999100	0.097500
C2991	C299	0.861200	0.080900	0.079400
C3001	C300	0.890100	0.093600	0.123700
H1281	H128	0.905600	0.071300	0.143100
C3011	C301	0.894400	0.140200	0.137200
C3021	C302	0.871700	0.172610	0.112100
H1291	H129	0.875100	0.202900	0.122000
C3031	C303	0.842300	0.161200	0.070300
C3041	C304	0.838100	0.116000	0.054100
H1301	H130	0.819200	0.109400	0.025300
C3051	C305	0.928700	0.150800	0.180500
C3061	C306	0.815600	0.197400	0.039300
C3071	C307	0.825700	0.832300	0.081100
C3081	C308	0.867600	0.762000	0.103300
C3091	C309	0.838400	0.728100	0.080100
H1311	H131	0.814400	0.736600	0.056900
C3101	C310	0.845100	0.682900	0.091500
C3111	C311	0.880600	0.670100	0.125500
H1321	H132	0.883800	0.639600	0.134800
C3121	C312	0.912000	0.702400	0.146300
C3131	C313	0.903900	0.748300	0.134900
H1331	H133	0.924100	0.770300	0.149400
C3141	C314	0.814100	0.647800	0.067300
C3151	C315	0.951000	0.689400	0.184400
C3161	C316	0.668700	0.975400	0.069500
C3171	C317	0.638800	0.944000	0.099400
H1341	H134	0.613400	0.949700	0.122100
C3181	C318	0.660500	0.901400	0.083300
C3191	C319	0.642000	0.857000	0.105500
C3201	C320	0.635600	0.775100	0.095500
C3211	C321	0.661000	0.740300	0.068300
H1351	H135	0.683100	0.746700	0.042200
C3221	C322	0.650200	0.695500	0.083900
C3231	C323	0.616900	0.685900	0.118400
H1361	H136	0.609300	0.655400	0.124400
C3241	C324	0.592400	0.719200	0.146000
C3251	C325	0.602400	0.765300	0.131900
H1371	H137	0.585800	0.788900	0.148000
C3261	C326	0.556300	0.707500	0.182800
C3271	C327	0.677400	0.657300	0.053500
C3281	C328	0.672000	0.021500	0.067900
C3291	C329	0.635400	0.094500	0.092300
C3301	C330	0.606600	0.111100	0.133300
H1381	H138	0.589800	0.090700	0.154100
C3311	C331	0.603200	0.157400	0.142600
C3321	C332	0.632000	0.187800	0.115700
H1391	H139	0.631400	0.218700	0.123600
C3331	C333	0.661300	0.171800	0.077200
C3341	C334	0.663800	0.126200	0.064800
H1401	H140	0.684000	0.116400	0.038400
C3351	C335	0.691600	0.204700	0.046700
C3361	C336	0.566800	0.171500	0.181400
Cu221	Cu22	0.745550	0.868950	0.015680
Cu231	Cu23	0.751690	0.984890	0.010220
Cu241	Cu24	0.754920	0.221890	0.959320
N571	N57	0.797300	0.904440	0.045800
N581	N58	0.807300	0.948560	0.045600
N591	N59	0.697500	0.905590	0.054400
N601	N60	0.703600	0.950270	0.046600
N611	N61	0.864400	0.809300	0.093700
H1411	H141	0.890800	0.824600	0.096500
N621	N62	0.650500	0.819320	0.083300
H1421	H142	0.668400	0.821300	0.056200
N631	N63	0.851600	0.037190	0.068000
H1431	H143	0.839700	0.032500	0.037800
N641	N64	0.635900	0.047400	0.085200
H1441	H144	0.609600	0.033300	0.092900
O1411	O141	0.782100	0.814750	0.072400
O1421	O142	0.707300	0.037250	0.040400
O1431	O143	0.886000	0.997700	0.135000
O1441	O144	0.618100	0.861200	0.143800
O1451	O145	0.977950	0.721710	0.199400
O1461	O146	0.950950	0.648930	0.197800
O1471	O147	0.815900	0.607180	0.082000
O1481	O148	0.787290	0.661600	0.031500
O1491	O149	0.696830	0.669930	0.011600
O1501	O150	0.677900	0.619470	0.072000
O1511	O151	0.552700	0.667250	0.196400
O1521	O152	0.528350	0.740340	0.197200
O1531	O153	0.538900	0.141070	0.197600
O1541	O154	0.567240	0.212270	0.195800
O1551	O155	0.703090	0.241560	0.069800
O1561	O156	0.708700	0.190500	0.005600
O1571	O157	0.804800	0.189090	0.996100
O1581	O158	0.802050	0.232650	0.067400
O1591	O159	0.928120	0.191140	0.195900
O1601	O160	0.955890	0.118640	0.197300
Cu251	Cu25	0.995700	0.627280	0.250000
Cu261	Cu26	0.027380	0.712560	0.250000
Cu271	Cu27	0.477530	0.732810	0.250000
Cu281	Cu28	0.508890	0.647670	0.250000
Cu291	Cu29	0.004300	0.372720	0.750000
Cu301	Cu30	0.972620	0.287440	0.750000
Cu311	Cu31	0.522470	0.267190	0.750000
Cu321	Cu32	0.491110	0.352330	0.750000
Cu331	Cu33	0.004300	0.127280	0.250000
Cu341	Cu34	0.972620	0.212560	0.250000
Cu351	Cu35	0.522470	0.232810	0.250000
Cu361	Cu36	0.491110	0.147670	0.250000
Cu371	Cu37	0.995700	0.872720	0.750000
Cu381	Cu38	0.027380	0.787440	0.750000
Cu391	Cu39	0.477530	0.767190	0.750000
Cu401	Cu40	0.508890	0.852330	0.750000
