data_c5ce00677e_c5ce00677e2_clean_PM
_symmetry_space_group_name_H-M	'P1'
_cell_length_a	8.697000
_cell_length_b	25.050000
_cell_length_c	11.638000
_cell_angle_alpha	90.000000
_cell_angle_beta	104.010000
_cell_angle_gamma	90.000000
_symmetry_Int_Tables_number 1

loop_
_symmetry_equiv_pos_as_xyz
'x,y,z'

loop_
_atom_site_label
_atom_site_type_symbol
_atom_site_fract_x
_atom_site_fract_y
_atom_site_fract_z
Cu11	Cu1	0.587930	0.033190	0.603650
Cu21	Cu2	0.275070	0.084850	0.405210
Cl11	Cl1	0.758890	0.101400	0.604140
O11	O1	0.356700	0.052620	0.667770
O21	O2	0.184800	0.033700	0.496980
O31	O3	0.340700	0.978480	0.227510
O41	O4	0.180800	0.048560	0.221330
O51	O5	0.575500	0.374370	0.875240
O61	O6	0.666400	0.334270	0.049100
O71	O7	0.362400	0.144240	0.332000
O81	O8	0.565000	0.105520	0.276300
O91	O9	0.474200	0.043400	0.438220
H11	H1	0.545500	0.056700	0.391200
N11	N1	0.158800	0.010980	0.798940
N21	N2	0.428300	0.262190	0.009300
C11	C1	0.097100	0.050140	0.851800
H21	H2	0.032100	0.075600	0.805900
C21	C2	0.129000	0.053150	0.973600
H31	H3	0.086400	0.080700	0.009800
C31	C3	0.224700	0.014990	0.041600
C41	C4	0.290900	0.975910	0.984600
H41	H4	0.358900	0.950600	0.028300
C51	C5	0.255800	0.974680	0.862600
H51	H5	0.300000	0.948300	0.824300
C61	C6	0.114300	0.006530	0.667800
H61	H6	0.010100	0.022100	0.638000
H71	H7	0.107600	0.969100	0.646000
C71	C7	0.231500	0.034090	0.609000
C81	C8	0.250600	0.014850	0.176100
C91	C9	0.324200	0.261320	0.077500
H81	H8	0.244400	0.286900	0.066800
C101	C10	0.334800	0.222770	0.163300
H91	H9	0.263300	0.222600	0.211200
C111	C11	0.452000	0.184310	0.178200
C121	C12	0.557500	0.185770	0.105900
H101	H10	0.637100	0.160300	0.114000
C131	C13	0.542600	0.225440	0.022100
H111	H11	0.613300	0.226700	0.973700
C141	C14	0.421400	0.305040	0.921300
H121	H12	0.327400	0.326600	0.916800
H131	H13	0.414100	0.289400	0.843900
C151	C15	0.568800	0.340560	0.954900
C161	C16	0.463200	0.140250	0.270000
Cu31	Cu3	0.912070	0.533190	0.896350
Cu41	Cu4	0.224930	0.584850	0.094790
Cl21	Cl2	0.741110	0.601400	0.895860
O101	O10	0.143300	0.552620	0.832230
O111	O11	0.315200	0.533700	0.003020
O121	O12	0.159300	0.478480	0.272490
O131	O13	0.319200	0.548560	0.278670
O141	O14	0.924500	0.874370	0.624760
O151	O15	0.833600	0.834270	0.450900
O161	O16	0.137600	0.644240	0.168000
O171	O17	0.935000	0.605520	0.223700
O181	O18	0.025800	0.543400	0.061780
H141	H14	0.954500	0.556700	0.108800
N31	N3	0.341200	0.510980	0.701060
N41	N4	0.071700	0.762190	0.490700
C171	C17	0.402900	0.550140	0.648200
H151	H15	0.467900	0.575600	0.694100
C181	C18	0.371000	0.553150	0.526400
H161	H16	0.413600	0.580700	0.490200
C191	C19	0.275300	0.514990	0.458400
C201	C20	0.209100	0.475910	0.515400
H171	H17	0.141100	0.450600	0.471700
C211	C21	0.244200	0.474680	0.637400
H181	H18	0.200000	0.448300	0.675700
C221	C22	0.385700	0.506530	0.832200
H191	H19	0.489900	0.522100	0.862000
H201	H20	0.392400	0.469100	0.854000
C231	C23	0.268500	0.534090	0.891000
C241	C24	0.249400	0.514850	0.323900
C251	C25	0.175800	0.761320	0.422500
H211	H21	0.255600	0.786900	0.433200
C261	C26	0.165200	0.722770	0.336700
H221	H22	0.236700	0.722600	0.288800
C271	C27	0.048000	0.684310	0.321800
C281	C28	0.942500	0.685770	0.394100
H231	H23	0.862900	0.660300	0.386000
C291	C29	0.957400	0.725440	0.477900
H241	H24	0.886700	0.726700	0.526300
C301	C30	0.078600	0.805040	0.578700
H251	H25	0.172600	0.826600	0.583200
H261	H26	0.085900	0.789400	0.656100
C311	C31	0.931200	0.840560	0.545100
C321	C32	0.036800	0.640250	0.230000
Cu51	Cu5	0.412070	0.966810	0.396350
Cu61	Cu6	0.724930	0.915150	0.594790
Cl31	Cl3	0.241110	0.898600	0.395860
O191	O19	0.643300	0.947380	0.332230
O201	O20	0.815200	0.966300	0.503020
O211	O21	0.659300	0.021520	0.772490
O221	O22	0.819200	0.951440	0.778670
O231	O23	0.424500	0.625630	0.124760
O241	O24	0.333600	0.665730	0.950900
O251	O25	0.637600	0.855760	0.668000
O261	O26	0.435000	0.894480	0.723700
O271	O27	0.525800	0.956600	0.561780
H271	H27	0.454500	0.943300	0.608800
N51	N5	0.841200	0.989020	0.201060
N61	N6	0.571700	0.737810	0.990700
C331	C33	0.902900	0.949860	0.148200
H281	H28	0.967900	0.924400	0.194100
C341	C34	0.871000	0.946850	0.026400
H291	H29	0.913600	0.919300	0.990200
C351	C35	0.775300	0.985010	0.958400
C361	C36	0.709100	0.024090	0.015400
H301	H30	0.641100	0.049400	0.971700
C371	C37	0.744200	0.025320	0.137400
H311	H31	0.700000	0.051700	0.175700
C381	C38	0.885700	0.993470	0.332200
H321	H32	0.989900	0.977900	0.362000
H331	H33	0.892400	0.030900	0.354000
C391	C39	0.768500	0.965910	0.391000
C401	C40	0.749400	0.985150	0.823900
C411	C41	0.675800	0.738680	0.922500
H341	H34	0.755600	0.713100	0.933200
C421	C42	0.665200	0.777230	0.836700
H351	H35	0.736700	0.777400	0.788800
C431	C43	0.548000	0.815690	0.821800
C441	C44	0.442500	0.814230	0.894100
H361	H36	0.362900	0.839700	0.886000
C451	C45	0.457400	0.774560	0.977900
H371	H37	0.386700	0.773300	0.026300
C461	C46	0.578600	0.694960	0.078700
H381	H38	0.672600	0.673400	0.083200
H391	H39	0.585900	0.710600	0.156100
C471	C47	0.431200	0.659440	0.045100
C481	C48	0.536800	0.859750	0.730000
Cu71	Cu7	0.087930	0.466810	0.103650
Cu81	Cu8	0.775070	0.415150	0.905210
Cl41	Cl4	0.258890	0.398600	0.104140
O281	O28	0.856700	0.447380	0.167770
O291	O29	0.684800	0.466300	0.996980
O301	O30	0.840700	0.521520	0.727510
O311	O31	0.680800	0.451440	0.721330
O321	O32	0.075500	0.125630	0.375240
O331	O33	0.166400	0.165730	0.549100
O341	O34	0.862400	0.355760	0.832000
O351	O35	0.065000	0.394480	0.776300
O361	O36	0.974200	0.456600	0.938220
H401	H40	0.045500	0.443300	0.891200
N71	N7	0.658800	0.489020	0.298940
N81	N8	0.928300	0.237810	0.509300
C491	C49	0.597100	0.449860	0.351800
H411	H41	0.532100	0.424400	0.305900
C501	C50	0.629000	0.446850	0.473600
H421	H42	0.586400	0.419300	0.509800
C511	C51	0.724700	0.485010	0.541600
C521	C52	0.790900	0.524090	0.484600
H431	H43	0.858900	0.549400	0.528300
C531	C53	0.755800	0.525320	0.362600
H441	H44	0.800000	0.551700	0.324300
C541	C54	0.614300	0.493470	0.167800
H451	H45	0.510100	0.477900	0.138000
H461	H46	0.607600	0.530900	0.146000
C551	C55	0.731500	0.465910	0.109000
C561	C56	0.750600	0.485150	0.676100
C571	C57	0.824200	0.238680	0.577500
H471	H47	0.744400	0.213100	0.566800
C581	C58	0.834800	0.277230	0.663300
H481	H48	0.763300	0.277400	0.711200
C591	C59	0.952000	0.315690	0.678200
C601	C60	0.057500	0.314230	0.605900
H491	H49	0.137100	0.339700	0.614000
C611	C61	0.042600	0.274560	0.522100
H501	H50	0.113300	0.273300	0.473700
C621	C62	0.921400	0.194960	0.421300
H511	H51	0.827400	0.173400	0.416800
H521	H52	0.914100	0.210600	0.343900
C631	C63	0.068800	0.159440	0.454900
C641	C64	0.963200	0.359750	0.770000
