data_c5ce02194d_c5ce02194d2_clean_PM
_symmetry_space_group_name_H-M	'P1'
_cell_length_a	12.093500
_cell_length_b	34.005100
_cell_length_c	31.945800
_cell_angle_alpha	90.000000
_cell_angle_beta	93.564000
_cell_angle_gamma	90.000000
_symmetry_Int_Tables_number 1

loop_
_symmetry_equiv_pos_as_xyz
'x,y,z'

loop_
_atom_site_label
_atom_site_type_symbol
_atom_site_fract_x
_atom_site_fract_y
_atom_site_fract_z
Zn11	Zn1	0.826870	0.665790	0.549660
Zn21	Zn2	0.423160	0.423250	0.655110
O11	O1	0.894500	0.714260	0.572130
O21	O2	0.048700	0.678890	0.583600
O31	O3	0.025400	0.880410	0.646070
O41	O4	0.869000	0.849730	0.623920
O51	O5	0.801800	0.633460	0.598110
O61	O6	0.734500	0.587600	0.553810
O71	O7	0.558300	0.469190	0.611530
O81	O8	0.495000	0.472920	0.675410
N11	N1	0.895700	0.648440	0.497630
N21	N2	0.048600	0.616850	0.389070
N31	N3	0.169400	0.607250	0.315300
N41	N4	0.340100	0.588670	0.207140
N51	N5	0.675100	0.687730	0.530210
N61	N6	0.359400	0.734750	0.503560
N71	N7	0.305000	0.440730	0.612490
N81	N8	0.040100	0.470200	0.526790
C11	C1	0.841800	0.650570	0.459460
H11	H1	0.767300	0.659600	0.457800
C21	C2	0.888600	0.640340	0.422790
H21	H2	0.846300	0.642200	0.396800
C31	C3	0.997400	0.627300	0.423850
C41	C4	0.054700	0.624800	0.463950
H31	H3	0.129300	0.615900	0.466600
C51	C5	0.001200	0.635330	0.498780
H41	H4	0.040700	0.633300	0.525300
C61	C6	0.164500	0.603450	0.391400
H51	H5	0.214200	0.626400	0.396100
H61	H6	0.177100	0.585400	0.415600
C71	C7	0.192300	0.583080	0.352840
H71	H7	0.271800	0.576000	0.355000
H81	H8	0.148900	0.558400	0.350000
C81	C8	0.082000	0.635600	0.317090
H91	H9	0.046100	0.639300	0.288700
H101	H10	0.113600	0.661200	0.326600
C91	C9	0.996700	0.622630	0.346510
H111	H11	0.937800	0.642800	0.347300
H121	H12	0.962300	0.597700	0.336300
C101	C10	0.225500	0.601590	0.280200
C111	C11	0.214600	0.626810	0.245950
H131	H13	0.166600	0.648900	0.246500
C121	C12	0.273000	0.619910	0.211440
H141	H14	0.265800	0.638300	0.189000
C131	C13	0.348600	0.564560	0.240520
H151	H15	0.395300	0.542200	0.239000
C141	C14	0.295500	0.569830	0.276100
H161	H16	0.306400	0.551600	0.298500
C151	C15	0.589000	0.665040	0.516080
H171	H17	0.601300	0.637600	0.512900
C161	C16	0.486200	0.679330	0.506220
H181	H18	0.429200	0.662000	0.495800
C171	C17	0.462800	0.719660	0.511230
C181	C18	0.553100	0.742650	0.524880
H191	H19	0.543800	0.770200	0.528200
C191	C19	0.653600	0.726400	0.533430
H201	H20	0.713100	0.743300	0.542300
C201	C20	0.336900	0.775650	0.510800
H211	H21	0.373700	0.782700	0.538300
H221	H22	0.374100	0.790900	0.489300
C211	C21	0.265400	0.711800	0.489400
H231	H23	0.277700	0.704000	0.460200
H241	H24	0.268700	0.687300	0.506200
C221	C22	0.994900	0.710080	0.585890
C231	C23	0.049600	0.745720	0.605510
C241	C24	0.158100	0.743980	0.621890
H251	H25	0.199600	0.720400	0.620200
C251	C25	0.206000	0.777690	0.641150
H261	H26	0.281000	0.777200	0.652000
C261	C26	0.143900	0.811200	0.644180
H271	H27	0.175900	0.833500	0.658200
C271	C27	0.038400	0.813340	0.627730
C281	C28	0.991700	0.780590	0.608600
H281	H28	0.917400	0.781900	0.597200
C291	C29	0.971300	0.849930	0.632550
C301	C30	0.750600	0.600960	0.589050
C311	C31	0.704500	0.580670	0.626290
C321	C32	0.704200	0.598510	0.665500
H291	H29	0.738800	0.623400	0.670100
C331	C33	0.653500	0.579950	0.697770
H301	H30	0.652700	0.592400	0.724400
C341	C34	0.604300	0.543780	0.691820
H311	H31	0.569600	0.531400	0.714200
C351	C35	0.605200	0.525210	0.652950
C361	C36	0.655600	0.543820	0.620950
H321	H32	0.657100	0.531100	0.594500
C371	C37	0.549100	0.486730	0.645700
C381	C38	0.211100	0.457610	0.624100
H331	H33	0.205100	0.462300	0.653200
C391	C39	0.123700	0.468530	0.597510
H341	H34	0.059700	0.480100	0.608100
C401	C40	0.129700	0.462460	0.554410
C411	C41	0.228300	0.446280	0.541870
H351	H35	0.238600	0.442700	0.512900
C421	C42	0.310500	0.435520	0.571200
H361	H36	0.375300	0.423600	0.561500
C431	C43	0.046700	0.467510	0.480650
H371	H37	0.112400	0.451900	0.474000
H381	H38	0.979900	0.454200	0.468100
C441	C44	0.945400	0.493600	0.536510
H391	H39	0.876700	0.480800	0.524800
H401	H40	0.941400	0.495300	0.567300
Zn31	Zn3	0.326870	0.165790	0.549660
Zn41	Zn4	0.923160	0.923250	0.655110
O91	O9	0.394500	0.214260	0.572130
O101	O10	0.548700	0.178890	0.583600
O111	O11	0.525400	0.380410	0.646070
O121	O12	0.369000	0.349730	0.623920
O131	O13	0.301800	0.133460	0.598110
O141	O14	0.234500	0.087600	0.553810
O151	O15	0.058300	0.969190	0.611530
O161	O16	0.995000	0.972920	0.675410
N91	N9	0.395700	0.148440	0.497630
N101	N10	0.548600	0.116850	0.389070
N111	N11	0.669400	0.107250	0.315300
N121	N12	0.840100	0.088670	0.207140
N131	N13	0.175100	0.187730	0.530210
N141	N14	0.859400	0.234750	0.503560
N151	N15	0.805000	0.940730	0.612490
N161	N16	0.540100	0.970200	0.526790
C451	C45	0.341800	0.150570	0.459460
H411	H41	0.267300	0.159600	0.457800
C461	C46	0.388600	0.140340	0.422790
H421	H42	0.346300	0.142200	0.396800
C471	C47	0.497400	0.127300	0.423850
C481	C48	0.554700	0.124800	0.463950
H431	H43	0.629300	0.115900	0.466600
C491	C49	0.501200	0.135330	0.498780
H441	H44	0.540700	0.133300	0.525300
C501	C50	0.664500	0.103450	0.391400
H451	H45	0.714200	0.126400	0.396100
H461	H46	0.677100	0.085400	0.415600
C511	C51	0.692300	0.083080	0.352840
H471	H47	0.771800	0.076000	0.355000
H481	H48	0.648900	0.058400	0.350000
C521	C52	0.582000	0.135600	0.317090
H491	H49	0.546100	0.139300	0.288700
H501	H50	0.613600	0.161200	0.326600
C531	C53	0.496700	0.122630	0.346510
H511	H51	0.437800	0.142800	0.347300
H521	H52	0.462300	0.097700	0.336300
C541	C54	0.725500	0.101590	0.280200
C551	C55	0.714600	0.126810	0.245950
H531	H53	0.666600	0.148900	0.246500
C561	C56	0.773000	0.119910	0.211440
H541	H54	0.765800	0.138300	0.189000
C571	C57	0.848600	0.064560	0.240520
H551	H55	0.895300	0.042200	0.239000
C581	C58	0.795500	0.069830	0.276100
H561	H56	0.806400	0.051600	0.298500
C591	C59	0.089000	0.165040	0.516080
H571	H57	0.101300	0.137600	0.512900
C601	C60	0.986200	0.179330	0.506220
H581	H58	0.929200	0.162000	0.495800
C611	C61	0.962800	0.219660	0.511230
C621	C62	0.053100	0.242650	0.524880
H591	H59	0.043800	0.270200	0.528200
C631	C63	0.153600	0.226400	0.533430
H601	H60	0.213100	0.243300	0.542300
C641	C64	0.836900	0.275650	0.510800
H611	H61	0.873700	0.282700	0.538300
H621	H62	0.874100	0.290900	0.489300
C651	C65	0.765400	0.211800	0.489400
H631	H63	0.777700	0.204000	0.460200
H641	H64	0.768700	0.187300	0.506200
C661	C66	0.494900	0.210080	0.585890
C671	C67	0.549600	0.245720	0.605510
C681	C68	0.658100	0.243980	0.621890
H651	H65	0.699600	0.220400	0.620200
C691	C69	0.706000	0.277690	0.641150
H661	H66	0.781000	0.277200	0.652000
C701	C70	0.643900	0.311200	0.644180
H671	H67	0.675900	0.333500	0.658200
C711	C71	0.538400	0.313340	0.627730
C721	C72	0.491700	0.280590	0.608600
H681	H68	0.417400	0.281900	0.597200
C731	C73	0.471300	0.349930	0.632550
C741	C74	0.250600	0.100960	0.589050
C751	C75	0.204500	0.080670	0.626290
C761	C76	0.204200	0.098510	0.665500
H691	H69	0.238800	0.123400	0.670100
C771	C77	0.153500	0.079950	0.697770
H701	H70	0.152700	0.092400	0.724400
C781	C78	0.104300	0.043780	0.691820
H711	H71	0.069600	0.031400	0.714200
C791	C79	0.105200	0.025210	0.652950
C801	C80	0.155600	0.043820	0.620950
H721	H72	0.157100	0.031100	0.594500
C811	C81	0.049100	0.986730	0.645700
C821	C82	0.711100	0.957610	0.624100
H731	H73	0.705100	0.962300	0.653200
C831	C83	0.623700	0.968530	0.597510
H741	H74	0.559700	0.980100	0.608100
C841	C84	0.629700	0.962460	0.554410
C851	C85	0.728300	0.946280	0.541870
H751	H75	0.738600	0.942700	0.512900
C861	C86	0.810500	0.935520	0.571200
H761	H76	0.875300	0.923600	0.561500
C871	C87	0.546700	0.967510	0.480650
H771	H77	0.612400	0.951900	0.474000
H781	H78	0.479900	0.954200	0.468100
C881	C88	0.445400	0.993600	0.536510
H791	H79	0.376700	0.980800	0.524800
H801	H80	0.441400	0.995300	0.567300
Zn51	Zn5	0.173130	0.665790	0.950340
Zn61	Zn6	0.576840	0.423250	0.844890
O171	O17	0.105500	0.714260	0.927870
O181	O18	0.951300	0.678890	0.916400
O191	O19	0.974600	0.880410	0.853930
O201	O20	0.131000	0.849730	0.876080
O211	O21	0.198200	0.633460	0.901890
O221	O22	0.265500	0.587600	0.946190
O231	O23	0.441700	0.469190	0.888470
O241	O24	0.505000	0.472920	0.824590
N171	N17	0.104300	0.648440	0.002370
N181	N18	0.951400	0.616850	0.110930
N191	N19	0.830600	0.607250	0.184700
N201	N20	0.659900	0.588670	0.292860
N211	N21	0.324900	0.687730	0.969790
N221	N22	0.640600	0.734750	0.996440
N231	N23	0.695000	0.440730	0.887510
N241	N24	0.959900	0.470200	0.973210
C891	C89	0.158200	0.650570	0.040540
H811	H81	0.232700	0.659600	0.042200
C901	C90	0.111400	0.640340	0.077210
H821	H82	0.153700	0.642200	0.103200
C911	C91	0.002600	0.627300	0.076150
C921	C92	0.945300	0.624800	0.036050
H831	H83	0.870700	0.615900	0.033400
C931	C93	0.998800	0.635330	0.001220
H841	H84	0.959300	0.633300	0.974700
C941	C94	0.835500	0.603450	0.108600
H851	H85	0.785800	0.626400	0.103900
H861	H86	0.822900	0.585400	0.084400
C951	C95	0.807700	0.583080	0.147160
H871	H87	0.728200	0.576000	0.145000
H881	H88	0.851100	0.558400	0.150000
C961	C96	0.918000	0.635600	0.182910
H891	H89	0.953900	0.639300	0.211300
H901	H90	0.886400	0.661200	0.173400
C971	C97	0.003300	0.622630	0.153490
H911	H91	0.062200	0.642800	0.152700
H921	H92	0.037700	0.597700	0.163700
C981	C98	0.774500	0.601590	0.219800
C991	C99	0.785400	0.626810	0.254050
H931	H93	0.833400	0.648900	0.253500
C1001	C100	0.727000	0.619910	0.288560
H941	H94	0.734200	0.638300	0.311000
C1011	C101	0.651400	0.564560	0.259480
H951	H95	0.604700	0.542200	0.261000
C1021	C102	0.704500	0.569830	0.223900
H961	H96	0.693600	0.551600	0.201500
C1031	C103	0.411000	0.665040	0.983920
H971	H97	0.398700	0.637600	0.987100
C1041	C104	0.513800	0.679330	0.993780
H981	H98	0.570800	0.662000	0.004200
C1051	C105	0.537200	0.719660	0.988770
C1061	C106	0.446900	0.742650	0.975120
H991	H99	0.456200	0.770200	0.971800
C1071	C107	0.346400	0.726400	0.966570
H1001	H100	0.286900	0.743300	0.957700
C1081	C108	0.663100	0.775650	0.989200
H1011	H101	0.626300	0.782700	0.961700
H1021	H102	0.625900	0.790900	0.010700
C1091	C109	0.734600	0.711800	0.010600
H1031	H103	0.722300	0.704000	0.039800
H1041	H104	0.731300	0.687300	0.993800
C1101	C110	0.005100	0.710080	0.914110
C1111	C111	0.950400	0.745720	0.894490
C1121	C112	0.841900	0.743980	0.878110
H1051	H105	0.800400	0.720400	0.879800
C1131	C113	0.794000	0.777690	0.858850
H1061	H106	0.719000	0.777200	0.848000
C1141	C114	0.856100	0.811200	0.855820
H1071	H107	0.824100	0.833500	0.841800
C1151	C115	0.961600	0.813340	0.872270
C1161	C116	0.008300	0.780590	0.891400
H1081	H108	0.082600	0.781900	0.902800
C1171	C117	0.028700	0.849930	0.867450
C1181	C118	0.249400	0.600960	0.910950
C1191	C119	0.295500	0.580670	0.873710
C1201	C120	0.295800	0.598510	0.834500
H1091	H109	0.261200	0.623400	0.829900
C1211	C121	0.346500	0.579950	0.802230
H1101	H110	0.347300	0.592400	0.775600
C1221	C122	0.395700	0.543780	0.808180
H1111	H111	0.430400	0.531400	0.785800
C1231	C123	0.394800	0.525210	0.847050
C1241	C124	0.344400	0.543820	0.879050
H1121	H112	0.342900	0.531100	0.905500
C1251	C125	0.450900	0.486730	0.854300
C1261	C126	0.788900	0.457610	0.875900
H1131	H113	0.794900	0.462300	0.846800
C1271	C127	0.876300	0.468530	0.902490
H1141	H114	0.940300	0.480100	0.891900
C1281	C128	0.870300	0.462460	0.945590
C1291	C129	0.771700	0.446280	0.958130
H1151	H115	0.761400	0.442700	0.987100
C1301	C130	0.689500	0.435520	0.928800
H1161	H116	0.624700	0.423600	0.938500
C1311	C131	0.953300	0.467510	0.019350
H1171	H117	0.887600	0.451900	0.026000
H1181	H118	0.020100	0.454200	0.031900
C1321	C132	0.054600	0.493600	0.963490
H1191	H119	0.123300	0.480800	0.975200
H1201	H120	0.058600	0.495300	0.932700
Zn71	Zn7	0.673130	0.165790	0.950340
Zn81	Zn8	0.076840	0.923250	0.844890
O251	O25	0.605500	0.214260	0.927870
O261	O26	0.451300	0.178890	0.916400
O271	O27	0.474600	0.380410	0.853930
O281	O28	0.631000	0.349730	0.876080
O291	O29	0.698200	0.133460	0.901890
O301	O30	0.765500	0.087600	0.946190
O311	O31	0.941700	0.969190	0.888470
O321	O32	0.005000	0.972920	0.824590
N251	N25	0.604300	0.148440	0.002370
N261	N26	0.451400	0.116850	0.110930
N271	N27	0.330600	0.107250	0.184700
N281	N28	0.159900	0.088670	0.292860
N291	N29	0.824900	0.187730	0.969790
N301	N30	0.140600	0.234750	0.996440
N311	N31	0.195000	0.940730	0.887510
N321	N32	0.459900	0.970200	0.973210
C1331	C133	0.658200	0.150570	0.040540
H1211	H121	0.732700	0.159600	0.042200
C1341	C134	0.611400	0.140340	0.077210
H1221	H122	0.653700	0.142200	0.103200
C1351	C135	0.502600	0.127300	0.076150
C1361	C136	0.445300	0.124800	0.036050
H1231	H123	0.370700	0.115900	0.033400
C1371	C137	0.498800	0.135330	0.001220
H1241	H124	0.459300	0.133300	0.974700
C1381	C138	0.335500	0.103450	0.108600
H1251	H125	0.285800	0.126400	0.103900
H1261	H126	0.322900	0.085400	0.084400
C1391	C139	0.307700	0.083080	0.147160
H1271	H127	0.228200	0.076000	0.145000
H1281	H128	0.351100	0.058400	0.150000
C1401	C140	0.418000	0.135600	0.182910
H1291	H129	0.453900	0.139300	0.211300
H1301	H130	0.386400	0.161200	0.173400
C1411	C141	0.503300	0.122630	0.153490
H1311	H131	0.562200	0.142800	0.152700
H1321	H132	0.537700	0.097700	0.163700
C1421	C142	0.274500	0.101590	0.219800
C1431	C143	0.285400	0.126810	0.254050
H1331	H133	0.333400	0.148900	0.253500
C1441	C144	0.227000	0.119910	0.288560
H1341	H134	0.234200	0.138300	0.311000
C1451	C145	0.151400	0.064560	0.259480
H1351	H135	0.104700	0.042200	0.261000
C1461	C146	0.204500	0.069830	0.223900
H1361	H136	0.193600	0.051600	0.201500
C1471	C147	0.911000	0.165040	0.983920
H1371	H137	0.898700	0.137600	0.987100
C1481	C148	0.013800	0.179330	0.993780
H1381	H138	0.070800	0.162000	0.004200
C1491	C149	0.037200	0.219660	0.988770
C1501	C150	0.946900	0.242650	0.975120
H1391	H139	0.956200	0.270200	0.971800
C1511	C151	0.846400	0.226400	0.966570
H1401	H140	0.786900	0.243300	0.957700
C1521	C152	0.163100	0.275650	0.989200
H1411	H141	0.126300	0.282700	0.961700
H1421	H142	0.125900	0.290900	0.010700
C1531	C153	0.234600	0.211800	0.010600
H1431	H143	0.222300	0.204000	0.039800
H1441	H144	0.231300	0.187300	0.993800
C1541	C154	0.505100	0.210080	0.914110
C1551	C155	0.450400	0.245720	0.894490
C1561	C156	0.341900	0.243980	0.878110
H1451	H145	0.300400	0.220400	0.879800
C1571	C157	0.294000	0.277690	0.858850
H1461	H146	0.219000	0.277200	0.848000
C1581	C158	0.356100	0.311200	0.855820
H1471	H147	0.324100	0.333500	0.841800
C1591	C159	0.461600	0.313340	0.872270
C1601	C160	0.508300	0.280590	0.891400
H1481	H148	0.582600	0.281900	0.902800
C1611	C161	0.528700	0.349930	0.867450
C1621	C162	0.749400	0.100960	0.910950
C1631	C163	0.795500	0.080670	0.873710
C1641	C164	0.795800	0.098510	0.834500
H1491	H149	0.761200	0.123400	0.829900
C1651	C165	0.846500	0.079950	0.802230
H1501	H150	0.847300	0.092400	0.775600
C1661	C166	0.895700	0.043780	0.808180
H1511	H151	0.930400	0.031400	0.785800
C1671	C167	0.894800	0.025210	0.847050
C1681	C168	0.844400	0.043820	0.879050
H1521	H152	0.842900	0.031100	0.905500
C1691	C169	0.950900	0.986730	0.854300
C1701	C170	0.288900	0.957610	0.875900
H1531	H153	0.294900	0.962300	0.846800
C1711	C171	0.376300	0.968530	0.902490
H1541	H154	0.440300	0.980100	0.891900
C1721	C172	0.370300	0.962460	0.945590
C1731	C173	0.271700	0.946280	0.958130
H1551	H155	0.261400	0.942700	0.987100
C1741	C174	0.189500	0.935520	0.928800
H1561	H156	0.124700	0.923600	0.938500
C1751	C175	0.453300	0.967510	0.019350
H1571	H157	0.387600	0.951900	0.026000
H1581	H158	0.520100	0.954200	0.031900
C1761	C176	0.554600	0.993600	0.963490
H1591	H159	0.623300	0.980800	0.975200
H1601	H160	0.558600	0.995300	0.932700
Zn91	Zn9	0.173130	0.334210	0.450340
Zn101	Zn10	0.576840	0.576750	0.344890
O331	O33	0.105500	0.285740	0.427870
O341	O34	0.951300	0.321110	0.416400
O351	O35	0.974600	0.119590	0.353930
O361	O36	0.131000	0.150270	0.376080
O371	O37	0.198200	0.366540	0.401890
O381	O38	0.265500	0.412400	0.446190
O391	O39	0.441700	0.530810	0.388470
O401	O40	0.505000	0.527080	0.324590
N331	N33	0.104300	0.351560	0.502370
N341	N34	0.951400	0.383150	0.610930
N351	N35	0.830600	0.392750	0.684700
N361	N36	0.659900	0.411330	0.792860
N371	N37	0.324900	0.312270	0.469790
N381	N38	0.640600	0.265250	0.496440
N391	N39	0.695000	0.559270	0.387510
N401	N40	0.959900	0.529800	0.473210
C1771	C177	0.158200	0.349430	0.540540
H1611	H161	0.232700	0.340400	0.542200
C1781	C178	0.111400	0.359660	0.577210
H1621	H162	0.153700	0.357800	0.603200
C1791	C179	0.002600	0.372700	0.576150
C1801	C180	0.945300	0.375200	0.536050
H1631	H163	0.870700	0.384100	0.533400
C1811	C181	0.998800	0.364670	0.501220
H1641	H164	0.959300	0.366700	0.474700
C1821	C182	0.835500	0.396550	0.608600
H1651	H165	0.785800	0.373600	0.603900
H1661	H166	0.822900	0.414600	0.584400
C1831	C183	0.807700	0.416920	0.647160
H1671	H167	0.728200	0.424000	0.645000
H1681	H168	0.851100	0.441600	0.650000
C1841	C184	0.918000	0.364400	0.682910
H1691	H169	0.953900	0.360700	0.711300
H1701	H170	0.886400	0.338800	0.673400
C1851	C185	0.003300	0.377370	0.653490
H1711	H171	0.062200	0.357200	0.652700
H1721	H172	0.037700	0.402300	0.663700
C1861	C186	0.774500	0.398410	0.719800
C1871	C187	0.785400	0.373190	0.754050
H1731	H173	0.833400	0.351100	0.753500
C1881	C188	0.727000	0.380090	0.788560
H1741	H174	0.734200	0.361700	0.811000
C1891	C189	0.651400	0.435440	0.759480
H1751	H175	0.604700	0.457800	0.761000
C1901	C190	0.704500	0.430170	0.723900
H1761	H176	0.693600	0.448400	0.701500
C1911	C191	0.411000	0.334960	0.483920
H1771	H177	0.398700	0.362400	0.487100
C1921	C192	0.513800	0.320670	0.493780
H1781	H178	0.570800	0.338000	0.504200
C1931	C193	0.537200	0.280340	0.488770
C1941	C194	0.446900	0.257350	0.475120
H1791	H179	0.456200	0.229800	0.471800
C1951	C195	0.346400	0.273600	0.466570
H1801	H180	0.286900	0.256700	0.457700
C1961	C196	0.663100	0.224350	0.489200
H1811	H181	0.626300	0.217300	0.461700
H1821	H182	0.625900	0.209100	0.510700
C1971	C197	0.734600	0.288200	0.510600
H1831	H183	0.722300	0.296000	0.539800
H1841	H184	0.731300	0.312700	0.493800
C1981	C198	0.005100	0.289920	0.414110
C1991	C199	0.950400	0.254280	0.394490
C2001	C200	0.841900	0.256020	0.378110
H1851	H185	0.800400	0.279600	0.379800
C2011	C201	0.794000	0.222310	0.358850
H1861	H186	0.719000	0.222800	0.348000
C2021	C202	0.856100	0.188800	0.355820
H1871	H187	0.824100	0.166500	0.341800
C2031	C203	0.961600	0.186660	0.372270
C2041	C204	0.008300	0.219410	0.391400
H1881	H188	0.082600	0.218100	0.402800
C2051	C205	0.028700	0.150070	0.367450
C2061	C206	0.249400	0.399040	0.410950
C2071	C207	0.295500	0.419330	0.373710
C2081	C208	0.295800	0.401490	0.334500
H1891	H189	0.261200	0.376600	0.329900
C2091	C209	0.346500	0.420050	0.302230
H1901	H190	0.347300	0.407600	0.275600
C2101	C210	0.395700	0.456220	0.308180
H1911	H191	0.430400	0.468600	0.285800
C2111	C211	0.394800	0.474790	0.347050
C2121	C212	0.344400	0.456180	0.379050
H1921	H192	0.342900	0.468900	0.405500
C2131	C213	0.450900	0.513270	0.354300
C2141	C214	0.788900	0.542390	0.375900
H1931	H193	0.794900	0.537700	0.346800
C2151	C215	0.876300	0.531470	0.402490
H1941	H194	0.940300	0.519900	0.391900
C2161	C216	0.870300	0.537540	0.445590
C2171	C217	0.771700	0.553720	0.458130
H1951	H195	0.761400	0.557300	0.487100
C2181	C218	0.689500	0.564480	0.428800
H1961	H196	0.624700	0.576400	0.438500
C2191	C219	0.953300	0.532490	0.519350
H1971	H197	0.887600	0.548100	0.526000
H1981	H198	0.020100	0.545800	0.531900
C2201	C220	0.054600	0.506400	0.463490
H1991	H199	0.123300	0.519200	0.475200
H2001	H200	0.058600	0.504700	0.432700
Zn111	Zn11	0.673130	0.834210	0.450340
Zn121	Zn12	0.076840	0.076750	0.344890
O411	O41	0.605500	0.785740	0.427870
O421	O42	0.451300	0.821110	0.416400
O431	O43	0.474600	0.619590	0.353930
O441	O44	0.631000	0.650270	0.376080
O451	O45	0.698200	0.866540	0.401890
O461	O46	0.765500	0.912400	0.446190
O471	O47	0.941700	0.030810	0.388470
O481	O48	0.005000	0.027080	0.324590
N411	N41	0.604300	0.851560	0.502370
N421	N42	0.451400	0.883150	0.610930
N431	N43	0.330600	0.892750	0.684700
N441	N44	0.159900	0.911330	0.792860
N451	N45	0.824900	0.812270	0.469790
N461	N46	0.140600	0.765250	0.496440
N471	N47	0.195000	0.059270	0.387510
N481	N48	0.459900	0.029800	0.473210
C2211	C221	0.658200	0.849430	0.540540
H2011	H201	0.732700	0.840400	0.542200
C2221	C222	0.611400	0.859660	0.577210
H2021	H202	0.653700	0.857800	0.603200
C2231	C223	0.502600	0.872700	0.576150
C2241	C224	0.445300	0.875200	0.536050
H2031	H203	0.370700	0.884100	0.533400
C2251	C225	0.498800	0.864670	0.501220
H2041	H204	0.459300	0.866700	0.474700
C2261	C226	0.335500	0.896550	0.608600
H2051	H205	0.285800	0.873600	0.603900
H2061	H206	0.322900	0.914600	0.584400
C2271	C227	0.307700	0.916920	0.647160
H2071	H207	0.228200	0.924000	0.645000
H2081	H208	0.351100	0.941600	0.650000
C2281	C228	0.418000	0.864400	0.682910
H2091	H209	0.453900	0.860700	0.711300
H2101	H210	0.386400	0.838800	0.673400
C2291	C229	0.503300	0.877370	0.653490
H2111	H211	0.562200	0.857200	0.652700
H2121	H212	0.537700	0.902300	0.663700
C2301	C230	0.274500	0.898410	0.719800
C2311	C231	0.285400	0.873190	0.754050
H2131	H213	0.333400	0.851100	0.753500
C2321	C232	0.227000	0.880090	0.788560
H2141	H214	0.234200	0.861700	0.811000
C2331	C233	0.151400	0.935440	0.759480
H2151	H215	0.104700	0.957800	0.761000
C2341	C234	0.204500	0.930170	0.723900
H2161	H216	0.193600	0.948400	0.701500
C2351	C235	0.911000	0.834960	0.483920
H2171	H217	0.898700	0.862400	0.487100
C2361	C236	0.013800	0.820670	0.493780
H2181	H218	0.070800	0.838000	0.504200
C2371	C237	0.037200	0.780340	0.488770
C2381	C238	0.946900	0.757350	0.475120
H2191	H219	0.956200	0.729800	0.471800
C2391	C239	0.846400	0.773600	0.466570
H2201	H220	0.786900	0.756700	0.457700
C2401	C240	0.163100	0.724350	0.489200
H2211	H221	0.126300	0.717300	0.461700
H2221	H222	0.125900	0.709100	0.510700
C2411	C241	0.234600	0.788200	0.510600
H2231	H223	0.222300	0.796000	0.539800
H2241	H224	0.231300	0.812700	0.493800
C2421	C242	0.505100	0.789920	0.414110
C2431	C243	0.450400	0.754280	0.394490
C2441	C244	0.341900	0.756020	0.378110
H2251	H225	0.300400	0.779600	0.379800
C2451	C245	0.294000	0.722310	0.358850
H2261	H226	0.219000	0.722800	0.348000
C2461	C246	0.356100	0.688800	0.355820
H2271	H227	0.324100	0.666500	0.341800
C2471	C247	0.461600	0.686660	0.372270
C2481	C248	0.508300	0.719410	0.391400
H2281	H228	0.582600	0.718100	0.402800
C2491	C249	0.528700	0.650070	0.367450
C2501	C250	0.749400	0.899040	0.410950
C2511	C251	0.795500	0.919330	0.373710
C2521	C252	0.795800	0.901490	0.334500
H2291	H229	0.761200	0.876600	0.329900
C2531	C253	0.846500	0.920050	0.302230
H2301	H230	0.847300	0.907600	0.275600
C2541	C254	0.895700	0.956220	0.308180
H2311	H231	0.930400	0.968600	0.285800
C2551	C255	0.894800	0.974790	0.347050
C2561	C256	0.844400	0.956180	0.379050
H2321	H232	0.842900	0.968900	0.405500
C2571	C257	0.950900	0.013270	0.354300
C2581	C258	0.288900	0.042390	0.375900
H2331	H233	0.294900	0.037700	0.346800
C2591	C259	0.376300	0.031470	0.402490
H2341	H234	0.440300	0.019900	0.391900
C2601	C260	0.370300	0.037540	0.445590
C2611	C261	0.271700	0.053720	0.458130
H2351	H235	0.261400	0.057300	0.487100
C2621	C262	0.189500	0.064480	0.428800
H2361	H236	0.124700	0.076400	0.438500
C2631	C263	0.453300	0.032490	0.519350
H2371	H237	0.387600	0.048100	0.526000
H2381	H238	0.520100	0.045800	0.531900
C2641	C264	0.554600	0.006400	0.463490
H2391	H239	0.623300	0.019200	0.475200
H2401	H240	0.558600	0.004700	0.432700
Zn131	Zn13	0.826870	0.334210	0.049660
Zn141	Zn14	0.423160	0.576750	0.155110
O491	O49	0.894500	0.285740	0.072130
O501	O50	0.048700	0.321110	0.083600
O511	O51	0.025400	0.119590	0.146070
O521	O52	0.869000	0.150270	0.123920
O531	O53	0.801800	0.366540	0.098110
O541	O54	0.734500	0.412400	0.053810
O551	O55	0.558300	0.530810	0.111530
O561	O56	0.495000	0.527080	0.175410
N491	N49	0.895700	0.351560	0.997630
N501	N50	0.048600	0.383150	0.889070
N511	N51	0.169400	0.392750	0.815300
N521	N52	0.340100	0.411330	0.707140
N531	N53	0.675100	0.312270	0.030210
N541	N54	0.359400	0.265250	0.003560
N551	N55	0.305000	0.559270	0.112490
N561	N56	0.040100	0.529800	0.026790
C2651	C265	0.841800	0.349430	0.959460
H2411	H241	0.767300	0.340400	0.957800
C2661	C266	0.888600	0.359660	0.922790
H2421	H242	0.846300	0.357800	0.896800
C2671	C267	0.997400	0.372700	0.923850
C2681	C268	0.054700	0.375200	0.963950
H2431	H243	0.129300	0.384100	0.966600
C2691	C269	0.001200	0.364670	0.998780
H2441	H244	0.040700	0.366700	0.025300
C2701	C270	0.164500	0.396550	0.891400
H2451	H245	0.214200	0.373600	0.896100
H2461	H246	0.177100	0.414600	0.915600
C2711	C271	0.192300	0.416920	0.852840
H2471	H247	0.271800	0.424000	0.855000
H2481	H248	0.148900	0.441600	0.850000
C2721	C272	0.082000	0.364400	0.817090
H2491	H249	0.046100	0.360700	0.788700
H2501	H250	0.113600	0.338800	0.826600
C2731	C273	0.996700	0.377370	0.846510
H2511	H251	0.937800	0.357200	0.847300
H2521	H252	0.962300	0.402300	0.836300
C2741	C274	0.225500	0.398410	0.780200
C2751	C275	0.214600	0.373190	0.745950
H2531	H253	0.166600	0.351100	0.746500
C2761	C276	0.273000	0.380090	0.711440
H2541	H254	0.265800	0.361700	0.689000
C2771	C277	0.348600	0.435440	0.740520
H2551	H255	0.395300	0.457800	0.739000
C2781	C278	0.295500	0.430170	0.776100
H2561	H256	0.306400	0.448400	0.798500
C2791	C279	0.589000	0.334960	0.016080
H2571	H257	0.601300	0.362400	0.012900
C2801	C280	0.486200	0.320670	0.006220
H2581	H258	0.429200	0.338000	0.995800
C2811	C281	0.462800	0.280340	0.011230
C2821	C282	0.553100	0.257350	0.024880
H2591	H259	0.543800	0.229800	0.028200
C2831	C283	0.653600	0.273600	0.033430
H2601	H260	0.713100	0.256700	0.042300
C2841	C284	0.336900	0.224350	0.010800
H2611	H261	0.373700	0.217300	0.038300
H2621	H262	0.374100	0.209100	0.989300
C2851	C285	0.265400	0.288200	0.989400
H2631	H263	0.277700	0.296000	0.960200
H2641	H264	0.268700	0.312700	0.006200
C2861	C286	0.994900	0.289920	0.085890
C2871	C287	0.049600	0.254280	0.105510
C2881	C288	0.158100	0.256020	0.121890
H2651	H265	0.199600	0.279600	0.120200
C2891	C289	0.206000	0.222310	0.141150
H2661	H266	0.281000	0.222800	0.152000
C2901	C290	0.143900	0.188800	0.144180
H2671	H267	0.175900	0.166500	0.158200
C2911	C291	0.038400	0.186660	0.127730
C2921	C292	0.991700	0.219410	0.108600
H2681	H268	0.917400	0.218100	0.097200
C2931	C293	0.971300	0.150070	0.132550
C2941	C294	0.750600	0.399040	0.089050
C2951	C295	0.704500	0.419330	0.126290
C2961	C296	0.704200	0.401490	0.165500
H2691	H269	0.738800	0.376600	0.170100
C2971	C297	0.653500	0.420050	0.197770
H2701	H270	0.652700	0.407600	0.224400
C2981	C298	0.604300	0.456220	0.191820
H2711	H271	0.569600	0.468600	0.214200
C2991	C299	0.605200	0.474790	0.152950
C3001	C300	0.655600	0.456180	0.120950
H2721	H272	0.657100	0.468900	0.094500
C3011	C301	0.549100	0.513270	0.145700
C3021	C302	0.211100	0.542390	0.124100
H2731	H273	0.205100	0.537700	0.153200
C3031	C303	0.123700	0.531470	0.097510
H2741	H274	0.059700	0.519900	0.108100
C3041	C304	0.129700	0.537540	0.054410
C3051	C305	0.228300	0.553720	0.041870
H2751	H275	0.238600	0.557300	0.012900
C3061	C306	0.310500	0.564480	0.071200
H2761	H276	0.375300	0.576400	0.061500
C3071	C307	0.046700	0.532490	0.980650
H2771	H277	0.112400	0.548100	0.974000
H2781	H278	0.979900	0.545800	0.968100
C3081	C308	0.945400	0.506400	0.036510
H2791	H279	0.876700	0.519200	0.024800
H2801	H280	0.941400	0.504700	0.067300
Zn151	Zn15	0.326870	0.834210	0.049660
Zn161	Zn16	0.923160	0.076750	0.155110
O571	O57	0.394500	0.785740	0.072130
O581	O58	0.548700	0.821110	0.083600
O591	O59	0.525400	0.619590	0.146070
O601	O60	0.369000	0.650270	0.123920
O611	O61	0.301800	0.866540	0.098110
O621	O62	0.234500	0.912400	0.053810
O631	O63	0.058300	0.030810	0.111530
O641	O64	0.995000	0.027080	0.175410
N571	N57	0.395700	0.851560	0.997630
N581	N58	0.548600	0.883150	0.889070
N591	N59	0.669400	0.892750	0.815300
N601	N60	0.840100	0.911330	0.707140
N611	N61	0.175100	0.812270	0.030210
N621	N62	0.859400	0.765250	0.003560
N631	N63	0.805000	0.059270	0.112490
N641	N64	0.540100	0.029800	0.026790
C3091	C309	0.341800	0.849430	0.959460
H2811	H281	0.267300	0.840400	0.957800
C3101	C310	0.388600	0.859660	0.922790
H2821	H282	0.346300	0.857800	0.896800
C3111	C311	0.497400	0.872700	0.923850
C3121	C312	0.554700	0.875200	0.963950
H2831	H283	0.629300	0.884100	0.966600
C3131	C313	0.501200	0.864670	0.998780
H2841	H284	0.540700	0.866700	0.025300
C3141	C314	0.664500	0.896550	0.891400
H2851	H285	0.714200	0.873600	0.896100
H2861	H286	0.677100	0.914600	0.915600
C3151	C315	0.692300	0.916920	0.852840
H2871	H287	0.771800	0.924000	0.855000
H2881	H288	0.648900	0.941600	0.850000
C3161	C316	0.582000	0.864400	0.817090
H2891	H289	0.546100	0.860700	0.788700
H2901	H290	0.613600	0.838800	0.826600
C3171	C317	0.496700	0.877370	0.846510
H2911	H291	0.437800	0.857200	0.847300
H2921	H292	0.462300	0.902300	0.836300
C3181	C318	0.725500	0.898410	0.780200
C3191	C319	0.714600	0.873190	0.745950
H2931	H293	0.666600	0.851100	0.746500
C3201	C320	0.773000	0.880090	0.711440
H2941	H294	0.765800	0.861700	0.689000
C3211	C321	0.848600	0.935440	0.740520
H2951	H295	0.895300	0.957800	0.739000
C3221	C322	0.795500	0.930170	0.776100
H2961	H296	0.806400	0.948400	0.798500
C3231	C323	0.089000	0.834960	0.016080
H2971	H297	0.101300	0.862400	0.012900
C3241	C324	0.986200	0.820670	0.006220
H2981	H298	0.929200	0.838000	0.995800
C3251	C325	0.962800	0.780340	0.011230
C3261	C326	0.053100	0.757350	0.024880
H2991	H299	0.043800	0.729800	0.028200
C3271	C327	0.153600	0.773600	0.033430
H3001	H300	0.213100	0.756700	0.042300
C3281	C328	0.836900	0.724350	0.010800
H3011	H301	0.873700	0.717300	0.038300
H3021	H302	0.874100	0.709100	0.989300
C3291	C329	0.765400	0.788200	0.989400
H3031	H303	0.777700	0.796000	0.960200
H3041	H304	0.768700	0.812700	0.006200
C3301	C330	0.494900	0.789920	0.085890
C3311	C331	0.549600	0.754280	0.105510
C3321	C332	0.658100	0.756020	0.121890
H3051	H305	0.699600	0.779600	0.120200
C3331	C333	0.706000	0.722310	0.141150
H3061	H306	0.781000	0.722800	0.152000
C3341	C334	0.643900	0.688800	0.144180
H3071	H307	0.675900	0.666500	0.158200
C3351	C335	0.538400	0.686660	0.127730
C3361	C336	0.491700	0.719410	0.108600
H3081	H308	0.417400	0.718100	0.097200
C3371	C337	0.471300	0.650070	0.132550
C3381	C338	0.250600	0.899040	0.089050
C3391	C339	0.204500	0.919330	0.126290
C3401	C340	0.204200	0.901490	0.165500
H3091	H309	0.238800	0.876600	0.170100
C3411	C341	0.153500	0.920050	0.197770
H3101	H310	0.152700	0.907600	0.224400
C3421	C342	0.104300	0.956220	0.191820
H3111	H311	0.069600	0.968600	0.214200
C3431	C343	0.105200	0.974790	0.152950
C3441	C344	0.155600	0.956180	0.120950
H3121	H312	0.157100	0.968900	0.094500
C3451	C345	0.049100	0.013270	0.145700
C3461	C346	0.711100	0.042390	0.124100
H3131	H313	0.705100	0.037700	0.153200
C3471	C347	0.623700	0.031470	0.097510
H3141	H314	0.559700	0.019900	0.108100
C3481	C348	0.629700	0.037540	0.054410
C3491	C349	0.728300	0.053720	0.041870
H3151	H315	0.738600	0.057300	0.012900
C3501	C350	0.810500	0.064480	0.071200
H3161	H316	0.875300	0.076400	0.061500
C3511	C351	0.546700	0.032490	0.980650
H3171	H317	0.612400	0.048100	0.974000
H3181	H318	0.479900	0.045800	0.968100
C3521	C352	0.445400	0.006400	0.036510
H3191	H319	0.376700	0.019200	0.024800
H3201	H320	0.441400	0.004700	0.067300
