data_c5dt02374b_c5dt02374b2_clean_PM
_symmetry_space_group_name_H-M	'P1'
_cell_length_a	8.843800
_cell_length_b	12.782100
_cell_length_c	12.208500
_cell_angle_alpha	90.000000
_cell_angle_beta	100.063000
_cell_angle_gamma	90.000000
_symmetry_Int_Tables_number 1

loop_
_symmetry_equiv_pos_as_xyz
'x,y,z'

loop_
_atom_site_label
_atom_site_type_symbol
_atom_site_fract_x
_atom_site_fract_y
_atom_site_fract_z
Cd11	Cd1	0.220150	0.913970	0.384750
Cd21	Cd2	0.206260	0.790950	0.033960
Cd31	Cd3	0.263210	0.560560	0.349740
O11	O1	0.003900	0.605000	0.361500
O21	O2	0.173500	0.730100	0.383700
O31	O3	0.453700	0.845400	0.417500
O41	O4	0.538100	0.003800	0.401200
O51	O5	0.484200	0.590000	0.285500
O61	O6	0.286700	0.655100	0.169800
O71	O7	0.981500	0.726800	0.065600
H11	H1	0.032000	0.671800	0.057000
O81	O8	0.884500	0.870100	0.978600
O91	O9	0.219000	0.419500	0.221700
O101	O10	0.213300	0.383100	0.398800
O111	O11	0.234300	0.988800	0.042300
O121	O12	0.203500	0.901100	0.189900
N11	N1	0.961700	0.876600	0.401000
N21	N2	0.839100	0.928400	0.410000
H21	H2	0.837800	0.995300	0.417200
N31	N3	0.475700	0.774700	0.067300
N41	N4	0.594400	0.812500	0.025000
H31	H3	0.587800	0.862300	0.977100
N51	N5	0.191700	0.173700	0.353100
N61	N6	0.190400	0.076800	0.309500
C11	C1	0.037600	0.697500	0.375900
C21	C2	0.918600	0.775300	0.391400
C31	C3	0.764300	0.766400	0.395500
H41	H4	0.706200	0.705400	0.391400
C41	C4	0.714300	0.868700	0.407100
C51	C5	0.556600	0.911200	0.409000
C61	C6	0.426800	0.643500	0.200300
C71	C7	0.532400	0.698400	0.136700
C81	C8	0.688800	0.687400	0.137300
H51	H5	0.755900	0.639200	0.177000
C91	C9	0.722000	0.763400	0.066000
C101	C10	0.872300	0.790500	0.034700
C111	C11	0.209000	0.355200	0.298600
C121	C12	0.202200	0.243400	0.272000
C131	C13	0.211500	0.191400	0.173800
H61	H6	0.220500	0.220000	0.105200
C141	C14	0.203900	0.084600	0.202600
C151	C15	0.215100	0.989500	0.140400
Cd41	Cd4	0.220150	0.086030	0.884750
Cd51	Cd5	0.206260	0.209050	0.533960
Cd61	Cd6	0.263210	0.439440	0.849740
O131	O13	0.003900	0.395000	0.861500
O141	O14	0.173500	0.269900	0.883700
O151	O15	0.453700	0.154600	0.917500
O161	O16	0.538100	0.996200	0.901200
O171	O17	0.484200	0.410000	0.785500
O181	O18	0.286700	0.344900	0.669800
O191	O19	0.981500	0.273200	0.565600
H71	H7	0.032000	0.328200	0.557000
O201	O20	0.884500	0.129900	0.478600
O211	O21	0.219000	0.580500	0.721700
O221	O22	0.213300	0.616900	0.898800
O231	O23	0.234300	0.011200	0.542300
O241	O24	0.203500	0.098900	0.689900
N71	N7	0.961700	0.123400	0.901000
N81	N8	0.839100	0.071600	0.910000
H81	H8	0.837800	0.004700	0.917200
N91	N9	0.475700	0.225300	0.567300
N101	N10	0.594400	0.187500	0.525000
H91	H9	0.587800	0.137700	0.477100
N111	N11	0.191700	0.826300	0.853100
N121	N12	0.190400	0.923200	0.809500
C161	C16	0.037600	0.302500	0.875900
C171	C17	0.918600	0.224700	0.891400
C181	C18	0.764300	0.233600	0.895500
H101	H10	0.706200	0.294600	0.891400
C191	C19	0.714300	0.131300	0.907100
C201	C20	0.556600	0.088800	0.909000
C211	C21	0.426800	0.356500	0.700300
C221	C22	0.532400	0.301600	0.636700
C231	C23	0.688800	0.312600	0.637300
H111	H11	0.755900	0.360800	0.677000
C241	C24	0.722000	0.236600	0.566000
C251	C25	0.872300	0.209500	0.534700
C261	C26	0.209000	0.644800	0.798600
C271	C27	0.202200	0.756600	0.772000
C281	C28	0.211500	0.808600	0.673800
H121	H12	0.220500	0.780000	0.605200
C291	C29	0.203900	0.915400	0.702600
C301	C30	0.215100	0.010500	0.640400
