data_c5nj01930c_c5nj01930c2_clean_PM
_symmetry_space_group_name_H-M	'P1'
_cell_length_a	14.708000
_cell_length_b	15.429000
_cell_length_c	23.084000
_cell_angle_alpha	84.282000
_cell_angle_beta	82.619000
_cell_angle_gamma	86.756000
_symmetry_Int_Tables_number 1

loop_
_symmetry_equiv_pos_as_xyz
'x,y,z'

loop_
_atom_site_label
_atom_site_type_symbol
_atom_site_fract_x
_atom_site_fract_y
_atom_site_fract_z
C11	C1	0.964400	0.036300	0.210000
C21	C2	0.040500	0.000500	0.169900
C31	C3	0.129100	0.026200	0.171100
H11	H1	0.139800	0.064400	0.197900
C41	C4	0.026800	0.943500	0.129400
H21	H2	0.968000	0.925500	0.127700
C51	C5	0.099000	0.913000	0.091400
H31	H3	0.088800	0.874200	0.064800
C61	C6	0.201700	0.996200	0.133100
H41	H4	0.260700	0.013800	0.134700
C71	C7	0.186400	0.940000	0.092800
C81	C8	0.252100	0.875400	0.006000
C91	C9	0.206700	0.921000	0.963400
H51	H5	0.181400	0.976600	0.968800
C101	C10	0.291900	0.794600	0.998300
H61	H6	0.323900	0.764800	0.026900
C111	C11	0.199000	0.883700	0.912900
H71	H7	0.167900	0.914300	0.884100
C121	C12	0.283500	0.758300	0.947200
H81	H8	0.310300	0.703200	0.941800
C131	C13	0.237000	0.800700	0.904100
C141	C14	0.225800	0.760500	0.848900
C151	C15	0.782400	0.921600	0.359300
C161	C16	0.752100	0.934500	0.422100
C171	C17	0.676100	0.989400	0.436100
H91	H9	0.645500	0.018200	0.406400
C181	C18	0.796600	0.891900	0.465900
H101	H10	0.846400	0.853700	0.456700
C191	C19	0.646100	0.001300	0.494000
H111	H11	0.594400	0.037000	0.503500
C201	C20	0.767700	0.905200	0.524200
H121	H12	0.798700	0.877400	0.554000
C211	C21	0.692200	0.960600	0.537100
C221	C22	0.602900	0.034500	0.612800
C231	C23	0.620700	0.120900	0.599300
H131	H13	0.674600	0.136700	0.576000
C241	C24	0.525400	0.009600	0.646100
H141	H14	0.514000	0.950800	0.654900
C251	C25	0.558800	0.184600	0.620300
H151	H15	0.571300	0.243100	0.611400
C261	C26	0.478000	0.161100	0.654400
C271	C27	0.462000	0.073800	0.667100
H161	H16	0.408100	0.057100	0.690100
C281	C28	0.411600	0.228100	0.681100
C291	C29	0.747900	0.835200	0.124900
C301	C30	0.719400	0.829500	0.065600
C311	C31	0.784700	0.834100	0.016500
H171	H17	0.845400	0.843800	0.020400
C321	C32	0.628700	0.818700	0.059300
H181	H18	0.584500	0.816700	0.092000
C331	C33	0.760500	0.824600	0.962200
H191	H19	0.804700	0.825100	0.929500
C341	C34	0.603300	0.810800	0.004600
H201	H20	0.542400	0.803300	0.000000
C351	C35	0.670400	0.814400	0.956800
C361	C36	0.574500	0.834400	0.879300
C371	C37	0.538700	0.916500	0.891200
H211	H21	0.563500	0.947700	0.917500
C381	C38	0.538200	0.787500	0.840900
H221	H22	0.562200	0.731800	0.834000
C391	C39	0.465800	0.951000	0.863400
H231	H23	0.440100	0.005400	0.872000
C401	C40	0.466700	0.823300	0.812700
H241	H24	0.442200	0.791800	0.786500
C411	C41	0.429900	0.906900	0.823000
C421	C42	0.351900	0.943600	0.792000
C431	C43	0.910800	0.725100	0.216600
C441	C44	0.982200	0.663500	0.188700
C451	C45	0.071200	0.686400	0.181400
H251	H25	0.085900	0.739800	0.192300
C461	C46	0.961200	0.586000	0.171600
H261	H26	0.900500	0.569800	0.176300
C471	C47	0.140200	0.630500	0.157700
H271	H27	0.201300	0.645300	0.154100
C481	C48	0.030900	0.530800	0.146900
H281	H28	0.017000	0.477600	0.135300
C491	C49	0.118400	0.555100	0.140000
C501	C50	0.204500	0.486400	0.061200
C511	C51	0.173800	0.544800	0.019000
H291	H29	0.139100	0.594400	0.029400
C521	C52	0.257200	0.414500	0.046400
H301	H30	0.278700	0.375000	0.075200
C531	C53	0.194300	0.529900	0.960700
H311	H31	0.172400	0.569400	0.932000
C541	C54	0.277900	0.401600	0.988000
H321	H32	0.314600	0.353000	0.977800
C551	C55	0.246700	0.457300	0.944400
C561	C56	0.270800	0.437700	0.882100
C571	C57	0.705100	0.507600	0.335900
C581	C58	0.703200	0.553300	0.389300
C591	C59	0.756900	0.624700	0.389800
H331	H33	0.796400	0.642500	0.356500
C601	C60	0.645500	0.527700	0.439000
H341	H34	0.609500	0.480100	0.439200
C611	C61	0.752300	0.669200	0.438700
H351	H35	0.788600	0.716600	0.438700
C621	C62	0.640500	0.572200	0.488700
H361	H36	0.601600	0.554400	0.522300
C631	C63	0.693600	0.642800	0.487700
C641	C64	0.607300	0.710300	0.566200
C651	C65	0.593500	0.693700	0.625400
H371	H37	0.640800	0.669000	0.645600
C661	C66	0.539500	0.748900	0.536500
H381	H38	0.549900	0.760600	0.495900
C671	C67	0.509100	0.713800	0.655500
H391	H39	0.499600	0.701200	0.696000
C681	C68	0.454400	0.771100	0.566600
H401	H40	0.408200	0.798600	0.546600
C691	C69	0.439900	0.751200	0.627400
C701	C70	0.347100	0.771200	0.658800
C711	C71	0.518400	0.481700	0.238100
C721	C72	0.424100	0.497600	0.267700
C731	C73	0.412500	0.542200	0.318000
H411	H41	0.462300	0.567500	0.329500
C741	C74	0.349800	0.462800	0.250600
H421	H42	0.357400	0.432000	0.217600
C751	C75	0.327800	0.549200	0.350400
H431	H43	0.320700	0.577600	0.384500
C761	C76	0.264200	0.472500	0.280900
H441	H44	0.213800	0.451600	0.267100
C771	C77	0.252500	0.513500	0.332200
C781	C78	0.099800	0.473700	0.354600
C791	C79	0.034000	0.518700	0.326000
H451	H45	0.034500	0.579100	0.318900
C801	C80	0.095900	0.386500	0.370500
H461	H46	0.138900	0.358200	0.392900
C811	C81	0.966600	0.472900	0.307700
H471	H47	0.921800	0.502400	0.287300
C821	C82	0.028700	0.340800	0.353500
H481	H48	0.025100	0.281400	0.364700
C831	C83	0.965600	0.383500	0.319400
C841	C84	0.899700	0.332700	0.294500
Nd11	Nd1	0.814550	0.130190	0.281540
Nd21	Nd2	0.788760	0.880060	0.238440
Nd31	Nd3	0.667720	0.664930	0.226960
Nd41	Nd4	0.703910	0.403030	0.234950
O11	O1	0.976500	0.098400	0.238030
O21	O2	0.885700	0.001700	0.215910
O31	O3	0.263500	0.912000	0.057550
O41	O4	0.174900	0.797000	0.814410
O51	O5	0.270200	0.688600	0.841340
O61	O6	0.757100	0.979400	0.319680
O71	O7	0.827300	0.854800	0.344100
O81	O8	0.666800	0.969100	0.596260
O91	O9	0.431900	0.305700	0.677740
O101	O10	0.336300	0.203200	0.710700
O111	O11	0.820600	0.870800	0.129810
O121	O12	0.696200	0.804900	0.170370
O131	O13	0.651400	0.797900	0.901800
O141	O14	0.322100	0.019900	0.800010
O151	O15	0.321600	0.897700	0.757500
O161	O16	0.933800	0.796000	0.229950
O171	O17	0.826900	0.705500	0.225020
O181	O18	0.188300	0.495800	0.120400
O191	O19	0.245800	0.491100	0.842000
O201	O20	0.314800	0.368700	0.871680
O211	O21	0.737200	0.546700	0.286470
O221	O22	0.674600	0.432700	0.339390
O231	O23	0.693400	0.688600	0.536500
O241	O24	0.325100	0.734500	0.710160
O251	O25	0.293700	0.826100	0.635420
O261	O26	0.580800	0.533500	0.241000
O271	O27	0.538400	0.411300	0.214230
O281	O28	0.172000	0.521100	0.368300
O291	O29	0.850500	0.374900	0.257700
O301	O30	0.893300	0.252500	0.308180
C851	C85	0.035600	0.963700	0.790000
C861	C86	0.959500	0.999500	0.830100
C871	C87	0.870900	0.973800	0.828900
H491	H49	0.860200	0.935600	0.802100
C881	C88	0.973200	0.056500	0.870600
H501	H50	0.032000	0.074500	0.872300
C891	C89	0.901000	0.087000	0.908600
H511	H51	0.911200	0.125800	0.935200
C901	C90	0.798300	0.003800	0.866900
H521	H52	0.739300	0.986200	0.865300
C911	C91	0.813600	0.060000	0.907200
C921	C92	0.747900	0.124600	0.994000
C931	C93	0.793300	0.079000	0.036600
H531	H53	0.818600	0.023400	0.031200
C941	C94	0.708100	0.205400	0.001700
H541	H54	0.676100	0.235200	0.973100
C951	C95	0.801000	0.116300	0.087100
H551	H55	0.832100	0.085700	0.115900
C961	C96	0.716500	0.241700	0.052800
H561	H56	0.689700	0.296800	0.058200
C971	C97	0.763000	0.199300	0.095900
C981	C98	0.774200	0.239500	0.151100
C991	C99	0.217600	0.078400	0.640700
C1001	C100	0.247900	0.065500	0.577900
C1011	C101	0.323900	0.010600	0.563900
H571	H57	0.354500	0.981800	0.593600
C1021	C102	0.203400	0.108100	0.534100
H581	H58	0.153600	0.146300	0.543300
C1031	C103	0.353900	0.998700	0.506000
H591	H59	0.405600	0.963000	0.496500
C1041	C104	0.232300	0.094800	0.475800
H601	H60	0.201300	0.122600	0.446000
C1051	C105	0.307800	0.039400	0.462900
C1061	C106	0.397100	0.965500	0.387200
C1071	C107	0.379300	0.879100	0.400700
H611	H61	0.325400	0.863300	0.424000
C1081	C108	0.474600	0.990400	0.353900
H621	H62	0.486000	0.049200	0.345100
C1091	C109	0.441200	0.815400	0.379700
H631	H63	0.428700	0.756900	0.388600
C1101	C110	0.522000	0.838900	0.345600
C1111	C111	0.538000	0.926200	0.332900
H641	H64	0.591900	0.942900	0.309900
C1121	C112	0.588400	0.771900	0.318900
C1131	C113	0.252100	0.164800	0.875100
C1141	C114	0.280600	0.170500	0.934400
C1151	C115	0.215300	0.165900	0.983500
H651	H65	0.154600	0.156200	0.979600
C1161	C116	0.371300	0.181300	0.940700
H661	H66	0.415500	0.183300	0.908000
C1171	C117	0.239500	0.175400	0.037800
H671	H67	0.195300	0.174900	0.070500
C1181	C118	0.396700	0.189200	0.995400
H681	H68	0.457600	0.196700	0.000000
C1191	C119	0.329600	0.185600	0.043200
C1201	C120	0.425500	0.165600	0.120700
C1211	C121	0.461300	0.083500	0.108800
H691	H69	0.436500	0.052300	0.082500
C1221	C122	0.461800	0.212500	0.159100
H701	H70	0.437800	0.268200	0.166000
C1231	C123	0.534200	0.049000	0.136600
H711	H71	0.559900	0.994600	0.128000
C1241	C124	0.533300	0.176700	0.187300
H721	H72	0.557800	0.208200	0.213500
C1251	C125	0.570100	0.093100	0.177000
C1261	C126	0.648100	0.056400	0.208000
C1271	C127	0.089200	0.274900	0.783400
C1281	C128	0.017800	0.336500	0.811300
C1291	C129	0.928800	0.313600	0.818600
H731	H73	0.914100	0.260200	0.807700
C1301	C130	0.038800	0.414000	0.828400
H741	H74	0.099500	0.430200	0.823700
C1311	C131	0.859800	0.369500	0.842300
H751	H75	0.798700	0.354700	0.845900
C1321	C132	0.969100	0.469200	0.853100
H761	H76	0.983000	0.522400	0.864700
C1331	C133	0.881600	0.444900	0.860000
C1341	C134	0.795500	0.513600	0.938800
C1351	C135	0.826200	0.455200	0.981000
H771	H77	0.860900	0.405600	0.970600
C1361	C136	0.742800	0.585500	0.953600
H781	H78	0.721300	0.625000	0.924800
C1371	C137	0.805700	0.470100	0.039300
H791	H79	0.827600	0.430600	0.068000
C1381	C138	0.722100	0.598400	0.012000
H801	H80	0.685400	0.647000	0.022200
C1391	C139	0.753300	0.542700	0.055600
C1401	C140	0.729200	0.562300	0.117900
C1411	C141	0.294900	0.492400	0.664100
C1421	C142	0.296800	0.446700	0.610700
C1431	C143	0.243100	0.375300	0.610200
H811	H81	0.203600	0.357500	0.643500
C1441	C144	0.354500	0.472300	0.561000
H821	H82	0.390500	0.519900	0.560800
C1451	C145	0.247700	0.330800	0.561300
H831	H83	0.211400	0.283400	0.561300
C1461	C146	0.359500	0.427800	0.511300
H841	H84	0.398400	0.445600	0.477700
C1471	C147	0.306400	0.357200	0.512300
C1481	C148	0.392700	0.289700	0.433800
C1491	C149	0.406500	0.306300	0.374600
H851	H85	0.359200	0.331000	0.354400
C1501	C150	0.460500	0.251100	0.463500
H861	H86	0.450100	0.239400	0.504100
C1511	C151	0.490900	0.286200	0.344500
H871	H87	0.500400	0.298800	0.304000
C1521	C152	0.545600	0.228900	0.433400
H881	H88	0.591800	0.201400	0.453400
C1531	C153	0.560100	0.248800	0.372600
C1541	C154	0.652900	0.228800	0.341200
C1551	C155	0.481600	0.518300	0.761900
C1561	C156	0.575900	0.502400	0.732300
C1571	C157	0.587500	0.457800	0.682000
H891	H89	0.537700	0.432500	0.670500
C1581	C158	0.650200	0.537200	0.749400
H901	H90	0.642600	0.568000	0.782400
C1591	C159	0.672200	0.450800	0.649600
H911	H91	0.679300	0.422400	0.615500
C1601	C160	0.735800	0.527500	0.719100
H921	H92	0.786200	0.548400	0.732900
C1611	C161	0.747500	0.486500	0.667800
C1621	C162	0.900200	0.526300	0.645400
C1631	C163	0.966000	0.481300	0.674000
H931	H93	0.965500	0.420900	0.681100
C1641	C164	0.904100	0.613500	0.629500
H941	H94	0.861100	0.641800	0.607100
C1651	C165	0.033400	0.527100	0.692300
H951	H95	0.078200	0.497600	0.712700
C1661	C166	0.971300	0.659200	0.646500
H961	H96	0.974900	0.718600	0.635300
C1671	C167	0.034400	0.616500	0.680600
C1681	C168	0.100300	0.667300	0.705500
Nd51	Nd5	0.185450	0.869810	0.718460
Nd61	Nd6	0.211240	0.119940	0.761560
Nd71	Nd7	0.332280	0.335070	0.773040
Nd81	Nd8	0.296090	0.596970	0.765050
O311	O31	0.023500	0.901600	0.761970
O321	O32	0.114300	0.998300	0.784090
O331	O33	0.736500	0.088000	0.942450
O341	O34	0.825100	0.203000	0.185590
O351	O35	0.729800	0.311400	0.158660
O361	O36	0.242900	0.020600	0.680320
O371	O37	0.172700	0.145200	0.655900
O381	O38	0.333200	0.030900	0.403740
O391	O39	0.568100	0.694300	0.322260
O401	O40	0.663700	0.796800	0.289300
O411	O41	0.179400	0.129200	0.870190
O421	O42	0.303800	0.195100	0.829630
O431	O43	0.348600	0.202100	0.098200
O441	O44	0.677900	0.980100	0.199990
O451	O45	0.678400	0.102300	0.242500
O461	O46	0.066200	0.204000	0.770050
O471	O47	0.173100	0.294500	0.774980
O481	O48	0.811700	0.504200	0.879600
O491	O49	0.754200	0.508900	0.158000
O501	O50	0.685200	0.631300	0.128320
O511	O51	0.262800	0.453300	0.713530
O521	O52	0.325400	0.567300	0.660610
O531	O53	0.306600	0.311400	0.463500
O541	O54	0.674900	0.265500	0.289840
O551	O55	0.706300	0.173900	0.364580
O561	O56	0.419200	0.466500	0.759000
O571	O57	0.461600	0.588700	0.785770
O581	O58	0.828000	0.478900	0.631700
O591	O59	0.149500	0.625100	0.742300
O601	O60	0.106700	0.747500	0.691820
