data_c5ta04552e_c5ta04552e2_clean_PM
_symmetry_space_group_name_H-M	'P1'
_cell_length_a	8.517000
_cell_length_b	10.334100
_cell_length_c	18.239200
_cell_angle_alpha	104.782000
_cell_angle_beta	91.187000
_cell_angle_gamma	110.479000
_symmetry_Int_Tables_number 1

loop_
_symmetry_equiv_pos_as_xyz
'x,y,z'

loop_
_atom_site_label
_atom_site_type_symbol
_atom_site_fract_x
_atom_site_fract_y
_atom_site_fract_z
Zn11	Zn1	0.670650	0.810020	0.218160
Zn21	Zn2	0.962370	0.138350	0.309350
O11	O1	0.524600	0.607870	0.172170
O21	O2	0.095900	0.347700	0.358550
O31	O3	0.859100	0.429200	0.420170
H11	H1	0.948700	0.419500	0.406400
O41	O4	0.645000	0.860100	0.325960
O51	O5	0.743500	0.142700	0.267670
O61	O6	0.740600	0.605900	0.241380
O71	O7	0.865700	0.854200	0.160520
O81	O8	0.239400	0.207130	0.356960
O91	O9	0.566600	0.937200	0.187290
O101	O10	0.865300	0.054300	0.390520
O111	O11	0.031400	0.085600	0.207080
O121	O12	0.990500	0.653300	0.412580
C11	C1	0.603000	0.541800	0.200510
C21	C2	0.520700	0.380800	0.180780
C31	C3	0.236000	0.330000	0.371290
C41	C4	0.528000	0.720200	0.447900
C51	C5	0.718100	0.963200	0.383740
C61	C6	0.528400	0.154000	0.189540
C71	C7	0.599500	0.303500	0.209780
H21	H2	0.701900	0.353000	0.243400
C81	C8	0.862700	0.557300	0.418480
C91	C9	0.513400	0.863500	0.473380
C101	C10	0.376800	0.081600	0.141290
H31	H3	0.328000	0.979500	0.127900
C111	C11	0.140100	0.079300	0.056990
C121	C12	0.145500	0.093400	0.982930
H41	H4	0.245300	0.158000	0.970900
C131	C13	0.382400	0.597000	0.425130
H51	H5	0.274900	0.605600	0.426400
C141	C14	0.619700	0.071500	0.217340
C151	C15	0.548400	0.446900	0.400190
H61	H6	0.555400	0.354200	0.385000
C161	C16	0.962200	0.973300	0.153740
C171	C17	0.369300	0.307800	0.132370
H71	H7	0.315600	0.360600	0.112700
C181	C18	0.614100	0.981000	0.448530
C191	C19	0.685000	0.705900	0.445760
H81	H8	0.785600	0.789100	0.460300
C201	C20	0.392100	0.461000	0.400430
C211	C21	0.991200	0.984400	0.073950
C221	C22	0.296100	0.158000	0.112550
C231	C23	0.694700	0.569900	0.422370
C241	C24	0.399100	0.884700	0.524450
H91	H9	0.329000	0.806200	0.541100
Zn31	Zn3	0.329350	0.189980	0.781840
Zn41	Zn4	0.037630	0.861650	0.690650
O131	O13	0.475400	0.392130	0.827830
O141	O14	0.904100	0.652300	0.641450
O151	O15	0.140900	0.570800	0.579830
H101	H10	0.051300	0.580500	0.593600
O161	O16	0.355000	0.139900	0.674040
O171	O17	0.256500	0.857300	0.732330
O181	O18	0.259400	0.394100	0.758620
O191	O19	0.134300	0.145800	0.839480
O201	O20	0.760600	0.792870	0.643040
O211	O21	0.433400	0.062800	0.812710
O221	O22	0.134700	0.945700	0.609480
O231	O23	0.968600	0.914400	0.792920
O241	O24	0.009500	0.346700	0.587420
C251	C25	0.397000	0.458200	0.799490
C261	C26	0.479300	0.619200	0.819220
C271	C27	0.764000	0.670000	0.628710
C281	C28	0.472000	0.279800	0.552100
C291	C29	0.281900	0.036800	0.616260
C301	C30	0.471600	0.846000	0.810460
C311	C31	0.400500	0.696500	0.790220
H111	H11	0.298100	0.647000	0.756600
C321	C32	0.137300	0.442700	0.581520
C331	C33	0.486600	0.136500	0.526620
C341	C34	0.623200	0.918400	0.858710
H121	H12	0.672000	0.020500	0.872100
C351	C35	0.859900	0.920700	0.943010
C361	C36	0.854500	0.906600	0.017070
H131	H13	0.754700	0.842000	0.029100
C371	C37	0.617600	0.403000	0.574870
H141	H14	0.725100	0.394400	0.573600
C381	C38	0.380300	0.928500	0.782660
C391	C39	0.451600	0.553100	0.599810
H151	H15	0.444600	0.645800	0.615000
C401	C40	0.037800	0.026700	0.846260
C411	C41	0.630700	0.692200	0.867630
H161	H16	0.684400	0.639400	0.887300
C421	C42	0.385900	0.019000	0.551470
C431	C43	0.315000	0.294100	0.554240
H171	H17	0.214400	0.210900	0.539700
C441	C44	0.607900	0.539000	0.599570
C451	C45	0.008800	0.015600	0.926050
C461	C46	0.703900	0.842000	0.887450
C471	C47	0.305300	0.430100	0.577630
C481	C48	0.600900	0.115300	0.475550
H181	H18	0.671000	0.193800	0.458900
