data_c6cc02494g_c6cc02494g5_clean_PM
_symmetry_space_group_name_H-M	'P1'
_cell_length_a	27.323800
_cell_length_b	27.323800
_cell_length_c	15.103600
_cell_angle_alpha	90.000000
_cell_angle_beta	90.000000
_cell_angle_gamma	120.000000
_symmetry_Int_Tables_number 1

loop_
_symmetry_equiv_pos_as_xyz
'x,y,z'

loop_
_atom_site_label
_atom_site_type_symbol
_atom_site_fract_x
_atom_site_fract_y
_atom_site_fract_z
S11	S1	0.282900	0.236300	0.091500
O11	O1	0.368700	0.317900	0.191500
O21	O2	0.336800	0.272700	0.325400
C11	C1	0.340010	0.221980	0.201920
C21	C2	0.315800	0.197260	0.120480
C31	C3	0.357310	0.187140	0.238070
C41	C4	0.345060	0.272190	0.238440
S21	S2	0.949570	0.569630	0.424830
O31	O3	0.035370	0.651230	0.524830
O41	O4	0.003470	0.606030	0.658730
C51	C5	0.006680	0.555310	0.535250
C61	C6	0.982470	0.530590	0.453810
C71	C7	0.023970	0.520470	0.571400
C81	C8	0.011730	0.605520	0.571770
S31	S3	0.616230	0.902970	0.758170
O51	O5	0.702030	0.984570	0.858170
O61	O6	0.670130	0.939370	0.992070
C91	C9	0.673350	0.888640	0.868580
C101	C10	0.649130	0.863930	0.787140
C111	C11	0.690640	0.853810	0.904740
C121	C12	0.678390	0.938860	0.905110
S41	S4	0.763700	0.046600	0.091500
O71	O7	0.682100	0.050800	0.191500
O81	O8	0.727300	0.064100	0.325400
C131	C13	0.778020	0.118040	0.201920
C141	C14	0.802740	0.118540	0.120480
C151	C15	0.812860	0.170170	0.238070
C161	C16	0.727810	0.072870	0.238440
S51	S5	0.430370	0.379930	0.424830
O91	O9	0.348770	0.384130	0.524830
O101	O10	0.393970	0.397430	0.658730
C171	C17	0.444690	0.451370	0.535250
C181	C18	0.469410	0.451870	0.453810
C191	C19	0.479530	0.503500	0.571400
C201	C20	0.394480	0.406200	0.571770
S61	S6	0.097030	0.713270	0.758170
O111	O11	0.015430	0.717470	0.858170
O121	O12	0.060630	0.730770	0.992070
C211	C21	0.111360	0.784700	0.868580
C221	C22	0.136070	0.785210	0.787140
C231	C23	0.146190	0.836840	0.904740
C241	C24	0.061140	0.739540	0.905110
S71	S7	0.953400	0.717100	0.091500
O131	O13	0.949200	0.631300	0.191500
O141	O14	0.935900	0.663200	0.325400
C251	C25	0.881960	0.659990	0.201920
C261	C26	0.881460	0.684200	0.120480
C271	C27	0.829830	0.642690	0.238070
C281	C28	0.927130	0.654940	0.238440
S81	S8	0.620070	0.050430	0.424830
O151	O15	0.615870	0.964630	0.524830
O161	O16	0.602570	0.996530	0.658730
C291	C29	0.548630	0.993320	0.535250
C301	C30	0.548130	0.017530	0.453810
C311	C31	0.496500	0.976030	0.571400
C321	C32	0.593800	0.988270	0.571770
S91	S9	0.286730	0.383770	0.758170
O171	O17	0.282530	0.297970	0.858170
O181	O18	0.269230	0.329870	0.992070
C331	C33	0.215300	0.326650	0.868580
C341	C34	0.214790	0.350870	0.787140
C351	C35	0.163160	0.309360	0.904740
C361	C36	0.260460	0.321610	0.905110
S101	S10	0.236300	0.282900	0.408500
O191	O19	0.317900	0.368700	0.308500
O201	O20	0.272700	0.336800	0.174600
C371	C37	0.221980	0.340010	0.298080
C381	C38	0.197260	0.315800	0.379520
C391	C39	0.187140	0.357310	0.261930
C401	C40	0.272190	0.345060	0.261560
S111	S11	0.902970	0.616230	0.741830
O211	O21	0.984570	0.702030	0.641830
O221	O22	0.939370	0.670130	0.507930
C411	C41	0.888640	0.673350	0.631420
C421	C42	0.863930	0.649130	0.712860
C431	C43	0.853810	0.690640	0.595260
C441	C44	0.938860	0.678390	0.594890
S121	S12	0.569630	0.949570	0.075170
O231	O23	0.651230	0.035370	0.975170
O241	O24	0.606030	0.003470	0.841270
C451	C45	0.555310	0.006680	0.964750
C461	C46	0.530590	0.982470	0.046190
C471	C47	0.520470	0.023970	0.928600
C481	C48	0.605520	0.011730	0.928230
S131	S13	0.046600	0.763700	0.408500
O251	O25	0.050800	0.682100	0.308500
O261	O26	0.064100	0.727300	0.174600
C491	C49	0.118040	0.778020	0.298080
C501	C50	0.118540	0.802740	0.379520
C511	C51	0.170170	0.812860	0.261930
C521	C52	0.072870	0.727810	0.261560
S141	S14	0.713270	0.097030	0.741830
O271	O27	0.717470	0.015430	0.641830
O281	O28	0.730770	0.060630	0.507930
C531	C53	0.784700	0.111360	0.631420
C541	C54	0.785210	0.136070	0.712860
C551	C55	0.836840	0.146190	0.595260
C561	C56	0.739540	0.061140	0.594890
S151	S15	0.379930	0.430370	0.075170
O291	O29	0.384130	0.348770	0.975170
O301	O30	0.397430	0.393970	0.841270
C571	C57	0.451370	0.444690	0.964750
C581	C58	0.451870	0.469410	0.046190
C591	C59	0.503500	0.479530	0.928600
C601	C60	0.406200	0.394480	0.928230
S161	S16	0.717100	0.953400	0.408500
O311	O31	0.631300	0.949200	0.308500
O321	O32	0.663200	0.935900	0.174600
C611	C61	0.659990	0.881960	0.298080
C621	C62	0.684200	0.881460	0.379520
C631	C63	0.642690	0.829830	0.261930
C641	C64	0.654940	0.927130	0.261560
S171	S17	0.383770	0.286730	0.741830
O331	O33	0.297970	0.282530	0.641830
O341	O34	0.329870	0.269230	0.507930
C651	C65	0.326650	0.215300	0.631420
C661	C66	0.350870	0.214790	0.712860
C671	C67	0.309360	0.163160	0.595260
C681	C68	0.321610	0.260460	0.594890
S181	S18	0.050430	0.620070	0.075170
O351	O35	0.964630	0.615870	0.975170
O361	O36	0.996530	0.602570	0.841270
C691	C69	0.993320	0.548630	0.964750
C701	C70	0.017530	0.548130	0.046190
C711	C71	0.976030	0.496500	0.928600
C721	C72	0.988270	0.593800	0.928230
S191	S19	0.717100	0.763700	0.908500
O371	O37	0.631300	0.682100	0.808500
O381	O38	0.663200	0.727300	0.674600
C731	C73	0.659990	0.778020	0.798080
C741	C74	0.684200	0.802740	0.879520
C751	C75	0.642690	0.812860	0.761930
C761	C76	0.654940	0.727810	0.761560
S201	S20	0.383770	0.097030	0.241830
O391	O39	0.297970	0.015430	0.141830
O401	O40	0.329870	0.060630	0.007930
C771	C77	0.326650	0.111360	0.131420
C781	C78	0.350870	0.136070	0.212860
C791	C79	0.309360	0.146190	0.095260
C801	C80	0.321610	0.061140	0.094890
S211	S21	0.050430	0.430370	0.575170
O411	O41	0.964630	0.348770	0.475170
O421	O42	0.996530	0.393970	0.341270
C811	C81	0.993320	0.444690	0.464750
C821	C82	0.017530	0.469410	0.546190
C831	C83	0.976030	0.479530	0.428600
C841	C84	0.988270	0.394480	0.428230
S221	S22	0.236300	0.953400	0.908500
O431	O43	0.317900	0.949200	0.808500
O441	O44	0.272700	0.935900	0.674600
C851	C85	0.221980	0.881960	0.798080
C861	C86	0.197260	0.881460	0.879520
C871	C87	0.187140	0.829830	0.761930
C881	C88	0.272190	0.927130	0.761560
S231	S23	0.902970	0.286730	0.241830
O451	O45	0.984570	0.282530	0.141830
O461	O46	0.939370	0.269230	0.007930
C891	C89	0.888640	0.215300	0.131420
C901	C90	0.863930	0.214790	0.212860
C911	C91	0.853810	0.163160	0.095260
C921	C92	0.938860	0.260460	0.094890
S241	S24	0.569630	0.620070	0.575170
O471	O47	0.651230	0.615870	0.475170
O481	O48	0.606030	0.602570	0.341270
C931	C93	0.555310	0.548630	0.464750
C941	C94	0.530590	0.548130	0.546190
C951	C95	0.520470	0.496500	0.428600
C961	C96	0.605520	0.593800	0.428230
S251	S25	0.046600	0.282900	0.908500
O491	O49	0.050800	0.368700	0.808500
O501	O50	0.064100	0.336800	0.674600
C971	C97	0.118040	0.340010	0.798080
C981	C98	0.118540	0.315800	0.879520
C991	C99	0.170170	0.357310	0.761930
C1001	C100	0.072870	0.345060	0.761560
S261	S26	0.713270	0.616230	0.241830
O511	O51	0.717470	0.702030	0.141830
O521	O52	0.730770	0.670130	0.007930
C1011	C101	0.784700	0.673350	0.131420
C1021	C102	0.785210	0.649130	0.212860
C1031	C103	0.836840	0.690640	0.095260
C1041	C104	0.739540	0.678390	0.094890
S271	S27	0.379930	0.949570	0.575170
O531	O53	0.384130	0.035370	0.475170
O541	O54	0.397430	0.003470	0.341270
C1051	C105	0.451370	0.006680	0.464750
C1061	C106	0.451870	0.982470	0.546190
C1071	C107	0.503500	0.023970	0.428600
C1081	C108	0.406200	0.011730	0.428230
S281	S28	0.763700	0.717100	0.591500
O551	O55	0.682100	0.631300	0.691500
O561	O56	0.727300	0.663200	0.825400
C1091	C109	0.778020	0.659990	0.701920
C1101	C110	0.802740	0.684200	0.620480
C1111	C111	0.812860	0.642690	0.738070
C1121	C112	0.727810	0.654940	0.738440
S291	S29	0.430370	0.050430	0.924830
O571	O57	0.348770	0.964630	0.024830
O581	O58	0.393970	0.996530	0.158730
C1131	C113	0.444690	0.993320	0.035250
C1141	C114	0.469410	0.017530	0.953810
C1151	C115	0.479530	0.976030	0.071400
C1161	C116	0.394480	0.988270	0.071770
S301	S30	0.097030	0.383770	0.258170
O591	O59	0.015430	0.297970	0.358170
O601	O60	0.060630	0.329870	0.492070
C1171	C117	0.111360	0.326650	0.368580
C1181	C118	0.136070	0.350870	0.287140
C1191	C119	0.146190	0.309360	0.404740
C1201	C120	0.061140	0.321610	0.405110
S311	S31	0.953400	0.236300	0.591500
O611	O61	0.949200	0.317900	0.691500
O621	O62	0.935900	0.272700	0.825400
C1211	C121	0.881960	0.221980	0.701920
C1221	C122	0.881460	0.197260	0.620480
C1231	C123	0.829830	0.187140	0.738070
C1241	C124	0.927130	0.272190	0.738440
S321	S32	0.620070	0.569630	0.924830
O631	O63	0.615870	0.651230	0.024830
O641	O64	0.602570	0.606030	0.158730
C1251	C125	0.548630	0.555310	0.035250
C1261	C126	0.548130	0.530590	0.953810
C1271	C127	0.496500	0.520470	0.071400
C1281	C128	0.593800	0.605520	0.071770
S331	S33	0.286730	0.902970	0.258170
O651	O65	0.282530	0.984570	0.358170
O661	O66	0.269230	0.939370	0.492070
C1291	C129	0.215300	0.888640	0.368580
C1301	C130	0.214790	0.863930	0.287140
C1311	C131	0.163160	0.853810	0.404740
C1321	C132	0.260460	0.938860	0.405110
S341	S34	0.282900	0.046600	0.591500
O671	O67	0.368700	0.050800	0.691500
O681	O68	0.336800	0.064100	0.825400
C1331	C133	0.340010	0.118040	0.701920
C1341	C134	0.315800	0.118540	0.620480
C1351	C135	0.357310	0.170170	0.738070
C1361	C136	0.345060	0.072870	0.738440
S351	S35	0.949570	0.379930	0.924830
O691	O69	0.035370	0.384130	0.024830
O701	O70	0.003470	0.397430	0.158730
C1371	C137	0.006680	0.451370	0.035250
C1381	C138	0.982470	0.451870	0.953810
C1391	C139	0.023970	0.503500	0.071400
C1401	C140	0.011730	0.406200	0.071770
S361	S36	0.616230	0.713270	0.258170
O711	O71	0.702030	0.717470	0.358170
O721	O72	0.670130	0.730770	0.492070
C1411	C141	0.673350	0.784700	0.368580
C1421	C142	0.649130	0.785210	0.287140
C1431	C143	0.690640	0.836840	0.404740
C1441	C144	0.678390	0.739540	0.405110
Mn11	Mn1	0.309800	0.333330	0.083330
Mn21	Mn2	0.666670	0.976470	0.083330
Mn31	Mn3	0.333330	0.309800	0.416670
Mn41	Mn4	0.023530	0.690200	0.083330
Mn51	Mn5	0.356870	0.356870	0.750000
Mn61	Mn6	0.000000	0.643130	0.750000
Mn71	Mn7	0.976470	0.666670	0.416670
Mn81	Mn8	0.643130	0.000000	0.750000
Mn91	Mn9	0.690200	0.023530	0.416670
Mn101	Mn10	0.690200	0.666670	0.916670
Mn111	Mn11	0.356870	0.000000	0.250000
Mn121	Mn12	0.023530	0.333330	0.583330
Mn131	Mn13	0.333330	0.023530	0.916670
Mn141	Mn14	0.000000	0.356870	0.250000
Mn151	Mn15	0.976470	0.309800	0.916670
Mn161	Mn16	0.643130	0.643130	0.250000
Mn171	Mn17	0.666670	0.690200	0.583330
Mn181	Mn18	0.309800	0.976470	0.583330
Mn191	Mn19	0.406500	0.406500	0.250000
Mn201	Mn20	0.073170	0.739830	0.583330
Mn211	Mn21	0.739830	0.073170	0.916670
Mn221	Mn22	0.593500	0.000000	0.250000
Mn231	Mn23	0.260170	0.333330	0.583330
Mn241	Mn24	0.926830	0.666670	0.916670
Mn251	Mn25	0.000000	0.593500	0.250000
Mn261	Mn26	0.666670	0.926830	0.583330
Mn271	Mn27	0.333330	0.260170	0.916670
Mn281	Mn28	0.593500	0.593500	0.750000
Mn291	Mn29	0.260170	0.926830	0.083330
Mn301	Mn30	0.926830	0.260170	0.416670
Mn311	Mn31	0.406500	0.000000	0.750000
Mn321	Mn32	0.073170	0.333330	0.083330
Mn331	Mn33	0.739830	0.666670	0.416670
Mn341	Mn34	0.000000	0.406500	0.750000
Mn351	Mn35	0.666670	0.739830	0.083330
Mn361	Mn36	0.333330	0.073170	0.416670
