data_c6cc00862c_c6cc00862c2_clean_PM
_symmetry_space_group_name_H-M	'P1'
_cell_length_a	20.063400
_cell_length_b	17.315900
_cell_length_c	15.642000
_cell_angle_alpha	90.000000
_cell_angle_beta	124.211000
_cell_angle_gamma	90.000000
_symmetry_Int_Tables_number 1

loop_
_symmetry_equiv_pos_as_xyz
'x,y,z'

loop_
_atom_site_label
_atom_site_type_symbol
_atom_site_fract_x
_atom_site_fract_y
_atom_site_fract_z
C11	C1	0.260700	0.631200	0.675300
H11	H1	0.205400	0.624200	0.649000
C21	C2	0.281900	0.691800	0.637400
H21	H2	0.241200	0.723200	0.583300
C31	C3	0.360900	0.706800	0.677300
C41	C4	0.414100	0.654700	0.745200
H31	H3	0.469800	0.658800	0.771900
C51	C5	0.385800	0.595400	0.774800
H41	H4	0.424500	0.559200	0.822600
C61	C6	0.372000	0.902100	0.587100
H51	H5	0.339800	0.947400	0.564300
C71	C7	0.346000	0.841100	0.617000
H61	H6	0.298600	0.845900	0.616300
C81	C8	0.387700	0.773900	0.646700
C91	C9	0.449800	0.772400	0.635700
H71	H7	0.478800	0.725700	0.648000
C101	C10	0.471700	0.838000	0.606700
H81	H8	0.516100	0.834600	0.600700
C111	C11	0.312900	0.598300	0.972900
H91	H9	0.355600	0.562600	0.011900
C121	C12	0.310600	0.664500	0.024300
H101	H10	0.352000	0.672800	0.095200
C131	C13	0.251700	0.714400	0.974500
C141	C14	0.194900	0.698300	0.876400
H111	H11	0.148900	0.730600	0.837300
C151	C15	0.204100	0.632800	0.831700
H121	H12	0.164600	0.623600	0.760400
N11	N1	0.312300	0.584000	0.744200
N21	N2	0.435600	0.903500	0.587500
N31	N3	0.262300	0.584100	0.880100
C161	C16	0.760700	0.131200	0.675300
H131	H13	0.705400	0.124200	0.649000
C171	C17	0.781900	0.191800	0.637400
H141	H14	0.741200	0.223200	0.583300
C181	C18	0.860900	0.206800	0.677300
C191	C19	0.914100	0.154700	0.745200
H151	H15	0.969800	0.158800	0.771900
C201	C20	0.885800	0.095400	0.774800
H161	H16	0.924500	0.059200	0.822600
C211	C21	0.872000	0.402100	0.587100
H171	H17	0.839800	0.447400	0.564300
C221	C22	0.846000	0.341100	0.617000
H181	H18	0.798600	0.345900	0.616300
C231	C23	0.887700	0.273900	0.646700
C241	C24	0.949800	0.272400	0.635700
H191	H19	0.978800	0.225700	0.648000
C251	C25	0.971700	0.338000	0.606700
H201	H20	0.016100	0.334600	0.600700
C261	C26	0.812900	0.098300	0.972900
H211	H21	0.855600	0.062600	0.011900
C271	C27	0.810600	0.164500	0.024300
H221	H22	0.852000	0.172800	0.095200
C281	C28	0.751700	0.214400	0.974500
C291	C29	0.694900	0.198300	0.876400
H231	H23	0.648900	0.230600	0.837300
C301	C30	0.704100	0.132800	0.831700
H241	H24	0.664600	0.123600	0.760400
N41	N4	0.812300	0.084000	0.744200
N51	N5	0.935600	0.403500	0.587500
N61	N6	0.762300	0.084100	0.880100
C311	C31	0.739300	0.631200	0.324700
H251	H25	0.794600	0.624200	0.351000
C321	C32	0.718100	0.691800	0.362600
H261	H26	0.758800	0.723200	0.416700
C331	C33	0.639100	0.706800	0.322700
C341	C34	0.585900	0.654700	0.254800
H271	H27	0.530200	0.658800	0.228100
C351	C35	0.614200	0.595400	0.225200
H281	H28	0.575500	0.559200	0.177400
C361	C36	0.628000	0.902100	0.412900
H291	H29	0.660200	0.947400	0.435700
C371	C37	0.654000	0.841100	0.383000
H301	H30	0.701400	0.845900	0.383700
C381	C38	0.612300	0.773900	0.353300
C391	C39	0.550200	0.772400	0.364300
H311	H31	0.521200	0.725700	0.352000
C401	C40	0.528300	0.838000	0.393300
H321	H32	0.483900	0.834600	0.399300
C411	C41	0.687100	0.598300	0.027100
H331	H33	0.644400	0.562600	0.988100
C421	C42	0.689400	0.664500	0.975700
H341	H34	0.648000	0.672800	0.904800
C431	C43	0.748300	0.714400	0.025500
C441	C44	0.805100	0.698300	0.123600
H351	H35	0.851100	0.730600	0.162700
C451	C45	0.795900	0.632800	0.168300
H361	H36	0.835400	0.623600	0.239600
N71	N7	0.687700	0.584000	0.255800
N81	N8	0.564400	0.903500	0.412500
N91	N9	0.737700	0.584100	0.119900
C461	C46	0.239300	0.131200	0.324700
H371	H37	0.294600	0.124200	0.351000
C471	C47	0.218100	0.191800	0.362600
H381	H38	0.258800	0.223200	0.416700
C481	C48	0.139100	0.206800	0.322700
C491	C49	0.085900	0.154700	0.254800
H391	H39	0.030200	0.158800	0.228100
C501	C50	0.114200	0.095400	0.225200
H401	H40	0.075500	0.059200	0.177400
C511	C51	0.128000	0.402100	0.412900
H411	H41	0.160200	0.447400	0.435700
C521	C52	0.154000	0.341100	0.383000
H421	H42	0.201400	0.345900	0.383700
C531	C53	0.112300	0.273900	0.353300
C541	C54	0.050200	0.272400	0.364300
H431	H43	0.021200	0.225700	0.352000
C551	C55	0.028300	0.338000	0.393300
H441	H44	0.983900	0.334600	0.399300
C561	C56	0.187100	0.098300	0.027100
H451	H45	0.144400	0.062600	0.988100
C571	C57	0.189400	0.164500	0.975700
H461	H46	0.148000	0.172800	0.904800
C581	C58	0.248300	0.214400	0.025500
C591	C59	0.305100	0.198300	0.123600
H471	H47	0.351100	0.230600	0.162700
C601	C60	0.295900	0.132800	0.168300
H481	H48	0.335400	0.123600	0.239600
N101	N10	0.187700	0.084000	0.255800
N111	N11	0.064400	0.403500	0.412500
N121	N12	0.237700	0.084100	0.119900
C611	C61	0.739300	0.368800	0.324700
H491	H49	0.794600	0.375800	0.351000
C621	C62	0.718100	0.308200	0.362600
H501	H50	0.758800	0.276800	0.416700
C631	C63	0.639100	0.293200	0.322700
C641	C64	0.585900	0.345300	0.254800
H511	H51	0.530200	0.341200	0.228100
C651	C65	0.614200	0.404600	0.225200
H521	H52	0.575500	0.440800	0.177400
C661	C66	0.628000	0.097900	0.412900
H531	H53	0.660200	0.052600	0.435700
C671	C67	0.654000	0.158900	0.383000
H541	H54	0.701400	0.154100	0.383700
C681	C68	0.612300	0.226100	0.353300
C691	C69	0.550200	0.227600	0.364300
H551	H55	0.521200	0.274300	0.352000
C701	C70	0.528300	0.162000	0.393300
H561	H56	0.483900	0.165400	0.399300
C711	C71	0.687100	0.401700	0.027100
H571	H57	0.644400	0.437400	0.988100
C721	C72	0.689400	0.335500	0.975700
H581	H58	0.648000	0.327200	0.904800
C731	C73	0.748300	0.285600	0.025500
C741	C74	0.805100	0.301700	0.123600
H591	H59	0.851100	0.269400	0.162700
C751	C75	0.795900	0.367200	0.168300
H601	H60	0.835400	0.376400	0.239600
N131	N13	0.687700	0.416000	0.255800
N141	N14	0.564400	0.096500	0.412500
N151	N15	0.737700	0.415900	0.119900
C761	C76	0.239300	0.868800	0.324700
H611	H61	0.294600	0.875800	0.351000
C771	C77	0.218100	0.808200	0.362600
H621	H62	0.258800	0.776800	0.416700
C781	C78	0.139100	0.793200	0.322700
C791	C79	0.085900	0.845300	0.254800
H631	H63	0.030200	0.841200	0.228100
C801	C80	0.114200	0.904600	0.225200
H641	H64	0.075500	0.940800	0.177400
C811	C81	0.128000	0.597900	0.412900
H651	H65	0.160200	0.552600	0.435700
C821	C82	0.154000	0.658900	0.383000
H661	H66	0.201400	0.654100	0.383700
C831	C83	0.112300	0.726100	0.353300
C841	C84	0.050200	0.727600	0.364300
H671	H67	0.021200	0.774300	0.352000
C851	C85	0.028300	0.662000	0.393300
H681	H68	0.983900	0.665400	0.399300
C861	C86	0.187100	0.901700	0.027100
H691	H69	0.144400	0.937400	0.988100
C871	C87	0.189400	0.835500	0.975700
H701	H70	0.148000	0.827200	0.904800
C881	C88	0.248300	0.785600	0.025500
C891	C89	0.305100	0.801700	0.123600
H711	H71	0.351100	0.769400	0.162700
C901	C90	0.295900	0.867200	0.168300
H721	H72	0.335400	0.876400	0.239600
N161	N16	0.187700	0.916000	0.255800
N171	N17	0.064400	0.596500	0.412500
N181	N18	0.237700	0.915900	0.119900
C911	C91	0.260700	0.368800	0.675300
H731	H73	0.205400	0.375800	0.649000
C921	C92	0.281900	0.308200	0.637400
H741	H74	0.241200	0.276800	0.583300
C931	C93	0.360900	0.293200	0.677300
C941	C94	0.414100	0.345300	0.745200
H751	H75	0.469800	0.341200	0.771900
C951	C95	0.385800	0.404600	0.774800
H761	H76	0.424500	0.440800	0.822600
C961	C96	0.372000	0.097900	0.587100
H771	H77	0.339800	0.052600	0.564300
C971	C97	0.346000	0.158900	0.617000
H781	H78	0.298600	0.154100	0.616300
C981	C98	0.387700	0.226100	0.646700
C991	C99	0.449800	0.227600	0.635700
H791	H79	0.478800	0.274300	0.648000
C1001	C100	0.471700	0.162000	0.606700
H801	H80	0.516100	0.165400	0.600700
C1011	C101	0.312900	0.401700	0.972900
H811	H81	0.355600	0.437400	0.011900
C1021	C102	0.310600	0.335500	0.024300
H821	H82	0.352000	0.327200	0.095200
C1031	C103	0.251700	0.285600	0.974500
C1041	C104	0.194900	0.301700	0.876400
H831	H83	0.148900	0.269400	0.837300
C1051	C105	0.204100	0.367200	0.831700
H841	H84	0.164600	0.376400	0.760400
N191	N19	0.312300	0.416000	0.744200
N201	N20	0.435600	0.096500	0.587500
N211	N21	0.262300	0.415900	0.880100
C1061	C106	0.760700	0.868800	0.675300
H851	H85	0.705400	0.875800	0.649000
C1071	C107	0.781900	0.808200	0.637400
H861	H86	0.741200	0.776800	0.583300
C1081	C108	0.860900	0.793200	0.677300
C1091	C109	0.914100	0.845300	0.745200
H871	H87	0.969800	0.841200	0.771900
C1101	C110	0.885800	0.904600	0.774800
H881	H88	0.924500	0.940800	0.822600
C1111	C111	0.872000	0.597900	0.587100
H891	H89	0.839800	0.552600	0.564300
C1121	C112	0.846000	0.658900	0.617000
H901	H90	0.798600	0.654100	0.616300
C1131	C113	0.887700	0.726100	0.646700
C1141	C114	0.949800	0.727600	0.635700
H911	H91	0.978800	0.774300	0.648000
C1151	C115	0.971700	0.662000	0.606700
H921	H92	0.016100	0.665400	0.600700
C1161	C116	0.812900	0.901700	0.972900
H931	H93	0.855600	0.937400	0.011900
C1171	C117	0.810600	0.835500	0.024300
H941	H94	0.852000	0.827200	0.095200
C1181	C118	0.751700	0.785600	0.974500
C1191	C119	0.694900	0.801700	0.876400
H951	H95	0.648900	0.769400	0.837300
C1201	C120	0.704100	0.867200	0.831700
H961	H96	0.664600	0.876400	0.760400
N221	N22	0.812300	0.916000	0.744200
N231	N23	0.935600	0.596500	0.587500
N241	N24	0.762300	0.915900	0.880100
Cu11	Cu1	0.276540	0.500000	0.801020
Cu21	Cu2	0.776540	0.000000	0.801020
Cu31	Cu3	0.723460	0.500000	0.198980
Cu41	Cu4	0.223460	0.000000	0.198980
Cu51	Cu5	0.471610	0.000000	0.552270
Cl11	Cl1	0.622600	0.000000	0.647600
Cu61	Cu6	0.971610	0.500000	0.552270
Cl21	Cl2	0.122600	0.500000	0.647600
Cu71	Cu7	0.528390	0.000000	0.447730
Cl31	Cl3	0.377400	0.000000	0.352400
Cu81	Cu8	0.028390	0.500000	0.447730
Cl41	Cl4	0.877400	0.500000	0.352400
