data_c6ce00407e_c6ce00407e7_clean_PM
_symmetry_space_group_name_H-M	'P1'
_cell_length_a	49.614400
_cell_length_b	49.738100
_cell_length_c	49.614900
_cell_angle_alpha	60.223200
_cell_angle_beta	60.018500
_cell_angle_gamma	60.121800
_symmetry_Int_Tables_number 1

loop_
_symmetry_equiv_pos_as_xyz
'x,y,z'

loop_
_atom_site_label
_atom_site_type_symbol
_atom_site_fract_x
_atom_site_fract_y
_atom_site_fract_z
O11	O1	0.406930	0.764630	0.310640
O21	O2	0.406840	0.719330	0.356270
C11	C1	0.392150	0.748340	0.339830
O31	O3	0.444290	0.726830	0.273300
O41	O4	0.444190	0.681580	0.318980
C21	C2	0.442100	0.697830	0.289880
Cu11	Cu1	0.452130	0.750760	0.286810
Cu21	Cu2	0.451870	0.696040	0.341990
O51	O5	0.497290	0.726830	0.273150
O61	O6	0.496960	0.681570	0.318830
O71	O7	0.459850	0.764480	0.310650
O81	O8	0.459560	0.719160	0.356270
C31	C3	0.511880	0.697810	0.289710
C41	C4	0.461780	0.748140	0.339830
O91	O9	0.406430	0.765480	0.508280
O101	O10	0.406560	0.719860	0.508260
C51	C5	0.391730	0.748910	0.510390
O111	O11	0.459330	0.765490	0.455340
O121	O12	0.459210	0.719870	0.455590
C61	C6	0.461370	0.748880	0.440720
Cu31	Cu3	0.451670	0.752010	0.500500
Cu41	Cu4	0.451610	0.696920	0.500610
O131	O13	0.496900	0.728120	0.492820
O141	O14	0.496670	0.682580	0.493020
O151	O15	0.444020	0.728450	0.545670
O161	O16	0.444030	0.682920	0.545610
C71	C7	0.511540	0.698990	0.490830
C81	C8	0.441920	0.699400	0.560380
H11	H1	0.478950	0.165390	0.128460
C91	C9	0.479290	0.161520	0.173520
C101	C10	0.479580	0.177980	0.189460
H21	H2	0.480820	0.165230	0.214160
C111	C11	0.479890	0.212190	0.172370
C121	C12	0.480050	0.227970	0.139800
H31	H3	0.479270	0.253300	0.127460
C131	C13	0.479770	0.211950	0.123410
C141	C14	0.479270	0.177810	0.141010
C151	C15	0.499140	0.249760	0.173280
H41	H4	0.514980	0.252570	0.147840
C161	C16	0.498750	0.266120	0.189730
H51	H5	0.513950	0.281560	0.176780
C171	C17	0.478930	0.262440	0.222760
C181	C18	0.459520	0.242310	0.239350
H61	H6	0.444050	0.239420	0.264900
C191	C19	0.459890	0.225910	0.222950
H71	H7	0.444320	0.210830	0.236060
C201	C20	0.479660	0.229500	0.189730
C211	C21	0.499520	0.103770	0.174420
H81	H8	0.515600	0.110520	0.149110
C221	C22	0.499610	0.071330	0.190790
H91	H9	0.515410	0.053580	0.177900
C231	C23	0.479500	0.061870	0.223680
C241	C24	0.459240	0.084950	0.240170
H101	H10	0.443490	0.077830	0.265590
C251	C25	0.459130	0.117390	0.223860
H111	H11	0.442990	0.135010	0.236880
C261	C26	0.479300	0.127130	0.190800
C271	C27	0.459320	0.225690	0.079480
H121	H12	0.443420	0.210990	0.097170
C281	C28	0.458920	0.241960	0.047130
H131	H13	0.443070	0.239360	0.040150
C291	C29	0.478720	0.261660	0.024030
C301	C30	0.499000	0.265000	0.033290
H141	H14	0.514470	0.280140	0.015480
C311	C31	0.499420	0.248790	0.065620
H151	H15	0.515570	0.251370	0.072230
C321	C32	0.479530	0.229010	0.089070
C331	C33	0.479550	0.028520	0.240490
C341	C34	0.479480	0.000610	0.254580
C351	C35	0.478540	0.279300	0.239660
C361	C36	0.478230	0.293370	0.253840
C371	C37	0.478090	0.278650	0.990860
C381	C38	0.477570	0.293040	0.963060
C391	C39	0.480200	0.950890	0.303590
H161	H16	0.481530	0.962950	0.315820
C401	C40	0.479300	0.918780	0.320180
H171	H17	0.479910	0.906260	0.345120
C411	C41	0.477390	0.903040	0.304640
C421	C42	0.476530	0.919470	0.272400
H181	H18	0.474990	0.907500	0.260230
C431	C43	0.477430	0.951590	0.255820
H191	H19	0.476600	0.964200	0.230950
C441	C44	0.479170	0.967380	0.271420
C451	C45	0.477550	0.342580	0.913980
H201	H20	0.478600	0.354550	0.926510
C461	C46	0.476740	0.359510	0.881780
H211	H21	0.477110	0.384470	0.869650
C471	C47	0.475300	0.344260	0.865450
C481	C48	0.474680	0.312020	0.881370
H221	H22	0.473460	0.300120	0.868900
C491	C49	0.475500	0.295080	0.913560
H231	H23	0.474960	0.270180	0.925760
C501	C50	0.476910	0.310350	0.929920
C511	C51	0.473050	0.295650	0.304680
H241	H24	0.469610	0.271900	0.318130
C521	C52	0.472570	0.311920	0.321290
H251	H25	0.468710	0.300650	0.347470
C531	C53	0.476900	0.342680	0.304140
C541	C54	0.481770	0.357090	0.270300
H261	H26	0.485070	0.380900	0.256870
C551	C55	0.482250	0.340810	0.253680
H271	H27	0.485950	0.352140	0.227520
C561	C56	0.477860	0.310080	0.270860
C571	C57	0.475730	0.870280	0.321960
C581	C58	0.473990	0.842980	0.336590
C591	C59	0.473970	0.361790	0.832550
C601	C60	0.472500	0.376460	0.805110
C611	C61	0.475690	0.359680	0.321400
C621	C62	0.474210	0.374070	0.336020
O171	O17	0.261640	0.765680	0.455120
O181	O18	0.307120	0.720100	0.455390
C631	C63	0.290850	0.749120	0.440530
O191	O19	0.261600	0.765480	0.508140
O201	O20	0.307080	0.719890	0.508140
C641	C64	0.290730	0.748930	0.510280
Cu51	Cu5	0.237610	0.752030	0.500270
Cu61	Cu6	0.292640	0.697010	0.500370
O211	O21	0.223560	0.728470	0.545460
O221	O22	0.269150	0.683000	0.545350
O231	O23	0.224130	0.728080	0.492370
O241	O24	0.269720	0.682610	0.492580
C651	C65	0.240020	0.699450	0.560150
C661	C66	0.240690	0.698990	0.490260
H281	H28	0.167820	0.165070	0.128460
C671	C67	0.126020	0.160610	0.173180
C681	C68	0.093460	0.177080	0.189320
H291	H29	0.080600	0.164590	0.214340
C691	C69	0.076310	0.211600	0.172650
C701	C70	0.093040	0.227700	0.140290
H301	H30	0.080320	0.252620	0.127630
C711	C71	0.125550	0.211640	0.123660
C721	C72	0.142280	0.177120	0.140770
C731	C73	0.032270	0.261520	0.187640
H311	H31	0.049970	0.274410	0.173300
C741	C74	0.999830	0.277640	0.204230
H321	H32	0.992810	0.302800	0.202240
C751	C75	0.976650	0.261310	0.223400
C761	C76	0.986000	0.228760	0.225990
H331	H33	0.968160	0.215990	0.240720
C771	C77	0.018450	0.212550	0.209470
H341	H34	0.025140	0.187510	0.211400
C781	C78	0.041900	0.228800	0.190090
C791	C79	0.163090	0.103020	0.173780
H351	H35	0.165560	0.109840	0.148460
C801	C80	0.179430	0.070680	0.189960
H361	H36	0.194530	0.053050	0.176910
C811	C81	0.176190	0.061140	0.222840
C821	C82	0.156560	0.084050	0.239530
H371	H37	0.154050	0.076890	0.264950
C831	C83	0.140180	0.116400	0.223410
H381	H38	0.125510	0.133890	0.236590
C841	C84	0.143270	0.126230	0.190350
C851	C85	0.163040	0.212620	0.065950
H391	H39	0.165430	0.187460	0.072520
C861	C86	0.179470	0.228970	0.033590
H401	H40	0.194550	0.216210	0.015700
C871	C87	0.176250	0.261690	0.024390
C881	C88	0.156630	0.278010	0.047630
H411	H41	0.154150	0.303300	0.040710
C891	C89	0.140140	0.261750	0.079950
H421	H42	0.125410	0.274670	0.097690
C901	C90	0.143120	0.228900	0.089420
C911	C91	0.193050	0.027880	0.239460
C921	C92	0.207150	0.000050	0.253480
C931	C93	0.943320	0.277990	0.240440
C941	C94	0.915450	0.292110	0.254670
C951	C95	0.192890	0.278640	0.991070
C961	C96	0.206680	0.293050	0.963190
C971	C97	0.207070	0.950170	0.302290
H431	H43	0.181270	0.961970	0.314260
C981	C98	0.223530	0.918160	0.318980
H441	H44	0.210350	0.905460	0.343740
C991	C99	0.256950	0.902760	0.303810
C1001	C100	0.273800	0.919420	0.271800
H451	H45	0.299650	0.907700	0.259920
C1011	C101	0.257320	0.951440	0.255110
H461	H46	0.270560	0.964230	0.230430
C1021	C102	0.223950	0.966900	0.270370
C1031	C103	0.210110	0.344660	0.917240
H471	H47	0.187730	0.358230	0.932340
C1041	C104	0.226160	0.361570	0.884990
H481	H48	0.216090	0.388090	0.875400
C1051	C105	0.255170	0.344240	0.865320
C1061	C106	0.268040	0.309950	0.877990
H491	H49	0.290490	0.296380	0.862950
C1071	C107	0.252000	0.293050	0.910250
H501	H50	0.262140	0.266540	0.919910
C1081	C108	0.223040	0.310390	0.929940
C1091	C109	0.865730	0.293010	0.304110
H511	H51	0.877810	0.267660	0.316550
C1101	C110	0.833560	0.309670	0.320700
H521	H52	0.821000	0.297090	0.345860
C1111	C111	0.817800	0.342500	0.304860
C1121	C112	0.834270	0.358580	0.272350
H531	H53	0.822270	0.383980	0.259950
C1131	C113	0.866440	0.341910	0.255750
H541	H54	0.879070	0.354540	0.230640
C1141	C114	0.882240	0.309120	0.271620
C1151	C115	0.274050	0.870160	0.321320
C1161	C116	0.288440	0.842980	0.336140
C1171	C117	0.272070	0.361670	0.832400
C1181	C118	0.286500	0.376260	0.804980
C1191	C119	0.784950	0.359810	0.322130
C1201	C120	0.757560	0.374400	0.336730
C1211	C121	0.678480	0.442750	0.355970
C1221	C122	0.725060	0.391940	0.354320
C1231	C123	0.678270	0.393550	0.405230
C1241	C124	0.709660	0.424920	0.338710
H551	H55	0.722330	0.436690	0.313230
C1251	C125	0.709490	0.376360	0.387380
H561	H56	0.722060	0.350950	0.399200
C1261	C126	0.662880	0.426680	0.389160
H571	H57	0.639060	0.440280	0.402800
C1271	C127	0.727160	0.555830	0.354400
C1281	C128	0.679770	0.551430	0.355590
C1291	C129	0.679740	0.551640	0.404960
C1301	C130	0.711440	0.554270	0.338620
H581	H58	0.724220	0.554750	0.313260
C1311	C131	0.664070	0.550500	0.388640
H591	H59	0.639860	0.547920	0.402030
C1321	C132	0.711420	0.554490	0.387390
H601	H60	0.724180	0.555160	0.399390
C1331	C133	0.596530	0.523790	0.275170
C1341	C134	0.598480	0.517090	0.228790
C1351	C135	0.547210	0.523680	0.275000
C1361	C136	0.614000	0.519350	0.244210
H611	H61	0.639580	0.518140	0.231690
C1371	C137	0.565340	0.519210	0.244050
H621	H62	0.553660	0.517890	0.231430
C1381	C138	0.563160	0.525640	0.290500
H631	H63	0.549340	0.529520	0.314130
C1391	C139	0.224380	0.683740	0.595770
C1401	C140	0.224430	0.634700	0.645160
C1411	C141	0.177460	0.685220	0.646580
C1421	C142	0.239990	0.650770	0.611980
H641	H64	0.263960	0.637260	0.598430
C1431	C143	0.193070	0.652390	0.662320
H651	H65	0.180400	0.640570	0.687780
C1441	C144	0.193000	0.700840	0.613520
H661	H66	0.180270	0.726130	0.601610
C1451	C145	0.596160	0.312370	0.596110
C1461	C146	0.597280	0.265850	0.646940
C1471	C147	0.546470	0.312480	0.645270
C1481	C148	0.613220	0.281270	0.613950
H671	H67	0.638760	0.268660	0.602140
C1491	C149	0.564120	0.281370	0.662520
H681	H68	0.552060	0.268850	0.687940
C1501	C150	0.562860	0.327840	0.612140
H691	H69	0.549350	0.351530	0.598480
C1511	C151	0.471760	0.391490	0.353640
C1521	C152	0.465690	0.442330	0.355420
C1531	C153	0.465620	0.393150	0.404720
C1541	C154	0.469870	0.424450	0.338050
H701	H70	0.471090	0.436200	0.312520
C1551	C155	0.463900	0.426310	0.388690
H711	H71	0.460200	0.439970	0.402440
C1561	C156	0.469670	0.375910	0.386760
H721	H72	0.470680	0.350510	0.398550
C1571	C157	0.598280	0.683220	0.227150
C1581	C158	0.597110	0.632940	0.274280
C1591	C159	0.547530	0.681940	0.274150
C1601	C160	0.614170	0.650480	0.242820
H731	H73	0.639650	0.638620	0.230110
C1611	C161	0.563860	0.649050	0.289840
H741	H74	0.550360	0.635660	0.313870
C1621	C162	0.565200	0.698870	0.242700
H751	H75	0.553180	0.724070	0.229890
C1631	C163	0.356030	0.551190	0.354340
C1641	C164	0.305440	0.556070	0.352740
C1651	C165	0.306300	0.551730	0.403470
C1661	C166	0.338570	0.554250	0.337160
H761	H76	0.350760	0.554740	0.311800
C1671	C167	0.289390	0.554780	0.385720
H771	H77	0.263910	0.555670	0.397570
C1681	C168	0.339500	0.550310	0.387360
H781	H78	0.352840	0.547550	0.400910
C1691	C169	0.437130	0.634830	0.645500
C1701	C170	0.432610	0.685340	0.646610
C1711	C171	0.437690	0.683740	0.595980
C1721	C172	0.433920	0.652530	0.662510
H791	H79	0.433020	0.640770	0.687940
C1731	C173	0.434500	0.700840	0.613570
H801	H80	0.434040	0.726080	0.601530
C1741	C174	0.438640	0.650830	0.612320
H811	H81	0.441520	0.637330	0.598870
C1751	C175	0.429570	0.266550	0.647220
C1761	C176	0.436610	0.312680	0.645190
C1771	C177	0.436730	0.312290	0.595890
C1781	C178	0.431820	0.282020	0.662730
H821	H82	0.430290	0.269820	0.688360
C1791	C179	0.438780	0.327670	0.611850
H831	H83	0.443020	0.351010	0.598000
C1801	C180	0.432010	0.281580	0.613990
H841	H84	0.430700	0.269020	0.602260
C1811	C181	0.596640	0.634010	0.486540
C1821	C182	0.598150	0.684960	0.480450
C1831	C183	0.547180	0.683170	0.486600
C1841	C184	0.613870	0.651930	0.482500
H851	H85	0.639400	0.640200	0.481370
C1851	C185	0.565030	0.700480	0.482540
H861	H86	0.553160	0.725930	0.481450
C1861	C186	0.563360	0.650020	0.488230
H871	H87	0.549730	0.636350	0.491760
C1871	C187	0.306680	0.764380	0.514560
C1881	C188	0.305370	0.811120	0.519910
C1891	C189	0.356100	0.764360	0.514620
C1901	C190	0.289590	0.795610	0.518150
H881	H88	0.264150	0.808270	0.518990
C1911	C191	0.338390	0.795600	0.518220
H891	H89	0.350330	0.808240	0.519120
C1921	C192	0.339860	0.748830	0.513170
H901	H90	0.353390	0.724990	0.509930
C1931	C193	0.464560	0.395290	0.725870
C1941	C194	0.464330	0.444620	0.726120
C1951	C195	0.470160	0.393910	0.772590
C1961	C196	0.462870	0.428450	0.710490
H911	H91	0.459460	0.441970	0.686710
C1971	C197	0.468190	0.426880	0.757270
H921	H92	0.469110	0.438730	0.769990
C1981	C198	0.468380	0.378210	0.757020
H931	H93	0.469440	0.352790	0.769560
C1991	C199	0.225440	0.634080	0.485090
C2001	C200	0.225340	0.683200	0.485660
C2011	C201	0.179150	0.685010	0.478760
C2021	C202	0.240780	0.650060	0.487180
H941	H94	0.264430	0.636390	0.490940
C2031	C203	0.194400	0.700500	0.481280
H951	H95	0.181830	0.725930	0.480270
C2041	C204	0.194510	0.652000	0.480720
H961	H96	0.182030	0.640290	0.479270
C2051	C205	0.305940	0.444370	0.725970
C2061	C206	0.355220	0.395050	0.725960
C2071	C207	0.304100	0.393680	0.772490
C2081	C208	0.339210	0.428180	0.710510
H971	H97	0.352970	0.441690	0.686780
C2091	C209	0.337210	0.377970	0.757070
H981	H98	0.348970	0.352560	0.769660
C2101	C210	0.288530	0.426650	0.757050
H991	H99	0.263000	0.438530	0.769620
O251	O25	0.633440	0.394030	0.455670
O261	O26	0.679140	0.348670	0.455440
C2111	C211	0.662620	0.377710	0.440820
O271	O27	0.633130	0.394430	0.508280
O281	O28	0.678820	0.349070	0.508330
C2121	C212	0.662230	0.378170	0.510400
Cu71	Cu7	0.610130	0.379890	0.500700
Cu81	Cu8	0.665290	0.325020	0.500640
O291	O29	0.595860	0.356800	0.545720
O301	O30	0.641450	0.311340	0.545860
O311	O31	0.595710	0.356790	0.493120
O321	O32	0.641310	0.311340	0.492970
C2131	C213	0.612220	0.327830	0.560530
C2141	C214	0.612130	0.327760	0.490950
H1001	H100	0.085830	0.560890	0.209750
C2151	C215	0.131250	0.559830	0.168510
C2161	C216	0.147670	0.557930	0.136480
H1011	H101	0.172720	0.558340	0.123490
C2171	C217	0.131640	0.556630	0.120670
C2181	C218	0.098740	0.557210	0.137380
H1021	H102	0.086230	0.556110	0.125450
C2191	C219	0.081850	0.559140	0.169390
C2201	C220	0.098350	0.560430	0.184720
C2211	C221	0.133120	0.572960	0.063250
H1031	H103	0.107940	0.589430	0.069310
C2221	C222	0.149490	0.570480	0.031580
H1041	H104	0.136670	0.584630	0.013840
C2231	C223	0.182270	0.549760	0.022860
C2241	C224	0.198500	0.531480	0.046070
H1051	H105	0.223730	0.515150	0.039660
C2251	C225	0.182180	0.533900	0.077760
H1061	H106	0.195050	0.519090	0.095480
C2261	C226	0.149240	0.554580	0.086760
C2271	C227	0.132020	0.582120	0.203770
H1071	H107	0.106940	0.598450	0.205440
C2281	C228	0.147980	0.582670	0.220020
H1081	H108	0.134960	0.599090	0.234260
C2291	C229	0.180530	0.562090	0.217980
C2301	C230	0.197160	0.541090	0.199390
H1091	H109	0.222320	0.524990	0.197770
C2311	C231	0.181260	0.540520	0.183070
H1101	H110	0.194360	0.523670	0.169320
C2321	C232	0.148440	0.560940	0.185200
C2331	C233	0.023810	0.581060	0.205190
H1111	H111	0.030840	0.597850	0.206220
C2341	C234	0.991120	0.581400	0.221820
H1121	H112	0.973490	0.598130	0.235710
C2351	C235	0.981250	0.560300	0.220490
C2361	C236	0.004210	0.538880	0.202370
H1131	H113	0.996820	0.522370	0.201320
C2371	C237	0.036910	0.538530	0.185670
H1141	H114	0.054400	0.521420	0.172210
C2381	C238	0.047090	0.559600	0.186930
C2391	C239	0.196700	0.562190	0.235300
C2401	C240	0.210160	0.562120	0.249990
C2411	C241	0.199610	0.545960	0.989480
C2421	C242	0.204700	0.577840	0.962600
C2431	C243	0.947640	0.560510	0.237850
C2441	C244	0.919520	0.560610	0.252480
C2451	C245	0.256790	0.566790	0.251040
H1151	H115	0.268440	0.571050	0.224750
C2461	C246	0.272520	0.566130	0.268330
H1161	H116	0.296220	0.569860	0.255270
C2471	C247	0.257760	0.560500	0.302360
C2481	C248	0.227140	0.555610	0.319000
H1171	H117	0.215570	0.551170	0.345310
C2491	C249	0.211400	0.556280	0.301710
H1181	H118	0.187790	0.552360	0.314800
C2501	C250	0.226200	0.561820	0.267700
C2511	C251	0.868600	0.561400	0.254260
H1191	H119	0.880180	0.562280	0.228790
C2521	C252	0.836170	0.560950	0.271430
H1201	H120	0.822980	0.561450	0.259080
C2531	C253	0.820970	0.559680	0.304420
C2541	C254	0.838310	0.558960	0.320150
H1211	H121	0.826780	0.557920	0.345670
C2551	C255	0.870750	0.559410	0.302990
H1221	H122	0.884010	0.558730	0.315370
C2561	C256	0.885990	0.560570	0.270020
C2571	C257	0.253810	0.576310	0.910940
H1231	H123	0.265850	0.580400	0.921070
C2581	C258	0.270070	0.573470	0.879420
H1241	H124	0.294590	0.575300	0.865480
C2591	C259	0.254670	0.568370	0.865980
C2601	C260	0.222940	0.566090	0.884220
H1251	H125	0.210820	0.562200	0.874010
C2611	C261	0.206670	0.568930	0.915760
H1261	H126	0.182070	0.567330	0.929630
C2621	C262	0.222120	0.573930	0.929280
C2631	C263	0.274230	0.559300	0.320210
C2641	C264	0.288280	0.558020	0.335090
C2651	C265	0.787780	0.558690	0.322180
C2661	C266	0.760080	0.557570	0.336940
C2671	C267	0.271510	0.565460	0.833530
C2681	C268	0.285930	0.562920	0.806390
C2691	C269	0.437720	0.632720	0.274220
C2701	C270	0.437800	0.681940	0.274380
C2711	C271	0.432200	0.683350	0.227630
C2721	C272	0.439200	0.648870	0.289840
H1271	H127	0.442460	0.635380	0.313690
C2731	C273	0.434090	0.699020	0.243170
H1281	H128	0.433240	0.724380	0.230560
C2741	C274	0.434040	0.650410	0.243000
H1291	H129	0.433140	0.638540	0.230280
O331	O33	0.596290	0.583720	0.492520
O341	O34	0.641660	0.583840	0.492990
C2751	C275	0.612580	0.598490	0.490690
O351	O35	0.595750	0.531540	0.545140
O361	O36	0.641170	0.531300	0.545880
C2761	C276	0.611930	0.529390	0.560260
Cu91	Cu9	0.610630	0.538860	0.500030
Cu101	Cu10	0.665530	0.538690	0.500750
O371	O37	0.633440	0.493920	0.507740
O381	O38	0.678930	0.493590	0.508430
O391	O39	0.634510	0.546090	0.455080
O401	O40	0.680020	0.546010	0.455460
C2771	C277	0.662410	0.479040	0.510220
C2781	C278	0.663760	0.547960	0.440530
H1301	H130	0.823990	0.508350	0.872870
C2791	C279	0.778470	0.508920	0.876760
C2801	C280	0.762310	0.508720	0.860380
H1311	H131	0.736850	0.509530	0.872770
C2811	C281	0.778330	0.508790	0.827690
C2821	C282	0.810940	0.508980	0.811400
H1321	H132	0.823440	0.509080	0.786170
C2831	C283	0.827500	0.509170	0.827390
C2841	C284	0.811070	0.509100	0.860080
C2851	C285	0.763260	0.529660	0.777750
H1331	H133	0.777570	0.545930	0.764870
C2861	C286	0.746670	0.529920	0.761610
H1341	H134	0.748640	0.546060	0.736430
C2871	C287	0.727560	0.509540	0.777950
C2881	C288	0.724990	0.488930	0.810510
H1351	H135	0.710290	0.473030	0.823280
C2891	C289	0.741510	0.488660	0.826730
H1361	H136	0.739580	0.472250	0.851800
C2901	C290	0.760850	0.509010	0.810490
C2911	C291	0.764040	0.529570	0.920890
H1371	H137	0.778380	0.545800	0.903160
C2921	C292	0.747810	0.529700	0.953380
H1381	H138	0.750050	0.545720	0.960450
C2931	C293	0.728700	0.509350	0.976570
C2941	C294	0.725780	0.488890	0.967200
H1391	H139	0.711070	0.473020	0.985070
C2951	C295	0.741940	0.488750	0.934710
H1401	H140	0.739750	0.472440	0.928000
C2961	C296	0.761270	0.509070	0.911230
C2971	C297	0.871500	0.530040	0.812740
H1411	H141	0.853750	0.546170	0.827240
C2981	C298	0.903920	0.530400	0.796280
H1421	H142	0.910900	0.546490	0.798500
C2991	C299	0.927130	0.510190	0.776950
C3001	C300	0.917870	0.489610	0.774100
H1431	H143	0.935780	0.473820	0.759260
C3011	C301	0.885450	0.489230	0.790510
H1441	H144	0.878840	0.472820	0.788370
C3021	C302	0.861930	0.509460	0.810000
C3031	C303	0.712070	0.509460	0.009990
C3041	C304	0.698070	0.509550	0.037990
C3051	C305	0.710630	0.509740	0.761270
C3061	C306	0.696490	0.509950	0.747220
C3071	C307	0.960440	0.510630	0.759980
C3081	C308	0.988350	0.511000	0.745690
C3091	C309	0.649650	0.507150	0.088520
H1451	H145	0.637790	0.504850	0.076790
C3101	C310	0.633130	0.507730	0.120870
H1461	H146	0.608580	0.505930	0.133920
C3111	C311	0.648220	0.510880	0.136140
C3121	C312	0.679910	0.513330	0.119050
H1471	H147	0.691670	0.515880	0.130690
C3131	C313	0.696430	0.512740	0.086700
H1481	H148	0.720890	0.514780	0.073560
C3141	C314	0.681290	0.509730	0.071370
C3151	C315	0.036930	0.513740	0.695300
H1491	H149	0.023810	0.515020	0.682380
C3161	C316	0.069220	0.514490	0.678550
H1501	H150	0.080850	0.516390	0.652780
C3171	C317	0.086300	0.513000	0.695040
C3181	C318	0.071040	0.510670	0.728320
H1511	H151	0.084090	0.509600	0.741190
C3191	C319	0.038750	0.509920	0.745070
H1521	H152	0.027060	0.508220	0.770790
C3201	C320	0.021630	0.511500	0.728570
C3211	C321	0.646670	0.511560	0.746140
H1531	H153	0.633740	0.512070	0.771180
C3221	C322	0.630170	0.512380	0.729530
H1541	H154	0.604590	0.513570	0.741820
C3231	C323	0.646620	0.511950	0.697080
C3241	C324	0.679660	0.510530	0.681340
H1551	H155	0.692510	0.510280	0.656220
C3251	C325	0.696160	0.509700	0.697950
H1561	H156	0.721660	0.508770	0.685570
C3261	C326	0.679660	0.510300	0.730340
C3271	C327	0.630890	0.512410	0.169040
C3281	C328	0.616210	0.514210	0.196420
C3291	C329	0.119180	0.514580	0.677650
C3301	C330	0.146570	0.516360	0.663010
C3311	C331	0.629380	0.513760	0.679690
C3321	C332	0.614790	0.515770	0.664960
O411	O41	0.223310	0.584580	0.690030
O421	O42	0.269240	0.584540	0.644640
C3331	C333	0.239990	0.599250	0.661000
O431	O43	0.260440	0.547080	0.728020
O441	O44	0.306240	0.547110	0.682520
C3341	C334	0.289630	0.549160	0.711700
Cu111	Cu11	0.236950	0.539510	0.713680
Cu121	Cu12	0.292390	0.539680	0.658780
O451	O45	0.260870	0.494470	0.727100
O461	O46	0.306710	0.494760	0.681630
O471	O47	0.223770	0.531990	0.689190
O481	O48	0.269660	0.532240	0.643780
C3351	C335	0.290140	0.479910	0.710580
C3361	C336	0.240540	0.530040	0.659950
O491	O49	0.405920	0.395090	0.681400
O501	O50	0.405380	0.350030	0.727260
C3371	C337	0.390880	0.379010	0.710560
O511	O51	0.443420	0.357150	0.644320
O521	O52	0.442910	0.312030	0.690110
C3381	C338	0.441020	0.328260	0.660910
Cu131	Cu13	0.451050	0.380470	0.658420
Cu141	Cu14	0.450580	0.325990	0.713810
O531	O53	0.496110	0.357060	0.644410
O541	O54	0.495890	0.311930	0.690190
O551	O55	0.458550	0.395280	0.681240
O561	O56	0.458260	0.350210	0.727100
C3391	C339	0.510770	0.328150	0.660990
C3401	C340	0.460450	0.379220	0.710400
O571	O57	0.406340	0.394200	0.507720
O581	O58	0.405990	0.348830	0.507680
C3411	C341	0.391410	0.377950	0.509720
O591	O59	0.459180	0.393690	0.455280
O601	O60	0.459170	0.348300	0.454950
C3421	C342	0.461320	0.377340	0.440360
Cu151	Cu15	0.451360	0.379600	0.500370
Cu161	Cu16	0.451230	0.324710	0.500200
O611	O61	0.496380	0.356540	0.492990
O621	O62	0.496510	0.311030	0.492770
O631	O63	0.443510	0.356510	0.545400
O641	O64	0.443270	0.311020	0.545490
C3431	C343	0.511200	0.327500	0.490840
C3441	C344	0.441210	0.327560	0.560210
O651	O65	0.224170	0.583920	0.491430
O661	O66	0.270070	0.583800	0.491100
C3451	C345	0.240870	0.598570	0.489220
O671	O67	0.224200	0.531380	0.544300
O681	O68	0.270050	0.531610	0.543720
C3461	C346	0.240910	0.529480	0.558760
Cu171	Cu17	0.237620	0.538770	0.499180
Cu181	Cu18	0.293010	0.538930	0.498600
O691	O69	0.261610	0.493650	0.506870
O701	O70	0.307400	0.493980	0.506300
O711	O71	0.261080	0.546120	0.453890
O721	O72	0.306840	0.546190	0.453640
C3471	C347	0.290850	0.479080	0.508750
C3481	C348	0.290320	0.548070	0.439030
O731	O73	0.405150	0.547410	0.682600
O741	O74	0.405180	0.547340	0.728290
C3491	C349	0.390400	0.549420	0.711810
O751	O75	0.457790	0.495030	0.681810
O761	O76	0.458090	0.494650	0.727520
C3501	C350	0.460050	0.480140	0.710830
Cu191	Cu19	0.450220	0.539920	0.659120
Cu201	Cu20	0.450500	0.539670	0.714280
O771	O77	0.495370	0.532330	0.644590
O781	O78	0.495730	0.532020	0.690240
O791	O79	0.442800	0.584720	0.645010
O801	O80	0.442970	0.584760	0.690570
C3511	C351	0.510330	0.530050	0.661010
C3521	C352	0.440920	0.599410	0.661430
H1571	H157	0.736890	0.911260	0.471130
C3531	C353	0.778020	0.866120	0.470810
C3541	C354	0.810830	0.850050	0.470260
H1581	H158	0.823120	0.824840	0.470590
C3551	C355	0.827500	0.865820	0.470560
C3561	C356	0.811000	0.898120	0.471320
H1591	H159	0.823740	0.910420	0.471540
C3571	C357	0.778190	0.914640	0.471830
C3581	C358	0.761890	0.898410	0.471610
C3591	C359	0.872050	0.850160	0.491190
H1601	H160	0.854460	0.863780	0.508160
C3601	C360	0.904670	0.833730	0.490860
H1611	H161	0.911970	0.835120	0.507270
C3611	C361	0.927680	0.815490	0.469560
C3621	C362	0.917980	0.813630	0.448620
H1621	H162	0.935690	0.799620	0.432010
C3631	C363	0.885360	0.829970	0.448980
H1631	H163	0.878360	0.828560	0.432360
C3641	C364	0.862080	0.848450	0.470230
C3651	C365	0.727860	0.851470	0.491390
H1641	H164	0.715080	0.865320	0.508110
C3661	C366	0.711560	0.835330	0.491250
H1651	H165	0.686380	0.837140	0.507570
C3671	C367	0.727790	0.816750	0.470310
C3681	C368	0.760410	0.814280	0.449530
H1661	H166	0.773110	0.799950	0.433240
C3691	C369	0.776780	0.830340	0.449670
H1671	H167	0.801910	0.828420	0.433190
C3701	C370	0.760650	0.849140	0.470590
C3711	C371	0.728070	0.958360	0.493160
H1681	H168	0.715100	0.940740	0.509100
C3721	C372	0.711830	0.990580	0.493800
H1691	H169	0.686530	0.997520	0.509930
C3731	C373	0.728220	0.013670	0.473760
C3741	C374	0.760950	0.004450	0.453150
H1701	H170	0.773740	0.022250	0.437480
C3751	C375	0.777260	0.972220	0.452520
H1711	H171	0.802430	0.965670	0.436050
C3761	C376	0.760970	0.948840	0.472500
C3771	C377	0.711030	0.800050	0.470340
C3781	C378	0.696930	0.785960	0.470580
C3791	C379	0.961210	0.798670	0.469260
C3801	C380	0.989240	0.784610	0.469210
C3811	C381	0.711400	0.046880	0.474200
C3821	C382	0.697260	0.074730	0.474490
C3831	C383	0.698080	0.740650	0.462120
H1721	H172	0.724770	0.731550	0.454340
C3841	C384	0.681620	0.723800	0.463310
H1731	H173	0.695700	0.701780	0.456450
C3851	C385	0.647100	0.735260	0.473560
C3861	C386	0.629080	0.763670	0.482520
H1741	H174	0.602370	0.772610	0.490590
C3871	C387	0.645540	0.780520	0.481330
H1751	H175	0.631450	0.802390	0.488460
C3881	C388	0.680060	0.769000	0.471180
C3891	C389	0.696690	0.124740	0.473960
H1761	H176	0.722220	0.112850	0.472830
C3901	C390	0.680070	0.156960	0.474640
H1771	H177	0.692860	0.169720	0.474100
C3911	C391	0.647020	0.172520	0.476180
C3921	C392	0.630650	0.155750	0.477020
H1781	H178	0.605080	0.167580	0.478300
C3931	C393	0.647270	0.123530	0.476350
H1791	H179	0.634430	0.110690	0.477070
C3941	C394	0.680300	0.107960	0.474860
C3951	C395	0.039930	0.736510	0.466390
H1801	H180	0.028460	0.724870	0.463480
C3961	C396	0.072120	0.719960	0.467360
H1811	H181	0.085310	0.695630	0.465220
C3971	C397	0.087030	0.734720	0.471400
C3981	C398	0.069750	0.766120	0.474310
H1821	H182	0.081090	0.777630	0.477570
C3991	C399	0.037570	0.782660	0.473340
H1831	H183	0.024270	0.806860	0.475810
C4001	C400	0.022580	0.767850	0.469470
C4011	C401	0.630110	0.717570	0.475500
C4021	C402	0.615680	0.702710	0.477520
C4031	C403	0.629760	0.205430	0.477490
C4041	C404	0.615200	0.232860	0.478970
C4051	C405	0.119730	0.717340	0.473410
C4061	C406	0.146930	0.702670	0.475570
H1841	H184	0.080560	0.252570	0.527510
C4071	C407	0.076430	0.211240	0.527920
C4081	C408	0.093050	0.178820	0.527520
H1851	H185	0.080470	0.166270	0.527460
C4091	C409	0.125780	0.162480	0.527250
C4101	C410	0.141880	0.178930	0.527410
H1861	H186	0.166780	0.166140	0.528190
C4111	C411	0.125670	0.211350	0.527790
C4121	C412	0.092940	0.227280	0.528080
C4131	C413	0.176000	0.118730	0.506180
H1871	H187	0.188820	0.136460	0.489940
C4141	C414	0.192330	0.086430	0.505780
H1881	H188	0.217590	0.079530	0.489550
C4151	C415	0.176060	0.063250	0.526120
C4161	C416	0.143400	0.072420	0.546910
H1891	H189	0.130700	0.054560	0.562820
C4171	C417	0.127000	0.104720	0.547310
H1901	H190	0.101860	0.111290	0.563840
C4181	C418	0.143140	0.128200	0.526920
C4191	C419	0.018520	0.247340	0.548850
H1911	H191	0.025370	0.249170	0.565300
C4201	C420	0.985970	0.263600	0.548970
H1921	H192	0.968200	0.278000	0.565210
C4211	C421	0.976440	0.261210	0.528250
C4221	C422	0.999520	0.242450	0.507460
H1931	H193	0.992320	0.240620	0.491250
C4231	C423	0.032070	0.226080	0.507370
H1941	H194	0.049710	0.212040	0.490780
C4241	C424	0.041900	0.228400	0.528060
C4251	C425	0.126490	0.247680	0.548560
H1951	H195	0.101290	0.249680	0.564860
C4261	C426	0.142690	0.263910	0.548710
H1961	H196	0.129770	0.278470	0.564810
C4271	C427	0.175410	0.261260	0.528230
C4281	C428	0.191960	0.242240	0.507670
H1971	H197	0.217280	0.240160	0.491680
C4291	C429	0.175840	0.225920	0.507530
H1981	H198	0.188900	0.211670	0.491130
C4301	C430	0.142890	0.228530	0.527950
C4311	C431	0.943030	0.278170	0.528230
C4321	C432	0.915050	0.292440	0.528140
C4331	C433	0.192870	0.030070	0.525590
C4341	C434	0.206980	0.002290	0.525110
C4351	C435	0.191990	0.278180	0.528170
C4361	C436	0.205980	0.292390	0.527930
C4371	C437	0.866320	0.294870	0.524300
H1991	H199	0.879360	0.270640	0.521900
C4381	C438	0.834030	0.311610	0.523610
H2001	H200	0.822370	0.300200	0.520660
C4391	C439	0.817030	0.343020	0.526530
C4401	C440	0.832370	0.357590	0.530250
H2011	H201	0.819410	0.381900	0.532450
C4411	C441	0.864670	0.340850	0.530930
H2021	H202	0.876440	0.352320	0.533680
C4421	C442	0.881710	0.309500	0.527890
C4431	C443	0.257340	0.298350	0.516480
H2031	H203	0.271490	0.276930	0.508620
C4441	C444	0.273760	0.315090	0.515530
H2041	H204	0.300480	0.306510	0.506910
C4451	C445	0.255700	0.342890	0.525520
C4461	C446	0.221150	0.353830	0.536570
H2051	H205	0.207010	0.375320	0.544310
C4471	C447	0.204730	0.337080	0.537510
H2061	H206	0.178010	0.345730	0.545990
C4481	C448	0.222810	0.309370	0.527390
C4491	C449	0.209460	0.954440	0.519770
H2071	H207	0.185610	0.967990	0.516380
C4501	C450	0.225870	0.922150	0.519310
H2081	H208	0.214610	0.910960	0.515550
C4511	C451	0.256730	0.904450	0.523630
C4521	C452	0.271150	0.919150	0.528370
H2091	H209	0.295040	0.905630	0.531660
C4531	C453	0.254740	0.951440	0.528830
H2101	H210	0.266040	0.962660	0.532500
C4541	C454	0.223870	0.969120	0.524550
C4551	C455	0.784110	0.360480	0.525050
C4561	C456	0.756710	0.375120	0.523370
C4571	C457	0.272670	0.360370	0.523970
C4581	C458	0.287140	0.375030	0.522260
C4591	C459	0.273740	0.871390	0.522800
C4601	C460	0.288090	0.843810	0.521770
C4611	C461	0.677710	0.394130	0.514640
C4621	C462	0.677800	0.443470	0.514550
C4631	C463	0.724240	0.392630	0.520720
C4641	C464	0.662310	0.427330	0.512880
H2111	H211	0.638590	0.440920	0.509290
C4651	C465	0.708870	0.425670	0.518660
H2121	H212	0.721480	0.437520	0.519730
C4661	C466	0.708780	0.376950	0.518740
H2131	H213	0.721320	0.351480	0.519900
C4671	C467	0.465890	0.763800	0.355730
C4681	C468	0.471420	0.810570	0.354180
C4691	C469	0.465620	0.764200	0.405100
C4701	C470	0.469670	0.794920	0.338500
H2141	H214	0.470750	0.807350	0.313010
C4711	C471	0.469360	0.795340	0.387290
H2151	H215	0.470210	0.808080	0.399160
C4721	C472	0.464240	0.748530	0.388940
H2161	H216	0.460940	0.724750	0.402540
C4731	C473	0.597700	0.265390	0.481280
C4741	C474	0.596230	0.312180	0.486730
C4751	C475	0.546840	0.312030	0.486710
C4761	C476	0.613400	0.280950	0.483110
H2171	H217	0.638840	0.268370	0.482250
C4771	C477	0.563060	0.327660	0.488060
H2181	H218	0.549550	0.351590	0.491090
C4781	C478	0.564630	0.280790	0.483120
H2191	H219	0.552740	0.268080	0.482270
C4791	C479	0.354730	0.553530	0.727470
C4801	C480	0.305360	0.553360	0.727480
C4811	C481	0.303620	0.559620	0.774080
C4821	C482	0.338630	0.551730	0.712050
H2201	H220	0.352330	0.548170	0.688280
C4831	C483	0.287990	0.557450	0.758630
H2211	H221	0.262430	0.558600	0.771150
C4841	C484	0.336800	0.557630	0.758600
H2221	H222	0.348620	0.558910	0.771110
C4851	C485	0.597200	0.518820	0.647160
C4861	C486	0.595730	0.525260	0.595910
C4871	C487	0.546060	0.525640	0.645140
C4881	C488	0.613000	0.520810	0.614040
H2231	H223	0.638650	0.519360	0.602390
C4891	C489	0.562300	0.527370	0.611820
H2241	H224	0.548640	0.531250	0.597980
C4901	C490	0.563960	0.521220	0.662630
H2251	H225	0.552050	0.520100	0.688180
C4911	C491	0.225270	0.525730	0.643810
C4921	C492	0.225480	0.525380	0.594400
C4931	C493	0.178980	0.519150	0.645440
C4941	C494	0.240800	0.527410	0.610490
H2261	H226	0.264460	0.531200	0.596800
C4951	C495	0.194470	0.521060	0.612350
H2271	H227	0.181990	0.519680	0.600580
C4961	C496	0.194250	0.521450	0.661090
H2281	H228	0.181590	0.520380	0.686620
C4971	C497	0.304750	0.392560	0.519600
C4981	C498	0.306630	0.443470	0.513210
C4991	C499	0.355790	0.393990	0.513770
C5001	C500	0.289260	0.425680	0.517250
H2291	H229	0.263820	0.437580	0.518090
C5011	C501	0.339820	0.427250	0.511830
H2301	H230	0.353550	0.440810	0.508310
C5021	C502	0.337780	0.376800	0.517880
H2311	H231	0.349460	0.351260	0.519280
C5031	C503	0.305810	0.810710	0.353920
C5041	C504	0.356550	0.764040	0.355690
C5051	C505	0.306980	0.764480	0.404950
C5061	C506	0.338910	0.795090	0.338360
H2321	H232	0.350920	0.807460	0.312850
C5071	C507	0.340210	0.748850	0.388900
H2331	H233	0.353690	0.725140	0.402570
C5081	C508	0.289940	0.795540	0.387030
H2341	H234	0.264430	0.808250	0.398810
O811	O81	0.596790	0.582930	0.319170
O821	O82	0.642270	0.582850	0.273340
C5091	C509	0.613130	0.597560	0.289940
O831	O83	0.634660	0.545630	0.356270
O841	O84	0.680260	0.545420	0.310560
C5101	C510	0.663890	0.547530	0.339750
Cu211	Cu21	0.611060	0.538110	0.342330
Cu221	Cu22	0.666080	0.537790	0.287010
O851	O85	0.634050	0.493200	0.356630
O861	O86	0.679630	0.492760	0.310890
O871	O87	0.596220	0.530500	0.319580
O881	O88	0.641760	0.530120	0.273800
C5111	C511	0.663070	0.478280	0.340130
C5121	C512	0.612520	0.528190	0.290510
H2351	H235	0.817100	0.820730	0.868100
C5131	C513	0.771900	0.861900	0.871780
C5141	C514	0.756230	0.894680	0.855450
H2361	H236	0.730800	0.907100	0.867700
C5151	C515	0.772840	0.911280	0.823130
C5161	C516	0.805520	0.894630	0.807130
H2371	H237	0.818560	0.907280	0.782280
C5171	C517	0.821600	0.861840	0.823060
C5181	C518	0.804530	0.845660	0.855320
C5191	C519	0.759480	0.956850	0.772970
H2381	H238	0.773830	0.939770	0.759340
C5201	C520	0.743730	0.989670	0.757180
H2391	H239	0.746320	0.997570	0.731600
C5211	C521	0.724610	0.012120	0.774400
C5221	C522	0.721230	0.001660	0.807490
H2401	H240	0.706550	0.018910	0.820970
C5231	C523	0.736880	0.968850	0.823350
H2411	H241	0.734320	0.961320	0.848840
C5241	C524	0.756170	0.946080	0.806260
C5251	C525	0.757220	0.811950	0.916080
H2421	H242	0.771430	0.798970	0.898420
C5261	C526	0.741330	0.795700	0.948750
H2431	H243	0.743690	0.770390	0.955980
C5271	C527	0.722620	0.812050	0.971950
C5281	C528	0.719670	0.844740	0.962390
H2441	H244	0.705370	0.857470	0.980280
C5291	C529	0.735480	0.861050	0.929740
H2451	H245	0.733460	0.886130	0.922980
C5301	C530	0.754490	0.844800	0.906250
C5311	C531	0.866500	0.811960	0.808510
H2461	H246	0.848820	0.799120	0.821910
C5321	C532	0.899380	0.795740	0.792930
H2471	H247	0.906750	0.770590	0.794680
C5331	C533	0.922580	0.811970	0.775100
C5341	C534	0.912810	0.844500	0.772840
H2481	H248	0.930660	0.857190	0.759170
C5351	C535	0.879930	0.860780	0.788340
H2491	H249	0.872940	0.885780	0.786750
C5361	C536	0.856420	0.844680	0.806340
C5371	C537	0.706690	0.795240	0.005670
C5381	C538	0.693400	0.781220	0.033970
C5391	C539	0.708320	0.045820	0.758140
C5401	C540	0.694600	0.074000	0.744450
C5411	C541	0.956380	0.795330	0.759010
C5421	C542	0.984690	0.781470	0.745410
C5431	C543	0.649870	0.782340	0.087750
H2501	H250	0.640340	0.808900	0.077980
C5441	C544	0.634210	0.765950	0.120450
H2511	H251	0.612650	0.779920	0.135720
C5451	C545	0.646250	0.731610	0.133240
C5461	C546	0.674080	0.713730	0.113300
H2521	H252	0.683480	0.687160	0.123010
C5471	C547	0.689740	0.730120	0.080610
H2531	H253	0.711180	0.716120	0.065290
C5481	C548	0.677580	0.764440	0.067740
C5491	C549	0.039000	0.783250	0.703400
H2541	H254	0.029750	0.809810	0.696140
C5501	C550	0.071600	0.767260	0.686940
H2551	H255	0.087320	0.781560	0.667060
C5511	C551	0.083730	0.732950	0.696030
C5521	C552	0.063220	0.714670	0.721770
H2561	H256	0.072420	0.688120	0.728940
C5531	C553	0.030630	0.730650	0.738240
H2571	H257	0.014880	0.716350	0.758040
C5541	C554	0.018420	0.764980	0.728980
C5551	C555	0.644750	0.123000	0.743320
H2581	H258	0.631270	0.109820	0.767570
C5561	C556	0.628590	0.155470	0.727190
H2591	H259	0.602730	0.167160	0.739100
C5571	C557	0.645720	0.172620	0.695690
C5581	C558	0.679130	0.157230	0.680460
H2601	H260	0.692530	0.170280	0.656070
C5591	C559	0.695300	0.124750	0.696610
H2611	H261	0.721080	0.112960	0.684590
C5601	C560	0.678120	0.107560	0.728040
C5611	C561	0.629640	0.714680	0.166560
C5621	C562	0.615500	0.700390	0.194300
C5631	C563	0.116970	0.716490	0.678640
C5641	C564	0.144660	0.702420	0.664030
C5651	C565	0.628850	0.205710	0.678730
C5661	C566	0.614550	0.233250	0.664360
O891	O89	0.406780	0.544940	0.309590
O901	O90	0.406120	0.545190	0.355460
C5671	C567	0.391680	0.547110	0.338750
O911	O91	0.459740	0.492330	0.310300
O921	O92	0.458790	0.492840	0.356180
C5681	C568	0.461380	0.477870	0.339600
Cu231	Cu23	0.452140	0.537380	0.286350
Cu241	Cu24	0.451080	0.537760	0.341870
O931	O93	0.497240	0.529860	0.273310
O941	O94	0.496260	0.530280	0.319260
O951	O95	0.444350	0.582490	0.272870
O961	O96	0.443590	0.582580	0.318870
C5691	C569	0.511520	0.527980	0.290170
C5701	C570	0.441890	0.597230	0.289630
H2621	H262	0.432770	0.822010	0.868220
C5711	C571	0.431320	0.863140	0.873620
C5721	C572	0.430840	0.895830	0.857830
H2631	H263	0.430600	0.908080	0.870930
C5731	C573	0.430420	0.912890	0.825360
C5741	C574	0.430600	0.896780	0.808660
H2641	H264	0.429250	0.910060	0.784000
C5751	C575	0.431050	0.864100	0.824050
C5761	C576	0.431520	0.847480	0.856490
C5771	C577	0.448400	0.958810	0.775900
H2651	H265	0.464920	0.941940	0.762050
C5781	C578	0.446860	0.991690	0.760470
H2661	H266	0.461900	0.999860	0.734920
C5791	C579	0.426030	0.013890	0.777960
C5801	C580	0.406830	0.003090	0.810990
H2671	H267	0.390580	0.020160	0.824660
C5811	C581	0.408370	0.970190	0.826500
H2681	H268	0.392930	0.962420	0.851920
C5821	C582	0.429140	0.947710	0.809080
C5831	C583	0.410890	0.825920	0.930900
H2691	H269	0.395020	0.823790	0.923540
C5841	C584	0.410410	0.809530	0.963520
H2701	H270	0.394500	0.794760	0.980820
C5851	C585	0.430220	0.812380	0.973800
C5861	C586	0.450640	0.831560	0.951300
H2711	H271	0.466190	0.833720	0.959050
C5871	C587	0.451130	0.848030	0.918650
H2721	H272	0.467370	0.862460	0.901490
C5881	C588	0.431180	0.845440	0.908130
C5891	C589	0.410730	0.827560	0.822960
H2731	H273	0.395210	0.824560	0.848500
C5901	C590	0.410320	0.811810	0.806450
H2741	H274	0.394860	0.796610	0.819470
C5911	C591	0.429710	0.815720	0.773290
C5921	C592	0.449530	0.835460	0.756650
H2751	H275	0.464720	0.838470	0.731000
C5931	C593	0.449980	0.851250	0.773110
H2761	H276	0.465850	0.866030	0.759960
C5941	C594	0.430590	0.847440	0.806470
C5951	C595	0.429500	0.795680	0.007430
C5961	C596	0.428890	0.781710	0.035620
C5971	C597	0.424400	0.047730	0.761900
C5981	C598	0.423320	0.076000	0.748170
C5991	C599	0.429440	0.799250	0.756470
C6001	C600	0.429270	0.785280	0.742510
C6011	C601	0.427450	0.781260	0.086120
H2771	H277	0.427140	0.806450	0.074030
C6021	C602	0.427290	0.764890	0.118660
H2781	H278	0.426910	0.777520	0.131490
C6031	C603	0.427910	0.732250	0.134410
C6041	C604	0.428570	0.716050	0.117590
H2791	H279	0.429190	0.690760	0.129580
C6051	C605	0.428730	0.732420	0.085040
H2801	H280	0.429420	0.719680	0.072120
C6061	C606	0.428240	0.765020	0.069240
C6071	C607	0.453650	0.765960	0.695630
H2811	H281	0.472590	0.776890	0.684440
C6081	C608	0.453840	0.749200	0.679710
H2821	H282	0.472920	0.747290	0.656330
C6091	C609	0.429550	0.734860	0.694060
C6101	C610	0.405030	0.737370	0.724350
H2831	H283	0.386200	0.726310	0.735600
C6111	C611	0.404850	0.754140	0.740270
H2841	H284	0.385870	0.755910	0.763740
C6121	C612	0.429190	0.768410	0.725950
C6131	C613	0.426370	0.125110	0.745700
H2851	H285	0.429580	0.112050	0.769600
C6141	C614	0.426570	0.157460	0.728930
H2861	H286	0.429950	0.169160	0.739970
C6151	C615	0.422880	0.174400	0.697820
C6161	C616	0.418640	0.159010	0.683680
H2871	H287	0.415870	0.171910	0.659600
C6171	C617	0.418420	0.126670	0.700480
H2881	H288	0.415420	0.114830	0.689270
C6181	C618	0.422450	0.109610	0.731440
C6191	C619	0.428750	0.715140	0.167500
C6201	C620	0.430000	0.700710	0.195040
C6211	C621	0.430030	0.717400	0.677730
C6221	C622	0.430900	0.702770	0.663750
C6231	C623	0.424460	0.207170	0.680030
C6241	C624	0.426410	0.234390	0.665080
