data_c6ce00407e_c6ce00407e6_clean_PM
_symmetry_space_group_name_H-M	'P1'
_cell_length_a	51.422500
_cell_length_b	51.441000
_cell_length_c	191.662000
_cell_angle_alpha	90.054300
_cell_angle_beta	89.928300
_cell_angle_gamma	120.051000
_symmetry_Int_Tables_number 1

loop_
_symmetry_equiv_pos_as_xyz
'x,y,z'

loop_
_atom_site_label
_atom_site_type_symbol
_atom_site_fract_x
_atom_site_fract_y
_atom_site_fract_z
Zn11	Zn1	0.275760	0.415570	0.171850
Zn21	Zn2	0.942430	0.748900	0.505180
Zn31	Zn3	0.609090	0.082230	0.838510
Zn41	Zn4	0.310360	0.468180	0.163600
Zn51	Zn5	0.977030	0.801520	0.496930
Zn61	Zn6	0.643690	0.134850	0.830270
Zn71	Zn7	0.273270	0.410500	0.156750
Zn81	Zn8	0.939940	0.743840	0.490090
Zn91	Zn9	0.606610	0.077170	0.823420
Zn101	Zn10	0.245510	0.439980	0.163950
Zn111	Zn11	0.912170	0.773320	0.497290
Zn121	Zn12	0.578840	0.106650	0.830620
O11	O1	0.276210	0.433530	0.164000
O21	O2	0.942870	0.766860	0.497330
O31	O3	0.609540	0.100200	0.830670
O41	O4	0.306380	0.436370	0.177260
O51	O5	0.973050	0.769700	0.510590
O61	O6	0.639720	0.103040	0.843930
O71	O7	0.332250	0.471370	0.156350
O81	O8	0.998920	0.804700	0.489680
O91	O9	0.665580	0.138040	0.823020
O101	O10	0.272640	0.377060	0.159180
O111	O11	0.939300	0.710390	0.492520
O121	O12	0.605970	0.043730	0.825850
O131	O13	0.333800	0.476600	0.170940
O141	O14	0.000460	0.809930	0.504270
O151	O15	0.667130	0.143260	0.837600
O161	O16	0.275230	0.382050	0.170610
O171	O17	0.941900	0.715380	0.503950
O181	O18	0.608560	0.048720	0.837280
O191	O19	0.303650	0.428440	0.150950
O201	O20	0.970320	0.761770	0.484280
O211	O21	0.636980	0.095100	0.817610
O221	O22	0.240850	0.399320	0.151550
O231	O23	0.907510	0.732660	0.484880
O241	O24	0.574180	0.065990	0.818220
O251	O25	0.222210	0.425930	0.171250
O261	O26	0.888880	0.759270	0.504590
O271	O27	0.555550	0.092600	0.837920
O281	O28	0.220840	0.422630	0.157060
O291	O29	0.887510	0.755960	0.490400
O301	O30	0.554170	0.089300	0.823730
O311	O31	0.244910	0.406370	0.177140
O321	O32	0.911580	0.739710	0.510470
O331	O33	0.578250	0.073040	0.843800
O341	O34	0.305100	0.498930	0.162950
O351	O35	0.971770	0.832260	0.496280
O361	O36	0.638430	0.165590	0.829620
O371	O37	0.255880	0.477940	0.163410
O381	O38	0.922550	0.811270	0.496740
O391	O39	0.589220	0.144600	0.830080
C11	C1	0.220240	0.405840	0.152190
C21	C2	0.886910	0.739170	0.485520
C31	C3	0.553570	0.072500	0.818850
C41	C4	0.281660	0.501010	0.162960
C51	C5	0.948330	0.834340	0.496290
C61	C6	0.614990	0.167680	0.829630
C71	C7	0.223620	0.411660	0.176460
C81	C8	0.890280	0.745000	0.509790
C91	C9	0.556950	0.078330	0.843120
C101	C10	0.329560	0.461770	0.176490
C111	C11	0.996230	0.795110	0.509830
C121	C12	0.662890	0.128440	0.843160
C131	C13	0.273890	0.367510	0.165190
C141	C14	0.940560	0.700840	0.498530
C151	C15	0.607230	0.034180	0.831860
C161	C16	0.327310	0.453890	0.151250
C171	C17	0.993980	0.787220	0.484590
C181	C18	0.660650	0.120550	0.817920
C191	C19	0.143900	0.334160	0.052240
C201	C20	0.810570	0.667490	0.385570
C211	C21	0.477240	0.000820	0.718910
C221	C22	0.102680	0.330740	0.045360
C231	C23	0.769340	0.664070	0.378700
C241	C24	0.436010	0.997410	0.712030
C251	C25	0.101440	0.333170	0.058000
C261	C26	0.768110	0.666500	0.391330
C271	C27	0.434780	0.999840	0.724660
C281	C28	0.130640	0.332210	0.045720
C291	C29	0.797300	0.665540	0.379060
C301	C30	0.463970	0.998880	0.712390
H11	H1	0.141780	0.331460	0.040990
H21	H2	0.808450	0.664790	0.374320
H31	H3	0.475110	0.998120	0.707660
C311	C31	0.088110	0.331220	0.051510
C321	C32	0.754780	0.664550	0.384850
C331	C33	0.421440	0.997880	0.718180
H41	H4	0.066280	0.329580	0.051260
H51	H5	0.732950	0.662910	0.384590
H61	H6	0.399610	0.996250	0.717920
C341	C34	0.129310	0.334710	0.058350
C351	C35	0.795980	0.668040	0.391680
C361	C36	0.462640	0.001380	0.725010
H71	H7	0.139420	0.335820	0.063380
H81	H8	0.806080	0.669150	0.396720
H91	H9	0.472750	0.002490	0.730050
C371	C37	0.239880	0.335630	0.048660
C381	C38	0.906540	0.668960	0.381990
C391	C39	0.573210	0.002290	0.715330
C401	C40	0.266680	0.335350	0.049540
C411	C41	0.933350	0.668690	0.382870
C421	C42	0.600010	0.002020	0.716210
C431	C43	0.276940	0.333850	0.056270
C441	C44	0.943610	0.667180	0.389600
C451	C45	0.610270	0.000510	0.722940
C461	C46	0.259660	0.332620	0.062090
C471	C47	0.926320	0.665960	0.395430
C481	C48	0.592990	0.999290	0.728760
C491	C49	0.232770	0.332900	0.061190
C501	C50	0.899440	0.666240	0.394520
C511	C51	0.566100	0.999570	0.727850
C521	C52	0.222900	0.334420	0.054470
C531	C53	0.889560	0.667760	0.387800
C541	C54	0.556230	0.001090	0.721140
H101	H10	0.279520	0.336350	0.044950
H111	H11	0.946190	0.669680	0.378290
H121	H12	0.612850	0.003020	0.711620
H131	H13	0.267040	0.331490	0.067330
H141	H14	0.933710	0.664820	0.400660
H151	H15	0.600380	0.998150	0.733990
H161	H16	0.232340	0.336780	0.043450
H171	H17	0.899010	0.670110	0.376780
H181	H18	0.565680	0.003440	0.710120
H191	H19	0.219640	0.331940	0.065710
H201	H20	0.886310	0.665270	0.399040
H211	H21	0.552970	0.998600	0.732370
C551	C55	0.069150	0.316910	0.082220
C561	C56	0.735810	0.650240	0.415550
C571	C57	0.402480	0.983570	0.748880
C581	C58	0.054590	0.312060	0.088640
C591	C59	0.721260	0.645390	0.421980
C601	C60	0.387920	0.978720	0.755310
C611	C61	0.030250	0.317130	0.089430
C621	C62	0.696920	0.650460	0.422760
C631	C63	0.363590	0.983790	0.756100
C641	C64	0.021300	0.327810	0.083670
C651	C65	0.687970	0.661140	0.417000
C661	C66	0.354640	0.994480	0.750340
C671	C67	0.035940	0.332610	0.077240
C681	C68	0.702600	0.665940	0.410570
C691	C69	0.369270	0.999280	0.743910
C701	C70	0.059680	0.326900	0.076500
C711	C71	0.726350	0.660240	0.409830
C721	C72	0.393020	0.993570	0.743170
H221	H22	0.061960	0.303830	0.092980
H231	H23	0.728620	0.637170	0.426320
H241	H24	0.395290	0.970500	0.759650
H251	H25	0.002620	0.331890	0.084130
H261	H26	0.669290	0.665220	0.417470
H271	H27	0.335960	0.998560	0.750800
H281	H28	0.087510	0.312410	0.081660
H291	H29	0.754180	0.645750	0.415000
H301	H30	0.420850	0.979080	0.748330
H311	H31	0.028500	0.340330	0.072820
H321	H32	0.695170	0.673660	0.406160
H331	H33	0.361840	0.006990	0.739490
C731	C73	0.061680	0.308070	0.021130
C741	C74	0.728350	0.641400	0.354470
C751	C75	0.395020	0.974730	0.687800
C761	C76	0.042620	0.301650	0.015370
C771	C77	0.709280	0.634990	0.348710
C781	C78	0.375950	0.968320	0.682040
C791	C79	0.018310	0.307030	0.015680
C801	C80	0.684980	0.640360	0.349010
C811	C81	0.351640	0.973690	0.682340
C821	C82	0.014170	0.319820	0.021780
C831	C83	0.680840	0.653150	0.355120
C841	C84	0.347510	0.986480	0.688450
C851	C85	0.033270	0.326240	0.027500
C861	C86	0.699940	0.659580	0.360830
C871	C87	0.366610	0.992910	0.694170
C881	C88	0.056810	0.320050	0.027230
C891	C89	0.723480	0.653390	0.360560
C901	C90	0.390140	0.986720	0.693900
H341	H34	0.046290	0.291770	0.010740
H351	H35	0.712950	0.625100	0.344080
H361	H36	0.379620	0.958440	0.677410
H371	H37	0.995660	0.324190	0.022180
H381	H38	0.662330	0.657520	0.355510
H391	H39	0.328990	0.990850	0.688840
H401	H40	0.079810	0.303100	0.020900
H411	H41	0.746470	0.636430	0.354230
H421	H42	0.413140	0.969770	0.687560
H431	H43	0.029300	0.335430	0.032210
H441	H44	0.695960	0.668760	0.365540
H451	H45	0.362630	0.002090	0.698880
C911	C91	0.195250	0.334580	0.053510
C921	C92	0.861920	0.667910	0.386850
C931	C93	0.528580	0.001240	0.720180
C941	C94	0.171960	0.334530	0.052790
C951	C95	0.838630	0.667870	0.386130
C961	C96	0.505290	0.001200	0.719460
C971	C97	0.073810	0.330120	0.069840
C981	C98	0.740480	0.663460	0.403170
C991	C99	0.407140	0.996790	0.736510
C1001	C100	0.086090	0.331940	0.064360
C1011	C101	0.752760	0.665280	0.397690
C1021	C102	0.419420	0.998610	0.731030
C1031	C103	0.088090	0.327570	0.038750
C1041	C104	0.754750	0.660900	0.372090
C1051	C105	0.421420	0.994230	0.705420
C1061	C106	0.074560	0.324420	0.033390
C1071	C107	0.741230	0.657750	0.366720
C1081	C108	0.407900	0.991080	0.700060
Zn131	Zn13	0.348600	0.333020	0.065480
Zn141	Zn14	0.015260	0.666360	0.398820
Zn151	Zn15	0.681930	0.999690	0.732150
Zn161	Zn16	0.353410	0.335050	0.050470
Zn171	Zn17	0.020080	0.668380	0.383800
Zn181	Zn18	0.686750	0.001720	0.717130
Zn191	Zn19	0.406150	0.370590	0.058610
Zn201	Zn20	0.072810	0.703920	0.391940
Zn211	Zn21	0.739480	0.037250	0.725270
Zn221	Zn22	0.379100	0.305960	0.058360
Zn231	Zn23	0.045770	0.639290	0.391690
Zn241	Zn24	0.712440	0.972630	0.725020
O401	O40	0.371810	0.336140	0.058270
O411	O41	0.038480	0.669470	0.391600
O421	O42	0.705150	0.002800	0.724940
O431	O43	0.315090	0.332310	0.063090
O441	O44	0.981760	0.665640	0.396420
O451	O45	0.648420	0.998980	0.729760
O461	O46	0.374150	0.365090	0.044860
O471	O47	0.040820	0.698420	0.378190
O481	O48	0.707480	0.031750	0.711530
O491	O49	0.408980	0.392480	0.065820
O501	O50	0.075650	0.725810	0.399150
O511	O51	0.742310	0.059140	0.732480
O521	O52	0.320120	0.335020	0.051680
O531	O53	0.986790	0.668350	0.385010
O541	O54	0.653450	0.001690	0.718340
O551	O55	0.366360	0.363380	0.071300
O561	O56	0.033030	0.696720	0.404640
O571	O57	0.699700	0.030050	0.737970
O581	O58	0.413890	0.393610	0.051240
O591	O59	0.080560	0.726950	0.384570
O601	O60	0.747230	0.060280	0.717900
O611	O61	0.437500	0.366190	0.059240
O621	O62	0.104160	0.699520	0.392570
O631	O63	0.770830	0.032850	0.725900
O641	O64	0.362920	0.281970	0.065450
O651	O65	0.029590	0.615310	0.398780
O661	O66	0.696260	0.948640	0.732110
O671	O67	0.417200	0.317080	0.058790
O681	O68	0.083870	0.650420	0.392120
O691	O69	0.750540	0.983750	0.725450
O701	O70	0.337550	0.300590	0.070630
O711	O71	0.004220	0.633920	0.403960
O721	O72	0.670880	0.967260	0.737290
O731	O73	0.343330	0.303370	0.045460
O741	O74	0.010000	0.636700	0.378790
O751	O75	0.676670	0.970040	0.712120
O761	O76	0.365010	0.282110	0.051100
O771	O77	0.031680	0.615440	0.384430
O781	O78	0.698340	0.948780	0.717770
C1091	C109	0.440030	0.343010	0.059210
C1101	C110	0.106690	0.676340	0.392540
C1111	C111	0.773360	0.009680	0.725880
C1121	C112	0.349400	0.282570	0.046070
C1131	C113	0.016060	0.615900	0.379400
C1141	C114	0.682730	0.949240	0.712740
C1151	C115	0.345460	0.280930	0.070220
C1161	C116	0.012120	0.614270	0.403550
C1171	C117	0.678790	0.947600	0.736890
C1181	C118	0.305600	0.333730	0.057090
C1191	C119	0.972260	0.667060	0.390430
C1201	C120	0.638930	0.000400	0.723760
C1211	C121	0.391580	0.387330	0.070940
C1221	C122	0.058250	0.720660	0.404280
C1231	C123	0.724910	0.054000	0.737610
C1241	C124	0.399220	0.388710	0.045630
C1251	C125	0.065890	0.722050	0.378970
C1261	C126	0.732560	0.055380	0.712300
C1271	C127	0.444020	0.514280	0.116950
C1281	C128	0.110690	0.847610	0.450290
C1291	C129	0.777350	0.180950	0.783620
C1301	C130	0.451720	0.506090	0.104850
C1311	C131	0.118390	0.839420	0.438180
C1321	C132	0.785050	0.172750	0.771510
C1331	C133	0.488850	0.551090	0.110840
C1341	C134	0.155520	0.884420	0.444170
C1351	C135	0.822180	0.217760	0.777510
C1361	C136	0.434290	0.496640	0.110920
C1371	C137	0.100960	0.829980	0.444250
C1381	C138	0.767620	0.163310	0.777580
H461	H46	0.413180	0.475550	0.110950
H471	H47	0.079850	0.808880	0.444280
H481	H48	0.746520	0.142210	0.777620
C1391	C139	0.479020	0.533330	0.104800
C1401	C140	0.145690	0.866660	0.438130
C1411	C141	0.812360	0.199990	0.771470
H491	H49	0.492580	0.540610	0.100100
H501	H50	0.159240	0.873940	0.433430
H511	H51	0.825910	0.207280	0.766770
C1421	C142	0.471300	0.541530	0.116920
C1431	C143	0.137970	0.874860	0.450250
C1441	C144	0.804640	0.208190	0.783580
H521	H52	0.478840	0.555210	0.121590
H531	H53	0.145510	0.888540	0.454930
H541	H54	0.812170	0.221870	0.788260
C1451	C145	0.364310	0.455680	0.133950
C1461	C146	0.030980	0.789020	0.467280
C1471	C147	0.697640	0.122350	0.800610
C1481	C148	0.344230	0.445460	0.139570
C1491	C149	0.010890	0.778790	0.472900
C1501	C150	0.677560	0.112120	0.806230
C1511	C151	0.349460	0.463850	0.145450
C1521	C152	0.016120	0.797180	0.478790
C1531	C153	0.682790	0.130520	0.812120
C1541	C154	0.375540	0.492450	0.145620
C1551	C155	0.042210	0.825780	0.478960
C1561	C156	0.708870	0.159120	0.812290
C1571	C157	0.395550	0.502580	0.139990
C1581	C158	0.062220	0.835920	0.473330
C1591	C159	0.728880	0.169250	0.806660
C1601	C160	0.389850	0.484320	0.134130
C1611	C161	0.056520	0.817660	0.467460
C1621	C162	0.723190	0.150990	0.800800
H551	H55	0.324330	0.423370	0.139290
H561	H56	0.991000	0.756700	0.472620
H571	H57	0.657660	0.090040	0.805950
H581	H58	0.380130	0.507110	0.150080
H591	H59	0.046800	0.840450	0.483420
H601	H60	0.713470	0.173780	0.816750
H611	H61	0.359760	0.441450	0.129410
H621	H62	0.026430	0.774780	0.462740
H631	H63	0.693090	0.108120	0.796070
H641	H64	0.415260	0.524800	0.140160
H651	H65	0.081930	0.858130	0.473500
H661	H66	0.748600	0.191470	0.806830
C1631	C163	0.578840	0.647360	0.117010
C1641	C164	0.245510	0.980690	0.450340
C1651	C165	0.912170	0.314020	0.783670
C1661	C166	0.606130	0.674540	0.117060
C1671	C167	0.272800	0.007880	0.450390
C1681	C168	0.939460	0.341210	0.783730
C1691	C169	0.623570	0.685310	0.110940
C1701	C170	0.290240	0.018650	0.444280
C1711	C171	0.956910	0.351980	0.777610
C1721	C172	0.612980	0.668180	0.104780
C1731	C173	0.279650	0.001510	0.438110
C1741	C174	0.946310	0.334850	0.771450
C1751	C175	0.585670	0.641000	0.104750
C1761	C176	0.252340	0.974330	0.438080
C1771	C177	0.919000	0.307670	0.771420
C1781	C178	0.568560	0.630530	0.110860
C1791	C179	0.235230	0.963870	0.444190
C1801	C180	0.901890	0.297200	0.777520
H671	H67	0.613700	0.687240	0.121880
H681	H68	0.280370	0.020570	0.455210
H691	H69	0.947030	0.353910	0.788550
H701	H70	0.625920	0.675900	0.099990
H711	H71	0.292590	0.009230	0.433330
H721	H72	0.959250	0.342570	0.766660
H731	H73	0.565710	0.639400	0.121760
H741	H74	0.232380	0.972730	0.455090
H751	H75	0.899050	0.306060	0.788420
H761	H76	0.577860	0.628100	0.099970
H771	H77	0.244520	0.961430	0.433300
H781	H78	0.911190	0.294760	0.766640
C1811	C181	0.439590	0.456550	0.081960
C1821	C182	0.106260	0.789880	0.415290
C1831	C183	0.772930	0.123210	0.748620
C1841	C184	0.429600	0.436190	0.076400
C1851	C185	0.096270	0.769530	0.409730
C1861	C186	0.762930	0.102860	0.743070
C1871	C187	0.401360	0.409670	0.076690
C1881	C188	0.068030	0.743010	0.410030
C1891	C189	0.734700	0.076340	0.743360
C1901	C190	0.383190	0.404330	0.082630
C1911	C191	0.049850	0.737660	0.415960
C1921	C192	0.716520	0.071000	0.749300
C1931	C193	0.393280	0.424770	0.088180
C1941	C194	0.059950	0.758100	0.421510
C1951	C195	0.726620	0.091440	0.754850
C1961	C196	0.421570	0.450770	0.087870
C1971	C197	0.088240	0.784110	0.421210
C1981	C198	0.754900	0.117440	0.754540
H791	H79	0.444100	0.440890	0.071900
H801	H80	0.110760	0.774220	0.405230
H811	H81	0.777430	0.107550	0.738570
H821	H82	0.361390	0.384090	0.083000
H831	H83	0.028050	0.717430	0.416330
H841	H84	0.694720	0.050760	0.749670
H851	H85	0.461540	0.476610	0.081690
H861	H86	0.128200	0.809940	0.415030
H871	H87	0.794870	0.143270	0.748360
H881	H88	0.379240	0.420150	0.092760
H891	H89	0.045910	0.753480	0.426090
H901	H90	0.712570	0.086820	0.759420
C1991	C199	0.409640	0.495300	0.128200
C2001	C200	0.076310	0.828630	0.461530
C2011	C201	0.742980	0.161960	0.794860
C2021	C202	0.425680	0.504250	0.123130
C2031	C203	0.092350	0.837580	0.456470
C2041	C204	0.759010	0.170910	0.789800
C2051	C205	0.540470	0.602530	0.110820
C2061	C206	0.207140	0.935860	0.444160
C2071	C207	0.873810	0.269190	0.777490
C2081	C208	0.516950	0.579080	0.110820
C2091	C209	0.183620	0.912410	0.444150
C2101	C210	0.850280	0.245750	0.777480
C2111	C211	0.441530	0.487360	0.098730
C2121	C212	0.108200	0.820690	0.432060
C2131	C213	0.774860	0.154030	0.765400
C2141	C214	0.432510	0.470970	0.093730
C2151	C215	0.099180	0.804300	0.427060
C2161	C216	0.765840	0.137630	0.760400
Zn251	Zn25	0.542110	0.939950	0.163710
Zn261	Zn26	0.208780	0.273280	0.497040
Zn271	Zn27	0.875450	0.606610	0.830370
Zn281	Zn28	0.595150	0.957790	0.171780
Zn291	Zn29	0.261820	0.291120	0.505120
Zn301	Zn30	0.928480	0.624450	0.838450
Zn311	Zn31	0.569370	0.902660	0.163990
Zn321	Zn32	0.236030	0.235990	0.497320
Zn331	Zn33	0.902700	0.569320	0.830660
Zn341	Zn34	0.599560	0.959940	0.156760
Zn351	Zn35	0.266230	0.293280	0.490090
Zn361	Zn36	0.932900	0.626610	0.823420
O791	O79	0.576550	0.940070	0.164020
O801	O80	0.243220	0.273410	0.497350
O811	O81	0.909890	0.606740	0.830680
O821	O82	0.534460	0.955390	0.171070
O831	O83	0.201130	0.288720	0.504400
O841	O84	0.867800	0.622060	0.837730
O851	O85	0.605630	0.936570	0.176810
O861	O86	0.272300	0.269900	0.510140
O871	O87	0.938970	0.603240	0.843480
O881	O88	0.531280	0.875460	0.163670
O891	O89	0.197940	0.208800	0.497000
O901	O90	0.864610	0.542130	0.830340
O911	O91	0.574410	0.967040	0.177400
O921	O92	0.241070	0.300370	0.510730
O931	O93	0.907740	0.633710	0.844070
O941	O94	0.510800	0.904060	0.163150
O951	O95	0.177470	0.237390	0.496480
O961	O96	0.844130	0.570730	0.829820
O971	O97	0.583920	0.893420	0.171220
O981	O98	0.250590	0.226760	0.504560
O991	O99	0.917250	0.560090	0.837890
O1001	O100	0.585280	0.894590	0.156880
O1011	O101	0.251940	0.227920	0.490220
O1021	O102	0.918610	0.561250	0.823550
O1031	O103	0.581540	0.972180	0.150940
O1041	O104	0.248200	0.305520	0.484270
O1051	O105	0.914870	0.638850	0.817600
O1061	O106	0.610520	0.938400	0.151630
O1071	O107	0.277190	0.271740	0.484960
O1081	O108	0.943860	0.605070	0.818290
O1091	O109	0.539020	0.958680	0.156470
O1101	O110	0.205690	0.292010	0.489800
O1111	O111	0.872350	0.625340	0.823140
O1121	O112	0.628270	0.991180	0.170490
O1131	O113	0.294930	0.324520	0.503830
O1141	O114	0.961600	0.657850	0.837160
O1151	O115	0.633100	0.992970	0.159070
O1161	O116	0.299770	0.326300	0.492410
O1171	O117	0.966440	0.659630	0.825740
C2171	C217	0.602610	0.910840	0.152070
C2181	C218	0.269270	0.244170	0.485410
C2191	C219	0.935940	0.577510	0.818740
C2201	C220	0.642670	0.004220	0.165050
C2211	C221	0.309340	0.337550	0.498380
C2221	C222	0.976000	0.670880	0.831720
C2231	C223	0.556280	0.970790	0.151320
C2241	C224	0.222950	0.304130	0.484650
C2251	C225	0.889620	0.637460	0.817980
C2261	C226	0.549230	0.965370	0.176650
C2271	C227	0.215900	0.298700	0.509980
C2281	C228	0.882570	0.632030	0.843320
C2291	C229	0.508370	0.878390	0.163250
C2301	C230	0.175030	0.211730	0.496580
C2311	C231	0.841700	0.545060	0.829910
C2321	C232	0.599680	0.909720	0.176220
C2331	C233	0.266350	0.243060	0.509550
C2341	C234	0.933020	0.576390	0.842880
C2351	C235	0.336150	0.727000	0.161530
C2361	C236	0.002820	0.060330	0.494860
C2371	C237	0.669480	0.393660	0.828200
C2381	C238	0.282210	0.706460	0.161500
C2391	C239	0.948880	0.039800	0.494840
C2401	C240	0.615550	0.373130	0.828170
C2411	C241	0.302680	0.673070	0.161390
C2421	C242	0.969350	0.006400	0.494730
C2431	C243	0.636010	0.339730	0.828060
C2441	C244	0.311330	0.731290	0.161560
C2451	C245	0.978000	0.064620	0.494890
C2461	C246	0.644660	0.397950	0.828220
H911	H91	0.314660	0.753830	0.161660
H921	H92	0.981330	0.087160	0.494990
H931	H93	0.648000	0.420500	0.828330
C2471	C247	0.277880	0.677360	0.161420
C2481	C248	0.944550	0.010690	0.494750
C2491	C249	0.611220	0.344030	0.828080
H941	H94	0.255320	0.658130	0.161420
H951	H95	0.921980	0.991460	0.494750
H961	H96	0.588650	0.324800	0.828090
C2501	C250	0.331830	0.697880	0.161440
C2511	C251	0.998500	0.031220	0.494780
C2521	C252	0.665160	0.364550	0.828110
H971	H97	0.351040	0.694550	0.161460
H981	H98	0.017710	0.027890	0.494800
H991	H99	0.684380	0.361220	0.828130
C2531	C253	0.423700	0.828790	0.162050
C2541	C254	0.090360	0.162120	0.495380
C2551	C255	0.757030	0.495450	0.828710
C2561	C256	0.452290	0.854240	0.162380
C2571	C257	0.118950	0.187570	0.495710
C2581	C258	0.785620	0.520900	0.829050
C2591	C259	0.478050	0.851310	0.162860
C2601	C260	0.144710	0.184650	0.496200
C2611	C261	0.811380	0.517980	0.829530
C2621	C262	0.474470	0.822310	0.162990
C2631	C263	0.141140	0.155640	0.496320
C2641	C264	0.807810	0.488980	0.829650
C2651	C265	0.445800	0.796890	0.162650
C2661	C266	0.112460	0.130220	0.495980
C2671	C267	0.779130	0.463560	0.829320
C2681	C268	0.420410	0.800120	0.162180
C2691	C269	0.087080	0.133450	0.495520
C2701	C270	0.753750	0.466790	0.828850
H1001	H100	0.454370	0.876290	0.162280
H1011	H101	0.121040	0.209620	0.495610
H1021	H102	0.787700	0.542950	0.828940
H1031	H103	0.493920	0.819420	0.163360
H1041	H104	0.160590	0.152750	0.496690
H1051	H105	0.827250	0.486090	0.830020
H1061	H106	0.404090	0.831400	0.161690
H1071	H107	0.070760	0.164730	0.495030
H1081	H108	0.737430	0.498070	0.828360
H1091	H109	0.443360	0.774710	0.162770
H1101	H110	0.110020	0.108050	0.496100
H1111	H111	0.776690	0.441380	0.829430
C2711	C271	0.316550	0.585500	0.161590
C2721	C272	0.983210	0.918840	0.494930
C2731	C273	0.649880	0.252170	0.828260
C2741	C274	0.313420	0.556960	0.161940
C2751	C275	0.980080	0.890300	0.495270
C2761	C276	0.646750	0.223630	0.828600
C2771	C277	0.284730	0.531190	0.162480
C2781	C278	0.951390	0.864530	0.495810
C2791	C279	0.618060	0.197860	0.829140
C2801	C280	0.259250	0.534690	0.162610
C2811	C281	0.925920	0.868020	0.495950
C2821	C282	0.592580	0.201350	0.829280
C2831	C283	0.262500	0.563340	0.162270
C2841	C284	0.929170	0.896680	0.495600
C2851	C285	0.595830	0.230010	0.828940
C2861	C286	0.291150	0.588740	0.161780
C2871	C287	0.957820	0.922070	0.495110
C2881	C288	0.624480	0.255410	0.828440
H1121	H112	0.333430	0.554950	0.161820
H1131	H113	0.000090	0.888280	0.495150
H1141	H114	0.666760	0.221610	0.828480
H1151	H115	0.236910	0.515210	0.163020
H1161	H116	0.903580	0.848550	0.496360
H1171	H117	0.570240	0.181880	0.829690
H1181	H118	0.338780	0.605110	0.161220
H1191	H119	0.005450	0.938450	0.494550
H1201	H120	0.672110	0.271780	0.827880
H1211	H121	0.242750	0.565760	0.162420
H1221	H122	0.909420	0.899100	0.495750
H1231	H123	0.576080	0.232430	0.829090
C2891	C289	0.180340	0.691630	0.161950
C2901	C290	0.847010	0.024960	0.495290
C2911	C291	0.513670	0.358300	0.828620
C2921	C292	0.154780	0.694540	0.162310
C2931	C293	0.821450	0.027870	0.495640
C2941	C294	0.488120	0.361200	0.828970
C2951	C295	0.157540	0.723130	0.162850
C2961	C296	0.824210	0.056460	0.496180
C2971	C297	0.490870	0.389790	0.829510
C2981	C298	0.186470	0.748710	0.163000
C2991	C299	0.853140	0.082050	0.496340
C3001	C300	0.519810	0.415380	0.829670
C3011	C301	0.212000	0.745690	0.162650
C3021	C302	0.878670	0.079030	0.495980
C3031	C303	0.545340	0.412360	0.829320
C3041	C304	0.208930	0.717160	0.162130
C3051	C305	0.875600	0.050500	0.495460
C3061	C306	0.542270	0.383830	0.828800
H1241	H124	0.132780	0.674460	0.162170
H1251	H125	0.799450	0.007800	0.495510
H1261	H126	0.466120	0.341130	0.828840
H1271	H127	0.189230	0.770990	0.163420
H1281	H128	0.855890	0.104320	0.496750
H1291	H129	0.522560	0.437650	0.830080
H1301	H130	0.177870	0.669480	0.161560
H1311	H131	0.844530	0.002820	0.494890
H1321	H132	0.511200	0.336150	0.828220
H1331	H133	0.234130	0.765540	0.162800
H1341	H134	0.900800	0.098870	0.496130
H1351	H135	0.567470	0.432200	0.829460
C3071	C307	0.390910	0.774090	0.161910
C3081	C308	0.057570	0.107420	0.495240
C3091	C309	0.724240	0.440750	0.828570
C3101	C310	0.366010	0.752510	0.161710
C3111	C311	0.032680	0.085840	0.495050
C3121	C312	0.699340	0.419170	0.828380
C3131	C313	0.294720	0.618250	0.161570
C3141	C314	0.961390	0.951590	0.494900
C3151	C315	0.628060	0.284920	0.828230
C3161	C316	0.298220	0.643200	0.161450
C3171	C317	0.964880	0.976530	0.494790
C3181	C318	0.631550	0.309860	0.828120
C3191	C319	0.256700	0.710740	0.161670
C3201	C320	0.923370	0.044080	0.495000
C3211	C321	0.590030	0.377410	0.828330
C3221	C322	0.235060	0.713920	0.161860
C3231	C323	0.901730	0.047260	0.495190
C3241	C324	0.568400	0.380590	0.828520
C3251	C325	0.475220	0.572370	0.219210
C3261	C326	0.141880	0.905700	0.552540
C3271	C327	0.808550	0.239030	0.885880
C3281	C328	0.432560	0.530920	0.224930
C3291	C329	0.099230	0.864260	0.558270
C3301	C330	0.765900	0.197590	0.891600
C3311	C331	0.434050	0.534590	0.212300
C3321	C332	0.100720	0.867920	0.545630
C3331	C333	0.767390	0.201250	0.878970
C3341	C334	0.460480	0.557240	0.225310
C3351	C335	0.127150	0.890580	0.558640
C3361	C336	0.793820	0.223910	0.891970
H1361	H136	0.470540	0.566220	0.230350
H1371	H137	0.137210	0.899550	0.563680
H1381	H138	0.803870	0.232890	0.897020
C3371	C337	0.419330	0.519560	0.218430
C3381	C338	0.086000	0.852890	0.551770
C3391	C339	0.752670	0.186220	0.885100
H1391	H139	0.397490	0.499350	0.218160
H1401	H140	0.064160	0.832690	0.551490
H1411	H141	0.730830	0.166020	0.884820
C3401	C340	0.462050	0.561040	0.212690
C3411	C341	0.128720	0.894380	0.546020
C3421	C342	0.795380	0.227710	0.879350
H1421	H142	0.473330	0.572900	0.207960
H1431	H143	0.139990	0.906230	0.541290
H1441	H144	0.806660	0.239560	0.874630
C3431	C343	0.565080	0.662390	0.228000
C3441	C344	0.231740	0.995720	0.561330
C3451	C345	0.898410	0.329060	0.894670
C3461	C346	0.592240	0.689400	0.228830
C3471	C347	0.258900	0.022730	0.562160
C3481	C348	0.925570	0.356060	0.895490
C3491	C349	0.609330	0.705110	0.222950
C3501	C350	0.276000	0.038450	0.556280
C3511	C351	0.942660	0.371780	0.889620
C3521	C352	0.598570	0.693200	0.216250
C3531	C353	0.265240	0.026540	0.549590
C3541	C354	0.931900	0.359870	0.882920
C3551	C355	0.571490	0.666280	0.215450
C3561	C356	0.238150	0.999610	0.548790
C3571	C357	0.904820	0.332950	0.882120
C3581	C358	0.554720	0.650820	0.221310
C3591	C359	0.221390	0.984150	0.554650
C3601	C360	0.888060	0.317490	0.887980
H1451	H145	0.599990	0.698050	0.234030
H1461	H146	0.266660	0.031390	0.567370
H1471	H147	0.933330	0.364720	0.900700
H1481	H148	0.611240	0.704800	0.211630
H1491	H149	0.277900	0.038140	0.544960
H1501	H150	0.944570	0.371470	0.878290
H1511	H151	0.552120	0.650480	0.232560
H1521	H152	0.218790	0.983820	0.565900
H1531	H153	0.885450	0.317150	0.899230
H1541	H154	0.563580	0.657460	0.210270
H1551	H155	0.230250	0.990800	0.543600
H1561	H156	0.896910	0.324130	0.876930
C3611	C361	0.394150	0.516900	0.187980
C3621	C362	0.060820	0.850240	0.521310
C3631	C363	0.727490	0.183570	0.854650
C3641	C364	0.375460	0.504370	0.182150
C3651	C365	0.042130	0.837700	0.515490
C3661	C366	0.708790	0.171040	0.848820
C3671	C367	0.351430	0.474510	0.182340
C3681	C368	0.018090	0.807840	0.515670
C3691	C369	0.684760	0.141170	0.849000
C3701	C370	0.347230	0.457260	0.188380
C3711	C371	0.013900	0.790600	0.521720
C3721	C372	0.680570	0.123930	0.855050
C3731	C373	0.365960	0.469810	0.194170
C3741	C374	0.032630	0.803140	0.527500
C3751	C375	0.699290	0.136470	0.860830
C3761	C376	0.389180	0.499720	0.194020
C3771	C377	0.055850	0.833050	0.527360
C3781	C378	0.722510	0.166390	0.860690
H1571	H157	0.379160	0.518170	0.177570
H1581	H158	0.045830	0.851500	0.510910
H1591	H159	0.712500	0.184830	0.844240
H1601	H160	0.328940	0.434220	0.188680
H1611	H161	0.995600	0.767550	0.522020
H1621	H162	0.662270	0.100890	0.855350
H1631	H163	0.412040	0.540140	0.187840
H1641	H164	0.078710	0.873470	0.521180
H1651	H165	0.745370	0.206800	0.854510
H1661	H166	0.361910	0.456390	0.198830
H1671	H167	0.028580	0.789730	0.532160
H1681	H168	0.695240	0.123060	0.865500
C3791	C379	0.366680	0.465780	0.244130
C3801	C380	0.033350	0.799120	0.577470
C3811	C381	0.700020	0.132450	0.910800
C3821	C382	0.352210	0.455850	0.250580
C3831	C383	0.018880	0.789180	0.583910
C3841	C384	0.685550	0.122510	0.917250
C3851	C385	0.361640	0.475270	0.256390
C3861	C386	0.028300	0.808610	0.589720
C3871	C387	0.694970	0.141940	0.923060
C3881	C388	0.386230	0.504580	0.255630
C3891	C389	0.052890	0.837920	0.588960
C3901	C390	0.719560	0.171250	0.922300
C3911	C391	0.400610	0.514390	0.249190
C3921	C392	0.067280	0.847720	0.582520
C3931	C393	0.733950	0.181050	0.915850
C3941	C394	0.390730	0.495130	0.243420
C3951	C395	0.057390	0.828470	0.576760
C3961	C396	0.724060	0.161800	0.910090
H1691	H169	0.333310	0.433180	0.251020
H1701	H170	0.999980	0.766510	0.584350
H1711	H171	0.666640	0.099850	0.917690
H1721	H172	0.393960	0.520030	0.260010
H1731	H173	0.060620	0.853360	0.593340
H1741	H174	0.727290	0.186690	0.926670
H1751	H175	0.358910	0.450790	0.239680
H1761	H176	0.025580	0.784120	0.573010
H1771	H177	0.692240	0.117450	0.906350
H1781	H178	0.419210	0.537160	0.248660
H1791	H179	0.085870	0.870500	0.582000
H1801	H180	0.752540	0.203830	0.915330
C3971	C397	0.526850	0.623130	0.220440
C3981	C398	0.193510	0.956460	0.553770
C3991	C399	0.860180	0.289800	0.887110
C4001	C400	0.503400	0.599960	0.219770
C4011	C401	0.170070	0.933300	0.553100
C4021	C402	0.836740	0.266630	0.886430
C4031	C403	0.406480	0.512940	0.200250
C4041	C404	0.073150	0.846270	0.533590
C4051	C405	0.739820	0.179600	0.866920
C4061	C406	0.419690	0.523190	0.205660
C4071	C407	0.086350	0.856530	0.538990
C4081	C408	0.753020	0.189860	0.872330
C4091	C409	0.417120	0.516710	0.231290
C4101	C410	0.083790	0.850040	0.564620
C4111	C411	0.750450	0.183380	0.897950
C4121	C412	0.404810	0.506150	0.236760
C4131	C413	0.071480	0.839490	0.570090
C4141	C414	0.738150	0.172820	0.903430
Zn371	Zn37	0.681890	0.777420	0.232020
Zn381	Zn38	0.348560	0.110750	0.565350
Zn391	Zn39	0.015230	0.444080	0.898680
Zn401	Zn40	0.739380	0.797770	0.225100
Zn411	Zn41	0.406050	0.131110	0.558430
Zn421	Zn42	0.072720	0.464440	0.891760
Zn431	Zn43	0.686470	0.779320	0.216920
Zn441	Zn44	0.353140	0.112650	0.550250
Zn451	Zn45	0.019800	0.445980	0.883580
Zn461	Zn46	0.711220	0.834410	0.224710
Zn471	Zn47	0.377880	0.167740	0.558050
Zn481	Zn48	0.044550	0.501080	0.891380
O1181	O118	0.704720	0.797230	0.224720
O1191	O119	0.371380	0.130560	0.558050
O1201	O120	0.038050	0.463890	0.891390
O1211	O121	0.699820	0.764990	0.237800
O1221	O122	0.366490	0.098320	0.571130
O1231	O123	0.033160	0.431650	0.904460
O1241	O124	0.747460	0.782260	0.217790
O1251	O125	0.414120	0.115600	0.551130
O1261	O126	0.080790	0.448930	0.884460
O1271	O127	0.652740	0.746530	0.218230
O1281	O128	0.319400	0.079860	0.551560
O1291	O129	0.986070	0.413190	0.884900
O1301	O130	0.742730	0.779350	0.232380
O1311	O131	0.409400	0.112680	0.565710
O1321	O132	0.076070	0.446020	0.899040
O1331	O133	0.648200	0.744680	0.229670
O1341	O134	0.314870	0.078010	0.563000
O1351	O135	0.981530	0.411340	0.896340
O1361	O136	0.706970	0.768940	0.211530
O1371	O137	0.373640	0.102270	0.544870
O1381	O138	0.040300	0.435600	0.878200
O1391	O139	0.677450	0.800880	0.211560
O1401	O140	0.344120	0.134220	0.544890
O1411	O141	0.010790	0.467550	0.878230
O1421	O142	0.694080	0.842020	0.231620
O1431	O143	0.360750	0.175350	0.564960
O1441	O144	0.027410	0.508680	0.898290
O1451	O145	0.697020	0.843330	0.217400
O1461	O146	0.363680	0.176670	0.550730
O1471	O147	0.030350	0.510000	0.884070
O1481	O148	0.671090	0.798910	0.237220
O1491	O149	0.337750	0.132240	0.570560
O1501	O150	0.004420	0.465580	0.903890
O1511	O151	0.770220	0.833860	0.225650
O1521	O152	0.436880	0.167190	0.558980
O1531	O153	0.103550	0.500520	0.892320
O1541	O154	0.749240	0.862050	0.225180
O1551	O155	0.415910	0.195390	0.558520
O1561	O156	0.082570	0.528720	0.891850
C4151	C415	0.682770	0.827500	0.212200
C4161	C416	0.349440	0.160840	0.545540
C4171	C417	0.016100	0.494170	0.878870
C4181	C418	0.772330	0.859390	0.225600
C4191	C419	0.439000	0.192720	0.558940
C4201	C420	0.105660	0.526060	0.892270
C4211	C421	0.677530	0.825990	0.236550
C4221	C422	0.344200	0.159320	0.569890
C4231	C423	0.010870	0.492650	0.903220
C4241	C424	0.725270	0.766810	0.237480
C4251	C425	0.391930	0.100140	0.570810
C4261	C426	0.058600	0.433470	0.904150
C4271	C427	0.638310	0.733660	0.223690
C4281	C428	0.304980	0.066990	0.557020
C4291	C429	0.971650	0.400330	0.890360
C4301	C430	0.732390	0.771200	0.212290
C4311	C431	0.399050	0.104530	0.545620
C4321	C432	0.065720	0.437860	0.878960
Zn491	Zn49	0.874570	0.364520	0.330250
Zn501	Zn50	0.541240	0.697850	0.663580
Zn511	Zn51	0.207900	0.031190	0.996910
Zn521	Zn52	0.903090	0.430940	0.330770
Zn531	Zn53	0.569750	0.764270	0.664110
Zn541	Zn54	0.236420	0.097610	0.997440
Zn551	Zn55	0.258640	0.066620	0.003900
Zn561	Zn56	0.925310	0.399950	0.337230
Zn571	Zn57	0.591980	0.733290	0.670570
Zn581	Zn58	0.933470	0.403010	0.323210
Zn591	Zn59	0.600140	0.736340	0.656550
Zn601	Zn60	0.266810	0.069670	0.989880
O1571	O157	0.907210	0.399590	0.329520
O1581	O158	0.573870	0.732930	0.662850
O1591	O159	0.240540	0.066260	0.996190
O1601	O160	0.843790	0.370250	0.329520
O1611	O161	0.510460	0.703580	0.662860
O1621	O162	0.177120	0.036920	0.996190
O1631	O163	0.250710	0.121980	0.004500
O1641	O164	0.917380	0.455320	0.337830
O1651	O165	0.584050	0.788650	0.671170
O1661	O166	0.238580	0.037080	0.010060
O1671	O167	0.905250	0.370410	0.343390
O1681	O168	0.571920	0.703750	0.676730
O1691	O169	0.864560	0.419560	0.330460
O1701	O170	0.531220	0.752900	0.663790
O1711	O171	0.197890	0.086230	0.997130
O1721	O172	0.198020	0.007140	0.004110
O1731	O173	0.864680	0.340470	0.337440
O1741	O174	0.531350	0.673800	0.670780
O1751	O175	0.270980	0.098180	0.009590
O1761	O176	0.937640	0.431510	0.342920
O1771	O177	0.604310	0.764850	0.676260
O1781	O178	0.292410	0.065290	0.003160
O1791	O179	0.959080	0.398630	0.336500
O1801	O180	0.625750	0.731960	0.669830
O1811	O181	0.914800	0.372350	0.317390
O1821	O182	0.581470	0.705680	0.650720
O1831	O183	0.248140	0.039010	0.984050
O1841	O184	0.967030	0.403300	0.325170
O1851	O185	0.633690	0.736630	0.658500
O1861	O186	0.300360	0.069960	0.991840
O1871	O187	0.872450	0.342630	0.323010
O1881	O188	0.539110	0.675970	0.656340
O1891	O189	0.205780	0.009300	0.989680
O1901	O190	0.920150	0.455370	0.323720
O1911	O191	0.586820	0.788710	0.657050
O1921	O192	0.253490	0.122040	0.990390
O1931	O193	0.944400	0.436100	0.318190
O1941	O194	0.611070	0.769440	0.651520
O1951	O195	0.277740	0.102770	0.984850
C4331	C433	0.974960	0.400650	0.331250
C4341	C434	0.641620	0.733990	0.664590
C4351	C435	0.308290	0.067320	0.997920
C4361	C436	0.937190	0.456260	0.318830
C4371	C437	0.603850	0.789590	0.652170
C4381	C438	0.270520	0.122930	0.985500
C4391	C439	0.889700	0.348160	0.317820
C4401	C440	0.556360	0.681490	0.651150
C4411	C441	0.223030	0.014830	0.984480
C4421	C442	0.841620	0.393700	0.329780
C4431	C443	0.508280	0.727030	0.663110
C4441	C444	0.174950	0.060360	0.996450
C4451	C445	0.213430	0.013160	0.009610
C4461	C446	0.880100	0.346490	0.342940
C4471	C447	0.546770	0.679830	0.676280
C4481	C448	0.266070	0.119920	0.009360
C4491	C449	0.932730	0.453250	0.342700
C4501	C450	0.599400	0.786590	0.676030
C4511	C451	0.271430	0.164920	0.176970
C4521	C452	0.938090	0.498260	0.510300
C4531	C453	0.604760	0.831590	0.843630
C4541	C454	0.273550	0.163540	0.164330
C4551	C455	0.940210	0.496880	0.497670
C4561	C456	0.606880	0.830210	0.831000
C4571	C457	0.274550	0.206000	0.170090
C4581	C458	0.941220	0.539330	0.503420
C4591	C459	0.607880	0.872660	0.836750
C4601	C460	0.271810	0.150320	0.170820
C4611	C461	0.938470	0.483650	0.504150
C4621	C462	0.605140	0.816990	0.837490
H1811	H181	0.270220	0.128520	0.171080
H1821	H182	0.936880	0.461850	0.504410
H1831	H183	0.603550	0.795180	0.837750
C4631	C463	0.275000	0.191360	0.163980
C4641	C464	0.941670	0.524690	0.497310
C4651	C465	0.608330	0.858030	0.830650
H1841	H184	0.275930	0.201370	0.158940
H1851	H185	0.942600	0.534710	0.492270
H1861	H186	0.609260	0.868040	0.825610
C4661	C466	0.272800	0.192830	0.176600
C4671	C467	0.939470	0.526160	0.509940
C4681	C468	0.606140	0.859500	0.843270
H1871	H187	0.272110	0.203990	0.181340
H1881	H188	0.938780	0.537330	0.514670
H1891	H189	0.605440	0.870660	0.848010
C4691	C469	0.267120	0.095590	0.194820
C4701	C470	0.933790	0.428920	0.528160
C4711	C471	0.600450	0.762250	0.861490
C4721	C472	0.260500	0.076340	0.200520
C4731	C473	0.927170	0.409680	0.533850
C4741	C474	0.593840	0.743010	0.867190
C4751	C475	0.247330	0.080200	0.206590
C4761	C476	0.914000	0.413540	0.539930
C4771	C477	0.580660	0.746870	0.873260
C4781	C478	0.241810	0.104400	0.206890
C4791	C479	0.908470	0.437730	0.540230
C4801	C480	0.575140	0.771070	0.873560
C4811	C481	0.248400	0.123610	0.201160
C4821	C482	0.915070	0.456940	0.534490
C4831	C483	0.581740	0.790280	0.867820
C4841	C484	0.260740	0.118990	0.195090
C4851	C485	0.927410	0.452320	0.528420
C4861	C486	0.594070	0.785660	0.861750
H1901	H190	0.265020	0.057930	0.200130
H1911	H191	0.931690	0.391270	0.533470
H1921	H192	0.598350	0.724600	0.866800
H1931	H193	0.231630	0.107860	0.211500
H1941	H194	0.898300	0.441190	0.544830
H1951	H195	0.564970	0.774530	0.878170
H1961	H196	0.276570	0.091810	0.190130
H1971	H197	0.943240	0.425140	0.523470
H1981	H198	0.609900	0.758470	0.856800
H1991	H199	0.243280	0.141620	0.201380
H2001	H200	0.909950	0.474960	0.534710
H2011	H201	0.576620	0.808290	0.868050
C4871	C487	0.275570	0.301730	0.173650
C4881	C488	0.942240	0.635060	0.506980
C4891	C489	0.608910	0.968400	0.840310
C4901	C490	0.275280	0.328510	0.172760
C4911	C491	0.941950	0.661850	0.506090
C4921	C492	0.608610	0.995180	0.839430
C4931	C493	0.273890	0.338810	0.166030
C4941	C494	0.940560	0.672140	0.499360
C4951	C495	0.607230	0.005480	0.832690
C4961	C496	0.272760	0.321560	0.160200
C4971	C497	0.939420	0.654890	0.493540
C4981	C498	0.606090	0.988230	0.826870
C4991	C499	0.273060	0.294690	0.161120
C5001	C500	0.939720	0.628030	0.494450
C5011	C501	0.606390	0.961360	0.827790
C5021	C502	0.274500	0.284800	0.167840
C5031	C503	0.941170	0.618140	0.501170
C5041	C504	0.607830	0.951470	0.834510
H2021	H202	0.276180	0.341310	0.177350
H2031	H203	0.942850	0.674650	0.510680
H2041	H204	0.609520	0.007980	0.844010
H2051	H205	0.271690	0.328970	0.154970
H2061	H206	0.938360	0.662310	0.488300
H2071	H207	0.605030	0.995640	0.821640
H2081	H208	0.276650	0.294180	0.178860
H2091	H209	0.943320	0.627510	0.512190
H2101	H210	0.609990	0.960840	0.845530
H2111	H211	0.272180	0.281610	0.156600
H2121	H212	0.938840	0.614940	0.489930
H2131	H213	0.605510	0.948270	0.823270
C5051	C505	0.271790	0.097290	0.145150
C5061	C506	0.938460	0.430620	0.478490
C5071	C507	0.605120	0.763950	0.811820
C5081	C508	0.266680	0.082470	0.138740
C5091	C509	0.933350	0.415800	0.472070
C5101	C510	0.600020	0.749140	0.805410
C5111	C511	0.256080	0.091500	0.132980
C5121	C512	0.922740	0.424840	0.466320
C5131	C513	0.589410	0.758170	0.799650
C5141	C514	0.251350	0.116060	0.133750
C5151	C515	0.918020	0.449390	0.467080
C5161	C516	0.584690	0.782720	0.800420
C5171	C517	0.256510	0.130790	0.140160
C5181	C518	0.923180	0.464130	0.473490
C5191	C519	0.589840	0.797460	0.806820
C5201	C520	0.266470	0.121290	0.145870
C5211	C521	0.933140	0.454620	0.479210
C5221	C522	0.599800	0.787950	0.812540
H2141	H214	0.270470	0.063610	0.138290
H2151	H215	0.937140	0.396940	0.471620
H2161	H216	0.603810	0.730270	0.804960
H2171	H217	0.243170	0.123470	0.129410
H2181	H218	0.909840	0.456800	0.462740
H2191	H219	0.576500	0.790140	0.796080
H2201	H220	0.279450	0.089800	0.149570
H2211	H221	0.946110	0.423140	0.482910
H2221	H222	0.612780	0.756470	0.816240
H2231	H223	0.252290	0.149340	0.140700
H2241	H224	0.918950	0.482670	0.474030
H2251	H225	0.585620	0.816000	0.807360
C5231	C523	0.265170	0.136810	0.188940
C5241	C524	0.931840	0.470140	0.522270
C5251	C525	0.598510	0.803470	0.855600
C5261	C526	0.268330	0.150360	0.183580
C5271	C527	0.934990	0.483690	0.516910
C5281	C528	0.601660	0.817020	0.850240
C5291	C529	0.274740	0.257220	0.168800
C5301	C530	0.941410	0.590550	0.502140
C5311	C531	0.608080	0.923880	0.835470
C5321	C532	0.274800	0.233980	0.169530
C5331	C533	0.941470	0.567320	0.502860
C5341	C534	0.608130	0.900650	0.836190
C5351	C535	0.272080	0.148060	0.157980
C5361	C536	0.938750	0.481390	0.491310
C5371	C537	0.605410	0.814730	0.824650
C5381	C538	0.270010	0.135620	0.152510
C5391	C539	0.936680	0.468960	0.485850
C5401	C540	0.603350	0.802290	0.819180
C5411	C541	0.666380	0.398320	0.060900
C5421	C542	0.333050	0.731660	0.394230
C5431	C543	0.999710	0.064990	0.727570
C5441	C544	0.612460	0.364810	0.060970
C5451	C545	0.279120	0.698140	0.394310
C5461	C546	0.945790	0.031480	0.727640
C5471	C547	0.645940	0.344420	0.060900
C5481	C548	0.312610	0.677750	0.394240
C5491	C549	0.979270	0.011080	0.727570
C5501	C550	0.637240	0.393950	0.060950
C5511	C551	0.303910	0.727290	0.394280
C5521	C552	0.970580	0.060620	0.727620
H2261	H226	0.633880	0.413140	0.060920
H2271	H227	0.300540	0.746470	0.394250
H2281	H228	0.967210	0.079810	0.727580
C5531	C553	0.616800	0.340040	0.060960
C5541	C554	0.283460	0.673380	0.394290
C5551	C555	0.950130	0.006710	0.727620
H2291	H229	0.597590	0.317470	0.060930
H2301	H230	0.264250	0.650800	0.394260
H2311	H231	0.930920	0.984140	0.727590
C5561	C556	0.670740	0.373560	0.060880
C5571	C557	0.337410	0.706890	0.394220
C5581	C558	0.004070	0.040220	0.727550
H2321	H232	0.693310	0.376940	0.060800
H2331	H233	0.359980	0.710270	0.394140
H2341	H234	0.026640	0.043600	0.727470
C5591	C559	0.736010	0.508000	0.059710
C5601	C560	0.402680	0.841330	0.393040
C5611	C561	0.069350	0.174660	0.726370
C5621	C562	0.761420	0.536680	0.059350
C5631	C563	0.428090	0.870010	0.392680
C5641	C564	0.094760	0.203340	0.726010
C5651	C565	0.790440	0.540280	0.059540
C5661	C566	0.457110	0.873620	0.392870
C5671	C567	0.123780	0.206950	0.726200
C5681	C568	0.793400	0.514590	0.060130
C5691	C569	0.460070	0.847920	0.393460
C5701	C570	0.126740	0.181250	0.726790
C5711	C571	0.767980	0.486010	0.060490
C5721	C572	0.434640	0.819340	0.393820
C5731	C573	0.101310	0.152670	0.727150
C5741	C574	0.739300	0.482670	0.060270
C5751	C575	0.405960	0.816010	0.393600
C5761	C576	0.072630	0.149340	0.726940
H2351	H235	0.758520	0.556090	0.058890
H2361	H236	0.425180	0.889420	0.392230
H2371	H237	0.091850	0.222750	0.725560
H2381	H238	0.815470	0.516700	0.060290
H2391	H239	0.482130	0.850030	0.393620
H2401	H240	0.148800	0.183360	0.726950
H2411	H241	0.713810	0.505500	0.059530
H2421	H242	0.380480	0.838840	0.392860
H2431	H243	0.047150	0.172170	0.726190
H2441	H244	0.770630	0.466450	0.060910
H2451	H245	0.437290	0.799790	0.394250
H2461	H246	0.103960	0.133120	0.727580
C5771	C577	0.631230	0.242640	0.060410
C5781	C578	0.297890	0.575970	0.393740
C5791	C579	0.964560	0.909310	0.727080
C5801	C580	0.634120	0.217080	0.060060
C5811	C581	0.300790	0.550420	0.393400
C5821	C582	0.967450	0.883750	0.726730
C5831	C583	0.662730	0.219810	0.059570
C5841	C584	0.329390	0.553140	0.392900
C5851	C585	0.996060	0.886480	0.726240
C5861	C586	0.688330	0.248730	0.059440
C5871	C587	0.355000	0.582060	0.392770
C5881	C588	0.021670	0.915390	0.726110
C5891	C589	0.685330	0.274260	0.059780
C5901	C590	0.351990	0.607600	0.393120
C5911	C591	0.018660	0.940930	0.726450
C5921	C592	0.656780	0.271220	0.060270
C5931	C593	0.323450	0.604550	0.393600
C5941	C594	0.990110	0.937890	0.726930
H2471	H247	0.614020	0.195100	0.060170
H2481	H248	0.280690	0.528440	0.393510
H2491	H249	0.947350	0.861770	0.726840
H2501	H250	0.710620	0.251460	0.059050
H2511	H251	0.377280	0.584790	0.392390
H2521	H252	0.043950	0.918130	0.725720
H2531	H253	0.609070	0.240180	0.060770
H2541	H254	0.275730	0.573510	0.394110
H2551	H255	0.942400	0.906840	0.727440
H2561	H256	0.705190	0.296380	0.059660
H2571	H257	0.371860	0.629710	0.392990
H2581	H258	0.038520	0.963050	0.726330
C5951	C595	0.502810	0.324530	0.059960
C5961	C596	0.169470	0.657860	0.393300
C5971	C597	0.836140	0.991190	0.726630
C5981	C598	0.474080	0.321090	0.059590
C5991	C599	0.140750	0.654420	0.392920
C6001	C600	0.807420	0.987750	0.726250
C6011	C601	0.470380	0.346430	0.059670
C6021	C602	0.137040	0.679760	0.393010
C6031	C603	0.803710	0.013100	0.726340
C6041	C604	0.496030	0.375210	0.060180
C6051	C605	0.162690	0.708540	0.393510
C6061	C606	0.829360	0.041870	0.726840
C6071	C607	0.524660	0.378530	0.060560
C6081	C608	0.191330	0.711870	0.393890
C6091	C609	0.858000	0.045200	0.727220
C6101	C610	0.528090	0.353240	0.060440
C6111	C611	0.194760	0.686570	0.393770
C6121	C612	0.861420	0.019910	0.727100
H2591	H259	0.454710	0.298670	0.059200
H2601	H260	0.121380	0.632010	0.392530
H2611	H261	0.788050	0.965340	0.725870
H2621	H262	0.493830	0.395110	0.060260
H2631	H263	0.160490	0.728440	0.393590
H2641	H264	0.827160	0.061770	0.726930
H2651	H265	0.505370	0.304860	0.059860
H2661	H266	0.172040	0.638200	0.393190
H2671	H267	0.838700	0.971530	0.726530
H2681	H268	0.544190	0.400820	0.060920
H2691	H269	0.210860	0.734160	0.394250
H2701	H270	0.877520	0.067490	0.727580
C6131	C613	0.713320	0.453150	0.060550
C6141	C614	0.379990	0.786480	0.393880
C6151	C615	0.046650	0.119810	0.727210
C6161	C616	0.691820	0.428210	0.060740
C6171	C617	0.358490	0.761540	0.394070
C6181	C618	0.025150	0.094870	0.727400
C6191	C619	0.653530	0.297340	0.060540
C6201	C620	0.320190	0.630680	0.393880
C6211	C621	0.986860	0.964010	0.727210
C6221	C622	0.650290	0.318950	0.060740
C6231	C623	0.316960	0.652280	0.394070
C6241	C624	0.983630	0.985610	0.727400
C6251	C625	0.582580	0.360360	0.060860
C6261	C626	0.249250	0.693700	0.394190
C6271	C627	0.915920	0.027030	0.727530
C6281	C628	0.557650	0.356910	0.060700
C6291	C629	0.224310	0.690240	0.394030
C6301	C630	0.890980	0.023580	0.727370
Zn611	Zn61	0.005420	0.322380	0.217110
Zn621	Zn62	0.672080	0.655710	0.550450
Zn631	Zn63	0.338750	0.989050	0.883780
Zn641	Zn64	0.008070	0.326560	0.232170
Zn651	Zn65	0.674740	0.659890	0.565500
Zn661	Zn66	0.341400	0.993220	0.898830
Zn671	Zn67	0.971090	0.269150	0.225190
Zn681	Zn68	0.637750	0.602490	0.558520
Zn691	Zn69	0.304420	0.935820	0.891860
Zn701	Zn70	0.035860	0.297430	0.224720
Zn711	Zn71	0.702520	0.630760	0.558060
Zn721	Zn72	0.369190	0.964090	0.891390
O1961	O196	0.005140	0.303890	0.224840
O1971	O197	0.671800	0.637230	0.558180
O1981	O198	0.338470	0.970560	0.891510
O1991	O199	0.005070	0.355330	0.218490
O2001	O200	0.671730	0.688660	0.551820
O2011	O201	0.338400	0.021990	0.885150
O2021	O202	0.977810	0.308200	0.237980
O2031	O203	0.644480	0.641540	0.571320
O2041	O204	0.311140	0.974870	0.904650
O2051	O205	0.947770	0.261020	0.217850
O2061	O206	0.614440	0.594360	0.551180
O2071	O207	0.281110	0.927690	0.884520
O2081	O208	0.008430	0.360120	0.229910
O2091	O209	0.675090	0.693450	0.563240
O2101	O210	0.341760	0.026790	0.896580
O2111	O211	0.975140	0.301510	0.211600
O2121	O212	0.641810	0.634850	0.544930
O2131	O213	0.308470	0.968180	0.878260
O2141	O214	0.949110	0.265660	0.232450
O2151	O215	0.615780	0.598990	0.565780
O2161	O216	0.282450	0.932320	0.899110
O2171	O217	0.976380	0.238370	0.225770
O2181	O218	0.643050	0.571700	0.559110
O2191	O219	0.309720	0.905040	0.892440
O2201	O220	0.058620	0.311360	0.217310
O2211	O221	0.725290	0.644690	0.550650
O2221	O222	0.391950	0.978030	0.883980
O2231	O223	0.025580	0.259470	0.225250
O2241	O224	0.692250	0.592810	0.558580
O2251	O225	0.358920	0.926140	0.891910
O2261	O226	0.036770	0.333010	0.211920
O2271	O227	0.703430	0.666340	0.545250
O2281	O228	0.370100	0.999670	0.878580
O2291	O229	0.040620	0.337520	0.237280
O2301	O230	0.707290	0.670850	0.570610
O2311	O231	0.373950	0.004190	0.903950
O2321	O232	0.060910	0.314870	0.231580
O2331	O233	0.727580	0.648200	0.564910
O2341	O234	0.394240	0.981530	0.898250
C6311	C631	0.999860	0.236350	0.225720
C6321	C632	0.666520	0.569680	0.559050
C6331	C633	0.333190	0.903010	0.892380
C6341	C634	0.061410	0.331310	0.236540
C6351	C635	0.728070	0.664650	0.569870
C6361	C636	0.394740	0.997980	0.903200
C6371	C637	0.057650	0.326990	0.212350
C6381	C638	0.724320	0.660320	0.545690
C6391	C639	0.390980	0.993650	0.879020
C6401	C640	0.006590	0.369700	0.223950
C6411	C641	0.673250	0.703030	0.557280
C6421	C642	0.339920	0.036360	0.890610
C6431	C643	0.952040	0.276000	0.212320
C6441	C644	0.618710	0.609330	0.545650
C6451	C645	0.285370	0.942670	0.878990
C6461	C646	0.954090	0.282820	0.237610
C6471	C647	0.620750	0.616160	0.570940
C6481	C648	0.287420	0.949490	0.904280
C6491	C649	0.471230	0.496020	0.010150
C6501	C650	0.137890	0.829350	0.343490
C6511	C651	0.804560	0.162690	0.676820
C6521	C652	0.134020	0.828520	0.330860
C6531	C653	0.800690	0.161860	0.664190
C6541	C654	0.467360	0.495190	0.997530
C6551	C655	0.508830	0.537610	0.003300
C6561	C656	0.175490	0.870940	0.336630
C6571	C657	0.842160	0.204270	0.669960
C6581	C658	0.456120	0.481620	0.004000
C6591	C659	0.122790	0.814950	0.337340
C6601	C660	0.789450	0.148290	0.670670
H2711	H271	0.436000	0.459700	0.004250
H2721	H272	0.102670	0.793030	0.337580
H2731	H273	0.769340	0.126370	0.670910
C6611	C661	0.160270	0.856500	0.330520
C6621	C662	0.826930	0.189830	0.663850
C6631	C663	0.493600	0.523170	0.997190
H2741	H274	0.169170	0.866780	0.325490
H2751	H275	0.835840	0.200110	0.658820
H2761	H276	0.502510	0.533440	0.992160
C6641	C664	0.497650	0.524080	0.009800
C6651	C665	0.164320	0.857410	0.343140
C6661	C666	0.830990	0.190750	0.676470
H2771	H277	0.509630	0.535080	0.014540
H2781	H278	0.176290	0.868420	0.347870
H2791	H279	0.842960	0.201750	0.681200
C6671	C667	0.453230	0.454950	0.034380
C6681	C668	0.119900	0.788290	0.367710
C6691	C669	0.786570	0.121620	0.701050
C6701	C670	0.440870	0.435800	0.040140
C6711	C671	0.107540	0.769140	0.373470
C6721	C672	0.774200	0.102470	0.706810
C6731	C673	0.411740	0.410540	0.039780
C6741	C674	0.078410	0.743880	0.373110
C6751	C675	0.745070	0.077210	0.706440
C6761	C676	0.395050	0.405440	0.033600
C6771	C677	0.061720	0.738770	0.366930
C6781	C678	0.728380	0.072110	0.700260
C6791	C679	0.407430	0.424620	0.027870
C6801	C680	0.074090	0.757950	0.361210
C6811	C681	0.740760	0.091290	0.694540
C6821	C682	0.436620	0.449200	0.028220
C6831	C683	0.103290	0.782530	0.361550
C6841	C684	0.769950	0.115860	0.694890
H2801	H280	0.454230	0.440240	0.044830
H2811	H281	0.120900	0.773580	0.378160
H2821	H282	0.787570	0.106910	0.711500
H2831	H283	0.372580	0.386190	0.033160
H2841	H284	0.039250	0.719520	0.366490
H2851	H285	0.705920	0.052850	0.699820
H2861	H286	0.475910	0.473890	0.034670
H2871	H287	0.142570	0.807220	0.368010
H2881	H288	0.809240	0.140560	0.701340
H2891	H289	0.394460	0.419960	0.023120
H2901	H290	0.061130	0.753300	0.356450
H2911	H291	0.727800	0.086630	0.689780
C6851	C685	0.265920	0.959910	0.327710
C6861	C686	0.932590	0.293240	0.661050
C6871	C687	0.599250	0.626580	0.994380
C6881	C688	0.293140	0.986810	0.326820
C6891	C689	0.959810	0.320150	0.660150
C6901	C690	0.626480	0.653480	0.993490
C6911	C691	0.308900	0.004250	0.332650
C6921	C692	0.975570	0.337590	0.665980
C6931	C693	0.642230	0.670920	0.999320
C6941	C694	0.630060	0.660850	0.006030
C6951	C695	0.296730	0.994180	0.339360
C6961	C696	0.963400	0.327520	0.672700
C6971	C697	0.602930	0.634040	0.006900
C6981	C698	0.269600	0.967370	0.340230
C6991	C699	0.936260	0.300700	0.673560
C7001	C700	0.587500	0.616850	0.001090
C7011	C701	0.254160	0.950180	0.334420
C7021	C702	0.920830	0.283520	0.667750
H2921	H292	0.301980	0.994060	0.321600
H2931	H293	0.968650	0.327390	0.654930
H2941	H294	0.635310	0.660720	0.988270
H2951	H295	0.641650	0.673820	0.010620
H2961	H296	0.308320	0.007150	0.343960
H2971	H297	0.974990	0.340480	0.677290
H2981	H298	0.254020	0.946640	0.323190
H2991	H299	0.920690	0.279970	0.656520
H3001	H300	0.587360	0.613300	0.989860
H3011	H301	0.593960	0.626640	0.012100
H3021	H302	0.260630	0.959970	0.345430
H3031	H303	0.927300	0.293300	0.678760
C7031	C703	0.118440	0.796840	0.306630
C7041	C704	0.785110	0.130180	0.639960
C7051	C705	0.451780	0.463510	0.973290
C7061	C706	0.109070	0.782310	0.300200
C7071	C707	0.775740	0.115640	0.633530
C7081	C708	0.442410	0.448970	0.966860
C7091	C709	0.079950	0.757450	0.299400
C7101	C710	0.746620	0.090780	0.632740
C7111	C711	0.413280	0.424110	0.966070
C7121	C712	0.060250	0.747900	0.305170
C7131	C713	0.726910	0.081240	0.638500
C7141	C714	0.393580	0.414570	0.971830
C7151	C715	0.069750	0.762520	0.311610
C7161	C716	0.736420	0.095850	0.644940
C7171	C717	0.403080	0.429180	0.978270
C7181	C718	0.098930	0.786820	0.312350
C7191	C719	0.765600	0.120160	0.645680
C7201	C720	0.432260	0.453490	0.979010
H3041	H304	0.124710	0.790130	0.295850
H3051	H305	0.791380	0.123470	0.629190
H3061	H306	0.458040	0.456800	0.962520
H3071	H307	0.037710	0.728790	0.304700
H3081	H308	0.704380	0.062130	0.638030
H3091	H309	0.371050	0.395460	0.971360
H3101	H310	0.141100	0.815630	0.307180
H3111	H311	0.807760	0.148970	0.640520
H3121	H312	0.474430	0.482300	0.973850
H3131	H313	0.054570	0.754640	0.316030
H3141	H314	0.721240	0.087970	0.649360
H3151	H315	0.387910	0.421300	0.982700
C7211	C721	0.449770	0.467270	0.022080
C7221	C722	0.116440	0.800610	0.355420
C7231	C723	0.783110	0.133940	0.688750
C7241	C724	0.459990	0.481100	0.016740
C7251	C725	0.126660	0.814430	0.350080
C7261	C726	0.793330	0.147770	0.683410
C7271	C727	0.559700	0.589120	0.002030
C7281	C728	0.226370	0.922450	0.335360
C7291	C729	0.893040	0.255780	0.668700
C7301	C730	0.536480	0.565750	0.002740
C7311	C731	0.203150	0.899090	0.336080
C7321	C732	0.869810	0.232420	0.669410
C7331	C733	0.119960	0.813210	0.324490
C7341	C734	0.786620	0.146550	0.657830
C7351	C735	0.453290	0.479880	0.991160
C7361	C736	0.109600	0.800930	0.319010
C7371	C737	0.776270	0.134270	0.652350
C7381	C738	0.442940	0.467600	0.985680
Zn731	Zn73	0.717650	0.747050	0.005210
Zn741	Zn74	0.384310	0.080390	0.338550
Zn751	Zn75	0.050980	0.413720	0.671880
Zn761	Zn76	0.382230	0.075620	0.323520
Zn771	Zn77	0.048900	0.408950	0.656850
Zn781	Zn78	0.715560	0.742290	0.990180
Zn791	Zn79	0.402450	0.133230	0.330380
Zn801	Zn80	0.069110	0.466560	0.663720
Zn811	Zn81	0.735780	0.799900	0.997050
Zn821	Zn82	0.439480	0.105660	0.330770
Zn831	Zn83	0.106140	0.438990	0.664110
Zn841	Zn84	0.772810	0.772330	0.997440
O2351	O235	0.402130	0.098710	0.330760
O2361	O236	0.068790	0.432050	0.664100
O2371	O237	0.735460	0.765380	0.997430
O2381	O238	0.684230	0.713980	0.003950
O2391	O239	0.350900	0.047310	0.337280
O2401	O240	0.017560	0.380640	0.670620
O2411	O241	0.370180	0.093660	0.317640
O2421	O242	0.036850	0.426990	0.650970
O2431	O243	0.703520	0.760330	0.984310
O2441	O244	0.720350	0.807850	0.004370
O2451	O245	0.387020	0.141190	0.337710
O2461	O246	0.053690	0.474520	0.671040
O2471	O247	0.349100	0.042230	0.325870
O2481	O248	0.015760	0.375560	0.659200
O2491	O249	0.682430	0.708900	0.992540
O2501	O250	0.708400	0.767990	0.010760
O2511	O251	0.375060	0.101330	0.344100
O2521	O252	0.041730	0.434660	0.677430
O2531	O253	0.383910	0.136330	0.323110
O2541	O254	0.050570	0.469670	0.656440
O2551	O255	0.717240	0.803000	0.989780
O2561	O256	0.438420	0.164350	0.329820
O2571	O257	0.105090	0.497680	0.663150
O2581	O258	0.771760	0.831020	0.996490
O2591	O259	0.781890	0.757960	0.004730
O2601	O260	0.448560	0.091290	0.338070
O2611	O261	0.115230	0.424630	0.671400
O2621	O262	0.466830	0.143670	0.330400
O2631	O263	0.133500	0.477000	0.663730
O2641	O264	0.800160	0.810340	0.997070
O2651	O265	0.738730	0.736650	0.010320
O2661	O266	0.405400	0.069990	0.343660
O2671	O267	0.072070	0.403320	0.676990
O2681	O268	0.403700	0.064380	0.318440
O2691	O269	0.070370	0.397720	0.651770
O2701	O270	0.737040	0.731050	0.985100
O2711	O271	0.447480	0.089430	0.323720
O2721	O272	0.114140	0.422770	0.657060
O2731	O273	0.780810	0.756100	0.990390
C7391	C739	0.464030	0.166640	0.329940
C7401	C740	0.130700	0.499970	0.663270
C7411	C741	0.797370	0.833300	0.996600
C7421	C742	0.431220	0.072100	0.318920
C7431	C743	0.097880	0.405430	0.652250
C7441	C744	0.764550	0.738760	0.985580
C7451	C745	0.765560	0.742480	0.009760
C7461	C746	0.432230	0.075820	0.343090
C7471	C747	0.098890	0.409150	0.676420
C7481	C748	0.337840	0.032820	0.331850
C7491	C749	0.004510	0.366150	0.665190
C7501	C750	0.671170	0.699480	0.998520
C7511	C751	0.710230	0.793210	0.009970
C7521	C752	0.376900	0.126540	0.343300
C7531	C753	0.043560	0.459870	0.676640
C7541	C754	0.371760	0.119000	0.317970
C7551	C755	0.038430	0.452340	0.651300
C7561	C756	0.705090	0.785670	0.984640
C7571	C757	0.677100	0.866850	0.045460
C7581	C758	0.343770	0.200190	0.378790
C7591	C759	0.010430	0.533520	0.712130
C7601	C760	0.673790	0.904950	0.052260
C7611	C761	0.340450	0.238280	0.385590
C7621	C762	0.007120	0.571610	0.718920
C7631	C763	0.675060	0.863840	0.058100
C7641	C764	0.341730	0.197170	0.391440
C7651	C765	0.008390	0.530510	0.724770
C7661	C766	0.675570	0.893310	0.045770
C7671	C767	0.342230	0.226640	0.379100
C7681	C768	0.008900	0.559970	0.712430
H3161	H316	0.676160	0.904940	0.041010
H3171	H317	0.342830	0.238280	0.374340
H3181	H318	0.009500	0.571610	0.707670
C7691	C769	0.673460	0.890140	0.058400
C7701	C770	0.340120	0.223470	0.391730
C7711	C771	0.006790	0.556810	0.725060
H3191	H319	0.672490	0.899390	0.063420
H3201	H320	0.339160	0.232720	0.396750
H3211	H321	0.005820	0.566050	0.730080
C7721	C772	0.676840	0.852150	0.051640
C7731	C773	0.343510	0.185490	0.384970
C7741	C774	0.010170	0.518820	0.718310
H3221	H322	0.678530	0.831990	0.051420
H3231	H323	0.345190	0.165320	0.384760
H3241	H324	0.011860	0.498650	0.718090
C7751	C775	0.682590	0.801890	0.027710
C7761	C776	0.349260	0.135220	0.361040
C7771	C777	0.015930	0.468560	0.694370
C7781	C778	0.689090	0.789270	0.021980
C7791	C779	0.355760	0.122610	0.355320
C7801	C780	0.022430	0.455940	0.688650
C7811	C781	0.701040	0.805940	0.015810
C7821	C782	0.367710	0.139270	0.349140
C7831	C783	0.034370	0.472610	0.682470
C7841	C784	0.705520	0.835280	0.015450
C7851	C785	0.372190	0.168620	0.348780
C7861	C786	0.038860	0.501950	0.682120
C7871	C787	0.699040	0.847880	0.021210
C7881	C788	0.365700	0.181210	0.354550
C7891	C789	0.032370	0.514550	0.687880
C7901	C790	0.687870	0.831290	0.027370
C7911	C791	0.354530	0.164630	0.360710
C7921	C792	0.021200	0.497960	0.694040
H3251	H325	0.685420	0.766650	0.022420
H3261	H326	0.352090	0.099990	0.355750
H3271	H327	0.018750	0.433320	0.689080
H3281	H328	0.714740	0.848640	0.010770
H3291	H329	0.381410	0.181970	0.344100
H3301	H330	0.048080	0.515300	0.677430
H3311	H331	0.674060	0.788950	0.032470
H3321	H332	0.340720	0.122280	0.365800
H3331	H333	0.007390	0.455620	0.699130
H3341	H334	0.703290	0.870720	0.020930
H3351	H335	0.369960	0.204060	0.354260
H3361	H336	0.036620	0.537390	0.687600
C7931	C793	0.676470	0.799580	0.077350
C7941	C794	0.343140	0.132920	0.410680
C7951	C795	0.009810	0.466250	0.744010
C7961	C796	0.681400	0.789820	0.083760
C7971	C797	0.348060	0.123150	0.417100
C7981	C798	0.014730	0.456480	0.750430
C7991	C799	0.692070	0.809480	0.089530
C8001	C800	0.358740	0.142810	0.422860
C8011	C801	0.025400	0.476140	0.756190
C8021	C802	0.697070	0.838860	0.088750
C8031	C803	0.363740	0.172190	0.422080
C8041	C804	0.030410	0.505530	0.755420
C8051	C805	0.692100	0.848500	0.082340
C8061	C806	0.358770	0.181830	0.415670
C8071	C807	0.025440	0.515170	0.749000
C8081	C808	0.682050	0.828990	0.076620
C8091	C809	0.348720	0.162330	0.409950
C8101	C810	0.015380	0.495660	0.743290
H3371	H337	0.677380	0.767080	0.084220
H3381	H338	0.344050	0.100420	0.417550
H3391	H339	0.010720	0.433750	0.750880
H3401	H340	0.705310	0.854480	0.093090
H3411	H341	0.371980	0.187810	0.426430
H3421	H342	0.038650	0.521150	0.759760
H3431	H343	0.668730	0.784400	0.072920
H3441	H344	0.335400	0.117740	0.406260
H3451	H345	0.002070	0.451070	0.739590
H3461	H346	0.696520	0.871330	0.081800
H3471	H347	0.363180	0.204670	0.415130
H3481	H348	0.029850	0.538000	0.748460
C8111	C811	0.674590	0.994940	0.061090
C8121	C812	0.341260	0.328280	0.394430
C8131	C813	0.007920	0.661610	0.727760
C8141	C814	0.674820	0.022080	0.062000
C8151	C815	0.341490	0.355410	0.395340
C8161	C816	0.008160	0.688740	0.728670
C8171	C817	0.673950	0.038280	0.056180
C8181	C818	0.340620	0.371610	0.389510
C8191	C819	0.007280	0.704950	0.722850
C8201	C820	0.672890	0.026710	0.049440
C8211	C821	0.339560	0.360040	0.382780
C8221	C822	0.006230	0.693370	0.716110
C8231	C823	0.672670	0.999640	0.048560
C8241	C824	0.339330	0.332970	0.381890
C8251	C825	0.006000	0.666310	0.715230
C8261	C826	0.673480	0.983710	0.054370
C8271	C827	0.340150	0.317040	0.387700
C8281	C828	0.006810	0.650370	0.721040
H3491	H349	0.675620	0.030450	0.067240
H3501	H350	0.342280	0.363780	0.400570
H3511	H351	0.008950	0.697110	0.733910
H3521	H352	0.672200	0.038680	0.044860
H3531	H353	0.338870	0.372020	0.378190
H3541	H354	0.005540	0.705350	0.711520
H3551	H355	0.675260	0.982680	0.065620
H3561	H356	0.341930	0.316010	0.398950
H3571	H357	0.008600	0.649340	0.732280
H3581	H358	0.671850	0.991090	0.043350
H3591	H359	0.338520	0.324420	0.376680
H3601	H360	0.005190	0.657760	0.710010
C8291	C829	0.683400	0.844710	0.033520
C8301	C830	0.350070	0.178040	0.366860
C8311	C831	0.016740	0.511380	0.700190
C8321	C832	0.680230	0.855200	0.038870
C8331	C833	0.346900	0.188530	0.372210
C8341	C834	0.013560	0.521870	0.705540
C8351	C835	0.678600	0.839780	0.069970
C8361	C836	0.345270	0.173120	0.403300
C8371	C837	0.011930	0.506450	0.736640
C8381	C838	0.676560	0.850050	0.064490
C8391	C839	0.343230	0.183390	0.397820
C8401	C840	0.009890	0.516720	0.731160
C8411	C841	0.673380	0.932630	0.052750
C8421	C842	0.340050	0.265970	0.386080
C8431	C843	0.006720	0.599300	0.719420
C8441	C844	0.673330	0.955900	0.053430
C8451	C845	0.340000	0.289230	0.386760
C8461	C846	0.006660	0.622560	0.720100
C8471	C847	0.841560	0.732310	0.169830
C8481	C848	0.508220	0.065640	0.503160
C8491	C849	0.174890	0.398980	0.836500
C8501	C850	0.800380	0.733710	0.164050
C8511	C851	0.467050	0.067050	0.497390
C8521	C852	0.133710	0.400380	0.830720
C8531	C853	0.803860	0.736080	0.176690
C8541	C854	0.470530	0.069420	0.510030
C8551	C855	0.137190	0.402750	0.843360
C8561	C856	0.826570	0.731900	0.163720
C8571	C857	0.493230	0.065230	0.497050
C8581	C858	0.159900	0.398560	0.830380
H3611	H361	0.835620	0.730760	0.158680
H3621	H362	0.502280	0.064090	0.492020
H3631	H363	0.168950	0.397420	0.825350
C8591	C859	0.788970	0.735760	0.170540
C8601	C860	0.455640	0.069090	0.503870
C8611	C861	0.122310	0.402430	0.837200
H3641	H364	0.768910	0.737630	0.170790
H3651	H365	0.435580	0.070970	0.504120
H3661	H366	0.102250	0.404300	0.837450
C8621	C862	0.830210	0.734350	0.176340
C8631	C863	0.496870	0.067690	0.509670
C8641	C864	0.163540	0.401020	0.843000
H3671	H367	0.842010	0.735040	0.181080
H3681	H368	0.508680	0.068370	0.514410
H3691	H369	0.175340	0.401700	0.847740
C8651	C865	0.935770	0.730510	0.173540
C8661	C866	0.602440	0.063850	0.506870
C8671	C867	0.269110	0.397180	0.840200
C8681	C868	0.963010	0.731040	0.172700
C8691	C869	0.629680	0.064380	0.506040
C8701	C870	0.296340	0.397710	0.839370
C8711	C871	0.975270	0.733120	0.166000
C8721	C872	0.641940	0.066450	0.499340
C8731	C873	0.308610	0.399790	0.832670
C8741	C874	0.959530	0.734590	0.160150
C8751	C875	0.626190	0.067920	0.493490
C8761	C876	0.292860	0.401250	0.826820
C8771	C877	0.932210	0.734060	0.161010
C8781	C878	0.598870	0.067390	0.494340
C8791	C879	0.265540	0.400720	0.827680
C8801	C880	0.920340	0.732030	0.167700
C8811	C881	0.587010	0.065360	0.501040
C8821	C882	0.253670	0.398700	0.834370
H3701	H370	0.974600	0.729840	0.177310
H3711	H371	0.641270	0.063170	0.510640
H3721	H372	0.307940	0.396510	0.843980
H3731	H373	0.968440	0.736160	0.154940
H3741	H374	0.635110	0.069500	0.488270
H3751	H375	0.301770	0.402830	0.821610
H3761	H376	0.926720	0.728970	0.178730
H3771	H377	0.593390	0.062300	0.512060
H3781	H378	0.260060	0.395640	0.845390
H3791	H379	0.920320	0.735270	0.156470
H3801	H380	0.586990	0.068600	0.489800
H3811	H381	0.253660	0.401940	0.823140
C8831	C883	0.786870	0.760340	0.200880
C8841	C884	0.453540	0.093670	0.534210
C8851	C885	0.120210	0.427000	0.867550
C8861	C886	0.774630	0.767150	0.206660
C8871	C887	0.441290	0.100480	0.540000
C8881	C888	0.107960	0.433820	0.873330
C8891	C889	0.744820	0.761480	0.206490
C8901	C890	0.411490	0.094810	0.539820
C8911	C891	0.078160	0.428140	0.873160
C8921	C892	0.727350	0.747930	0.200500
C8931	C893	0.394020	0.081270	0.533830
C8941	C894	0.060680	0.414600	0.867160
C8951	C895	0.739610	0.741100	0.194750
C8961	C896	0.406280	0.074430	0.528090
C8971	C897	0.072950	0.407770	0.861420
C8981	C898	0.769470	0.747630	0.194890
C8991	C899	0.436140	0.080970	0.528220
C9001	C900	0.102810	0.414300	0.861560
H3821	H382	0.788600	0.777610	0.211200
H3831	H383	0.455260	0.110940	0.544540
H3841	H384	0.121930	0.444280	0.877870
H3851	H385	0.704350	0.743290	0.200210
H3861	H386	0.371010	0.076620	0.533540
H3871	H387	0.037680	0.409950	0.866870
H3881	H388	0.810070	0.765570	0.201010
H3891	H389	0.476730	0.098900	0.534340
H3901	H390	0.143400	0.432230	0.867670
H3911	H391	0.726030	0.731350	0.190130
H3921	H392	0.392700	0.064690	0.523460
H3931	H393	0.059360	0.398020	0.856800
C9011	C901	0.785590	0.751560	0.139870
C9021	C902	0.452260	0.084900	0.473200
C9031	C903	0.118920	0.418230	0.806540
C9041	C904	0.776260	0.756940	0.133460
C9051	C905	0.442920	0.090280	0.466790
C9061	C906	0.109590	0.423610	0.800130
C9071	C907	0.746930	0.752080	0.132650
C9081	C908	0.413600	0.085410	0.465980
C9091	C909	0.080270	0.418750	0.799310
C9101	C910	0.727000	0.741090	0.138360
C9111	C911	0.393670	0.074420	0.471690
C9121	C912	0.060340	0.407750	0.805030
C9131	C913	0.736460	0.735760	0.144780
C9141	C914	0.403130	0.069090	0.478110
C9151	C915	0.069800	0.402420	0.811440
C9161	C916	0.765840	0.741240	0.145550
C9171	C917	0.432500	0.074580	0.478880
C9181	C918	0.099170	0.407910	0.812210
H3941	H394	0.792070	0.765400	0.129160
H3951	H395	0.458740	0.098730	0.462490
H3961	H396	0.125410	0.432070	0.795820
H3971	H397	0.704300	0.737150	0.137880
H3981	H398	0.370970	0.070490	0.471210
H3991	H399	0.037630	0.403820	0.804540
H4001	H400	0.808390	0.755900	0.140440
H4011	H401	0.475060	0.089230	0.473780
H4021	H402	0.141720	0.422570	0.807110
H4031	H403	0.721090	0.727800	0.149160
H4041	H404	0.387750	0.061130	0.482490
H4051	H405	0.054420	0.394460	0.815830
C9191	C919	0.892470	0.731800	0.168610
C9201	C920	0.559140	0.065130	0.501940
C9211	C921	0.225800	0.398460	0.835280
C9221	C922	0.869200	0.731840	0.169290
C9231	C923	0.535870	0.065180	0.502630
C9241	C924	0.202540	0.398510	0.835960
C9251	C925	0.782450	0.742920	0.188690
C9261	C926	0.449120	0.076250	0.522020
C9271	C927	0.115780	0.409590	0.855360
C9281	C928	0.792570	0.739510	0.183310
C9291	C929	0.459240	0.072840	0.516640
C9301	C930	0.125900	0.406180	0.849970
C9311	C931	0.786550	0.735310	0.157680
C9321	C932	0.453220	0.068650	0.491020
C9331	C933	0.119890	0.401980	0.824350
C9341	C934	0.776380	0.737510	0.152200
C9351	C935	0.443050	0.070850	0.485540
C9361	C936	0.109710	0.404180	0.818870
Zn851	Zn85	0.068800	0.697940	0.163760
Zn861	Zn86	0.735470	0.031270	0.497090
Zn871	Zn87	0.402130	0.364600	0.830430
Zn881	Zn88	0.050870	0.732890	0.171930
Zn891	Zn89	0.717540	0.066220	0.505260
Zn901	Zn90	0.384200	0.399560	0.838590
Zn911	Zn91	0.105910	0.762580	0.164100
Zn921	Zn92	0.772570	0.095920	0.497430
Zn931	Zn93	0.439240	0.429250	0.830770
Zn941	Zn94	0.048650	0.735280	0.156890
Zn951	Zn95	0.715310	0.068610	0.490220
Zn961	Zn96	0.381980	0.401940	0.823560
O2741	O274	0.068560	0.732180	0.164130
O2751	O275	0.735220	0.065510	0.497460
O2761	O276	0.401890	0.398850	0.830790
O2771	O277	0.053440	0.674710	0.171110
O2781	O278	0.720110	0.008050	0.504440
O2791	O279	0.386770	0.341380	0.837770
O2801	O280	0.072050	0.764620	0.176990
O2811	O281	0.738720	0.097950	0.510320
O2821	O282	0.405390	0.431290	0.843650
O2831	O283	0.133180	0.751900	0.163720
O2841	O284	0.799840	0.085240	0.497050
O2851	O285	0.466510	0.418570	0.830380
O2861	O286	0.041720	0.702810	0.177510
O2871	O287	0.708390	0.036140	0.510840
O2881	O288	0.375050	0.369470	0.844170
O2891	O289	0.104750	0.702770	0.163170
O2901	O290	0.771420	0.036100	0.496510
O2911	O291	0.438090	0.369430	0.829840
O2921	O292	0.115140	0.786220	0.171370
O2931	O293	0.781810	0.119560	0.504700
O2941	O294	0.448480	0.452890	0.838030
O2951	O295	0.113860	0.786710	0.157040
O2961	O296	0.780530	0.120040	0.490380
O2971	O297	0.447190	0.453370	0.823710
O2981	O298	0.036570	0.705120	0.151020
O2991	O299	0.703240	0.038460	0.484360
O3001	O300	0.369900	0.371790	0.817690
O3011	O301	0.070020	0.767970	0.151800
O3021	O302	0.736680	0.101310	0.485130
O3031	O303	0.403350	0.434640	0.818470
O3041	O304	0.050130	0.676130	0.156500
O3051	O305	0.716800	0.009460	0.489840
O3061	O306	0.383470	0.342800	0.823170
O3071	O307	0.017370	0.732400	0.170660
O3081	O308	0.684040	0.065730	0.504000
O3091	O309	0.350710	0.399060	0.837330
O3101	O310	0.015530	0.735450	0.159250
O3111	O311	0.682200	0.068780	0.492580
O3121	O312	0.348870	0.402110	0.825910
C9371	C937	0.097550	0.787780	0.152260
C9381	C938	0.764220	0.121110	0.485590
C9391	C939	0.430880	0.454440	0.818930
C9401	C940	0.004280	0.733660	0.165230
C9411	C941	0.670940	0.066990	0.498560
C9421	C942	0.337610	0.400330	0.831890
C9431	C943	0.038030	0.681300	0.151360
C9441	C944	0.704700	0.014640	0.484690
C9451	C945	0.371360	0.347970	0.818030
C9461	C946	0.043460	0.679360	0.176710
C9471	C947	0.710130	0.012700	0.510050
C9481	C948	0.376790	0.346030	0.843380
C9491	C949	0.130370	0.726130	0.163270
C9501	C950	0.797030	0.059460	0.496600
C9511	C951	0.463700	0.392790	0.829930
C9521	C952	0.098900	0.785590	0.176380
C9531	C953	0.765560	0.118930	0.509720
C9541	C954	0.432230	0.452260	0.843050
C9551	C955	0.966760	0.557350	0.104940
C9561	C956	0.633430	0.890680	0.438270
C9571	C957	0.300100	0.224020	0.771610
C9581	C958	0.974040	0.519870	0.110920
C9591	C959	0.640710	0.853210	0.444260
C9601	C960	0.307380	0.186540	0.777590
C9611	C961	0.981980	0.564550	0.117090
C9621	C962	0.648650	0.897880	0.450420
C9631	C963	0.315310	0.231210	0.783750
C9641	C964	0.966530	0.529990	0.104870
C9651	C965	0.633200	0.863320	0.438210
C9661	C966	0.299870	0.196660	0.771540
H4061	H406	0.960500	0.516630	0.100150
H4071	H407	0.627170	0.849960	0.433480
H4081	H408	0.293830	0.183290	0.766810
C9671	C967	0.981780	0.537200	0.117030
C9681	C968	0.648440	0.870530	0.450370
C9691	C969	0.315110	0.203870	0.783700
H4091	H409	0.987640	0.529480	0.121710
H4101	H410	0.654310	0.862810	0.455050
H4111	H411	0.320970	0.196140	0.788380
C9701	C970	0.974480	0.574540	0.111040
C9711	C971	0.641140	0.907880	0.444380
C9721	C972	0.307810	0.241210	0.777710
H4121	H412	0.974640	0.595700	0.111090
H4131	H413	0.641300	0.929040	0.444420
H4141	H414	0.307970	0.262370	0.777760
C9731	C973	0.930780	0.570320	0.081980
C9741	C974	0.597450	0.903650	0.415320
C9751	C975	0.264110	0.236990	0.748650
C9761	C976	0.920770	0.580470	0.076400
C9771	C977	0.587440	0.913800	0.409730
C9781	C978	0.254100	0.247140	0.743060
C9791	C979	0.922820	0.608840	0.076660
C9801	C980	0.589490	0.942170	0.409990
C9811	C981	0.256150	0.275500	0.743320
C9821	C982	0.935690	0.627010	0.082590
C9831	C983	0.602360	0.960340	0.415920
C9841	C984	0.269030	0.293670	0.749260
C9851	C985	0.945680	0.616750	0.088170
C9861	C986	0.612350	0.950080	0.421500
C9871	C987	0.279010	0.283410	0.754840
C9881	C988	0.943010	0.588310	0.087900
C9891	C989	0.609680	0.921640	0.421230
C9901	C990	0.276350	0.254980	0.754560
H4151	H415	0.910950	0.565980	0.071900
H4161	H416	0.577620	0.899310	0.405230
H4171	H417	0.244290	0.232640	0.738570
H4181	H418	0.937510	0.648910	0.082930
H4191	H419	0.604180	0.982240	0.416270
H4201	H420	0.270850	0.315570	0.749600
H4211	H421	0.928610	0.548270	0.081740
H4221	H422	0.595280	0.881600	0.415070
H4231	H423	0.261940	0.214930	0.748410
H4241	H424	0.955100	0.630770	0.092750
H4251	H425	0.621770	0.964110	0.426080
H4261	H426	0.288440	0.297440	0.759410
C9911	C991	0.017990	0.612740	0.140190
C9921	C992	0.684660	0.946070	0.473520
C9931	C993	0.351320	0.279410	0.806860
C9941	C994	0.027880	0.632820	0.145810
C9951	C995	0.694550	0.966150	0.479140
C9961	C996	0.361220	0.299480	0.812470
C9971	C997	0.025910	0.659170	0.145560
C9981	C998	0.692570	0.992510	0.478890
C9991	C999	0.359240	0.325840	0.812230
C10001	C1000	0.013260	0.664610	0.139610
C10011	C1001	0.679930	0.997940	0.472950
C10021	C1002	0.346600	0.331280	0.806280
C10031	C1003	0.003390	0.644460	0.134010
C10041	C1004	0.670060	0.977790	0.467340
C10051	C1005	0.336720	0.311120	0.800680
C10061	C1006	0.005950	0.618640	0.134270
C10071	C1007	0.672620	0.951970	0.467600
C10081	C1008	0.339280	0.285300	0.800930
H4271	H427	0.037540	0.628050	0.150310
H4281	H428	0.704200	0.961380	0.483650
H4291	H429	0.370870	0.294710	0.816980
H4301	H430	0.011490	0.684720	0.139280
H4311	H431	0.678160	0.018050	0.472610
H4321	H432	0.344830	0.351380	0.805950
H4331	H433	0.020080	0.592820	0.140420
H4341	H434	0.686750	0.926150	0.473750
H4351	H435	0.353410	0.259480	0.807080
H4361	H436	0.994120	0.649170	0.129430
H4371	H437	0.660790	0.982500	0.462760
H4381	H438	0.327450	0.315840	0.796090
C10091	C1009	0.967220	0.423220	0.104710
C10101	C1010	0.633890	0.756550	0.438040
C10111	C1011	0.300560	0.089890	0.771380
C10121	C1012	0.967290	0.396030	0.104710
C10131	C1013	0.633960	0.729360	0.438040
C10141	C1014	0.300630	0.062690	0.771370
C10151	C1015	0.973810	0.385380	0.110860
C10161	C1016	0.640470	0.718710	0.444190
C10171	C1017	0.307140	0.052050	0.777520
C10181	C1018	0.980170	0.402610	0.117000
C10191	C1019	0.646830	0.735940	0.450330
C10201	C1020	0.313500	0.069270	0.783670
C10211	C1021	0.980070	0.429770	0.116980
C10221	C1022	0.646740	0.763100	0.450310
C10231	C1023	0.313400	0.096440	0.783650
C10241	C1024	0.973630	0.440150	0.110840
C10251	C1025	0.640300	0.773480	0.444180
C10261	C1026	0.306970	0.106820	0.777510
H4391	H439	0.962300	0.383250	0.099900
H4401	H440	0.628970	0.716580	0.433240
H4411	H441	0.295630	0.049920	0.766570
H4421	H442	0.985240	0.394980	0.121810
H4431	H443	0.651900	0.728310	0.455140
H4441	H444	0.318570	0.061640	0.788480
H4451	H445	0.962210	0.431110	0.099940
H4461	H446	0.628880	0.764440	0.433270
H4471	H447	0.295550	0.097770	0.766600
H4481	H448	0.985040	0.442740	0.121750
H4491	H449	0.651710	0.776070	0.455080
H4501	H450	0.318380	0.109410	0.788420
C10271	C1027	0.951800	0.577150	0.093790
C10281	C1028	0.618470	0.910480	0.427120
C10291	C1029	0.285130	0.243810	0.760450
C10301	C1030	0.958750	0.567870	0.098810
C10311	C1031	0.625410	0.901210	0.432140
C10321	C1032	0.292080	0.234540	0.765470
C10331	C1033	0.997170	0.598790	0.128350
C10341	C1034	0.663840	0.932120	0.461680
C10351	C1035	0.330510	0.265450	0.795010
C10361	C1036	0.990150	0.582760	0.123280
C10371	C1037	0.656820	0.916100	0.456620
C10381	C1038	0.323490	0.249430	0.789950
C10391	C1039	0.973830	0.491740	0.110870
C10401	C1040	0.640500	0.825080	0.444200
C10411	C1041	0.307170	0.158410	0.777530
C10421	C1042	0.973700	0.468210	0.110840
C10431	C1043	0.640370	0.801540	0.444170
C10441	C1044	0.307040	0.134880	0.777510
Zn971	Zn97	0.672090	0.113310	0.050450
Zn981	Zn98	0.338750	0.446640	0.383790
Zn991	Zn99	0.005420	0.779970	0.717120
Zn1001	Zn100	0.637230	0.131030	0.058710
Zn1011	Zn101	0.303900	0.464360	0.392040
Zn1021	Zn102	0.970560	0.797690	0.725380
Zn1031	Zn103	0.674370	0.110390	0.065520
Zn1041	Zn104	0.341040	0.443720	0.398850
Zn1051	Zn105	0.007700	0.777050	0.732190
Zn1061	Zn106	0.701980	0.167880	0.058460
Zn1071	Zn107	0.368650	0.501210	0.391790
Zn1081	Zn108	0.035320	0.834540	0.725130
O3131	O313	0.671420	0.130630	0.058320
O3141	O314	0.338090	0.463960	0.391660
O3151	O315	0.004750	0.797300	0.724990
O3161	O316	0.641510	0.103460	0.045010
O3171	O317	0.308180	0.436790	0.378340
O3181	O318	0.974840	0.770120	0.711670
O3191	O319	0.615500	0.112430	0.065980
O3201	O320	0.282170	0.445760	0.399310
O3211	O321	0.948830	0.779100	0.732640
O3221	O322	0.675050	0.077670	0.063040
O3231	O323	0.341710	0.411000	0.396380
O3241	O324	0.008380	0.744340	0.729710
O3251	O325	0.613710	0.115540	0.051410
O3261	O326	0.280380	0.448870	0.384740
O3271	O327	0.947040	0.782210	0.718070
O3281	O328	0.672640	0.080250	0.051620
O3291	O329	0.339300	0.413580	0.384950
O3301	O330	0.005970	0.746920	0.718290
O3311	O331	0.643910	0.097790	0.071330
O3321	O332	0.310580	0.431130	0.404660
O3331	O333	0.977250	0.764460	0.738000
O3341	O334	0.706770	0.131570	0.070740
O3351	O335	0.373440	0.464900	0.404070
O3361	O336	0.040110	0.798240	0.737400
O3371	O337	0.726140	0.177100	0.051300
O3381	O338	0.392800	0.510430	0.384630
O3391	O339	0.059470	0.843770	0.717960
O3401	O340	0.725580	0.175600	0.065600
O3411	O341	0.392250	0.508930	0.398930
O3421	O342	0.058910	0.842260	0.732260
O3431	O343	0.703160	0.135200	0.045250
O3441	O344	0.369820	0.468530	0.378580
O3451	O345	0.036490	0.801860	0.711920
O3461	O346	0.642250	0.167030	0.059270
O3471	O347	0.308910	0.500370	0.392610
O3481	O348	0.975580	0.833700	0.725940
O3491	O349	0.691440	0.195300	0.058770
O3501	O350	0.358100	0.528640	0.392100
O3511	O351	0.024770	0.861970	0.725440
C10451	C1045	0.726470	0.159160	0.070370
C10461	C1046	0.393140	0.492490	0.403700
C10471	C1047	0.059800	0.825830	0.737030
C10481	C1048	0.665670	0.192600	0.059180
C10491	C1049	0.332340	0.525930	0.392510
C10501	C1050	0.999010	0.859260	0.725850
C10511	C1051	0.724750	0.161600	0.046050
C10521	C1052	0.391420	0.494930	0.379380
C10531	C1053	0.058080	0.828260	0.712710
C10541	C1054	0.618080	0.105190	0.045830
C10551	C1055	0.284750	0.438520	0.379160
C10561	C1056	0.951410	0.771850	0.712490
C10571	C1057	0.673890	0.066960	0.057030
C10581	C1058	0.340560	0.400290	0.390360
C10591	C1059	0.007220	0.733620	0.723690
C10601	C1060	0.620320	0.099720	0.071040
C10611	C1061	0.286990	0.433050	0.404380
C10621	C1062	0.953660	0.766380	0.737710
C10631	C1063	0.606190	0.873000	0.330880
C10641	C1064	0.272860	0.206340	0.664210
C10651	C1065	0.939520	0.539670	0.997540
C10661	C1066	0.940910	0.498460	0.003290
C10671	C1067	0.607580	0.831800	0.336630
C10681	C1068	0.274240	0.165130	0.669960
C10691	C1069	0.937560	0.536340	0.010180
C10701	C1070	0.604220	0.869670	0.343520
C10711	C1071	0.270890	0.203010	0.676850
C10721	C1072	0.607840	0.846760	0.330520
C10731	C1073	0.274510	0.180090	0.663860
C10741	C1074	0.941180	0.513420	0.997190
H4511	H451	0.608820	0.837660	0.325480
H4521	H452	0.275480	0.171000	0.658820
H4531	H453	0.942150	0.504330	0.992150
C10751	C1075	0.939130	0.509910	0.009820
C10761	C1076	0.605800	0.843240	0.343150
C10771	C1077	0.272470	0.176570	0.676480
H4541	H454	0.938600	0.498150	0.014550
H4551	H455	0.605260	0.831490	0.347880
H4561	H456	0.271930	0.164820	0.681220
C10781	C1078	0.937760	0.551190	0.004030
C10791	C1079	0.604430	0.884520	0.337360
C10801	C1080	0.271090	0.217850	0.670700
H4571	H457	0.936050	0.571330	0.004290
H4581	H458	0.602710	0.904660	0.337620
H4591	H459	0.269380	0.238000	0.670960
C10811	C1081	0.604720	0.937110	0.311590
C10821	C1082	0.271390	0.270450	0.644920
C10831	C1083	0.938050	0.603780	0.978260
C10841	C1084	0.599700	0.946700	0.305160
C10851	C1085	0.266360	0.280030	0.638490
C10861	C1086	0.933030	0.613360	0.971830
C10871	C1087	0.588760	0.926820	0.299440
C10881	C1088	0.255430	0.260160	0.632770
C10891	C1089	0.922090	0.593490	0.966100
C10901	C1090	0.583610	0.897410	0.300260
C10911	C1091	0.250280	0.230750	0.633590
C10921	C1092	0.916940	0.564080	0.966930
C10931	C1093	0.588680	0.887950	0.306690
C10941	C1094	0.255350	0.221290	0.640020
C10951	C1095	0.922010	0.554620	0.973350
C10961	C1096	0.598970	0.907670	0.312370
C10971	C1097	0.265640	0.241000	0.645700
C10981	C1098	0.932310	0.574340	0.979030
H4601	H460	0.603820	0.969460	0.304670
H4611	H461	0.270490	0.302790	0.638000
H4621	H462	0.937160	0.636130	0.971340
H4631	H463	0.575170	0.881650	0.295950
H4641	H464	0.241840	0.214980	0.629280
H4651	H465	0.908510	0.548310	0.962610
H4661	H466	0.612660	0.952460	0.315980
H4671	H467	0.279320	0.285790	0.649310
H4681	H468	0.945990	0.619120	0.982650
H4691	H469	0.584150	0.865100	0.307270
H4701	H470	0.250820	0.198430	0.640600
H4711	H471	0.917480	0.531770	0.973940
C10991	C1099	0.933080	0.601510	0.028020
C11001	C1100	0.599740	0.934850	0.361350
C11011	C1101	0.266410	0.268180	0.694690
C11021	C1102	0.926630	0.614230	0.033740
C11031	C1103	0.593300	0.947570	0.367070
C11041	C1104	0.259960	0.280900	0.700400
C11051	C1105	0.914070	0.597440	0.039870
C11061	C1106	0.580730	0.930770	0.373200
C11071	C1107	0.247400	0.264110	0.706530
C11081	C1108	0.908970	0.567860	0.040200
C11091	C1109	0.575630	0.901200	0.373530
C11101	C1110	0.242300	0.234530	0.706870
C11111	C1111	0.915390	0.555160	0.034440
C11121	C1112	0.582050	0.888490	0.367780
C11131	C1113	0.248720	0.221820	0.701110
C11141	C1114	0.927130	0.571870	0.028320
C11151	C1115	0.593790	0.905200	0.361650
C11161	C1116	0.260460	0.238530	0.694990
H4721	H472	0.930810	0.637040	0.033320
H4731	H473	0.597480	0.970370	0.366660
H4741	H474	0.264150	0.303710	0.699990
H4751	H475	0.899260	0.554410	0.044850
H4761	H476	0.565930	0.887740	0.378180
H4771	H477	0.232590	0.221070	0.711520
H4781	H478	0.942070	0.614560	0.023290
H4791	H479	0.608740	0.947900	0.356630
H4801	H480	0.275410	0.281230	0.689960
H4811	H481	0.910610	0.532130	0.034700
H4821	H482	0.577270	0.865470	0.368040
H4831	H483	0.243940	0.198800	0.701370
C11171	C1117	0.605770	0.741310	0.327650
C11181	C1118	0.272430	0.074640	0.660990
C11191	C1119	0.939100	0.407970	0.994320
C11201	C1120	0.605580	0.714170	0.326760
C11211	C1121	0.272250	0.047510	0.660090
C11221	C1122	0.938920	0.380840	0.993420
C11231	C1123	0.607930	0.698780	0.332570
C11241	C1124	0.274600	0.032110	0.665910
C11251	C1125	0.941270	0.365450	0.999240
C11261	C1126	0.943870	0.377880	0.005940
C11271	C1127	0.610540	0.711220	0.339280
C11281	C1128	0.277210	0.044550	0.672610
C11291	C1129	0.944050	0.404910	0.006810
C11301	C1130	0.610720	0.738240	0.340140
C11311	C1131	0.277390	0.071580	0.673480
C11321	C1132	0.941650	0.419990	0.001020
C11331	C1133	0.608310	0.753320	0.334350
C11341	C1134	0.274980	0.086650	0.667680
H4841	H484	0.603570	0.705120	0.321540
H4851	H485	0.270240	0.038450	0.654880
H4861	H486	0.936910	0.371780	0.988210
H4871	H487	0.945760	0.366580	0.010530
H4881	H488	0.612430	0.699910	0.343860
H4891	H489	0.279090	0.033250	0.677190
H4901	H490	0.603880	0.752930	0.323140
H4911	H491	0.270550	0.086260	0.656470
H4921	H492	0.937210	0.419600	0.989810
H4931	H493	0.946030	0.414080	0.012000
H4941	H494	0.612690	0.747410	0.345340
H4951	H495	0.279360	0.080750	0.678670
C11351	C1135	0.602510	0.897070	0.319030
C11361	C1136	0.269180	0.230400	0.652360
C11371	C1137	0.935840	0.563730	0.985700
C11381	C1138	0.604620	0.886870	0.324510
C11391	C1139	0.271280	0.220200	0.657840
C11401	C1140	0.937950	0.553530	0.991180
C11411	C1141	0.931440	0.558370	0.022160
C11421	C1142	0.598110	0.891700	0.355490
C11431	C1143	0.264780	0.225040	0.688830
C11441	C1144	0.934520	0.547880	0.016800
C11451	C1145	0.601180	0.881220	0.350130
C11461	C1146	0.267850	0.214550	0.683460
C11471	C1147	0.941430	0.470860	0.002720
C11481	C1148	0.608090	0.804200	0.336050
C11491	C1149	0.274760	0.137530	0.669390
C11501	C1150	0.941610	0.447690	0.001980
C11511	C1151	0.608280	0.781030	0.335310
C11521	C1152	0.274940	0.114360	0.668650
Zn1091	Zn109	0.643430	0.605250	0.330350
Zn1101	Zn110	0.310100	0.938580	0.663680
Zn1111	Zn111	0.976760	0.271910	0.997010
Zn1121	Zn112	0.606050	0.625340	0.323510
Zn1131	Zn113	0.272710	0.958680	0.656840
Zn1141	Zn114	0.939380	0.292010	0.990180
Zn1151	Zn115	0.578640	0.568510	0.330970
Zn1161	Zn116	0.245310	0.901840	0.664300
Zn1171	Zn117	0.911970	0.235180	0.997640
Zn1181	Zn118	0.942630	0.290630	0.005230
Zn1191	Zn119	0.609300	0.623970	0.338560
Zn1201	Zn120	0.275970	0.957300	0.671900
O3521	O352	0.609320	0.605750	0.330800
O3531	O353	0.275990	0.939080	0.664140
O3541	O354	0.942650	0.272420	0.997470
O3551	O355	0.665140	0.623800	0.323060
O3561	O356	0.331810	0.957130	0.656390
O3571	O357	0.998480	0.290460	0.989730
O3581	O358	0.573340	0.603600	0.318450
O3591	O359	0.240000	0.936930	0.651790
O3601	O360	0.906670	0.270260	0.985120
O3611	O361	0.589010	0.540950	0.330390
O3621	O362	0.255680	0.874280	0.663720
O3631	O363	0.922340	0.207610	0.997050
O3641	O364	0.636120	0.637420	0.317620
O3651	O365	0.302780	0.970750	0.650960
O3661	O366	0.969450	0.304090	0.984290
O3671	O367	0.638180	0.569210	0.329720
O3681	O368	0.304840	0.902550	0.663050
O3691	O369	0.971510	0.235880	0.996390
O3701	O370	0.553320	0.560720	0.324170
O3711	O371	0.219990	0.894050	0.657500
O3721	O372	0.886660	0.227380	0.990830
O3731	O373	0.889470	0.226330	0.005100
O3741	O374	0.556130	0.559660	0.338430
O3751	O375	0.222800	0.893000	0.671760
O3761	O376	0.973170	0.300190	0.010670
O3771	O377	0.639830	0.633520	0.344010
O3781	O378	0.306500	0.966850	0.677340
O3791	O379	0.911510	0.269870	0.010500
O3801	O380	0.578180	0.603200	0.343830
O3811	O381	0.244840	0.936540	0.677170
O3821	O382	0.000330	0.287140	0.004310
O3831	O383	0.667000	0.620470	0.337650
O3841	O384	0.333660	0.953810	0.670980
O3851	O385	0.605620	0.658450	0.325820
O3861	O386	0.272290	0.991780	0.659150
O3871	O387	0.938950	0.325120	0.992490
O3881	O388	0.942840	0.323860	0.003900
O3891	O389	0.609510	0.657200	0.337230
O3901	O390	0.276180	0.990530	0.670560
C11531	C1153	0.890620	0.242930	0.010080
C11541	C1154	0.557290	0.576270	0.343420
C11551	C1155	0.223960	0.909600	0.676750
C11561	C1156	0.607700	0.669930	0.331790
C11571	C1157	0.274360	0.003270	0.665120
C11581	C1158	0.941030	0.336600	0.998450
C11591	C1159	0.996250	0.297820	0.009880
C11601	C1160	0.662920	0.631160	0.343210
C11611	C1161	0.329590	0.964490	0.676540
C11621	C1162	0.659940	0.635940	0.317930
C11631	C1163	0.326610	0.969280	0.651270
C11641	C1164	0.993270	0.302610	0.984600
C11651	C1165	0.614750	0.543660	0.329830
C11661	C1166	0.281410	0.877000	0.663160
C11671	C1167	0.948080	0.210330	0.996500
C11681	C1168	0.552620	0.576580	0.319220
C11691	C1169	0.219290	0.909910	0.652560
C11701	C1170	0.885950	0.243250	0.985890
C11711	C1171	0.502710	0.042980	0.105180
C11721	C1172	0.169380	0.376310	0.438510
C11731	C1173	0.836040	0.709640	0.771850
C11741	C1174	0.495050	0.027320	0.117300
C11751	C1175	0.161720	0.360660	0.450630
C11761	C1176	0.828380	0.693990	0.783970
C11771	C1177	0.457930	0.035100	0.111300
C11781	C1178	0.124600	0.368430	0.444630
C11791	C1179	0.791270	0.701770	0.777960
C11801	C1180	0.512430	0.035160	0.111220
C11811	C1181	0.179100	0.368500	0.444560
C11821	C1182	0.845770	0.701830	0.777890
H4961	H496	0.533540	0.035190	0.111190
H4971	H497	0.200200	0.368520	0.444530
H4981	H498	0.866870	0.701860	0.777860
C11831	C1183	0.467770	0.027270	0.117340
C11841	C1184	0.134440	0.360610	0.450680
C11851	C1185	0.801110	0.693940	0.784010
H4991	H499	0.454270	0.021140	0.122050
H5001	H500	0.120940	0.354470	0.455380
H5011	H501	0.787600	0.687800	0.788720
C11861	C1186	0.475450	0.042970	0.105210
C11871	C1187	0.142110	0.376300	0.438550
C11881	C1188	0.808780	0.709630	0.771880
H5021	H502	0.467930	0.049080	0.100540
H5031	H503	0.134600	0.382410	0.433870
H5041	H504	0.801260	0.715750	0.767200
C11891	C1189	0.551740	0.079860	0.082200
C11901	C1190	0.218410	0.413190	0.415530
C11911	C1191	0.885070	0.746530	0.748870
C11921	C1192	0.571940	0.089860	0.076600
C11931	C1193	0.238600	0.423190	0.409940
C11941	C1194	0.905270	0.756530	0.743270
C11951	C1195	0.598060	0.087450	0.076820
C11961	C1196	0.264730	0.420780	0.410150
C11971	C1197	0.931400	0.754110	0.743490
C11981	C1198	0.603140	0.074260	0.082710
C11991	C1199	0.269810	0.407600	0.416050
C12001	C1200	0.936470	0.740930	0.749380
C12011	C1201	0.582870	0.064280	0.088300
C12021	C1202	0.249530	0.397620	0.421630
C12031	C1203	0.916200	0.730950	0.754970
C12041	C1204	0.557280	0.067280	0.088070
C12051	C1205	0.223950	0.400610	0.421400
C12061	C1206	0.890610	0.733950	0.754740
H5051	H505	0.567440	0.099930	0.072140
H5061	H506	0.234110	0.433270	0.405470
H5071	H507	0.900780	0.766600	0.738800
H5081	H508	0.623070	0.072160	0.083020
H5091	H509	0.289730	0.405490	0.416360
H5101	H510	0.956400	0.738820	0.749690
H5111	H511	0.532010	0.082300	0.081990
H5121	H512	0.198670	0.415630	0.415330
H5131	H513	0.865340	0.748960	0.748660
H5141	H514	0.587310	0.054600	0.092840
H5151	H515	0.253970	0.387930	0.426180
H5161	H516	0.920640	0.721270	0.759510
C12071	C1207	0.367830	0.041380	0.105290
C12081	C1208	0.034500	0.374710	0.438620
C12091	C1209	0.701170	0.708050	0.771950
C12101	C1210	0.340600	0.041350	0.105300
C12111	C1211	0.007260	0.374680	0.438630
C12121	C1212	0.673930	0.708020	0.771960
C12131	C1213	0.323430	0.034910	0.111450
C12141	C1214	0.990090	0.368240	0.444790
C12151	C1215	0.656760	0.701570	0.778120
C12161	C1216	0.334240	0.028510	0.117590
C12171	C1217	0.000910	0.361840	0.450920
C12181	C1218	0.667570	0.695180	0.784260
C12191	C1219	0.361500	0.028560	0.117560
C12201	C1220	0.028170	0.361900	0.450890
C12211	C1221	0.694830	0.695230	0.784220
C12221	C1222	0.378340	0.034990	0.111410
C12231	C1223	0.045010	0.368320	0.444740
C12241	C1224	0.711670	0.701660	0.778080
H5171	H517	0.332860	0.046370	0.100490
H5181	H518	0.999520	0.379710	0.433830
H5191	H519	0.666190	0.713040	0.767160
H5201	H520	0.321520	0.023480	0.122410
H5211	H521	0.988190	0.356810	0.455740
H5221	H522	0.654860	0.690150	0.789070
H5231	H523	0.380750	0.046390	0.100510
H5241	H524	0.047420	0.379720	0.433840
H5251	H525	0.714080	0.713050	0.767170
H5261	H526	0.369490	0.023600	0.122320
H5271	H527	0.036160	0.356930	0.455660
H5281	H528	0.702820	0.690270	0.788990
C12251	C1225	0.507770	0.991120	0.140280
C12261	C1226	0.174440	0.324460	0.473610
C12271	C1227	0.841100	0.657790	0.806940
C12281	C1228	0.517990	0.981150	0.145860
C12291	C1229	0.184660	0.314490	0.479190
C12301	C1230	0.851330	0.647820	0.812520
C12311	C1231	0.546270	0.983010	0.145550
C12321	C1232	0.212940	0.316340	0.478880
C12331	C1233	0.879610	0.649680	0.812220
C12341	C1234	0.564280	0.995610	0.139580
C12351	C1235	0.230950	0.328950	0.472910
C12361	C1236	0.897610	0.662280	0.806250
C12371	C1237	0.553960	0.005560	0.134010
C12381	C1238	0.220620	0.338900	0.467340
C12391	C1239	0.887290	0.672230	0.800680
C12401	C1240	0.525620	0.003120	0.134330
C12411	C1241	0.192290	0.336450	0.467660
C12421	C1242	0.858950	0.669790	0.800990
H5291	H529	0.503640	0.971540	0.150390
H5301	H530	0.170310	0.304870	0.483720
H5311	H531	0.836970	0.638210	0.817050
H5321	H532	0.586120	0.997290	0.139200
H5331	H533	0.252780	0.330630	0.472540
H5341	H534	0.919450	0.663960	0.805870
H5351	H535	0.485790	0.989130	0.140550
H5361	H536	0.152460	0.322460	0.473880
H5371	H537	0.819130	0.655800	0.807220
H5381	H538	0.567870	0.014800	0.129410
H5391	H539	0.234540	0.348140	0.462740
H5401	H540	0.901200	0.681470	0.796070
C12431	C1243	0.537300	0.058390	0.093970
C12441	C1244	0.203960	0.391720	0.427300
C12451	C1245	0.870630	0.725050	0.760640
C12461	C1246	0.521120	0.051280	0.099010
C12471	C1247	0.187790	0.384610	0.432350
C12481	C1248	0.854460	0.717940	0.765680
C12491	C1249	0.406390	0.035030	0.111380
C12501	C1250	0.073060	0.368360	0.444710
C12511	C1251	0.739720	0.701690	0.778040
C12521	C1252	0.429880	0.035060	0.111340
C12531	C1253	0.096550	0.368400	0.444670
C12541	C1254	0.763220	0.701730	0.778010
C12551	C1255	0.505330	0.019070	0.123430
C12561	C1256	0.172000	0.352410	0.456770
C12571	C1257	0.838670	0.685740	0.790100
C12581	C1258	0.514480	0.011990	0.128450
C12591	C1259	0.181140	0.345320	0.461790
C12601	C1260	0.847810	0.678650	0.795120
C12611	C1261	0.845930	0.204050	0.176700
C12621	C1262	0.512600	0.537380	0.510030
C12631	C1263	0.179270	0.870720	0.843360
C12641	C1264	0.804640	0.166570	0.169750
C12651	C1265	0.471310	0.499900	0.503090
C12661	C1266	0.137980	0.833240	0.836420
C12671	C1267	0.847300	0.208180	0.164070
C12681	C1268	0.513960	0.541520	0.497410
C12691	C1269	0.180630	0.874850	0.830740
C12701	C1270	0.817900	0.177630	0.176290
C12711	C1271	0.484560	0.510970	0.509620
C12721	C1272	0.151230	0.844300	0.842950
H5411	H541	0.806690	0.165580	0.181000
H5421	H542	0.473360	0.498910	0.514330
H5431	H543	0.140030	0.832250	0.847670
C12731	C1273	0.819340	0.181920	0.163670
C12741	C1274	0.486010	0.515250	0.497010
C12751	C1275	0.152670	0.848590	0.830340
H5441	H544	0.809270	0.173120	0.158620
H5451	H545	0.475930	0.506450	0.491960
H5461	H546	0.142600	0.839780	0.825290
C12761	C1276	0.860590	0.219290	0.170580
C12771	C1277	0.527260	0.552620	0.503910
C12781	C1278	0.193920	0.885950	0.837240
H5471	H547	0.882490	0.239420	0.170870
H5481	H548	0.549160	0.572750	0.504200
H5491	H549	0.215820	0.906080	0.837540
C12791	C1279	0.915520	0.268080	0.194660
C12801	C1280	0.582180	0.601410	0.528000
C12811	C1281	0.248850	0.934740	0.861330
C12821	C1282	0.934540	0.280500	0.200400
C12831	C1283	0.601200	0.613830	0.533740
C12841	C1284	0.267870	0.947170	0.867070
C12851	C1285	0.930170	0.263350	0.206480
C12861	C1286	0.596830	0.596690	0.539810
C12871	C1287	0.263500	0.930020	0.873140
C12881	C1288	0.905750	0.233700	0.206720
C12891	C1289	0.572420	0.567030	0.540050
C12901	C1290	0.239090	0.900360	0.873380
C12911	C1291	0.886760	0.221290	0.200930
C12921	C1292	0.553430	0.554620	0.534270
C12931	C1293	0.220100	0.887960	0.867600
C12941	C1294	0.891830	0.238390	0.194870
C12951	C1295	0.558500	0.571720	0.528210
C12961	C1296	0.225170	0.905050	0.861540
H5501	H550	0.953140	0.303380	0.200060
H5511	H551	0.619800	0.636710	0.533390
H5521	H552	0.286470	0.970040	0.866730
H5531	H553	0.901900	0.219970	0.211320
H5541	H554	0.568570	0.553310	0.544650
H5551	H555	0.235240	0.886640	0.877980
H5561	H556	0.919650	0.281420	0.189980
H5571	H557	0.586320	0.614750	0.523320
H5581	H558	0.252990	0.948080	0.856650
H5591	H559	0.868530	0.198220	0.201120
H5601	H560	0.535190	0.531560	0.534450
H5611	H561	0.201860	0.864890	0.867790
C12971	C1297	0.914140	0.272870	0.144930
C12981	C1298	0.580810	0.606210	0.478260
C12991	C1299	0.247480	0.939540	0.811600
C13001	C1300	0.928840	0.282470	0.138500
C13011	C1301	0.595510	0.615800	0.471830
C13021	C1302	0.262180	0.949130	0.805160
C13031	C1303	0.919180	0.262940	0.132710
C13041	C1304	0.585850	0.596270	0.466040
C13051	C1305	0.252510	0.929600	0.799370
C13061	C1306	0.894130	0.233910	0.133470
C13071	C1307	0.560800	0.567240	0.466800
C13081	C1308	0.227460	0.900570	0.800130
C13091	C1309	0.879510	0.224450	0.139890
C13101	C1310	0.546180	0.557790	0.473220
C13111	C1311	0.212850	0.891120	0.806550
C13121	C1312	0.889630	0.243780	0.145640
C13131	C1313	0.556300	0.577110	0.478970
C13141	C1314	0.222960	0.910450	0.812300
H5621	H562	0.948100	0.304920	0.138050
H5631	H563	0.614770	0.638260	0.471390
H5641	H564	0.281430	0.971590	0.804720
H5651	H565	0.886200	0.218390	0.129100
H5661	H566	0.552870	0.551730	0.462440
H5671	H567	0.219530	0.885060	0.795770
H5681	H568	0.922100	0.287910	0.149380
H5691	H569	0.588770	0.621240	0.482710
H5701	H570	0.255440	0.954570	0.816040
H5711	H571	0.860570	0.201870	0.140410
H5721	H572	0.527240	0.535210	0.473750
H5731	H573	0.193910	0.868540	0.807080
C13151	C1315	0.708350	0.072460	0.173350
C13161	C1316	0.375020	0.405790	0.506690
C13171	C1317	0.041680	0.739130	0.840020
C13181	C1318	0.681520	0.045320	0.172520
C13191	C1319	0.348180	0.378660	0.505850
C13201	C1320	0.014850	0.711990	0.839190
C13211	C1321	0.671290	0.033130	0.165820
C13221	C1322	0.337960	0.366460	0.499150
C13231	C1323	0.004630	0.699790	0.832480
C13241	C1324	0.688630	0.048850	0.159970
C13251	C1325	0.355300	0.382180	0.493300
C13261	C1326	0.021970	0.715510	0.826640
C13271	C1327	0.715550	0.076080	0.160830
C13281	C1328	0.382220	0.409410	0.494160
C13291	C1329	0.048890	0.742740	0.827500
C13301	C1330	0.725410	0.087880	0.167530
C13311	C1331	0.392080	0.421210	0.500860
C13321	C1332	0.058750	0.754540	0.834190
H5741	H574	0.668640	0.033760	0.177130
H5751	H575	0.335310	0.367090	0.510460
H5761	H576	0.001970	0.700420	0.843790
H5771	H577	0.681280	0.039990	0.154760
H5781	H578	0.347950	0.373330	0.488090
H5791	H579	0.014620	0.706660	0.821420
H5801	H580	0.715850	0.081460	0.178550
H5811	H581	0.382520	0.414790	0.511880
H5821	H582	0.049190	0.748120	0.845210
H5831	H583	0.728730	0.087950	0.156290
H5841	H584	0.395400	0.421280	0.489630
H5851	H585	0.062070	0.754620	0.822960
C13331	C1333	0.874070	0.225290	0.188700
C13341	C1334	0.540740	0.558620	0.522030
C13351	C1335	0.207410	0.891950	0.855360
C13361	C1336	0.860530	0.215160	0.183320
C13371	C1337	0.527200	0.548490	0.516650
C13381	C1338	0.193870	0.881830	0.849990
C13391	C1339	0.875350	0.232970	0.152290
C13401	C1340	0.542010	0.566310	0.485620
C13411	C1341	0.208680	0.899640	0.818950
C13421	C1342	0.862860	0.222450	0.157740
C13431	C1343	0.529530	0.555780	0.491070
C13441	C1344	0.196190	0.889120	0.824410
C13451	C1345	0.776510	0.138920	0.169160
C13461	C1346	0.443180	0.472260	0.502490
C13471	C1347	0.109840	0.805590	0.835830
C13481	C1348	0.753150	0.115690	0.168440
C13491	C1349	0.419820	0.449020	0.501780
C13501	C1350	0.086480	0.782360	0.835110
C13511	C1351	0.476510	0.998990	0.212250
C13521	C1352	0.143170	0.332320	0.545580
C13531	C1353	0.809840	0.665660	0.878910
C13541	C1354	0.479730	0.001140	0.224890
C13551	C1355	0.146390	0.334470	0.558220
C13561	C1356	0.813060	0.667800	0.891550
C13571	C1357	0.438450	0.002260	0.219080
C13581	C1358	0.105110	0.335600	0.552410
C13591	C1359	0.771780	0.668930	0.885750
C13601	C1360	0.491330	0.999340	0.218410
C13611	C1361	0.158000	0.332680	0.551750
C13621	C1362	0.824660	0.666010	0.885080
H5861	H586	0.511520	0.997680	0.218180
H5871	H587	0.178180	0.331020	0.551510
H5881	H588	0.844850	0.664350	0.884840
C13631	C1363	0.453380	0.002680	0.225210
C13641	C1364	0.120050	0.336010	0.558540
C13651	C1365	0.786710	0.669340	0.891870
H5891	H589	0.444190	0.003640	0.230230
H5901	H590	0.110860	0.336980	0.563570
H5911	H591	0.777520	0.670310	0.896900
C13661	C1366	0.450010	0.000460	0.212580
C13671	C1367	0.116680	0.333790	0.545910
C13681	C1368	0.783340	0.667120	0.879250
H5921	H592	0.438270	0.999770	0.207830
H5931	H593	0.104940	0.333110	0.541160
H5941	H594	0.771610	0.666440	0.874500
C13691	C1369	0.494970	0.976830	0.187990
C13701	C1370	0.161640	0.310160	0.521320
C13711	C1371	0.828300	0.643500	0.854660
C13721	C1372	0.507390	0.970260	0.182210
C13731	C1373	0.174050	0.303590	0.515540
C13741	C1374	0.840720	0.636920	0.848870
C13751	C1375	0.536690	0.974600	0.182520
C13761	C1376	0.203360	0.307930	0.515850
C13771	C1377	0.870030	0.641270	0.849190
C13781	C1378	0.553510	0.986480	0.188680
C13791	C1379	0.220170	0.319810	0.522010
C13801	C1380	0.886840	0.653150	0.855350
C13811	C1381	0.541070	0.993070	0.194430
C13821	C1382	0.207730	0.326410	0.527760
C13831	C1383	0.874400	0.659740	0.861090
C13841	C1384	0.511700	0.987950	0.194130
C13851	C1385	0.178360	0.321280	0.527460
C13861	C1386	0.845030	0.654620	0.860800
H5951	H595	0.493920	0.961080	0.177540
H5961	H596	0.160590	0.294420	0.510870
H5971	H597	0.827250	0.627750	0.844200
H5981	H598	0.576100	0.990050	0.189080
H5991	H599	0.242770	0.323380	0.522410
H6001	H600	0.909440	0.656710	0.855750
H6011	H601	0.472150	0.972690	0.187740
H6021	H602	0.138820	0.306020	0.521070
H6031	H603	0.805490	0.639350	0.854400
H6041	H604	0.554120	0.001570	0.199170
H6051	H605	0.220780	0.334910	0.532500
H6061	H606	0.887450	0.668240	0.865840
C13871	C1387	0.343950	0.003580	0.215300
C13881	C1388	0.010610	0.336910	0.548630
C13891	C1389	0.677280	0.670250	0.881970
C13901	C1390	0.316840	0.003340	0.216120
C13911	C1391	0.983500	0.336670	0.549460
C13921	C1392	0.650170	0.670000	0.882790
C13931	C1393	0.304840	0.001890	0.222830
C13941	C1394	0.971510	0.335220	0.556160
C13951	C1395	0.638170	0.668560	0.889500
C13961	C1396	0.320680	0.000640	0.228690
C13971	C1397	0.987340	0.333980	0.562020
C13981	C1398	0.654010	0.667310	0.895360
C13991	C1399	0.347870	0.000900	0.227840
C14001	C1400	0.014530	0.334230	0.561170
C14011	C1401	0.681200	0.667560	0.894500
C14021	C1402	0.359520	0.002400	0.221140
C14031	C1403	0.026190	0.335730	0.554480
C14041	C1404	0.692850	0.669060	0.887810
H6071	H607	0.305160	0.004330	0.211510
H6081	H608	0.971830	0.337660	0.544850
H6091	H609	0.638490	0.670990	0.878180
H6101	H610	0.311970	0.999540	0.233900
H6111	H611	0.978640	0.332870	0.567240
H6121	H612	0.645310	0.666210	0.900570
H6131	H613	0.352820	0.004710	0.210110
H6141	H614	0.019490	0.338040	0.543440
H6151	H615	0.686150	0.671380	0.876770
H6161	H616	0.359850	0.999940	0.232390
H6171	H617	0.026520	0.333270	0.565720
H6181	H618	0.693180	0.666600	0.899050
C14051	C1405	0.495190	0.984250	0.249100
C14061	C1406	0.161860	0.317580	0.582430
C14071	C1407	0.828530	0.650910	0.915760
C14081	C1408	0.504640	0.979000	0.255500
C14091	C1409	0.171300	0.312330	0.588840
C14101	C1410	0.837970	0.645660	0.922170
C14111	C1411	0.533750	0.983240	0.256260
C14121	C1412	0.200420	0.316570	0.589590
C14131	C1413	0.867090	0.649910	0.922930
C14141	C1414	0.553370	0.993450	0.250480
C14151	C1415	0.220040	0.326780	0.583810
C14161	C1416	0.886700	0.660110	0.917150
C14171	C1417	0.543790	0.998650	0.244070
C14181	C1418	0.210460	0.331980	0.577400
C14191	C1419	0.877130	0.665320	0.910730
C14201	C1420	0.514620	0.993820	0.243360
C14211	C1421	0.181290	0.327160	0.576690
C14221	C1422	0.847960	0.660490	0.910030
H6191	H619	0.489050	0.971150	0.259860
H6201	H620	0.155720	0.304480	0.593190
H6211	H621	0.822390	0.637820	0.926520
H6221	H622	0.575900	0.996870	0.250920
H6231	H623	0.242570	0.330200	0.584250
H6241	H624	0.909240	0.663540	0.917590
H6251	H625	0.472550	0.980410	0.248570
H6261	H626	0.139220	0.313750	0.581910
H6271	H627	0.805880	0.647080	0.915240
H6281	H628	0.558910	0.006010	0.239630
H6291	H629	0.225580	0.339340	0.572970
H6301	H630	0.892250	0.672670	0.906300
C14231	C1423	0.498450	0.992530	0.200300
C14241	C1424	0.165110	0.325860	0.533630
C14251	C1425	0.831780	0.659200	0.866960
C14261	C1426	0.488060	0.995790	0.205650
C14271	C1427	0.154720	0.329120	0.538990
C14281	C1428	0.821390	0.662450	0.872320
C14291	C1429	0.387400	0.002590	0.220250
C14301	C1430	0.054060	0.335920	0.553590
C14311	C1431	0.720730	0.669250	0.886920
C14321	C1432	0.410700	0.002590	0.219590
C14331	C1433	0.077370	0.335920	0.552920
C14341	C1434	0.744040	0.669250	0.886260
C14351	C1435	0.493610	0.999600	0.231250
C14361	C1436	0.160270	0.332940	0.564590
C14371	C1437	0.826940	0.666270	0.897920
C14381	C1438	0.503910	0.997470	0.236720
C14391	C1439	0.170580	0.330800	0.570050
C14401	C1440	0.837250	0.664130	0.903390
Zn1211	Zn121	0.175140	0.973440	0.224760
Zn1221	Zn122	0.841810	0.306770	0.558090
Zn1231	Zn123	0.508480	0.640110	0.891420
Zn1241	Zn124	0.211600	0.038230	0.225190
Zn1251	Zn125	0.878270	0.371560	0.558530
Zn1261	Zn126	0.544930	0.704890	0.891860
Zn1271	Zn127	0.232260	0.001280	0.232020
Zn1281	Zn128	0.898930	0.334610	0.565350
Zn1291	Zn129	0.565600	0.667940	0.898680
Zn1301	Zn130	0.230110	0.004000	0.216910
Zn1311	Zn131	0.896780	0.337330	0.550240
Zn1321	Zn132	0.563440	0.670660	0.883580
O3911	O391	0.212300	0.004210	0.224750
O3921	O392	0.878970	0.337550	0.558090
O3931	O393	0.545630	0.670880	0.891420
O3941	O394	0.147390	0.983630	0.225270
O3951	O395	0.814060	0.316960	0.558610
O3961	O396	0.480730	0.650300	0.891940
O3971	O397	0.230140	0.060040	0.232460
O3981	O398	0.896810	0.393380	0.565790
O3991	O399	0.563480	0.726710	0.899130
O4001	O400	0.210880	0.968860	0.237210
O4011	O401	0.877540	0.302190	0.570540
O4021	O402	0.544210	0.635520	0.903880
O4031	O403	0.175480	0.032830	0.225800
O4041	O404	0.842150	0.366160	0.559140
O4051	O405	0.508810	0.699500	0.892470
O4061	O406	0.167690	0.948720	0.231640
O4071	O407	0.834360	0.282050	0.564970
O4081	O408	0.501020	0.615380	0.898310
O4091	O409	0.244720	0.031640	0.237830
O4101	O410	0.911380	0.364970	0.571160
O4111	O411	0.578050	0.698310	0.904490
O4121	O412	0.265090	0.000600	0.229600
O4131	O413	0.931760	0.333930	0.562940
O4141	O414	0.598420	0.667270	0.896270
O4151	O415	0.208550	0.973260	0.211560
O4161	O416	0.875220	0.306600	0.544890
O4171	O417	0.541890	0.639930	0.878220
O4181	O418	0.263120	0.003420	0.218170
O4191	O419	0.929790	0.336750	0.551500
O4201	O420	0.596450	0.670080	0.884840
O4211	O421	0.166200	0.950310	0.217440
O4221	O422	0.832870	0.283640	0.550770
O4231	O423	0.499530	0.616970	0.884110
O4241	O424	0.226910	0.061850	0.217900
O4251	O425	0.893570	0.395180	0.551240
O4261	O426	0.560240	0.728510	0.884570
O4271	O427	0.240190	0.034870	0.211550
O4281	O428	0.906850	0.368210	0.544880
O4291	O429	0.573520	0.701540	0.878210
C14411	C1441	0.276110	0.001940	0.223610
C14421	C1442	0.942780	0.335280	0.556940
C14431	C1443	0.609450	0.668610	0.890280
C14441	C1444	0.237850	0.057950	0.212360
C14451	C1445	0.904520	0.391290	0.545690
C14461	C1446	0.571180	0.724620	0.879030
C14471	C1447	0.181960	0.951860	0.212230
C14481	C1448	0.848620	0.285200	0.545560
C14491	C1449	0.515290	0.618530	0.878900
C14501	C1450	0.149970	0.009330	0.225740
C14511	C1451	0.816640	0.342660	0.559080
C14521	C1452	0.483300	0.676000	0.892410
C14531	C1453	0.183780	0.948180	0.236540
C14541	C1454	0.850450	0.281520	0.569880
C14551	C1455	0.517110	0.614850	0.903210
C14561	C1456	0.242830	0.055220	0.237530
C14571	C1457	0.909500	0.388560	0.570870
C14581	C1458	0.576160	0.721890	0.904200
C14591	C1459	0.178530	0.400930	0.331100
C14601	C1460	0.845200	0.734260	0.664430
C14611	C1461	0.511870	0.067600	0.997760
C14621	C1462	0.510750	0.069960	0.010400
C14631	C1463	0.177420	0.403290	0.343730
C14641	C1464	0.844080	0.736630	0.677070
C14651	C1465	0.469140	0.065910	0.003570
C14661	C1466	0.135800	0.399250	0.336910
C14671	C1467	0.802470	0.732580	0.670240
C14681	C1468	0.525340	0.069720	0.004240
C14691	C1469	0.192010	0.403050	0.337570
C14701	C1470	0.858680	0.736390	0.670900
H6311	H631	0.547350	0.071730	0.004470
H6321	H632	0.214010	0.405060	0.337800
H6331	H633	0.880680	0.738400	0.671140
C14711	C1471	0.482580	0.068050	0.010070
C14721	C1472	0.149250	0.401390	0.343400
C14731	C1473	0.815920	0.734720	0.676740
H6341	H634	0.471440	0.068660	0.014820
H6351	H635	0.138100	0.402000	0.348150
H6361	H636	0.804770	0.735330	0.681490
C14741	C1474	0.150440	0.398940	0.330780
C14751	C1475	0.817110	0.732270	0.664110
C14761	C1476	0.483780	0.065610	0.997450
H6371	H637	0.140220	0.397730	0.325750
H6381	H638	0.806890	0.731060	0.659090
H6391	H639	0.473560	0.064390	0.992420
C14771	C1477	0.245200	0.403480	0.311890
C14781	C1478	0.911870	0.736810	0.645220
C14791	C1479	0.578530	0.070150	0.978550
C14801	C1480	0.259990	0.408600	0.305460
C14811	C1481	0.926650	0.741930	0.638800
C14821	C1482	0.593320	0.075260	0.972130
C14831	C1483	0.250660	0.418810	0.299690
C14841	C1484	0.917330	0.752140	0.633020
C14851	C1485	0.583990	0.085470	0.966350
C14861	C1486	0.225870	0.423180	0.300450
C14871	C1487	0.892540	0.756520	0.633790
C14881	C1488	0.559200	0.089850	0.967120
C14891	C1489	0.211160	0.418020	0.306870
C14901	C1490	0.877830	0.751350	0.640200
C14911	C1491	0.544500	0.084680	0.973530
C14921	C1492	0.220930	0.408400	0.312600
C14931	C1493	0.887590	0.741740	0.645930
C14941	C1494	0.554260	0.075070	0.979270
H6401	H640	0.279040	0.405090	0.305020
H6411	H641	0.945710	0.738430	0.638350
H6421	H642	0.612380	0.071760	0.971690
H6431	H643	0.218200	0.431050	0.296100
H6441	H644	0.884870	0.764380	0.629430
H6451	H645	0.551540	0.097710	0.962760
H6461	H646	0.252900	0.396090	0.316320
H6471	H647	0.919560	0.729430	0.649650
H6481	H648	0.586230	0.062760	0.982980
H6491	H649	0.192410	0.421930	0.307390
H6501	H650	0.859070	0.755260	0.640730
H6511	H651	0.525740	0.088590	0.974060
C14951	C1495	0.048100	0.401370	0.327760
C14961	C1496	0.714770	0.734710	0.661100
C14971	C1497	0.381430	0.068040	0.994430
C14981	C1498	0.021500	0.401980	0.326660
C14991	C1499	0.688170	0.735310	0.660000
C15001	C1500	0.354840	0.068640	0.993330
C15011	C1501	0.003170	0.399900	0.332340
C15021	C1502	0.669840	0.733240	0.665680
C15031	C1503	0.336500	0.066570	0.999010
C15041	C1504	0.345390	0.063790	0.005800
C15051	C1505	0.012060	0.397120	0.339130
C15061	C1506	0.678720	0.730460	0.672470
C15071	C1507	0.371970	0.063200	0.006870
C15081	C1508	0.038640	0.396530	0.340210
C15091	C1509	0.705310	0.729860	0.673540
C15101	C1510	0.390030	0.065350	0.001200
C15111	C1511	0.056700	0.398680	0.334530
C15121	C1512	0.723370	0.732020	0.667860
H6521	H652	0.015200	0.404120	0.321390
H6531	H653	0.681870	0.737450	0.654720
H6541	H654	0.348530	0.070780	0.988050
H6551	H655	0.331710	0.062150	0.010270
H6561	H656	0.998380	0.395480	0.343610
H6571	H657	0.665050	0.728810	0.676940
H6581	H658	0.062050	0.403090	0.323340
H6591	H659	0.728720	0.736420	0.656680
H6601	H660	0.395390	0.069760	0.990010
H6611	H661	0.378530	0.061150	0.012120
H6621	H662	0.045200	0.394480	0.345460
H6631	H663	0.711870	0.727820	0.678790
C15131	C1513	0.552150	0.093690	0.034580
C15141	C1514	0.218820	0.427020	0.367920
C15151	C1515	0.885490	0.760360	0.701250
C15161	C1516	0.571340	0.100500	0.040330
C15171	C1517	0.238010	0.433830	0.373660
C15181	C1518	0.904680	0.767160	0.707000
C15191	C1519	0.595960	0.095620	0.040030
C15201	C1520	0.262630	0.428950	0.373360
C15211	C1521	0.929300	0.762290	0.706700
C15221	C1522	0.600310	0.082920	0.033930
C15231	C1523	0.266980	0.416260	0.367270
C15241	C1524	0.933640	0.749590	0.700600
C15251	C1525	0.581090	0.076090	0.028220
C15261	C1526	0.247760	0.409430	0.361560
C15271	C1527	0.914420	0.742760	0.694890
C15281	C1528	0.557220	0.081780	0.028500
C15291	C1529	0.223880	0.415110	0.361830
C15301	C1530	0.890550	0.748450	0.695160
H6641	H664	0.567500	0.110290	0.044950
H6651	H665	0.234170	0.443630	0.378290
H6661	H666	0.900830	0.776960	0.711620
H6671	H667	0.619050	0.078900	0.033540
H6681	H668	0.285720	0.412230	0.366880
H6691	H669	0.952380	0.745570	0.700210
H6701	H670	0.533770	0.098270	0.034820
H6711	H671	0.200440	0.431600	0.368150
H6721	H672	0.867100	0.764940	0.701480
H6731	H673	0.585210	0.066970	0.023520
H6741	H674	0.251880	0.400310	0.356860
H6751	H675	0.918550	0.733640	0.690190
C15311	C1531	0.206520	0.404760	0.319250
C15321	C1532	0.873190	0.738090	0.652580
C15331	C1533	0.539850	0.071420	0.985910
C15341	C1534	0.194030	0.402570	0.324720
C15351	C1535	0.860700	0.735910	0.658050
C15361	C1536	0.527370	0.069240	0.991390
C15371	C1537	0.417600	0.065160	0.002300
C15381	C1538	0.084260	0.398490	0.335640
C15391	C1539	0.750930	0.731820	0.668970
C15401	C1540	0.440930	0.065290	0.003050
C15411	C1541	0.107600	0.398630	0.336380
C15421	C1542	0.774270	0.731960	0.669710
C15431	C1543	0.525560	0.073470	0.017000
C15441	C1544	0.192230	0.406810	0.350330
C15451	C1545	0.858890	0.740140	0.683660
C15461	C1546	0.539270	0.076960	0.022350
C15471	C1547	0.205930	0.410300	0.355680
C15481	C1548	0.872600	0.743630	0.689010
Zn1331	Zn133	0.087090	0.733880	0.279480
Zn1341	Zn134	0.753750	0.067210	0.612810
Zn1351	Zn135	0.420420	0.400540	0.946140
Zn1361	Zn136	0.035450	0.710350	0.270410
Zn1371	Zn137	0.702120	0.043680	0.603750
Zn1381	Zn138	0.368790	0.377010	0.937080
Zn1391	Zn139	0.055390	0.670740	0.276030
Zn1401	Zn140	0.722050	0.004070	0.609370
Zn1411	Zn141	0.388720	0.337400	0.942700
Zn1421	Zn142	0.027200	0.694320	0.285030
Zn1431	Zn143	0.693870	0.027660	0.618360
Zn1441	Zn144	0.360530	0.360990	0.951700
O4301	O430	0.051280	0.702340	0.277740
O4311	O431	0.717950	0.035670	0.611070
O4321	O432	0.384620	0.369000	0.944410
O4331	O433	0.098060	0.763920	0.273660
O4341	O434	0.764730	0.097260	0.606990
O4351	O435	0.431400	0.430590	0.940330
O4361	O436	0.028340	0.685810	0.263420
O4371	O437	0.695000	0.019150	0.596750
O4381	O438	0.361670	0.352480	0.930080
O4391	O439	0.092450	0.678260	0.276400
O4401	O440	0.759110	0.011600	0.609740
O4411	O441	0.425780	0.344930	0.943070
O4421	O442	0.058310	0.746280	0.266880
O4431	O443	0.724970	0.079610	0.600210
O4441	O444	0.391640	0.412950	0.933550
O4451	O445	0.116560	0.726180	0.279160
O4461	O446	0.783230	0.059510	0.612490
O4471	O447	0.449900	0.392840	0.945830
O4481	O448	0.043080	0.655660	0.267750
O4491	O449	0.709750	0.989000	0.601090
O4501	O450	0.376420	0.322330	0.934420
O4511	O451	0.036070	0.640730	0.281840
O4521	O452	0.702740	0.974060	0.615170
O4531	O453	0.369410	0.307400	0.948500
O4541	O454	0.044460	0.718800	0.292030
O4551	O455	0.711130	0.052130	0.625360
O4561	O456	0.377800	0.385470	0.958700
O4571	O457	0.013850	0.658380	0.288580
O4581	O458	0.680510	0.991720	0.621910
O4591	O459	0.347180	0.325050	0.955240
O4601	O460	0.089630	0.748920	0.287770
O4611	O461	0.756300	0.082250	0.621100
O4621	O462	0.422960	0.415590	0.954440
O4631	O463	0.001030	0.708340	0.272130
O4641	O464	0.667690	0.041670	0.605460
O4651	O465	0.334360	0.375010	0.938800
O4661	O466	0.994890	0.696380	0.283270
O4671	O467	0.661560	0.029710	0.616600
O4681	O468	0.328230	0.363050	0.949930
C15491	C1549	0.019190	0.637710	0.286940
C15501	C1550	0.685860	0.971040	0.620270
C15511	C1551	0.352530	0.304370	0.953600
C15521	C1552	0.985840	0.702350	0.277690
C15531	C1553	0.652510	0.035690	0.611020
C15541	C1554	0.319180	0.369020	0.944360
C15551	C1555	0.070750	0.740920	0.292690
C15561	C1556	0.737420	0.074260	0.626020
C15571	C1557	0.404090	0.407590	0.959350
C15581	C1558	0.084340	0.766950	0.268540
C15591	C1559	0.751010	0.100280	0.601870
C15601	C1560	0.417680	0.433620	0.935210
C15611	C1561	0.116580	0.702160	0.277790
C15621	C1562	0.783240	0.035490	0.611120
C15631	C1563	0.449910	0.368830	0.944460
C15641	C1564	0.032400	0.663630	0.262800
C15651	C1565	0.699060	0.996960	0.596140
C15661	C1566	0.365730	0.330300	0.929470
Zn1451	Zn145	0.314180	0.429240	0.285370
Zn1461	Zn146	0.980850	0.762580	0.618710
Zn1471	Zn147	0.647520	0.095910	0.952040
Zn1481	Zn148	0.298670	0.421550	0.270720
Zn1491	Zn149	0.965340	0.754880	0.604060
Zn1501	Zn150	0.632000	0.088210	0.937390
Zn1511	Zn151	0.274680	0.449370	0.279750
Zn1521	Zn152	0.941340	0.782700	0.613090
Zn1531	Zn153	0.608010	0.116040	0.946420
Zn1541	Zn154	0.338010	0.481180	0.276400
Zn1551	Zn155	0.004680	0.814510	0.609740
Zn1561	Zn156	0.671350	0.147850	0.943070
O4691	O469	0.306380	0.445330	0.278060
O4701	O470	0.973050	0.778660	0.611400
O4711	O471	0.639720	0.112000	0.944730
O4721	O472	0.312340	0.394940	0.283600
O4731	O473	0.979010	0.728280	0.616930
O4741	O474	0.645680	0.061610	0.950260
O4751	O475	0.262730	0.408150	0.267160
O4761	O476	0.929400	0.741490	0.600490
O4771	O477	0.596070	0.074820	0.933830
O4781	O478	0.259440	0.436880	0.288040
O4791	O479	0.926100	0.770210	0.621370
O4801	O480	0.592770	0.103540	0.954710
O4811	O481	0.301000	0.389310	0.272430
O4821	O482	0.967670	0.722640	0.605760
O4831	O483	0.634340	0.055980	0.939090
O4841	O484	0.289480	0.421940	0.292350
O4851	O485	0.956150	0.755270	0.625680
O4861	O486	0.622810	0.088600	0.959020
O4871	O487	0.244780	0.430130	0.273890
O4881	O488	0.911450	0.763470	0.607230
O4891	O489	0.578110	0.096800	0.940560
O4901	O490	0.282250	0.486500	0.279430
O4911	O491	0.948920	0.819830	0.612760
O4921	O492	0.615590	0.153170	0.946090
O4931	O493	0.367990	0.491850	0.282230
O4941	O494	0.034660	0.825190	0.615570
O4951	O495	0.701330	0.158520	0.948900
O4961	O496	0.330340	0.510630	0.276810
O4971	O497	0.997000	0.843960	0.610150
O4981	O498	0.663670	0.177290	0.943480
O4991	O499	0.350040	0.451940	0.288960
O5001	O500	0.016710	0.785270	0.622300
O5011	O501	0.683380	0.118610	0.955630
O5021	O502	0.323180	0.439230	0.263730
O5031	O503	0.989840	0.772570	0.597070
O5041	O504	0.656510	0.105900	0.930400
O5051	O505	0.353140	0.484200	0.268100
O5061	O506	0.019810	0.817530	0.601430
O5071	O507	0.686480	0.150860	0.934760
C15671	C1567	0.306290	0.510660	0.278130
C15681	C1568	0.972950	0.843990	0.611460
C15691	C1569	0.639620	0.177330	0.944800
C15701	C1570	0.345200	0.465610	0.263120
C15711	C1571	0.011870	0.798940	0.596460
C15721	C1572	0.678540	0.132280	0.929790
C15731	C1573	0.370840	0.477970	0.287340
C15741	C1574	0.037510	0.811300	0.620670
C15751	C1575	0.704170	0.144630	0.954010
C15761	C1576	0.306800	0.380080	0.278000
C15771	C1577	0.973470	0.713410	0.611330
C15781	C1578	0.640140	0.046750	0.944670
C15791	C1579	0.267330	0.426070	0.292980
C15801	C1580	0.934000	0.759400	0.626310
C15811	C1581	0.600670	0.092740	0.959650
C15821	C1582	0.241950	0.413400	0.268780
C15831	C1583	0.908620	0.746730	0.602110
C15841	C1584	0.575280	0.080060	0.935440
C15851	C1585	0.333640	0.728310	0.277990
C15861	C1586	0.000310	0.061640	0.611320
C15871	C1587	0.666970	0.394980	0.944660
C15881	C1588	0.279120	0.701070	0.277970
C15891	C1589	0.945790	0.034400	0.611300
C15901	C1590	0.612460	0.367730	0.944640
C15911	C1591	0.306330	0.673790	0.278050
C15921	C1592	0.972990	0.007120	0.611390
C15931	C1593	0.639660	0.340460	0.944720
C15941	C1594	0.306400	0.728290	0.277960
C15951	C1595	0.973060	0.061620	0.611290
C15961	C1596	0.639730	0.394950	0.944630
H6761	H676	0.306430	0.749370	0.277920
H6771	H677	0.973090	0.082710	0.611260
H6781	H678	0.639760	0.416040	0.944590
C15971	C1597	0.279100	0.673830	0.278020
C15981	C1598	0.945770	0.007160	0.611350
C15991	C1599	0.612430	0.340490	0.944680
H6791	H679	0.257990	0.652750	0.278020
H6801	H680	0.924660	0.986080	0.611360
H6811	H681	0.591330	0.319410	0.944690
C16001	C1600	0.333590	0.701050	0.278040
C16011	C1601	0.000260	0.034380	0.611370
C16021	C1602	0.666920	0.367720	0.944710
H6821	H682	0.354670	0.701050	0.278070
H6831	H683	0.021340	0.034390	0.611400
H6841	H684	0.688010	0.367720	0.944730
C16031	C1603	0.439890	0.808300	0.279390
C16041	C1604	0.106560	0.141640	0.612730
C16051	C1605	0.773220	0.474970	0.946060
C16061	C1606	0.467140	0.835490	0.279380
C16071	C1607	0.133800	0.168820	0.612710
C16081	C1608	0.800470	0.502160	0.946040
C16091	C1609	0.467870	0.862690	0.277900
C16101	C1610	0.134530	0.196020	0.611230
C16111	C1611	0.801200	0.529350	0.944560
C16121	C1612	0.440660	0.861960	0.276440
C16131	C1613	0.107320	0.195300	0.609770
C16141	C1614	0.773990	0.528630	0.943110
C16151	C1615	0.413450	0.834700	0.276460
C16161	C1616	0.080110	0.168040	0.609800
C16171	C1617	0.746780	0.501370	0.943130
C16181	C1618	0.413030	0.807860	0.277940
C16191	C1619	0.079690	0.141190	0.611270
C16201	C1620	0.746360	0.474520	0.944600
H6851	H685	0.487730	0.835360	0.280520
H6861	H686	0.154390	0.168690	0.613850
H6871	H687	0.821060	0.502030	0.947190
H6881	H688	0.440550	0.882550	0.275290
H6891	H689	0.107210	0.215880	0.608620
H6901	H690	0.773880	0.549210	0.941950
H6911	H691	0.439710	0.787590	0.280540
H6921	H692	0.106380	0.120930	0.613880
H6931	H693	0.773050	0.454260	0.947210
H6941	H694	0.392700	0.834500	0.275330
H6951	H695	0.059370	0.167840	0.608660
H6961	H696	0.726040	0.501170	0.942000
C16211	C1621	0.279870	0.567500	0.279670
C16221	C1622	0.946530	0.900830	0.613000
C16231	C1623	0.613200	0.234160	0.946330
C16241	C1624	0.279820	0.540270	0.279670
C16251	C1625	0.946490	0.873600	0.613010
C16261	C1626	0.613150	0.206930	0.946340
C16271	C1627	0.306280	0.539550	0.278150
C16281	C1628	0.972940	0.872890	0.611480
C16291	C1629	0.639610	0.206220	0.944810
C16301	C1630	0.332720	0.566750	0.276620
C16311	C1631	0.999390	0.900080	0.609950
C16321	C1632	0.666060	0.233420	0.943290
C16331	C1633	0.332660	0.593920	0.276620
C16341	C1634	0.999330	0.927250	0.609950
C16351	C1635	0.666000	0.260590	0.943280
C16361	C1636	0.306260	0.594340	0.278140
C16371	C1637	0.972930	0.927680	0.611470
C16381	C1638	0.639590	0.261010	0.944800
H6971	H697	0.259140	0.519690	0.280870
H6981	H698	0.925800	0.853020	0.614200
H6991	H699	0.592470	0.186350	0.947540
H7001	H700	0.353410	0.566890	0.275420
H7011	H701	0.020080	0.900220	0.608760
H7021	H702	0.686750	0.233550	0.942090
H7031	H703	0.259340	0.567670	0.280850
H7041	H704	0.926010	0.901000	0.614180
H7051	H705	0.592670	0.234340	0.947520
H7061	H706	0.353180	0.614630	0.275430
H7071	H707	0.019840	0.947970	0.608760
H7081	H708	0.686510	0.281300	0.942090
C16391	C1639	0.173090	0.675370	0.276240
C16401	C1640	0.839750	0.008700	0.609570
C16411	C1641	0.506420	0.342030	0.942900
C16421	C1642	0.145970	0.675530	0.276210
C16431	C1643	0.812630	0.008870	0.609540
C16441	C1644	0.479300	0.342200	0.942870
C16451	C1645	0.145380	0.701970	0.277820
C16461	C1646	0.812050	0.035310	0.611150
C16471	C1647	0.478710	0.368640	0.944480
C16481	C1648	0.172590	0.728200	0.279460
C16491	C1649	0.839250	0.061530	0.612790
C16501	C1650	0.505920	0.394860	0.946120
C16511	C1651	0.199660	0.727920	0.279480
C16521	C1652	0.866330	0.061260	0.612820
C16531	C1653	0.532990	0.394590	0.946150
C16541	C1654	0.199950	0.701530	0.277880
C16551	C1655	0.866620	0.034870	0.611210
C16561	C1656	0.533280	0.368200	0.944540
H7091	H709	0.125370	0.655020	0.274920
H7101	H710	0.792030	0.988350	0.608260
H7111	H711	0.458700	0.321690	0.941590
H7121	H712	0.172800	0.748860	0.280720
H7131	H713	0.839470	0.082190	0.614050
H7141	H714	0.506130	0.415530	0.947390
H7151	H715	0.173170	0.654860	0.274980
H7161	H716	0.839830	0.988190	0.608320
H7171	H717	0.506500	0.321530	0.941650
H7181	H718	0.220400	0.748260	0.280760
H7191	H719	0.887060	0.081600	0.614090
H7201	H720	0.553730	0.414930	0.947430
C16571	C1657	0.385040	0.779830	0.277950
C16581	C1658	0.051710	0.113160	0.611290
C16591	C1659	0.718380	0.446490	0.944620
C16601	C1660	0.361620	0.756330	0.277970
C16611	C1661	0.028290	0.089660	0.611300
C16621	C1662	0.694960	0.422990	0.944640
C16631	C1663	0.306260	0.622330	0.278120
C16641	C1664	0.972920	0.955660	0.611450
C16651	C1665	0.639590	0.289000	0.944780
C16661	C1666	0.306280	0.645790	0.278090
C16671	C1667	0.972950	0.979120	0.611420
C16681	C1668	0.639610	0.312450	0.944760
C16691	C1669	0.251180	0.701140	0.277940
C16701	C1670	0.917840	0.034470	0.611270
C16711	C1671	0.584510	0.367800	0.944600
C16721	C1672	0.227810	0.701300	0.277910
C16731	C1673	0.894480	0.034630	0.611240
C16741	C1674	0.561150	0.367960	0.944580
Zn1571	Zn157	0.558090	0.920690	0.279540
Zn1581	Zn158	0.224760	0.254020	0.612870
Zn1591	Zn159	0.891430	0.587350	0.946200
Zn1601	Zn160	0.526880	0.952860	0.276200
Zn1611	Zn161	0.193550	0.286200	0.609530
Zn1621	Zn162	0.860210	0.619530	0.942860
Zn1631	Zn163	0.578520	0.980100	0.285270
Zn1641	Zn164	0.245190	0.313440	0.618600
Zn1651	Zn165	0.911850	0.646770	0.951930
Zn1661	Zn166	0.586500	0.972670	0.270600
Zn1671	Zn167	0.253170	0.306010	0.603930
Zn1681	Zn168	0.919830	0.639340	0.937270
O5081	O508	0.562480	0.956580	0.277900
O5091	O509	0.229150	0.289910	0.611230
O5101	O510	0.895820	0.623240	0.944570
O5111	O511	0.520880	0.891480	0.279170
O5121	O512	0.187550	0.224810	0.612500
O5131	O513	0.854210	0.558140	0.945830
O5141	O514	0.516490	0.972530	0.282010
O5151	O515	0.183160	0.305870	0.615340
O5161	O516	0.849830	0.639200	0.948680
O5171	O517	0.585940	0.962590	0.292140
O5181	O518	0.252600	0.295930	0.625480
O5191	O519	0.919270	0.629260	0.958810
O5201	O520	0.497080	0.915750	0.276580
O5211	O521	0.163750	0.249090	0.609910
O5221	O522	0.830410	0.582420	0.943250
O5231	O523	0.570390	0.917520	0.287810
O5241	O524	0.237060	0.250850	0.621140
O5251	O525	0.903720	0.584190	0.954480
O5261	O526	0.555590	0.992580	0.289010
O5271	O527	0.222260	0.325920	0.622340
O5281	O528	0.888930	0.659250	0.955680
O5291	O529	0.612840	0.012730	0.283550
O5301	O530	0.279510	0.346060	0.616880
O5311	O531	0.946170	0.679400	0.950220
O5321	O532	0.599800	0.950080	0.267030
O5331	O533	0.266470	0.283410	0.600360
O5341	O534	0.933140	0.616750	0.933700
O5351	O535	0.618810	0.007010	0.272390
O5361	O536	0.285480	0.340340	0.605730
O5371	O537	0.952150	0.673680	0.939060
O5381	O538	0.577200	0.909910	0.273670
O5391	O539	0.243870	0.243240	0.607000
O5401	O540	0.910540	0.576580	0.940340
O5411	O541	0.524270	0.965220	0.267900
O5421	O542	0.190940	0.298560	0.601240
O5431	O543	0.857610	0.631890	0.934570
O5441	O544	0.569280	0.979960	0.263600
O5451	O545	0.235940	0.313290	0.596930
O5461	O546	0.902610	0.646630	0.930260
C16751	C1675	0.627940	0.021990	0.277980
C16761	C1676	0.294600	0.355330	0.611310
C16771	C1677	0.961270	0.688660	0.944640
C16781	C1678	0.543040	0.975920	0.262960
C16791	C1679	0.209700	0.309250	0.596300
C16801	C1680	0.876370	0.642590	0.929630
C16811	C1681	0.594280	0.923940	0.268610
C16821	C1682	0.260940	0.257270	0.601940
C16831	C1683	0.927610	0.590610	0.935280
C16841	C1684	0.496840	0.891550	0.277880
C16851	C1685	0.163500	0.224890	0.611210
C16861	C1686	0.830170	0.558220	0.944550
C16871	C1687	0.581510	0.936230	0.292750
C16881	C1688	0.248180	0.269560	0.626080
C16891	C1689	0.914850	0.602900	0.959410
C16901	C1690	0.529970	0.988200	0.287300
C16911	C1691	0.196630	0.321530	0.620630
C16921	C1692	0.863300	0.654870	0.953970
C16931	C1693	0.009940	0.572740	0.212220
C16941	C1694	0.676600	0.906080	0.545550
C16951	C1695	0.343270	0.239410	0.878890
C16961	C1696	0.006500	0.531650	0.219160
C16971	C1697	0.673170	0.864980	0.552500
C16981	C1698	0.339830	0.198310	0.885830
C16991	C1699	0.007640	0.574310	0.224850
C17001	C1700	0.674310	0.907640	0.558180
C17011	C1701	0.340980	0.240970	0.891510
C17021	C1702	0.008410	0.544760	0.212620
C17031	C1703	0.675080	0.878100	0.545960
C17041	C1704	0.341740	0.211430	0.879290
H7211	H721	0.009100	0.533500	0.207910
H7221	H722	0.675770	0.866830	0.541240
H7231	H723	0.342440	0.200170	0.874570
C17051	C1705	0.006050	0.546430	0.225250
C17061	C1706	0.672720	0.879760	0.558580
C17071	C1707	0.339380	0.213100	0.891910
H7241	H724	0.005000	0.536470	0.230300
H7251	H725	0.671670	0.869810	0.563630
H7261	H726	0.338330	0.203140	0.896970
C17081	C1708	0.009540	0.587460	0.218340
C17091	C1709	0.676200	0.920790	0.551680
C17101	C1710	0.342870	0.254120	0.885010
H7271	H727	0.011230	0.609300	0.218050
H7281	H728	0.677900	0.942630	0.551390
H7291	H729	0.344560	0.275970	0.884720
C17111	C1711	0.015880	0.643100	0.194460
C17121	C1712	0.682540	0.976430	0.527790
C17131	C1713	0.349210	0.309770	0.861130
C17141	C1714	0.022430	0.662250	0.188740
C17151	C1715	0.689100	0.995590	0.522080
C17161	C1716	0.355770	0.328920	0.855410
C17171	C1717	0.034300	0.657480	0.182560
C17181	C1718	0.700960	0.990810	0.515890
C17191	C1719	0.367630	0.324150	0.849220
C17201	C1720	0.038670	0.632550	0.182180
C17211	C1721	0.705330	0.965890	0.515520
C17221	C1722	0.372000	0.299220	0.848850
C17231	C1723	0.032130	0.613440	0.187940
C17241	C1724	0.698800	0.946770	0.521270
C17251	C1725	0.365460	0.280110	0.854600
C17261	C1726	0.021020	0.618890	0.194110
C17271	C1727	0.687680	0.952220	0.527440
C17281	C1728	0.354350	0.285550	0.860770
H7301	H730	0.018850	0.681250	0.189190
H7311	H731	0.685510	0.014580	0.522520
H7321	H732	0.352180	0.347920	0.855860
H7331	H733	0.047830	0.628380	0.177490
H7341	H734	0.714490	0.961710	0.510830
H7351	H735	0.381160	0.295040	0.844160
H7361	H736	0.007380	0.647530	0.199220
H7371	H737	0.674050	0.980860	0.532560
H7381	H738	0.340710	0.314200	0.865890
H7391	H739	0.036290	0.594800	0.187640
H7401	H740	0.702950	0.928130	0.520970
H7411	H741	0.369620	0.261460	0.854310
C17291	C1729	0.024050	0.607150	0.249000
C17301	C1730	0.690720	0.940480	0.582340
C17311	C1731	0.357380	0.273810	0.915670
C17321	C1732	0.029230	0.621950	0.255400
C17331	C1733	0.695900	0.955280	0.588730
C17341	C1734	0.362560	0.288620	0.922070
C17351	C1735	0.025140	0.646920	0.256110
C17361	C1736	0.691810	0.980260	0.589450
C17371	C1737	0.358470	0.313590	0.922780
C17381	C1738	0.015170	0.656330	0.250310
C17391	C1739	0.681830	0.989670	0.583640
C17401	C1740	0.348500	0.323000	0.916970
C17411	C1741	0.010040	0.641450	0.243900
C17421	C1742	0.676710	0.974780	0.577240
C17431	C1743	0.343370	0.308110	0.910570
C17441	C1744	0.014710	0.617000	0.243240
C17451	C1745	0.681380	0.950340	0.576580
C17461	C1746	0.348040	0.283670	0.909910
H7421	H742	0.036890	0.614210	0.259780
H7431	H743	0.703560	0.947550	0.593110
H7441	H744	0.370230	0.280880	0.926450
H7451	H745	0.011880	0.675530	0.250720
H7461	H746	0.678550	0.008860	0.584050
H7471	H747	0.345210	0.342190	0.917380
H7481	H748	0.027760	0.588260	0.248510
H7491	H749	0.694430	0.921590	0.581850
H7501	H750	0.361090	0.254920	0.915180
H7511	H751	0.002860	0.649200	0.239440
H7521	H752	0.669530	0.982530	0.572780
H7531	H753	0.336200	0.315870	0.906110
C17471	C1747	0.008140	0.442830	0.228150
C17481	C1748	0.674810	0.776160	0.561490
C17491	C1749	0.341480	0.109500	0.894820
C17501	C1750	0.008350	0.415880	0.229030
C17511	C1751	0.675020	0.749210	0.562360
C17521	C1752	0.341680	0.082540	0.895690
C17531	C1753	0.006290	0.398300	0.223190
C17541	C1754	0.672950	0.731630	0.556520
C17551	C1755	0.339620	0.064960	0.889860
C17561	C1756	0.003940	0.408290	0.216490
C17571	C1757	0.670600	0.741620	0.549830
C17581	C1758	0.337270	0.074950	0.883160
C17591	C1759	0.003730	0.435130	0.215650
C17601	C1760	0.670400	0.768460	0.548980
C17611	C1761	0.337060	0.101800	0.882310
C17621	C1762	0.005850	0.452460	0.221460
C17631	C1763	0.672520	0.785790	0.554790
C17641	C1764	0.339180	0.119120	0.888130
H7541	H754	0.010170	0.408710	0.234230
H7551	H755	0.676830	0.742050	0.567570
H7561	H756	0.343500	0.075380	0.900900
H7571	H757	0.002280	0.395230	0.211890
H7581	H758	0.668940	0.728570	0.545230
H7591	H759	0.335610	0.061900	0.878560
H7601	H760	0.009820	0.456220	0.232680
H7611	H761	0.676480	0.789550	0.566010
H7621	H762	0.343150	0.122890	0.899350
H7631	H763	0.001960	0.442440	0.210460
H7641	H764	0.668630	0.775780	0.543790
H7651	H765	0.335300	0.109110	0.877120
C17651	C1765	0.016460	0.600950	0.200250
C17661	C1766	0.683130	0.934280	0.533580
C17671	C1767	0.349790	0.267610	0.866910
C17681	C1768	0.013190	0.587310	0.205600
C17691	C1769	0.679860	0.920640	0.538930
C17701	C1770	0.346530	0.253970	0.872260
C17711	C1771	0.011160	0.602530	0.236620
C17721	C1772	0.677820	0.935870	0.569950
C17731	C1773	0.344490	0.269200	0.903290
C17741	C1774	0.009090	0.589940	0.231180
C17751	C1775	0.675760	0.923280	0.564510
C17761	C1776	0.342430	0.256610	0.897840
C17771	C1777	0.006030	0.503550	0.219770
C17781	C1778	0.672690	0.836880	0.553100
C17791	C1779	0.339360	0.170210	0.886440
C17801	C1780	0.005870	0.480210	0.220510
C17811	C1781	0.672530	0.813540	0.553850
C17821	C1782	0.339200	0.146870	0.887180
C17831	C1783	0.792070	0.184590	0.277920
C17841	C1784	0.458740	0.517930	0.611260
C17851	C1785	0.125400	0.851260	0.944590
C17861	C1786	0.836840	0.221390	0.271790
C17871	C1787	0.503500	0.554720	0.605130
C17881	C1788	0.170170	0.888050	0.938460
C17891	C1789	0.829280	0.229560	0.283910
C17901	C1790	0.495950	0.562900	0.617240
C17911	C1791	0.162620	0.896230	0.950570
C17921	C1792	0.809540	0.194150	0.271830
C17931	C1793	0.476210	0.527480	0.605170
C17941	C1794	0.142870	0.860810	0.938500
H7661	H766	0.801940	0.180480	0.267160
H7671	H767	0.468610	0.513810	0.600490
H7681	H768	0.135270	0.847140	0.933820
C17951	C1795	0.846630	0.239020	0.277830
C17961	C1796	0.513300	0.572350	0.611160
C17971	C1797	0.179970	0.905680	0.944490
H7691	H769	0.867740	0.260120	0.277780
H7701	H770	0.534400	0.593450	0.611120
H7711	H771	0.201070	0.926780	0.944450
C17981	C1798	0.801980	0.202340	0.283960
C17991	C1799	0.468650	0.535670	0.617300
C18001	C1800	0.135320	0.869000	0.950630
H7721	H772	0.788490	0.195050	0.288670
H7731	H773	0.455150	0.528390	0.622010
H7741	H774	0.121820	0.861720	0.955340
C18011	C1801	0.695250	0.095050	0.284140
C18021	C1802	0.361910	0.428390	0.617470
C18031	C1803	0.028580	0.761720	0.950810
C18041	C1804	0.667840	0.067970	0.284150
C18051	C1805	0.334510	0.401300	0.617480
C18061	C1806	0.001180	0.734640	0.950810
C18071	C1807	0.656940	0.050870	0.277990
C18081	C1808	0.323610	0.384210	0.611320
C18091	C1809	0.990280	0.717540	0.944650
C18101	C1810	0.674150	0.061600	0.271840
C18111	C1811	0.340820	0.394930	0.605170
C18121	C1812	0.007490	0.728260	0.938500
C18131	C1813	0.701530	0.088680	0.271850
C18141	C1814	0.368200	0.422010	0.605190
C18151	C1815	0.034860	0.755340	0.938520
C18161	C1816	0.712130	0.105450	0.278000
C18171	C1817	0.378800	0.438780	0.611330
C18181	C1818	0.045470	0.772110	0.944670
H7751	H775	0.655090	0.060270	0.288960
H7761	H776	0.321750	0.393600	0.622290
H7771	H777	0.988420	0.726940	0.955620
H7781	H778	0.666340	0.048930	0.267020
H7791	H779	0.333010	0.382260	0.600350
H7801	H780	0.999670	0.715590	0.933680
H7811	H781	0.703320	0.107920	0.288920
H7821	H782	0.369990	0.441260	0.622250
H7831	H783	0.036650	0.774590	0.955590
H7841	H784	0.714480	0.096590	0.267080
H7851	H785	0.381140	0.429920	0.600410
H7861	H786	0.047810	0.763250	0.933740
C18191	C1819	0.841730	0.278840	0.306830
C18201	C1820	0.508400	0.612180	0.640160
C18211	C1821	0.175060	0.945510	0.973500
C18221	C1822	0.851770	0.299180	0.312390
C18231	C1823	0.518440	0.632520	0.645720
C18241	C1824	0.185100	0.965850	0.979060
C18251	C1825	0.879880	0.325840	0.312060
C18261	C1826	0.546540	0.659180	0.645390
C18271	C1827	0.213210	0.992510	0.978730
C18281	C1828	0.897890	0.331330	0.306090
C18291	C1829	0.564560	0.664660	0.639420
C18301	C1830	0.231230	0.998000	0.972760
C18311	C1831	0.887750	0.310910	0.300540
C18321	C1832	0.554420	0.644240	0.633870
C18331	C1833	0.221090	0.977570	0.967210
C18341	C1834	0.859580	0.284780	0.300880
C18351	C1835	0.526250	0.618110	0.634210
C18361	C1836	0.192920	0.951450	0.967550
H7871	H787	0.837400	0.294360	0.316920
H7881	H788	0.504070	0.627690	0.650250
H7891	H789	0.170730	0.961030	0.983590
H7901	H790	0.919600	0.351650	0.305700
H7911	H791	0.586270	0.684990	0.639030
H7921	H792	0.252940	0.018320	0.972360
H7931	H793	0.819880	0.258670	0.307120
H7941	H794	0.486550	0.592000	0.640450
H7951	H795	0.153210	0.925340	0.973790
H7961	H796	0.901670	0.315630	0.295940
H7971	H797	0.568340	0.648960	0.629270
H7981	H798	0.235010	0.982300	0.962600
C18371	C1837	0.916790	0.280280	0.254920
C18381	C1838	0.583460	0.613610	0.588250
C18391	C1839	0.250130	0.946940	0.921590
C18401	C1840	0.937020	0.290710	0.249330
C18411	C1841	0.603690	0.624050	0.582660
C18421	C1842	0.270350	0.957380	0.915990
C18431	C1843	0.931870	0.272590	0.243390
C18441	C1844	0.598540	0.605920	0.576730
C18451	C1845	0.265210	0.939260	0.910060
C18461	C1846	0.905750	0.244030	0.243150
C18471	C1847	0.572420	0.577370	0.576480
C18481	C1848	0.239080	0.910700	0.909820
C18491	C1849	0.885600	0.233690	0.248750
C18501	C1850	0.552270	0.567020	0.582090
C18511	C1851	0.218930	0.900360	0.915420
C18521	C1852	0.891200	0.251690	0.254660
C18531	C1853	0.557860	0.585020	0.587990
C18541	C1854	0.224530	0.918360	0.921330
H7991	H799	0.956940	0.312770	0.249660
H8001	H800	0.623610	0.646100	0.582990
H8011	H801	0.290280	0.979430	0.916330
H8021	H802	0.901220	0.229580	0.238650
H8031	H803	0.567880	0.562910	0.571980
H8041	H804	0.234550	0.896240	0.905320
H8051	H805	0.921270	0.294310	0.259490
H8061	H806	0.587930	0.627640	0.592820
H8071	H807	0.254600	0.960980	0.926160
H8081	H808	0.865840	0.211520	0.248530
H8091	H809	0.532510	0.544850	0.581860
H8101	H810	0.199180	0.878180	0.915190
C18551	C1855	0.740320	0.133320	0.277990
C18561	C1856	0.406990	0.466660	0.611330
C18571	C1857	0.073660	0.799990	0.944660
C18581	C1858	0.763920	0.156680	0.277970
C18591	C1859	0.430590	0.490010	0.611300
C18601	C1860	0.097260	0.823350	0.944630
C18611	C1861	0.848590	0.264620	0.295020
C18621	C1862	0.515260	0.597950	0.628360
C18631	C1863	0.181930	0.931290	0.961690
C18641	C1864	0.839530	0.248260	0.290020
C18651	C1865	0.506200	0.581590	0.623350
C18661	C1866	0.172870	0.914920	0.956690
C18671	C1867	0.855150	0.231450	0.265610
C18681	C1868	0.521820	0.564780	0.598950
C18691	C1869	0.188490	0.898120	0.932280
C18701	C1870	0.871260	0.240510	0.260560
C18711	C1871	0.537930	0.573840	0.593890
C18721	C1872	0.204590	0.907180	0.927230
C18731	C1873	0.669350	0.372450	0.328240
C18741	C1874	0.336020	0.705780	0.661580
C18751	C1875	0.002690	0.039120	0.994910
C18761	C1876	0.615470	0.338690	0.328270
C18771	C1877	0.282140	0.672020	0.661610
C18781	C1878	0.948800	0.005360	0.994940
C18791	C1879	0.635610	0.392540	0.328210
C18801	C1880	0.302280	0.725870	0.661550
C18811	C1881	0.968950	0.059210	0.994880
C18821	C1882	0.644670	0.343230	0.328270
C18831	C1883	0.311340	0.676560	0.661600
C18841	C1884	0.978000	0.009900	0.994940
H8111	H811	0.648170	0.324130	0.328330
H8121	H812	0.314840	0.657460	0.661670
H8131	H813	0.981500	0.990800	0.995000
C18851	C1885	0.610940	0.363340	0.328240
C18861	C1886	0.277600	0.696680	0.661570
C18871	C1887	0.944270	0.030010	0.994910
H8141	H814	0.588310	0.359820	0.328280
H8151	H815	0.254980	0.693160	0.661610
H8161	H816	0.921650	0.026490	0.994950
C18881	C1888	0.664830	0.397100	0.328210
C18891	C1889	0.331500	0.730440	0.661540
C18901	C1890	0.998170	0.063770	0.994880
H8171	H817	0.683960	0.419730	0.328230
H8181	H818	0.350620	0.753070	0.661560
H8191	H819	0.017290	0.086400	0.994900
C18911	C1891	0.757090	0.358830	0.328270
C18921	C1892	0.423760	0.692160	0.661610
C18931	C1893	0.090430	0.025490	0.994940
C18941	C1894	0.785660	0.361960	0.328590
C18951	C1895	0.452320	0.695300	0.661920
C18961	C1896	0.118990	0.028630	0.995250
C18971	C1897	0.811370	0.390570	0.329340
C18981	C1898	0.478040	0.723900	0.662680
C18991	C1899	0.144700	0.057230	0.996010
C19001	C1900	0.807780	0.415950	0.329740
C19011	C1901	0.474450	0.749280	0.663070
C19021	C1902	0.141110	0.082610	0.996400
C19031	C1903	0.779110	0.412700	0.329420
C19041	C1904	0.445780	0.746030	0.662760
C19051	C1905	0.112450	0.079360	0.996090
C19061	C1906	0.753780	0.384140	0.328710
C19071	C1907	0.420440	0.717470	0.662040
C19081	C1908	0.087110	0.050800	0.995370
H8201	H820	0.787740	0.342030	0.328270
H8211	H821	0.454410	0.675370	0.661600
H8221	H822	0.121080	0.008700	0.994930
H8231	H823	0.827200	0.438220	0.330320
H8241	H824	0.493860	0.771550	0.663650
H8251	H825	0.160530	0.104890	0.996980
H8261	H826	0.737530	0.336660	0.327720
H8271	H827	0.404200	0.669990	0.661060
H8281	H828	0.070860	0.003330	0.994390
H8291	H829	0.776640	0.432380	0.329770
H8301	H830	0.443300	0.765710	0.663100
H8311	H831	0.109970	0.099040	0.996430
C19091	C1909	0.649470	0.493940	0.328420
C19101	C1910	0.316140	0.827270	0.661750
C19111	C1911	0.982800	0.160610	0.995080
C19121	C1912	0.646410	0.519390	0.328760
C19131	C1913	0.313070	0.852720	0.662090
C19141	C1914	0.979740	0.186060	0.995420
C19151	C1915	0.617760	0.516510	0.329350
C19161	C1916	0.284420	0.849840	0.662680
C19171	C1917	0.951090	0.183170	0.996020
C19181	C1918	0.592260	0.487530	0.329550
C19191	C1919	0.258930	0.820860	0.662880
C19201	C1920	0.925590	0.154190	0.996210
C19211	C1921	0.595440	0.462080	0.329210
C19221	C1922	0.262110	0.795420	0.662540
C19231	C1923	0.928770	0.128750	0.995870
C19241	C1924	0.624050	0.465300	0.328660
C19251	C1925	0.290710	0.798630	0.661990
C19261	C1926	0.957380	0.131970	0.995320
H8321	H832	0.666430	0.541420	0.328590
H8331	H833	0.333100	0.874750	0.661930
H8341	H834	0.999760	0.208090	0.995260
H8351	H835	0.569950	0.484680	0.330000
H8361	H836	0.236620	0.818010	0.663340
H8371	H837	0.903280	0.151340	0.996670
H8381	H838	0.671670	0.496540	0.328000
H8391	H839	0.338340	0.829870	0.661330
H8401	H840	0.005000	0.163210	0.994660
H8411	H841	0.575680	0.439910	0.329400
H8421	H842	0.242340	0.773240	0.662740
H8431	H843	0.909010	0.106580	0.996070
C19271	C1927	0.513880	0.251190	0.328670
C19281	C1928	0.180540	0.584520	0.662010
C19291	C1929	0.847210	0.917860	0.995340
C19301	C1930	0.488370	0.222660	0.329010
C19311	C1931	0.155030	0.555990	0.662340
C19321	C1932	0.821700	0.889330	0.995670
C19331	C1933	0.491200	0.196870	0.329530
C19341	C1934	0.157860	0.530210	0.662870
C19351	C1935	0.824530	0.863540	0.996200
C19361	C1936	0.520160	0.200340	0.329700
C19371	C1937	0.186830	0.533680	0.663040
C19381	C1938	0.853500	0.867010	0.996370
C19391	C1939	0.545650	0.228970	0.329370
C19401	C1940	0.212320	0.562300	0.662700
C19411	C1941	0.878990	0.895640	0.996030
C19421	C1942	0.542500	0.254380	0.328860
C19431	C1943	0.209170	0.587720	0.662190
C19441	C1944	0.875840	0.921050	0.995530
H8441	H844	0.466340	0.220650	0.328870
H8451	H845	0.133010	0.553990	0.662200
H8461	H846	0.799680	0.887320	0.995540
H8471	H847	0.522970	0.180860	0.330110
H8481	H848	0.189640	0.514190	0.663440
H8491	H849	0.856310	0.847530	0.996780
H8501	H850	0.511330	0.270820	0.328290
H8511	H851	0.178000	0.604160	0.661620
H8521	H852	0.844670	0.937490	0.994950
H8531	H853	0.567810	0.231350	0.329520
H8541	H854	0.234480	0.564680	0.662860
H8551	H855	0.901140	0.898020	0.996190
C19451	C1945	0.724250	0.380580	0.328500
C19461	C1946	0.390920	0.713910	0.661830
C19471	C1947	0.057590	0.047240	0.995160
C19481	C1948	0.699290	0.377070	0.328360
C19491	C1949	0.365960	0.710400	0.661690
C19501	C1950	0.032630	0.043740	0.995020
C19511	C1951	0.627540	0.439320	0.328440
C19521	C1952	0.294210	0.772650	0.661770
C19531	C1953	0.960880	0.105980	0.995110
C19541	C1954	0.631020	0.417860	0.328310
C19551	C1955	0.297690	0.751190	0.661640
C19561	C1956	0.964350	0.084530	0.994980
C19571	C1957	0.590090	0.308770	0.328430
C19581	C1958	0.256760	0.642100	0.661760
C19591	C1959	0.923430	0.975440	0.995100
C19601	C1960	0.568560	0.283850	0.328610
C19611	C1961	0.235230	0.617180	0.661940
C19621	C1962	0.901900	0.950520	0.995270
Zn1691	Zn169	0.942370	0.255740	0.112760
Zn1701	Zn170	0.609030	0.589070	0.446100
Zn1711	Zn171	0.275700	0.922400	0.779430
Zn1721	Zn172	0.966640	0.307100	0.103620
Zn1731	Zn173	0.633310	0.640440	0.436950
Zn1741	Zn174	0.299980	0.973770	0.770290
Zn1751	Zn175	0.982340	0.315480	0.118270
Zn1761	Zn176	0.649010	0.648820	0.451610
Zn1771	Zn177	0.315680	0.982150	0.784940
Zn1781	Zn178	0.005700	0.286800	0.109350
Zn1791	Zn179	0.672370	0.620140	0.442690
Zn1801	Zn180	0.339040	0.953470	0.776020
O5471	O547	0.974260	0.291290	0.111000
O5481	O548	0.640930	0.624620	0.444340
O5491	O549	0.307590	0.957950	0.777670
O5501	O550	0.912180	0.245180	0.107000
O5511	O551	0.578850	0.578520	0.440330
O5521	O552	0.245520	0.911850	0.773660
O5531	O553	0.968210	0.341380	0.105310
O5541	O554	0.634880	0.674710	0.438650
O5551	O555	0.301540	0.008050	0.771980
O5561	O556	0.957950	0.298380	0.125320
O5571	O557	0.624610	0.631710	0.458650
O5581	O558	0.291280	0.965050	0.791990
O5591	O559	0.931110	0.284020	0.099920
O5601	O560	0.597780	0.617350	0.433250
O5611	O561	0.264440	0.950680	0.766590
O5621	O562	0.927540	0.253340	0.121060
O5631	O563	0.594200	0.586680	0.454400
O5641	O564	0.260870	0.920010	0.787730
O5651	O565	0.980140	0.347660	0.116460
O5661	O566	0.646810	0.681000	0.449790
O5671	O567	0.313470	0.014330	0.783120
O5681	O568	0.018360	0.328880	0.121800
O5691	O569	0.685030	0.662220	0.455130
O5701	O570	0.351700	0.995550	0.788470
O5711	O571	0.997660	0.249610	0.109770
O5721	O572	0.664330	0.582940	0.443100
O5731	O573	0.331000	0.916270	0.776430
O5741	O574	0.035670	0.305970	0.115180
O5751	O575	0.702340	0.639310	0.448510
O5761	O576	0.369010	0.972640	0.781850
O5771	O577	0.949600	0.225930	0.112430
O5781	O578	0.616270	0.559260	0.445760
O5791	O579	0.282940	0.892600	0.779090
O5801	O580	0.991600	0.314450	0.096720
O5811	O581	0.658260	0.647790	0.430050
O5821	O582	0.324930	0.981120	0.763390
O5831	O583	0.021110	0.298960	0.101070
O5841	O584	0.687770	0.632290	0.434400
O5851	O585	0.354440	0.965620	0.767730
C19631	C1963	0.038880	0.323180	0.120220
C19641	C1964	0.705540	0.656520	0.453550
C19651	C1965	0.372210	0.989850	0.786890
C19661	C1966	0.013540	0.310010	0.096120
C19671	C1967	0.680210	0.643350	0.429450
C19681	C1968	0.346880	0.976680	0.762790
C19691	C1969	0.973530	0.225620	0.111110
C19701	C1970	0.640200	0.558960	0.444450
C19711	C1971	0.306870	0.892290	0.777780
C19721	C1972	0.909860	0.258460	0.101700
C19731	C1973	0.576530	0.591790	0.435030
C19741	C1974	0.243190	0.925130	0.768360
C19751	C1975	0.935710	0.272160	0.125990
C19761	C1976	0.602380	0.605500	0.459320
C19771	C1977	0.269040	0.938830	0.792650
C19781	C1978	0.974040	0.356560	0.110870
C19791	C1979	0.640710	0.689900	0.444210
C19801	C1980	0.307370	0.023230	0.777540
C19811	C1981	0.822110	0.701450	0.277640
C19821	C1982	0.488780	0.034790	0.610970
C19831	C1983	0.155450	0.368120	0.944310
C19841	C1984	0.785170	0.709380	0.271600
C19851	C1985	0.451830	0.042710	0.604930
C19861	C1986	0.118500	0.376040	0.938270
C19871	C1987	0.777100	0.693250	0.283690
C19881	C1988	0.443760	0.026580	0.617020
C19891	C1989	0.110430	0.359920	0.950360
C19901	C1990	0.812460	0.709470	0.271590
C19911	C1991	0.479130	0.042810	0.604920
C19921	C1992	0.145800	0.376140	0.938260
H8561	H856	0.826150	0.715800	0.266910
H8571	H857	0.492820	0.049140	0.600250
H8581	H858	0.159480	0.382470	0.933580
C19931	C1993	0.767560	0.701280	0.277650
C19941	C1994	0.434220	0.034610	0.610980
C19951	C1995	0.100890	0.367940	0.944310
H8591	H859	0.746440	0.701220	0.277650
H8601	H860	0.413110	0.034560	0.610980
H8611	H861	0.079780	0.367890	0.944320
C19961	C1996	0.804390	0.693330	0.283690
C19971	C1997	0.471050	0.026670	0.617020
C19981	C1998	0.137720	0.360000	0.950360
H8621	H862	0.811780	0.687090	0.288370
H8631	H863	0.478440	0.020420	0.621700
H8641	H864	0.145110	0.353750	0.955030
C19991	C1999	0.918840	0.708490	0.271520
C20001	C2000	0.585500	0.041820	0.604860
C20011	C2001	0.252170	0.375160	0.938190
C20021	C2002	0.946150	0.708660	0.271520
C20031	C2003	0.612810	0.041990	0.604860
C20041	C2004	0.279480	0.375330	0.938190
C20051	C2005	0.956880	0.702290	0.277680
C20061	C2006	0.623550	0.035620	0.611010
C20071	C2007	0.290210	0.368950	0.944340
C20081	C2008	0.939600	0.695780	0.283820
C20091	C2009	0.606270	0.029110	0.617150
C20101	C2010	0.272940	0.362450	0.950480
C20111	C2011	0.912310	0.695640	0.283790
C20121	C2012	0.578980	0.028970	0.617130
C20131	C2013	0.245650	0.362300	0.950460
C20141	C2014	0.901870	0.701970	0.277650
C20151	C2015	0.568540	0.035310	0.610980
C20161	C2016	0.235210	0.368640	0.944320
H8651	H865	0.958950	0.713740	0.266720
H8661	H866	0.625620	0.047070	0.600050
H8671	H867	0.292290	0.380410	0.933390
H8681	H868	0.947300	0.690800	0.288630
H8691	H869	0.613960	0.024140	0.621970
H8701	H870	0.280630	0.357470	0.955300
H8711	H871	0.910890	0.713420	0.266750
H8721	H872	0.577560	0.046760	0.600080
H8731	H873	0.244230	0.380090	0.933410
H8741	H874	0.899300	0.690580	0.288560
H8751	H875	0.565970	0.023920	0.621890
H8761	H876	0.232640	0.357250	0.955230
C20171	C2017	0.728310	0.656000	0.306670
C20181	C2018	0.394980	0.989330	0.640010
C20191	C2019	0.061640	0.322660	0.973340
C20201	C2020	0.708260	0.645950	0.312300
C20211	C2021	0.374930	0.979290	0.645630
C20221	C2022	0.041600	0.312620	0.978960
C20231	C2023	0.681990	0.648100	0.312110
C20241	C2024	0.348660	0.981440	0.645450
C20251	C2025	0.015320	0.314770	0.978780
C20261	C2026	0.676600	0.661040	0.306220
C20271	C2027	0.343260	0.994370	0.639550
C20281	C2028	0.009930	0.327710	0.972880
C20291	C2029	0.696720	0.671060	0.300600
C20301	C2030	0.363380	0.004400	0.633930
C20311	C2031	0.030050	0.337730	0.967270
C20321	C2032	0.722470	0.668360	0.300800
C20331	C2033	0.389140	0.001690	0.634130
C20341	C2034	0.055800	0.335030	0.967470
H8771	H877	0.713000	0.636080	0.316770
H8781	H878	0.379670	0.969410	0.650100
H8791	H879	0.046330	0.302750	0.983430
H8801	H880	0.656560	0.662970	0.305930
H8811	H881	0.323230	0.996300	0.639260
H8821	H882	0.989900	0.329630	0.972600
H8831	H883	0.748190	0.653800	0.306860
H8841	H884	0.414860	0.987140	0.640190
H8851	H885	0.081530	0.320470	0.973520
H8861	H886	0.692060	0.680600	0.296060
H8871	H887	0.358720	0.013940	0.629390
H8881	H888	0.025390	0.347270	0.962730
C20351	C2035	0.773830	0.747070	0.248690
C20361	C2036	0.440500	0.080410	0.582020
C20371	C2037	0.107160	0.413740	0.915350
C20381	C2038	0.763800	0.757150	0.243080
C20391	C2039	0.430470	0.090480	0.576420
C20401	C2040	0.097140	0.423810	0.909750
C20411	C2041	0.735210	0.754600	0.243260
C20421	C2042	0.401870	0.087930	0.576600
C20431	C2043	0.068540	0.421260	0.909930
C20441	C2044	0.716720	0.741250	0.249130
C20451	C2045	0.383390	0.074590	0.582460
C20461	C2046	0.050060	0.407920	0.915800
C20471	C2047	0.726840	0.731200	0.254720
C20481	C2048	0.393510	0.064540	0.588050
C20491	C2049	0.060170	0.397870	0.921390
C20501	C2050	0.755460	0.734290	0.254530
C20511	C2051	0.422130	0.067620	0.587860
C20521	C2052	0.088800	0.400950	0.921190
H8891	H889	0.778530	0.767350	0.238640
H8901	H890	0.445200	0.100690	0.571970
H8911	H891	0.111860	0.434020	0.905300
H8921	H892	0.694630	0.739030	0.249410
H8931	H893	0.361300	0.072360	0.582750
H8941	H894	0.027960	0.405690	0.916080
H8951	H895	0.796030	0.749570	0.248510
H8961	H896	0.462700	0.082910	0.581840
H8971	H897	0.129370	0.416240	0.915180
H8981	H898	0.712520	0.721350	0.259240
H8991	H899	0.379190	0.054680	0.592570
H9001	H900	0.045860	0.388020	0.925910
C20531	C2053	0.873760	0.701780	0.277640
C20541	C2054	0.540420	0.035110	0.610970
C20551	C2055	0.207090	0.368440	0.944310
C20561	C2056	0.850210	0.701620	0.277640
C20571	C2057	0.516880	0.034950	0.610970
C20581	C2058	0.183540	0.368290	0.944300
C20591	C2059	0.742370	0.677430	0.294880
C20601	C2060	0.409040	0.010760	0.628220
C20611	C2061	0.075710	0.344100	0.961550
C20621	C2062	0.758540	0.684720	0.289840
C20631	C2063	0.425210	0.018060	0.623170
C20641	C2064	0.091880	0.351390	0.956510
C20651	C2065	0.775160	0.717890	0.265460
C20661	C2066	0.441820	0.051230	0.598790
C20671	C2067	0.108490	0.384560	0.932130
C20681	C2068	0.766300	0.725200	0.260430
C20691	C2069	0.432960	0.058530	0.593760
C20701	C2070	0.099630	0.391870	0.927090
C20711	C2071	0.315880	0.180290	0.283810
C20721	C2072	0.982550	0.513620	0.617150
C20731	C2073	0.649210	0.846960	0.950480
C20741	C2074	0.300240	0.172680	0.271690
C20751	C2075	0.966910	0.506020	0.605020
C20761	C2076	0.633570	0.839350	0.938360
C20771	C2077	0.308210	0.217480	0.277810
C20781	C2078	0.974880	0.550810	0.611140
C20791	C2079	0.641540	0.884140	0.944470
C20801	C2080	0.308000	0.162910	0.277730
C20811	C2081	0.974670	0.496250	0.611070
C20821	C2082	0.641330	0.829580	0.944400
H9011	H901	0.307890	0.141780	0.277710
H9021	H902	0.974560	0.475110	0.611040
H9031	H903	0.641220	0.808440	0.944380
C20831	C2083	0.300340	0.199980	0.271720
C20841	C2084	0.967010	0.533310	0.605060
C20851	C2085	0.633670	0.866650	0.938390
H9041	H904	0.294260	0.207530	0.267040
H9051	H905	0.960930	0.540860	0.600380
H9061	H906	0.627590	0.874190	0.933710
C20861	C2086	0.316000	0.207600	0.283850
C20871	C2087	0.982660	0.540930	0.617190
C20881	C2088	0.649330	0.874260	0.950520
H9071	H907	0.322120	0.221080	0.288560
H9081	H908	0.988790	0.554410	0.621890
H9091	H909	0.655450	0.887750	0.955230
C20891	C2089	0.351920	0.167610	0.306810
C20901	C2090	0.018590	0.500940	0.640150
C20911	C2091	0.685260	0.834270	0.973480
C20921	C2092	0.361760	0.157390	0.312420
C20931	C2093	0.028430	0.490730	0.645760
C20941	C2094	0.695100	0.824060	0.979090
C20951	C2095	0.359730	0.129040	0.312160
C20961	C2096	0.026400	0.462370	0.645500
C20971	C2097	0.693070	0.795700	0.978830
C20981	C2098	0.347120	0.110970	0.306210
C20991	C2099	0.013790	0.444300	0.639540
C21001	C2100	0.680450	0.777640	0.972870
C21011	C2101	0.337300	0.121280	0.300600
C21021	C2102	0.003960	0.454620	0.633940
C21031	C2103	0.670630	0.787950	0.967270
C21041	C2104	0.339890	0.149690	0.300880
C21051	C2105	0.006560	0.483020	0.634210
C21061	C2106	0.673220	0.816350	0.967550
H9101	H910	0.371400	0.171810	0.316940
H9111	H911	0.038060	0.505140	0.650270
H9121	H912	0.704730	0.838470	0.983600
H9131	H913	0.345320	0.089080	0.305860
H9141	H914	0.011990	0.422410	0.639190
H9151	H915	0.678650	0.755750	0.972530
H9161	H916	0.354030	0.189630	0.307060
H9171	H917	0.020700	0.522960	0.640390
H9181	H918	0.687360	0.856300	0.973720
H9191	H919	0.328030	0.107310	0.296020
H9201	H920	0.994690	0.440640	0.629350
H9211	H921	0.661360	0.773970	0.962680
C21071	C2107	0.301650	0.307400	0.271760
C21081	C2108	0.968320	0.640730	0.605090
C21091	C2109	0.634990	0.974070	0.938430
C21101	C2110	0.301300	0.334440	0.271780
C21111	C2111	0.967960	0.667770	0.605110
C21121	C2112	0.634630	0.001100	0.938450
C21131	C2113	0.307150	0.351320	0.277970
C21141	C2114	0.973820	0.684650	0.611300
C21151	C2115	0.640490	0.017990	0.944630
C21161	C2116	0.313400	0.340450	0.284110
C21171	C2117	0.980070	0.673780	0.617450
C21181	C2118	0.646730	0.007120	0.950780
C21191	C2119	0.313730	0.313400	0.284070
C21201	C2120	0.980400	0.646730	0.617400
C21211	C2121	0.647060	0.980060	0.950740
C21221	C2122	0.307850	0.296820	0.277900
C21231	C2123	0.974520	0.630150	0.611230
C21241	C2124	0.641180	0.963480	0.944570
H9221	H922	0.296460	0.342250	0.266970
H9231	H923	0.963120	0.675590	0.600300
H9241	H924	0.629790	0.008920	0.933630
H9251	H925	0.318000	0.352960	0.288950
H9261	H926	0.984670	0.686290	0.622290
H9271	H927	0.651340	0.019620	0.955620
H9281	H928	0.297090	0.294690	0.266960
H9291	H929	0.963750	0.628030	0.600290
H9301	H930	0.630420	0.961360	0.933630
H9311	H931	0.318540	0.305350	0.288850
H9321	H932	0.985210	0.638690	0.622180
H9331	H933	0.651880	0.972020	0.955510
C21251	C2125	0.278690	0.092690	0.254750
C21261	C2126	0.945350	0.426020	0.588090
C21271	C2127	0.612020	0.759350	0.921420
C21281	C2128	0.268580	0.072440	0.249170
C21291	C2129	0.935240	0.405770	0.582500
C21301	C2130	0.601910	0.739100	0.915830
C21311	C2131	0.255130	0.077460	0.243310
C21321	C2132	0.921800	0.410790	0.576650
C21331	C2133	0.588470	0.744120	0.909980
C21341	C2134	0.252590	0.103500	0.243140
C21351	C2135	0.919260	0.436830	0.576470
C21361	C2136	0.585930	0.770170	0.909810
C21371	C2137	0.262720	0.123670	0.248740
C21381	C2138	0.929390	0.457010	0.582070
C21391	C2139	0.596060	0.790340	0.915400
C21401	C2140	0.275570	0.118190	0.254570
C21411	C2141	0.942230	0.451530	0.587900
C21421	C2142	0.608900	0.784860	0.921240
H9341	H934	0.270820	0.052590	0.249440
H9351	H935	0.937480	0.385920	0.582780
H9361	H936	0.604150	0.719260	0.916110
H9371	H937	0.242330	0.107950	0.238700
H9381	H938	0.909000	0.441290	0.572030
H9391	H939	0.575670	0.774620	0.905370
H9401	H940	0.288590	0.088300	0.259260
H9411	H941	0.955250	0.421630	0.592600
H9421	H942	0.621920	0.754960	0.925930
H9431	H943	0.260200	0.143360	0.248560
H9441	H944	0.926870	0.476690	0.581900
H9451	H945	0.593530	0.810020	0.915230
C21431	C2143	0.331100	0.160810	0.294980
C21441	C2144	0.997770	0.494140	0.628310
C21451	C2145	0.664440	0.827470	0.961650
C21461	C2146	0.324070	0.169960	0.289950
C21471	C2147	0.990740	0.503290	0.623290
C21481	C2148	0.657410	0.836630	0.956620
C21491	C2149	0.308070	0.268900	0.277870
C21501	C2150	0.974740	0.602230	0.611210
C21511	C2151	0.641400	0.935570	0.944540
C21521	C2152	0.308180	0.245480	0.277850
C21531	C2153	0.974840	0.578820	0.611180
C21541	C2154	0.641510	0.912150	0.944510
C21551	C2155	0.291840	0.154280	0.265520
C21561	C2156	0.958510	0.487610	0.598860
C21571	C2157	0.625170	0.820950	0.932190
C21581	C2158	0.284610	0.138140	0.260470
C21591	C2159	0.951280	0.471470	0.593810
C21601	C2160	0.617940	0.804810	0.927140
C21611	C2161	0.978940	0.064210	0.227290
C21621	C2162	0.645600	0.397550	0.560620
C21631	C2163	0.312270	0.730880	0.893950
C21641	C2164	0.944820	0.010390	0.227240
C21651	C2165	0.611490	0.343730	0.560570
C21661	C2166	0.278150	0.677060	0.893900
C21671	C2167	0.998650	0.030140	0.227300
C21681	C2168	0.665320	0.363470	0.560630
C21691	C2169	0.331990	0.696810	0.893970
C21701	C2170	0.949620	0.039680	0.227250
C21711	C2171	0.616290	0.373010	0.560590
C21721	C2172	0.282950	0.706350	0.893920
H9461	H946	0.930630	0.043360	0.227200
H9471	H947	0.597290	0.376700	0.560530
H9481	H948	0.263960	0.710030	0.893860
C21731	C2173	0.969340	0.005620	0.227260
C21741	C2174	0.636010	0.338950	0.560600
C21751	C2175	0.302680	0.672290	0.893930
H9491	H949	0.965630	0.982940	0.227220
H9501	H950	0.632300	0.316270	0.560550
H9511	H951	0.298960	0.649600	0.893890
C21761	C2176	0.003450	0.059440	0.227320
C21771	C2177	0.670120	0.392780	0.560650
C21781	C2178	0.336780	0.726110	0.893980
H9521	H952	0.026150	0.078440	0.227310
H9531	H953	0.692820	0.411780	0.560640
H9541	H954	0.359480	0.745110	0.893970
C21791	C2179	0.019360	0.174200	0.226370
C21801	C2180	0.686030	0.507540	0.559700
C21811	C2181	0.352690	0.840870	0.893030
C21821	C2182	0.022470	0.202820	0.226040
C21831	C2183	0.689140	0.536150	0.559370
C21841	C2184	0.355800	0.869480	0.892710
C21851	C2185	0.996910	0.206180	0.226160
C21861	C2186	0.663580	0.539520	0.559500
C21871	C2187	0.330250	0.872850	0.892830
C21881	C2188	0.968280	0.180310	0.226660
C21891	C2189	0.634940	0.513650	0.560000
C21901	C2190	0.301610	0.846980	0.893330
C21911	C2191	0.965280	0.151820	0.226990
C21921	C2192	0.631950	0.485150	0.560320
C21931	C2193	0.298620	0.818480	0.893660
C21941	C2194	0.990760	0.148710	0.226830
C21951	C2195	0.657430	0.482040	0.560160
C21961	C2196	0.324100	0.815370	0.893500
H9551	H955	0.044780	0.222360	0.225660
H9561	H956	0.711440	0.555690	0.559000
H9571	H957	0.378110	0.889020	0.892330
H9581	H958	0.948210	0.182220	0.226770
H9591	H959	0.614870	0.515560	0.560100
H9601	H960	0.281540	0.848890	0.893440
H9611	H961	0.039180	0.171900	0.226240
H9621	H962	0.705840	0.505230	0.559570
H9631	H963	0.372510	0.838570	0.892900
H9641	H964	0.943090	0.132140	0.227340
H9651	H965	0.609750	0.465480	0.560670
H9661	H966	0.276420	0.798810	0.894010
C21971	C2197	0.099960	0.043790	0.227080
C21981	C2198	0.766630	0.377120	0.560420
C21991	C2199	0.433290	0.710460	0.893750
C22001	C2200	0.125480	0.040820	0.226760
C22011	C2201	0.792150	0.374160	0.560090
C22021	C2202	0.458820	0.707490	0.893420
C22031	C2203	0.122710	0.012230	0.226200
C22041	C2204	0.789380	0.345560	0.559530
C22051	C2205	0.456050	0.678890	0.892860
C22061	C2206	0.093760	0.986670	0.226010
C22071	C2207	0.760430	0.320010	0.559350
C22081	C2208	0.427090	0.653340	0.892680
C22091	C2209	0.068230	0.989760	0.226340
C22101	C2210	0.734900	0.323090	0.559680
C22111	C2211	0.401570	0.656420	0.893010
C22121	C2212	0.071340	0.018320	0.226860
C22131	C2213	0.738010	0.351650	0.560200
C22141	C2214	0.404670	0.684990	0.893530
H9671	H967	0.147480	0.060890	0.226910
H9681	H968	0.814150	0.394220	0.560240
H9691	H969	0.480820	0.727560	0.893580
H9701	H970	0.091000	0.964400	0.225590
H9711	H971	0.757660	0.297730	0.558920
H9721	H972	0.424330	0.631070	0.892250
H9731	H973	0.102490	0.065960	0.227480
H9741	H974	0.769160	0.399290	0.560810
H9751	H975	0.435820	0.732630	0.894150
H9761	H976	0.046090	0.969950	0.226160
H9771	H977	0.712750	0.303280	0.559500
H9781	H978	0.379420	0.636610	0.892830
C22151	C2215	0.834760	0.941010	0.226240
C22161	C2216	0.501430	0.274350	0.559570
C22171	C2217	0.168100	0.607680	0.892910
C22181	C2218	0.806080	0.915550	0.225920
C22191	C2219	0.472740	0.248890	0.559250
C22201	C2220	0.139410	0.582220	0.892580
C22211	C2221	0.802570	0.886580	0.226020
C22221	C2222	0.469230	0.219910	0.559360
C22231	C2223	0.135900	0.553240	0.892690
C22241	C2224	0.828360	0.883710	0.226500
C22251	C2225	0.495030	0.217050	0.559830
C22261	C2226	0.161700	0.550380	0.893170
C22271	C2227	0.856930	0.909170	0.226830
C22281	C2228	0.523590	0.242500	0.560160
C22291	C2229	0.190260	0.575830	0.893490
C22301	C2230	0.860180	0.937810	0.226690
C22311	C2231	0.526850	0.271140	0.560020
C22321	C2232	0.193510	0.604480	0.893350
H9791	H979	0.786590	0.918390	0.225550
H9801	H980	0.453260	0.251720	0.558890
H9811	H981	0.119920	0.585060	0.892220
H9821	H982	0.826340	0.861690	0.226600
H9831	H983	0.493010	0.195020	0.559930
H9841	H984	0.159670	0.528360	0.893260
H9851	H985	0.837180	0.963180	0.226130
H9861	H986	0.503850	0.296510	0.559460
H9871	H987	0.170520	0.629850	0.892790
H9881	H988	0.876540	0.906570	0.227160
H9891	H989	0.543210	0.239900	0.560500
H9901	H990	0.209870	0.573230	0.893830
C22331	C2233	0.987310	0.119220	0.227050
C22341	C2234	0.653980	0.452550	0.560380
C22351	C2235	0.320650	0.785890	0.893710
C22361	C2236	0.983760	0.094240	0.227180
C22371	C2237	0.650430	0.427570	0.560520
C22381	C2238	0.317100	0.760910	0.893850
C22391	C2239	0.045290	0.021770	0.227070
C22401	C2240	0.711960	0.355100	0.560410
C22411	C2241	0.378630	0.688430	0.893740
C22421	C2242	0.023870	0.025320	0.227200
C22431	C2243	0.690530	0.358660	0.560540
C22441	C2244	0.357200	0.691990	0.893870
C22451	C2245	0.914760	0.985190	0.227090
C22461	C2246	0.581430	0.318520	0.560420
C22471	C2247	0.248100	0.651860	0.893760
C22481	C2248	0.889740	0.963790	0.226930
C22491	C2249	0.556400	0.297130	0.560260
C22501	C2250	0.223070	0.630460	0.893590
Zn1811	Zn181	0.879100	0.603930	0.058570
Zn1821	Zn182	0.545770	0.937260	0.391900
Zn1831	Zn183	0.212440	0.270590	0.725230
Zn1841	Zn184	0.896770	0.656300	0.050260
Zn1851	Zn185	0.563440	0.989630	0.383600
Zn1861	Zn186	0.230110	0.322960	0.716930
Zn1871	Zn187	0.842080	0.631550	0.058270
Zn1881	Zn188	0.508740	0.964880	0.391600
Zn1891	Zn189	0.175410	0.298220	0.724930
Zn1901	Zn190	0.899550	0.661790	0.065340
Zn1911	Zn191	0.566220	0.995130	0.398670
Zn1921	Zn192	0.232880	0.328460	0.732010
O5861	O586	0.879390	0.638420	0.058150
O5871	O587	0.546060	0.971760	0.391480
O5881	O588	0.212730	0.305090	0.724810
O5891	O589	0.894420	0.595680	0.051260
O5901	O590	0.561090	0.929020	0.384600
O5911	O591	0.227750	0.262350	0.717930
O5921	O592	0.874820	0.665210	0.045030
O5931	O593	0.541490	0.998550	0.378370
O5941	O594	0.208150	0.331880	0.711700
O5951	O595	0.814700	0.593500	0.058640
O5961	O596	0.481370	0.926840	0.391970
O5971	O597	0.148040	0.260170	0.725310
O5981	O598	0.906620	0.635470	0.044830
O5991	O599	0.573290	0.968800	0.378170
O6001	O600	0.239950	0.302130	0.711500
O6011	O601	0.843170	0.572870	0.059190
O6021	O602	0.509830	0.906200	0.392530
O6031	O603	0.176500	0.239530	0.725860
O6041	O604	0.832800	0.646090	0.051050
O6051	O605	0.499470	0.979420	0.384390
O6061	O606	0.166130	0.312760	0.717720
O6071	O607	0.834290	0.647660	0.065360
O6081	O608	0.500950	0.980990	0.398690
O6091	O609	0.167620	0.314330	0.732030
O6101	O610	0.912230	0.644130	0.071180
O6111	O611	0.578890	0.977470	0.404510
O6121	O612	0.245560	0.310800	0.737840
O6131	O613	0.878260	0.673030	0.070530
O6141	O614	0.544920	0.006370	0.403860
O6151	O615	0.211590	0.339700	0.737190
O6161	O616	0.897870	0.601100	0.065820
O6171	O617	0.564530	0.934440	0.399150
O6181	O618	0.231200	0.267770	0.732480
O6191	O619	0.929830	0.690030	0.051420
O6201	O620	0.596490	0.023360	0.384760
O6211	O621	0.263160	0.356700	0.718090
O6221	O622	0.932240	0.695210	0.062850
O6231	O623	0.598910	0.028540	0.396180
O6241	O624	0.265580	0.361880	0.729510
C22511	C2251	0.850670	0.665110	0.070130
C22521	C2252	0.517330	0.998440	0.403470
C22531	C2253	0.184000	0.331770	0.736800
C22541	C2254	0.943030	0.704700	0.056830
C22551	C2255	0.609700	0.038030	0.390160
C22561	C2256	0.276370	0.371370	0.723500
C22571	C2257	0.910480	0.618710	0.070890
C22581	C2258	0.577150	0.952040	0.404220
C22591	C2259	0.243810	0.285370	0.737550
C22601	C2260	0.904760	0.610270	0.045670
C22611	C2261	0.571430	0.943600	0.379000
C22621	C2262	0.238090	0.276930	0.712330
C22631	C2263	0.817540	0.570550	0.059100
C22641	C2264	0.484210	0.903890	0.392440
C22651	C2265	0.150880	0.237220	0.725770
C22661	C2266	0.848320	0.660150	0.045800
C22671	C2267	0.514990	0.993490	0.379130
C22681	C2268	0.181650	0.326820	0.712470
C22691	C2269	0.146140	0.909020	0.058280
C22701	C2270	0.812800	0.242350	0.391610
C22711	C2271	0.479470	0.575680	0.724940
C22721	C2272	0.105160	0.866950	0.052290
C22731	C2273	0.771830	0.200290	0.385630
C22741	C2274	0.438490	0.533620	0.718960
C22751	C2275	0.143430	0.908860	0.045640
C22761	C2276	0.810100	0.242200	0.378970
C22771	C2277	0.476760	0.575530	0.712310
C22781	C2278	0.119830	0.881060	0.058480
C22791	C2279	0.786490	0.214390	0.391810
C22801	C2280	0.453160	0.547730	0.725150
H9911	H991	0.110450	0.870520	0.063460
H9921	H992	0.777120	0.203850	0.396800
H9931	H993	0.443790	0.537190	0.730130
C22811	C2281	0.116960	0.880810	0.045850
C22821	C2282	0.783630	0.214140	0.379180
C22831	C2283	0.450290	0.547470	0.712520
H9941	H994	0.105420	0.870050	0.041050
H9951	H995	0.772090	0.203390	0.374390
H9961	H996	0.438750	0.536720	0.707720
C22841	C2284	0.157990	0.922920	0.051860
C22851	C2285	0.824660	0.256260	0.385200
C22861	C2286	0.491330	0.589590	0.718530
H9971	H997	0.178160	0.944830	0.051720
H9981	H998	0.844820	0.278160	0.385060
H9991	H999	0.511490	0.611500	0.718390
C22871	C2287	0.160570	0.940540	0.082580
C22881	C2288	0.827230	0.273880	0.415920
C22891	C2289	0.493900	0.607210	0.749250
C22901	C2290	0.170040	0.954970	0.089030
C22911	C2291	0.836710	0.288300	0.422360
C22921	C2292	0.503380	0.621640	0.755690
C22931	C2293	0.199560	0.979070	0.089880
C22941	C2294	0.866220	0.312410	0.423220
C22951	C2295	0.532890	0.645740	0.756550
C22961	C2296	0.219520	0.987950	0.084170
C22971	C2297	0.886180	0.321280	0.417510
C22981	C2298	0.552850	0.654620	0.750840
C22991	C2299	0.209920	0.973450	0.077730
C23001	C2300	0.876590	0.306780	0.411060
C23011	C2301	0.543250	0.640110	0.744400
C23021	C2302	0.180380	0.949920	0.076920
C23031	C2303	0.847040	0.283250	0.410250
C23041	C2304	0.513710	0.616590	0.743590
H10001	H1000	0.154200	0.947700	0.093330
H10011	H1001	0.820860	0.281030	0.426660
H10021	H1002	0.487530	0.614360	0.759990
H10031	H1003	0.242360	0.006470	0.084690
H10041	H1004	0.909030	0.339800	0.418020
H10051	H1005	0.575690	0.673130	0.751360
H10061	H1006	0.137630	0.922360	0.081970
H10071	H1007	0.804300	0.255690	0.415310
H10081	H1008	0.470960	0.589030	0.748640
H10091	H1009	0.225330	0.980820	0.073350
H10101	H1010	0.892000	0.314150	0.406680
H10111	H1011	0.558670	0.647490	0.740020
C23051	C2305	0.206940	0.980600	0.027730
C23061	C2306	0.873600	0.313930	0.361060
C23071	C2307	0.540270	0.647260	0.694400
C23081	C2308	0.218710	0.998990	0.021860
C23091	C2309	0.885380	0.332320	0.355190
C23101	C2310	0.552050	0.665650	0.688520
C23111	C2311	0.201710	0.992430	0.015680
C23121	C2312	0.868380	0.325770	0.349020
C23131	C2313	0.535040	0.659100	0.682350
C23141	C2314	0.172910	0.966630	0.015490
C23151	C2315	0.839570	0.299970	0.348820
C23161	C2316	0.506240	0.633300	0.682160
C23171	C2317	0.161190	0.948290	0.021390
C23181	C2318	0.827850	0.281630	0.354720
C23191	C2319	0.494520	0.614960	0.688050
C23201	C2320	0.178080	0.955400	0.027530
C23211	C2321	0.844740	0.288730	0.360870
C23221	C2322	0.511410	0.622070	0.694200
H10121	H1012	0.240930	0.018700	0.022160
H10131	H1013	0.907600	0.352030	0.355490
H10141	H1014	0.574260	0.685360	0.688830
H10151	H1015	0.159290	0.961070	0.010810
H10161	H1016	0.825960	0.294400	0.344150
H10171	H1017	0.492620	0.627730	0.677480
H10181	H1018	0.220100	0.986290	0.032480
H10191	H1019	0.886770	0.319620	0.365810
H10201	H1020	0.553440	0.652950	0.699140
H10211	H1021	0.138770	0.928870	0.021210
H10221	H1022	0.805440	0.262200	0.354540
H10231	H1023	0.472110	0.595540	0.687870
C23231	C2323	0.014880	0.777640	0.060950
C23241	C2324	0.681540	0.110970	0.394280
C23251	C2325	0.348210	0.444310	0.727610
C23261	C2326	0.987730	0.750680	0.061830
C23271	C2327	0.654400	0.084010	0.395170
C23281	C2328	0.321070	0.417350	0.728500
C23291	C2329	0.971710	0.733500	0.056000
C23301	C2330	0.638380	0.066830	0.389330
C23311	C2331	0.305040	0.400170	0.722670
C23321	C2332	0.983480	0.743960	0.049270
C23331	C2333	0.650140	0.077300	0.382610
C23341	C2334	0.316810	0.410630	0.715940
C23351	C2335	0.010560	0.770870	0.048410
C23361	C2336	0.677230	0.104200	0.381750
C23371	C2337	0.343890	0.437530	0.715080
C23381	C2338	0.026310	0.787730	0.054240
C23391	C2339	0.692970	0.121060	0.387570
C23401	C2340	0.359640	0.454390	0.720900
H10241	H1024	0.979220	0.743140	0.067060
H10251	H1025	0.645880	0.076480	0.400400
H10261	H1026	0.312550	0.409810	0.733730
H10271	H1027	0.971650	0.731210	0.044680
H10281	H1028	0.638310	0.064540	0.378010
H10291	H1029	0.304980	0.397880	0.711350
H10301	H1030	0.027000	0.790650	0.065480
H10311	H1031	0.693670	0.123990	0.398810
H10321	H1032	0.360330	0.457320	0.732150
H10331	H1033	0.019270	0.778560	0.043210
H10341	H1034	0.685930	0.111900	0.376540
H10351	H1035	0.352600	0.445230	0.709870
C23411	C2341	0.169790	0.935960	0.070230
C23421	C2342	0.836460	0.269300	0.403570
C23431	C2343	0.503120	0.602630	0.736900
C23441	C2344	0.159710	0.923940	0.064710
C23451	C2345	0.826380	0.257270	0.398050
C23461	C2346	0.493050	0.590610	0.731380
C23471	C2347	0.165410	0.937830	0.033750
C23481	C2348	0.832080	0.271170	0.367090
C23491	C2349	0.498740	0.604500	0.700420
C23501	C2350	0.155150	0.924070	0.039100
C23511	C2351	0.821820	0.257410	0.372430
C23521	C2352	0.488490	0.590740	0.705770
C23531	C2353	0.077430	0.838810	0.052700
C23541	C2354	0.744100	0.172150	0.386030
C23551	C2355	0.410770	0.505480	0.719370
C23561	C2356	0.054140	0.815450	0.053330
C23571	C2357	0.720800	0.148780	0.386660
C23581	C2358	0.387470	0.482110	0.719990
Zn1931	Zn193	0.225420	0.066990	0.113100
Zn1941	Zn194	0.892090	0.400320	0.446430
Zn1951	Zn195	0.558760	0.733650	0.779760
Zn1961	Zn196	0.193370	0.003390	0.109810
Zn1971	Zn197	0.860040	0.336720	0.443140
Zn1981	Zn198	0.526710	0.670050	0.776480
Zn1991	Zn199	0.252810	0.042450	0.104120
Zn2001	Zn200	0.919480	0.375790	0.437450
Zn2011	Zn201	0.586150	0.709120	0.770790
Zn2021	Zn202	0.245240	0.027560	0.118810
Zn2031	Zn203	0.911900	0.360900	0.452150
Zn2041	Zn204	0.578570	0.694230	0.785480
O6251	O625	0.229190	0.035090	0.111460
O6261	O626	0.895860	0.368430	0.444800
O6271	O627	0.562530	0.701760	0.778130
O6281	O628	0.188290	0.059440	0.112720
O6291	O629	0.854960	0.392770	0.446060
O6301	O630	0.521630	0.726110	0.779390
O6311	O631	0.190210	0.988050	0.101520
O6321	O632	0.856880	0.321380	0.434850
O6331	O633	0.523550	0.654720	0.768190
O6341	O634	0.265530	0.077860	0.100370
O6351	O635	0.932200	0.411190	0.433700
O6361	O636	0.598870	0.744520	0.767040
O6371	O637	0.163990	0.011200	0.110240
O6381	O638	0.830650	0.344530	0.443570
O6391	O639	0.497320	0.677860	0.776900
O6401	O640	0.245050	0.096870	0.107250
O6411	O641	0.911710	0.430210	0.440580
O6421	O642	0.578380	0.763540	0.773920
O6431	O643	0.235390	0.017530	0.097220
O6441	O644	0.902060	0.350870	0.430560
O6451	O645	0.568720	0.684200	0.763890
O6461	O646	0.285290	0.040700	0.105890
O6471	O647	0.951960	0.374030	0.439220
O6481	O648	0.618630	0.707360	0.772550
O6491	O649	0.252860	0.052570	0.125710
O6501	O650	0.919530	0.385900	0.459050
O6511	O651	0.586190	0.719240	0.792380
O6521	O652	0.279470	0.029140	0.117050
O6531	O653	0.946140	0.362470	0.450390
O6541	O654	0.612800	0.695810	0.783720
O6551	O655	0.237810	0.082410	0.121360
O6561	O656	0.904470	0.415740	0.454690
O6571	O657	0.571140	0.749080	0.788030
O6581	O658	0.182850	0.973400	0.115630
O6591	O659	0.849520	0.306730	0.448960
O6601	O660	0.516190	0.640060	0.782300
O6611	O661	0.222200	0.992140	0.122550
O6621	O662	0.888860	0.325470	0.455890
O6631	O663	0.555530	0.658800	0.789220
C23591	C2359	0.294490	0.034910	0.111470
C23601	C2360	0.961150	0.368240	0.444800
C23611	C2361	0.627820	0.701570	0.778130
C23621	C2362	0.196410	0.971040	0.120870
C23631	C2363	0.863080	0.304370	0.454210
C23641	C2364	0.529750	0.637710	0.787540
C23651	C2365	0.248720	0.074700	0.126310
C23661	C2366	0.915390	0.408030	0.459640
C23671	C2367	0.582060	0.741360	0.792970
C23681	C2368	0.164060	0.035360	0.111490
C23691	C2369	0.830730	0.368690	0.444830
C23701	C2370	0.497400	0.702020	0.778160
C23711	C2371	0.261000	0.099060	0.102020
C23721	C2372	0.927670	0.432390	0.435350
C23731	C2373	0.594330	0.765730	0.768680
C23741	C2374	0.208980	0.995650	0.096590
C23751	C2375	0.875640	0.328990	0.429920
C23761	C2376	0.542310	0.662320	0.763260
C23771	C2377	0.000990	0.035520	0.111540
C23781	C2378	0.667660	0.368850	0.444880
C23791	C2379	0.334320	0.702190	0.778210
C23801	C2380	0.946460	0.008080	0.111480
C23811	C2381	0.613130	0.341410	0.444820
C23821	C2382	0.279790	0.674750	0.778150
C23831	C2383	0.973580	0.062580	0.111470
C23841	C2384	0.640240	0.395920	0.444810
C23851	C2385	0.306910	0.729250	0.778140
C23861	C2386	0.973770	0.008230	0.111530
C23871	C2387	0.640440	0.341560	0.444860
C23881	C2388	0.307100	0.674890	0.778190
H10361	H1036	0.973840	0.987190	0.111540
H10371	H1037	0.640510	0.320520	0.444870
H10381	H1038	0.307170	0.653850	0.778210
C23891	C2389	0.946390	0.035270	0.111460
C23901	C2390	0.613050	0.368600	0.444790
C23911	C2391	0.279720	0.701940	0.778120
H10391	H1039	0.925260	0.035170	0.111420
H10401	H1040	0.591930	0.368500	0.444750
H10411	H1041	0.258590	0.701840	0.778080
C23921	C2392	0.000870	0.062690	0.111520
C23931	C2393	0.667540	0.396020	0.444850
C23941	C2394	0.334200	0.729360	0.778180
H10421	H1042	0.021920	0.083820	0.111520
H10431	H1043	0.688590	0.417160	0.444860
H10441	H1044	0.355260	0.750490	0.778190
C23951	C2395	0.080730	0.009020	0.110180
C23961	C2396	0.747400	0.342360	0.443510
C23971	C2397	0.414070	0.675690	0.776840
C23981	C2398	0.107880	0.008900	0.110150
C23991	C2399	0.774550	0.342230	0.443490
C24001	C2400	0.441210	0.675560	0.776820
C24011	C2401	0.135200	0.035440	0.111520
C24021	C2402	0.801870	0.368780	0.444860
C24031	C2403	0.468530	0.702110	0.778190
C24041	C2404	0.134640	0.062060	0.112930
C24051	C2405	0.801300	0.395390	0.446260
C24061	C2406	0.467970	0.728730	0.779590
C24071	C2407	0.107430	0.062080	0.112950
C24081	C2408	0.774100	0.395410	0.446280
C24091	C2409	0.440770	0.728750	0.779610
C24101	C2410	0.080460	0.035590	0.111570
C24111	C2411	0.747130	0.368920	0.444900
C24121	C2412	0.413790	0.702250	0.778240
H10451	H1045	0.107630	0.988080	0.109060
H10461	H1046	0.774290	0.321410	0.442390
H10471	H1047	0.440960	0.654740	0.775730
H10481	H1048	0.155320	0.082830	0.114000
H10491	H1049	0.821980	0.416160	0.447330
H10501	H1050	0.488650	0.749490	0.780670
H10511	H1051	0.059920	0.988430	0.109110
H10521	H1052	0.726580	0.321760	0.442440
H10531	H1053	0.393250	0.655100	0.775770
H10541	H1054	0.107370	0.082730	0.114030
H10551	H1055	0.774040	0.416060	0.447360
H10561	H1056	0.440710	0.749400	0.780700
C24131	C2413	0.999760	0.168620	0.109760
C24141	C2414	0.666420	0.501960	0.443100
C24151	C2415	0.333090	0.835290	0.776430
C24161	C2416	0.999840	0.195860	0.109690
C24171	C2417	0.666510	0.529190	0.443020
C24181	C2418	0.333170	0.862520	0.776360
C24191	C2419	0.973390	0.196660	0.111170
C24201	C2420	0.640060	0.530000	0.444500
C24211	C2421	0.306730	0.863330	0.777830
C24221	C2422	0.946900	0.169540	0.112710
C24231	C2423	0.613570	0.502880	0.446050
C24241	C2424	0.280240	0.836210	0.779380
C24251	C2425	0.946920	0.142350	0.112780
C24261	C2426	0.613590	0.475680	0.446110
C24271	C2427	0.280260	0.809010	0.779450
C24281	C2428	0.973330	0.141850	0.111310
C24291	C2429	0.640000	0.475180	0.444640
C24301	C2430	0.306660	0.808520	0.777980
H10571	H1057	0.020560	0.216370	0.108480
H10581	H1058	0.687230	0.549710	0.441820
H10591	H1059	0.353900	0.883040	0.775150
H10601	H1060	0.926230	0.169500	0.113870
H10611	H1061	0.592890	0.502830	0.447200
H10621	H1062	0.259560	0.836160	0.780540
H10631	H1063	0.020280	0.168390	0.108620
H10641	H1064	0.686950	0.501720	0.441950
H10651	H1065	0.353610	0.835050	0.775280
H10661	H1066	0.926380	0.121680	0.113980
H10671	H1067	0.593050	0.455010	0.447320
H10681	H1068	0.259710	0.788340	0.780650
C24311	C2431	0.866650	0.901650	0.112770
C24321	C2432	0.533310	0.234990	0.446110
C24331	C2433	0.199980	0.568320	0.779440
C24341	C2434	0.839460	0.874390	0.112730
C24351	C2435	0.506120	0.207730	0.446060
C24361	C2436	0.172790	0.541060	0.779400
C24371	C2437	0.812250	0.873700	0.111280
C24381	C2438	0.478920	0.207040	0.444620
C24391	C2439	0.145580	0.540370	0.777950
C24401	C2440	0.812960	0.900950	0.109890
C24411	C2441	0.479630	0.234280	0.443230
C24421	C2442	0.146290	0.567620	0.776560
C24431	C2443	0.840200	0.928160	0.109940
C24441	C2444	0.506870	0.261490	0.443270
C24451	C2445	0.173540	0.594820	0.776610
C24461	C2446	0.867060	0.928550	0.111380
C24471	C2447	0.533730	0.261880	0.444710
C24481	C2448	0.200400	0.595220	0.778050
H10691	H1069	0.839580	0.853770	0.113820
H10701	H1070	0.506250	0.187100	0.447150
H10711	H1071	0.172920	0.520440	0.780490
H10721	H1072	0.792370	0.901100	0.108770
H10731	H1073	0.459030	0.234430	0.442100
H10741	H1074	0.125700	0.567760	0.775430
H10751	H1075	0.887380	0.901810	0.113890
H10761	H1076	0.554040	0.235140	0.447230
H10771	H1077	0.220710	0.568480	0.780560
H10781	H1078	0.840380	0.948910	0.108860
H10791	H1079	0.507050	0.282250	0.442190
H10801	H1080	0.173710	0.615580	0.775520
C24491	C2449	0.052500	0.035650	0.111570
C24501	C2450	0.719160	0.368980	0.444910
C24511	C2451	0.385830	0.702310	0.778240
C24521	C2452	0.029040	0.035630	0.111570
C24531	C2453	0.695700	0.368960	0.444900
C24541	C2454	0.362370	0.702290	0.778230
C24551	C2455	0.973350	0.113880	0.111380
C24561	C2456	0.640020	0.447220	0.444710
C24571	C2457	0.306690	0.780550	0.778040
C24581	C2458	0.973450	0.090490	0.111430
C24591	C2459	0.640120	0.423830	0.444760
C24601	C2460	0.306780	0.757160	0.778090
C24611	C2461	0.918500	0.980040	0.111450
C24621	C2462	0.585170	0.313370	0.444780
C24631	C2463	0.251840	0.646700	0.778120
C24641	C2464	0.895060	0.956560	0.111420
C24651	C2465	0.561730	0.289890	0.444750
C24661	C2466	0.228400	0.623230	0.778090
Zn2051	Zn205	0.694280	0.763250	0.118420
Zn2061	Zn206	0.360950	0.096580	0.451760
Zn2071	Zn207	0.027610	0.429910	0.785090
Zn2081	Zn208	0.722080	0.815240	0.109470
Zn2091	Zn209	0.388750	0.148580	0.442800
Zn2101	Zn210	0.055420	0.481910	0.776140
Zn2111	Zn211	0.753780	0.783420	0.112790
Zn2121	Zn212	0.420450	0.116760	0.446130
Zn2131	Zn213	0.087110	0.450090	0.779460
Zn2141	Zn214	0.702170	0.756030	0.103710
Zn2151	Zn215	0.368840	0.089360	0.437050
Zn2161	Zn216	0.035500	0.422690	0.770380
O6641	O664	0.718090	0.779490	0.111100
O6651	O665	0.384750	0.112820	0.444430
O6661	O666	0.051420	0.446160	0.777770
O6671	O667	0.681700	0.786100	0.122180
O6681	O668	0.348370	0.119440	0.455510
O6691	O669	0.015040	0.452770	0.788850
O6701	O670	0.759230	0.844730	0.109930
O6711	O671	0.425900	0.178060	0.443270
O6721	O672	0.092570	0.511390	0.776600
O6731	O673	0.756580	0.770870	0.121060
O6741	O674	0.423250	0.104200	0.454390
O6751	O675	0.089910	0.437530	0.787720
O6761	O676	0.702390	0.825540	0.115290
O6771	O677	0.369060	0.158870	0.448620
O6781	O678	0.035730	0.492210	0.781950
O6791	O679	0.711420	0.755410	0.125330
O6801	O680	0.378080	0.088740	0.458670
O6811	O681	0.044750	0.422070	0.792000
O6821	O682	0.783270	0.820620	0.112470
O6831	O683	0.449940	0.153950	0.445800
O6841	O684	0.116610	0.487280	0.779140
O6851	O685	0.764400	0.764090	0.106950
O6861	O686	0.431070	0.097420	0.440280
O6871	O687	0.097740	0.430760	0.773610
O6881	O688	0.667820	0.723450	0.105430
O6891	O689	0.334480	0.056780	0.438760
O6901	O690	0.001150	0.390120	0.772100
O6911	O691	0.725170	0.743540	0.099990
O6921	O692	0.391840	0.076870	0.433320
O6931	O693	0.058510	0.410200	0.766660
O6941	O694	0.661680	0.729110	0.116590
O6951	O695	0.328350	0.062450	0.449920
O6961	O696	0.995010	0.395780	0.783260
O6971	O697	0.710050	0.818500	0.101180
O6981	O698	0.376720	0.151830	0.434510
O6991	O699	0.043390	0.485160	0.767850
O7001	O700	0.694830	0.773560	0.096810
O7011	O701	0.361490	0.106900	0.430140
O7021	O702	0.028160	0.440230	0.763470
C24671	C2467	0.750930	0.748210	0.101690
C24681	C2468	0.417590	0.081550	0.435020
C24691	C2469	0.084260	0.414880	0.768350
C24701	C2470	0.699170	0.799910	0.096220
C24711	C2471	0.365830	0.133240	0.429550
C24721	C2472	0.032500	0.466570	0.762880
C24731	C2473	0.652600	0.714200	0.110990
C24741	C2474	0.319270	0.047530	0.444320
C24751	C2475	0.985940	0.380860	0.777660
C24761	C2476	0.686360	0.811870	0.120520
C24771	C2477	0.353030	0.145200	0.453850
C24781	C2478	0.019700	0.478540	0.787180
C24791	C2479	0.737720	0.759660	0.125970
C24801	C2480	0.404390	0.092990	0.459300
C24811	C2481	0.071060	0.426330	0.792630
C24821	C2482	0.783350	0.844770	0.111230
C24831	C2483	0.450010	0.178110	0.444560
C24841	C2484	0.116680	0.511440	0.777890
C24851	C2485	0.124130	0.339420	0.201310
C24861	C2486	0.790790	0.672750	0.534640
C24871	C2487	0.457460	0.006090	0.867980
H10811	H1081	0.138450	0.329690	0.200780
H10821	H1082	0.805110	0.663020	0.534110
H10831	H1083	0.471780	0.996350	0.867440
C24881	C2488	0.101220	0.327540	0.206300
C24891	C2489	0.767880	0.660870	0.539630
C24901	C2490	0.434550	0.994210	0.872970
H10841	H1084	0.098600	0.309260	0.209600
H10851	H1085	0.765260	0.642590	0.542930
H10861	H1086	0.431930	0.975920	0.876270
C24911	C2491	0.081610	0.338990	0.207000
C24921	C2492	0.748280	0.672320	0.540330
C24931	C2493	0.414950	0.005650	0.873670
C24941	C2494	0.085460	0.362590	0.202620
C24951	C2495	0.752130	0.695920	0.535960
C24961	C2496	0.418790	0.029260	0.869290
H10871	H1087	0.070760	0.371960	0.203100
H10881	H1088	0.737430	0.705290	0.536440
H10891	H1089	0.404090	0.038630	0.869770
C24971	C2497	0.108660	0.374780	0.197730
C24981	C2498	0.775330	0.708110	0.531060
C24991	C2499	0.442000	0.041450	0.864390
H10901	H1090	0.111610	0.393570	0.194590
H10911	H1091	0.778280	0.726900	0.527920
H10921	H1092	0.444940	0.060230	0.861260
C25001	C2500	0.128250	0.363330	0.197000
C25011	C2501	0.794920	0.696660	0.530340
C25021	C2502	0.461590	0.030000	0.863670
C25031	C2503	0.180960	0.379120	0.193290
C25041	C2504	0.847630	0.712460	0.526630
C25051	C2505	0.514300	0.045790	0.859960
H10931	H1093	0.185180	0.372470	0.198330
H10941	H1094	0.851850	0.705810	0.531660
H10951	H1095	0.518520	0.039140	0.865000
C25061	C2506	0.203970	0.390780	0.188340
C25071	C2507	0.870640	0.724110	0.521670
C25081	C2508	0.537300	0.057450	0.855000
H10961	H1096	0.225280	0.392370	0.189600
H10971	H1097	0.891950	0.725700	0.522930
H10981	H1098	0.558610	0.059030	0.856260
C25091	C2509	0.199630	0.400420	0.181800
C25101	C2510	0.866300	0.733750	0.515140
C25111	C2511	0.532970	0.067090	0.848470
C25121	C2512	0.171840	0.398260	0.180340
C25131	C2513	0.838510	0.731590	0.513670
C25141	C2514	0.505180	0.064920	0.847010
H10991	H1099	0.167910	0.405360	0.175320
H11001	H1100	0.834580	0.738700	0.508650
H11011	H1101	0.501250	0.072030	0.841980
C25151	C2515	0.148670	0.386110	0.185250
C25161	C2516	0.815330	0.719450	0.518590
C25171	C2517	0.482000	0.052780	0.851920
H11021	H1102	0.127180	0.383800	0.183890
H11031	H1103	0.793850	0.717130	0.517220
H11041	H1104	0.460520	0.050460	0.850550
C25181	C2518	0.152940	0.376360	0.191790
C25191	C2519	0.819600	0.709690	0.525120
C25201	C2520	0.486270	0.043030	0.858450
C25211	C2521	0.171410	0.371130	0.136060
C25221	C2522	0.838080	0.704470	0.469390
C25231	C2523	0.504740	0.037800	0.802730
H11051	H1105	0.173440	0.363060	0.130980
H11061	H1106	0.840110	0.696400	0.464320
H11071	H1107	0.506770	0.029730	0.797650
C25241	C2524	0.195770	0.381820	0.140700
C25251	C2525	0.862440	0.715160	0.474030
C25261	C2526	0.529110	0.048490	0.807360
H11081	H1108	0.215870	0.381430	0.139150
H11091	H1109	0.882530	0.714760	0.472480
H11101	H1110	0.549200	0.048100	0.805820
C25271	C2527	0.194480	0.393570	0.147240
C25281	C2528	0.861150	0.726900	0.480570
C25291	C2529	0.527820	0.060230	0.813900
C25301	C2530	0.168100	0.393800	0.149070
C25311	C2531	0.834770	0.727140	0.482400
C25321	C2532	0.501430	0.060470	0.815740
H11111	H1111	0.166310	0.402440	0.154110
H11121	H1112	0.832980	0.735770	0.487440
H11131	H1113	0.499650	0.069100	0.820770
C25331	C2533	0.143670	0.382640	0.144510
C25341	C2534	0.810340	0.715980	0.477850
C25351	C2535	0.477000	0.049310	0.811180
H11141	H1114	0.123500	0.382440	0.146220
H11151	H1115	0.790170	0.715770	0.479560
H11161	H1116	0.456840	0.049100	0.812890
C25361	C2536	0.145010	0.371450	0.137900
C25371	C2537	0.811680	0.704790	0.471240
C25381	C2538	0.478350	0.038120	0.804570
C25391	C2539	0.100410	0.373140	0.132970
C25401	C2540	0.767070	0.706480	0.466300
C25411	C2541	0.433740	0.039810	0.799630
H11171	H1117	0.105910	0.392640	0.136140
H11181	H1118	0.772580	0.725970	0.469480
H11191	H1119	0.439250	0.059300	0.802810
C25421	C2542	0.074680	0.361340	0.128780
C25431	C2543	0.741350	0.694670	0.462120
C25441	C2544	0.408010	0.028010	0.795450
H11201	H1120	0.060700	0.371610	0.128930
H11211	H1121	0.727370	0.704940	0.462270
H11221	H1122	0.394030	0.038270	0.795600
C25451	C2545	0.066940	0.336500	0.124440
C25461	C2546	0.733610	0.669830	0.457770
C25471	C2547	0.400280	0.003170	0.791100
C25481	C2548	0.085820	0.323990	0.124310
C25491	C2549	0.752480	0.657320	0.457640
C25501	C2550	0.419150	0.990660	0.790980
H11231	H1123	0.080330	0.304770	0.121020
H11241	H1124	0.746990	0.638100	0.454350
H11251	H1125	0.413660	0.971430	0.787680
C25511	C2551	0.111250	0.335440	0.128610
C25521	C2552	0.777920	0.668770	0.461940
C25531	C2553	0.444590	0.002100	0.795270
H11261	H1126	0.124540	0.324460	0.128590
H11271	H1127	0.791200	0.657800	0.461930
H11281	H1128	0.457870	0.991130	0.795260
C25541	C2554	0.118780	0.360030	0.133050
C25551	C2555	0.785440	0.693360	0.466380
C25561	C2556	0.452110	0.026690	0.799710
C25571	C2557	0.338550	0.216710	0.034970
C25581	C2558	0.005210	0.550050	0.368300
C25591	C2559	0.671880	0.883380	0.701630
H11291	H1129	0.348900	0.202990	0.034360
H11301	H1130	0.015570	0.536320	0.367690
H11311	H1131	0.682240	0.869650	0.701030
C25601	C2560	0.349730	0.239280	0.040050
C25611	C2561	0.016400	0.572610	0.373390
C25621	C2562	0.683060	0.905950	0.706720
H11321	H1132	0.368170	0.242280	0.043350
H11331	H1133	0.034840	0.575610	0.376680
H11341	H1134	0.701500	0.908950	0.710010
C25631	C2563	0.337600	0.258290	0.040790
C25641	C2564	0.004260	0.591620	0.374130
C25651	C2565	0.670930	0.924950	0.707460
C25661	C2566	0.313740	0.253910	0.036450
C25671	C2567	0.980400	0.587240	0.369780
C25681	C2568	0.647070	0.920580	0.703110
H11351	H1135	0.303760	0.268060	0.036970
H11361	H1136	0.970430	0.601400	0.370300
H11371	H1137	0.637100	0.934730	0.703640
C25691	C2569	0.302240	0.231070	0.031470
C25701	C2570	0.968900	0.564400	0.364810
C25711	C2571	0.635570	0.897740	0.698140
H11381	H1138	0.283330	0.227830	0.028340
H11391	H1139	0.949990	0.561170	0.361680
H11401	H1140	0.616660	0.894500	0.695010
C25721	C2572	0.314680	0.212390	0.030610
C25731	C2573	0.981350	0.545730	0.363940
C25741	C2574	0.648010	0.879060	0.697280
C25751	C2575	0.292990	0.193840	0.018710
C25761	C2576	0.959650	0.527170	0.352050
C25771	C2577	0.626320	0.860510	0.685380
H11411	H1141	0.295010	0.215390	0.017570
H11421	H1142	0.961680	0.548720	0.350900
H11431	H1143	0.628340	0.882050	0.684230
C25781	C2578	0.280820	0.171400	0.013640
C25791	C2579	0.947490	0.504740	0.346970
C25801	C2580	0.614150	0.838070	0.680310
H11441	H1144	0.273350	0.175960	0.008740
H11451	H1145	0.940010	0.509290	0.342070
H11461	H1146	0.606680	0.842630	0.675400
C25811	C2581	0.278710	0.143450	0.014810
C25821	C2582	0.945370	0.476780	0.348150
C25831	C2583	0.612040	0.810120	0.681480
C25841	C2584	0.289010	0.138410	0.021180
C25851	C2585	0.955680	0.471750	0.354510
C25861	C2586	0.622340	0.805080	0.687850
H11471	H1147	0.287590	0.117000	0.022200
H11481	H1148	0.954260	0.450330	0.355530
H11491	H1149	0.620930	0.783670	0.688870
C25871	C2587	0.300690	0.160730	0.026320
C25881	C2588	0.967350	0.494060	0.359650
C25891	C2589	0.634020	0.827400	0.692980
H11501	H1150	0.307600	0.155920	0.031250
H11511	H1151	0.974260	0.489250	0.364590
H11521	H1152	0.640930	0.822580	0.697920
C25901	C2590	0.302770	0.188700	0.025140
C25911	C2591	0.969430	0.522030	0.358480
C25921	C2592	0.636100	0.855370	0.691810
C25931	C2593	0.650730	0.837410	0.195270
C25941	C2594	0.317400	0.170740	0.528610
C25951	C2595	0.984060	0.504070	0.861940
H11531	H1153	0.644190	0.826460	0.190240
H11541	H1154	0.310860	0.159790	0.523570
H11551	H1155	0.977520	0.493120	0.856900
C25961	C2596	0.662080	0.826010	0.200290
C25971	C2597	0.328740	0.159350	0.533620
C25981	C2598	0.995410	0.492680	0.866950
H11561	H1156	0.663540	0.806190	0.199070
H11571	H1157	0.330210	0.139520	0.532400
H11581	H1158	0.996880	0.472860	0.865730
C25991	C2599	0.671630	0.840130	0.206820
C26001	C2600	0.338300	0.173460	0.540150
C26011	C2601	0.004970	0.506790	0.873480
C26021	C2602	0.669590	0.865850	0.208230
C26031	C2603	0.336260	0.199190	0.541560
C26041	C2604	0.002920	0.532520	0.874890
H11591	H1159	0.676600	0.876980	0.213250
H11601	H1160	0.343270	0.210320	0.546580
H11611	H1161	0.009930	0.543650	0.879910
C26051	C2605	0.657750	0.876920	0.203260
C26061	C2606	0.324420	0.210250	0.536590
C26071	C2607	0.991080	0.543590	0.869930
H11621	H1162	0.655550	0.896180	0.204590
H11631	H1163	0.322210	0.229520	0.537920
H11641	H1164	0.988880	0.562850	0.871260
C26081	C2608	0.648210	0.862860	0.196720
C26091	C2609	0.314870	0.196190	0.530050
C26101	C2610	0.981540	0.529520	0.863390
C26111	C2611	0.611910	0.855110	0.187060
C26121	C2612	0.278580	0.188440	0.520390
C26131	C2613	0.945250	0.521770	0.853730
H11651	H1165	0.602050	0.831020	0.187550
H11661	H1166	0.268710	0.164350	0.520880
H11671	H1167	0.935380	0.497690	0.854210
C26141	C2614	0.600270	0.866370	0.182080
C26151	C2615	0.266930	0.199710	0.515410
C26161	C2616	0.933600	0.533040	0.848750
H11681	H1168	0.582020	0.850850	0.178750
H11691	H1169	0.248680	0.184180	0.512080
H11701	H1170	0.915350	0.517510	0.845410
C26171	C2617	0.611790	0.897470	0.181460
C26181	C2618	0.278460	0.230800	0.514800
C26191	C2619	0.945120	0.564140	0.848130
C26201	C2620	0.635390	0.917040	0.185870
C26211	C2621	0.302060	0.250380	0.519200
C26221	C2622	0.968730	0.583710	0.852540
H11711	H1171	0.644860	0.941150	0.185450
H11721	H1172	0.311530	0.274490	0.518780
H11731	H1173	0.978190	0.607820	0.852120
C26231	C2623	0.647360	0.905810	0.190750
C26241	C2624	0.314020	0.239140	0.524090
C26251	C2625	0.980690	0.572480	0.857420
H11741	H1174	0.666090	0.921530	0.193930
H11751	H1175	0.332750	0.254860	0.527260
H11761	H1176	0.999420	0.588200	0.860590
C26261	C2626	0.635670	0.874710	0.191440
C26271	C2627	0.302330	0.208040	0.524770
C26281	C2628	0.969000	0.541380	0.858110
C26291	C2629	0.644530	0.912890	0.255840
C26301	C2630	0.311200	0.246220	0.589180
C26311	C2631	0.977870	0.579550	0.922510
H11771	H1177	0.664030	0.927000	0.252670
H11781	H1178	0.330700	0.260340	0.586010
H11791	H1179	0.997360	0.593670	0.919340
C26321	C2632	0.632560	0.926630	0.260030
C26331	C2633	0.299220	0.259970	0.593370
C26341	C2634	0.965890	0.593300	0.926700
H11801	H1180	0.642700	0.950880	0.259900
H11811	H1181	0.309370	0.284210	0.593230
H11821	H1182	0.976030	0.617540	0.926560
C26351	C2635	0.607710	0.909360	0.264370
C26361	C2636	0.274380	0.242690	0.597710
C26371	C2637	0.941040	0.576020	0.931040
C26381	C2638	0.595360	0.877980	0.264480
C26391	C2639	0.262020	0.211320	0.597810
C26401	C2640	0.928690	0.544650	0.931140
H11831	H1183	0.576130	0.864130	0.267770
H11841	H1184	0.242790	0.197460	0.601100
H11851	H1185	0.909460	0.530790	0.934430
C26411	C2641	0.606980	0.864170	0.260170
C26421	C2642	0.273650	0.197510	0.593510
C26431	C2643	0.940310	0.530840	0.926840
H11861	H1186	0.596130	0.839910	0.260170
H11871	H1187	0.262790	0.173240	0.593500
H11881	H1188	0.929460	0.506580	0.926840
C26441	C2644	0.631590	0.881420	0.255750
C26451	C2645	0.298260	0.214750	0.589080
C26461	C2646	0.964930	0.548080	0.922410
C26471	C2647	0.643050	0.840170	0.252730
C26481	C2648	0.309720	0.173500	0.586060
C26491	C2649	0.976390	0.506830	0.919390
H11891	H1189	0.635040	0.830080	0.257800
H11901	H1190	0.301700	0.163410	0.591140
H11911	H1191	0.968370	0.496740	0.924470
C26501	C2650	0.653790	0.826560	0.248080
C26511	C2651	0.320460	0.159900	0.581410
C26521	C2652	0.987130	0.493230	0.914750
H11921	H1192	0.653470	0.806120	0.249620
H11931	H1193	0.320140	0.139460	0.582950
H11941	H1194	0.986800	0.472790	0.916290
C26531	C2653	0.665430	0.839570	0.241530
C26541	C2654	0.332100	0.172900	0.574860
C26551	C2655	0.998770	0.506230	0.908200
C26561	C2656	0.665610	0.866140	0.239710
C26571	C2657	0.332270	0.199470	0.573040
C26581	C2658	0.998940	0.532800	0.906370
H11951	H1195	0.674180	0.876530	0.234670
H11961	H1196	0.340840	0.209870	0.568000
H11971	H1197	0.007510	0.543200	0.901340
C26591	C2659	0.654390	0.879340	0.244280
C26601	C2660	0.321060	0.212680	0.577610
C26611	C2661	0.987730	0.546010	0.910940
H11981	H1198	0.654100	0.899250	0.242580
H11991	H1199	0.320770	0.232580	0.575910
H12001	H1200	0.987440	0.565920	0.909240
C26621	C2662	0.643210	0.866780	0.250880
C26631	C2663	0.309880	0.200110	0.584220
C26641	C2664	0.976550	0.533450	0.917550
C26651	C2665	0.971430	0.505230	0.302720
C26661	C2666	0.638100	0.838560	0.636050
C26671	C2667	0.304760	0.171900	0.969380
H12011	H1201	0.979530	0.503290	0.297640
H12021	H1202	0.646200	0.836630	0.630970
H12031	H1203	0.312870	0.169960	0.964310
C26681	C2668	0.960920	0.480870	0.307340
C26691	C2669	0.627580	0.814200	0.640680
C26701	C2670	0.294250	0.147540	0.974010
H12041	H1204	0.961500	0.460890	0.305790
H12051	H1205	0.628170	0.794230	0.639120
H12061	H1206	0.294840	0.127560	0.972460
C26711	C2671	0.949130	0.482010	0.313890
C26721	C2672	0.615800	0.815340	0.647220
C26731	C2673	0.282460	0.148680	0.980560
C26741	C2674	0.948630	0.508230	0.315740
C26751	C2675	0.615290	0.841560	0.649070
C26761	C2676	0.281960	0.174900	0.982410
H12071	H1207	0.939940	0.509870	0.320780
H12081	H1208	0.606600	0.843210	0.654110
H12091	H1209	0.273270	0.176540	0.987450
C26771	C2677	0.959650	0.532690	0.311190
C26781	C2678	0.626320	0.866020	0.644530
C26791	C2679	0.292980	0.199350	0.977860
H12101	H1210	0.959700	0.552750	0.312920
H12111	H1211	0.626370	0.886080	0.646250
H12121	H1212	0.293040	0.219420	0.979590
C26801	C2680	0.970930	0.531510	0.304580
C26811	C2681	0.637600	0.864840	0.637910
C26821	C2682	0.304270	0.198180	0.971250
C26831	C2683	0.006870	0.565300	0.295280
C26841	C2684	0.673540	0.898630	0.628610
C26851	C2685	0.340210	0.231960	0.961940
H12131	H1213	0.017830	0.552000	0.295240
H12141	H1214	0.684500	0.885340	0.628570
H12151	H1215	0.351160	0.218670	0.961910
C26861	C2686	0.018300	0.590730	0.290990
C26871	C2687	0.684970	0.924070	0.624320
C26881	C2688	0.351640	0.257400	0.957650
H12161	H1216	0.037480	0.596200	0.287670
H12171	H1217	0.704150	0.929540	0.621000
H12181	H1218	0.370820	0.262870	0.954340
C26891	C2689	0.005860	0.609650	0.291150
C26901	C2690	0.672530	0.942980	0.624480
C26911	C2691	0.339190	0.276320	0.957810
C26921	C2692	0.981090	0.601970	0.295520
C26931	C2693	0.647760	0.935300	0.628860
C26941	C2694	0.314430	0.268630	0.962190
H12191	H1219	0.970900	0.616010	0.295700
H12201	H1220	0.637570	0.949340	0.629030
H12211	H1221	0.304230	0.282680	0.962370
C26951	C2695	0.969280	0.576210	0.299690
C26961	C2696	0.635950	0.909550	0.633030
C26971	C2697	0.302610	0.242880	0.966360
H12221	H1222	0.949830	0.570730	0.302890
H12231	H1223	0.616500	0.904060	0.636220
H12241	H1224	0.283160	0.237400	0.969560
C26981	C2698	0.982340	0.557790	0.299740
C26991	C2699	0.649010	0.891130	0.633070
C27001	C2700	0.315670	0.224460	0.966410
C27011	C2701	0.169620	0.400950	0.260320
C27021	C2702	0.836290	0.734290	0.593650
C27031	C2703	0.502950	0.067620	0.926990
H12251	H1225	0.156080	0.411650	0.260390
H12261	H1226	0.822750	0.744990	0.593720
H12271	H1227	0.489420	0.078320	0.927060
C27041	C2704	0.194850	0.412270	0.264680
C27051	C2705	0.861520	0.745600	0.598020
C27061	C2706	0.528180	0.078940	0.931350
H12281	H1228	0.199940	0.431120	0.268080
H12291	H1229	0.866600	0.764450	0.601410
H12301	H1230	0.533270	0.097790	0.934740
C27071	C2707	0.214040	0.400140	0.264500
C27081	C2708	0.880710	0.733470	0.597840
C27091	C2709	0.547380	0.066800	0.931170
C27101	C2710	0.206850	0.375810	0.260020
C27111	C2711	0.873510	0.709140	0.593350
C27121	C2712	0.540180	0.042470	0.926690
H12311	H1231	0.221100	0.365850	0.259820
H12321	H1232	0.887770	0.699190	0.593150
H12331	H1233	0.554430	0.032520	0.926480
C27131	C2713	0.181330	0.364130	0.255770
C27141	C2714	0.847990	0.697460	0.589100
C27151	C2715	0.514660	0.030790	0.922440
H12341	H1234	0.176240	0.345020	0.252490
H12351	H1235	0.842900	0.678350	0.585820
H12361	H1236	0.509570	0.011690	0.919160
C27161	C2716	0.162620	0.376860	0.255760
C27171	C2717	0.829280	0.710190	0.589090
C27181	C2718	0.495950	0.043520	0.922420
C27191	C2719	0.109850	0.365270	0.252740
C27201	C2720	0.776520	0.698610	0.586080
C27211	C2721	0.443190	0.031940	0.919410
H12371	H1237	0.107570	0.372850	0.257860
H12381	H1238	0.774240	0.706190	0.591190
H12391	H1239	0.440900	0.039520	0.924520
C27221	C2722	0.085570	0.354640	0.248090
C27231	C2723	0.752240	0.687980	0.581420
C27241	C2724	0.418900	0.021310	0.914750
H12401	H1240	0.065300	0.354620	0.249670
H12411	H1241	0.731960	0.687960	0.583000
H12421	H1242	0.398630	0.021290	0.916330
C27251	C2725	0.087160	0.343490	0.241490
C27261	C2726	0.753820	0.676830	0.574820
C27271	C2727	0.420490	0.010160	0.908160
C27281	C2728	0.113760	0.343780	0.239620
C27291	C2729	0.780430	0.677120	0.572950
C27301	C2730	0.447100	0.010450	0.906290
H12431	H1243	0.115760	0.335620	0.234540
H12441	H1244	0.782430	0.668950	0.567870
H12451	H1245	0.449100	0.002280	0.901210
C27311	C2731	0.138130	0.354900	0.244200
C27321	C2732	0.804800	0.688230	0.577530
C27331	C2733	0.471470	0.021560	0.910870
H12461	H1246	0.158490	0.355530	0.242470
H12471	H1247	0.825150	0.688870	0.575800
H12481	H1248	0.491820	0.022200	0.909140
C27341	C2734	0.136490	0.365500	0.250860
C27351	C2735	0.803160	0.698830	0.584200
C27361	C2736	0.469820	0.032170	0.917530
C27371	C2737	0.440890	0.024500	0.305010
C27381	C2738	0.107550	0.357840	0.638340
C27391	C2739	0.774220	0.691170	0.971680
H12491	H1249	0.426650	0.004770	0.301930
H12501	H1250	0.093320	0.338100	0.635260
H12511	H1251	0.759980	0.671440	0.968590
C27401	C2740	0.427380	0.035930	0.309490
C27411	C2741	0.094040	0.369260	0.642820
C27421	C2742	0.760710	0.702590	0.976160
H12521	H1252	0.403070	0.025030	0.309710
H12531	H1253	0.069740	0.358360	0.643040
H12541	H1254	0.736400	0.691690	0.976370
C27431	C2743	0.445070	0.060690	0.313830
C27441	C2744	0.111740	0.394020	0.647160
C27451	C2745	0.778400	0.727350	0.980490
C27461	C2746	0.476540	0.074220	0.313430
C27471	C2747	0.143210	0.407550	0.646760
C27481	C2748	0.809870	0.740890	0.980090
H12551	H1255	0.490790	0.093510	0.316660
H12561	H1256	0.157460	0.426840	0.649990
H12571	H1257	0.824120	0.760180	0.983320
C27491	C2749	0.489980	0.063100	0.308890
C27501	C2750	0.156640	0.396430	0.642230
C27511	C2751	0.823310	0.729770	0.975560
H12581	H1258	0.514260	0.074410	0.308660
H12591	H1259	0.180930	0.407750	0.641990
H12601	H1260	0.847600	0.741080	0.975330
C27521	C2752	0.472390	0.037800	0.304700
C27531	C2753	0.139060	0.371130	0.638040
C27541	C2754	0.805720	0.704470	0.971370
C27551	C2755	0.475220	0.012810	0.293580
C27561	C2756	0.141880	0.346150	0.626920
C27571	C2757	0.808550	0.679480	0.960250
H12611	H1261	0.455450	0.012750	0.291630
H12621	H1262	0.122110	0.346090	0.624960
H12631	H1263	0.788780	0.679420	0.958290
C27581	C2758	0.489100	0.000890	0.289390
C27591	C2759	0.155760	0.334220	0.622720
C27601	C2760	0.822430	0.667560	0.956060
H12641	H1264	0.479470	0.991470	0.284340
H12651	H1265	0.146140	0.324800	0.617670
H12661	H1266	0.812800	0.658130	0.951010
C27611	C2761	0.515330	0.001270	0.291660
C27621	C2762	0.181990	0.334600	0.624990
C27631	C2763	0.848660	0.667940	0.958320
C27641	C2764	0.527170	0.013690	0.298230
C27651	C2765	0.193840	0.347030	0.631570
C27661	C2766	0.860510	0.680360	0.964900
H12671	H1267	0.547180	0.014030	0.300150
H12681	H1268	0.213850	0.347370	0.633490
H12691	H1269	0.880510	0.680700	0.966820
C27671	C2767	0.513110	0.025230	0.302450
C27681	C2768	0.179770	0.358560	0.635780
C27691	C2769	0.846440	0.691900	0.969110
H12701	H1270	0.522420	0.033820	0.307560
H12711	H1271	0.189090	0.367150	0.640890
H12721	H1272	0.855760	0.700490	0.974220
C27701	C2770	0.487030	0.025120	0.300180
C27711	C2771	0.153690	0.358450	0.633510
C27721	C2772	0.820360	0.691780	0.966840
C27731	C2773	0.103130	0.837340	0.190940
C27741	C2774	0.769800	0.170680	0.524280
C27751	C2775	0.436470	0.504010	0.857610
H12731	H1273	0.087480	0.840390	0.194140
H12741	H1274	0.754150	0.173720	0.527470
H12751	H1275	0.420820	0.507050	0.860810
C27761	C2776	0.091770	0.814030	0.186080
C27771	C2777	0.758440	0.147360	0.519410
C27781	C2778	0.425110	0.480690	0.852750
H12761	H1276	0.067650	0.799340	0.185690
H12771	H1277	0.734310	0.132670	0.519030
H12781	H1278	0.400980	0.466010	0.852360
C27791	C2779	0.111250	0.809970	0.181640
C27801	C2780	0.777910	0.143300	0.514970
C27811	C2781	0.444580	0.476630	0.848310
C27821	C2782	0.142370	0.829600	0.182220
C27831	C2783	0.809040	0.162930	0.515550
C27841	C2784	0.475710	0.496260	0.848880
H12791	H1279	0.157830	0.826850	0.178860
H12801	H1280	0.824500	0.160180	0.512190
H12811	H1281	0.491160	0.493510	0.845530
C27851	C2785	0.153770	0.852630	0.187180
C27861	C2786	0.820430	0.185960	0.520510
C27871	C2787	0.487100	0.519290	0.853850
H12821	H1282	0.177870	0.866900	0.187630
H12831	H1283	0.844540	0.200230	0.520970
H12841	H1284	0.511210	0.533560	0.854300
C27881	C2788	0.134260	0.856850	0.191580
C27891	C2789	0.800930	0.190180	0.524920
C27901	C2790	0.467600	0.523510	0.858250
C27911	C2791	0.171680	0.909400	0.195340
C27921	C2792	0.838350	0.242740	0.528670
C27931	C2793	0.505010	0.576070	0.862000
H12851	H1285	0.182510	0.913680	0.190290
H12861	H1286	0.849170	0.247010	0.523620
H12871	H1287	0.515840	0.580340	0.856950
C27941	C2794	0.183200	0.932320	0.200320
C27951	C2795	0.849870	0.265650	0.533650
C27961	C2796	0.516530	0.598990	0.866990
H12881	H1288	0.203000	0.953610	0.199060
H12891	H1289	0.869660	0.286940	0.532400
H12901	H1290	0.536330	0.620270	0.865730
C27971	C2797	0.169250	0.927940	0.206870
C27981	C2798	0.835910	0.261270	0.540200
C27991	C2799	0.502580	0.594610	0.873530
C28001	C2800	0.143550	0.900160	0.208330
C28011	C2801	0.810220	0.233490	0.541660
C28021	C2802	0.476890	0.566830	0.874990
H12911	H1291	0.132540	0.896170	0.213360
H12921	H1292	0.799210	0.229500	0.546700
H12931	H1293	0.465880	0.562830	0.880030
C28031	C2803	0.132360	0.877090	0.203390
C28041	C2804	0.799030	0.210420	0.536720
C28051	C2805	0.465700	0.543750	0.870060
H12941	H1294	0.113140	0.855620	0.204760
H12951	H1295	0.779800	0.188960	0.538090
H12961	H1296	0.446470	0.522290	0.871430
C28061	C2806	0.146260	0.881430	0.196830
C28071	C2807	0.812930	0.214760	0.530170
C28081	C2808	0.479590	0.548100	0.863500
C28091	C2809	0.800200	0.210630	0.037380
C28101	C2810	0.466860	0.543960	0.370710
C28111	C2811	0.133530	0.877290	0.704050
H12971	H1297	0.821800	0.229570	0.038790
H12981	H1298	0.488460	0.562900	0.372120
H12991	H1299	0.155130	0.896230	0.705450
C28121	C2812	0.776940	0.199620	0.042280
C28131	C2813	0.443610	0.532960	0.375610
C28141	C2814	0.110270	0.866290	0.708950
H13001	H1300	0.780920	0.210450	0.047340
H13011	H1301	0.447580	0.543780	0.380670
H13021	H1302	0.114250	0.877110	0.714000
C28151	C2815	0.748970	0.174300	0.040750
C28161	C2816	0.415630	0.507640	0.374080
C28171	C2817	0.082300	0.840970	0.707420
C28181	C2818	0.744580	0.160580	0.034180
C28191	C2819	0.411250	0.493910	0.367510
C28201	C2820	0.077910	0.827250	0.700840
H13031	H1303	0.723140	0.141090	0.032860
H13041	H1304	0.389810	0.474430	0.366200
H13051	H1305	0.056480	0.807760	0.699530
C28211	C2821	0.767660	0.171890	0.029240
C28221	C2822	0.434330	0.505220	0.362570
C28231	C2823	0.101000	0.838560	0.695910
H13061	H1306	0.763370	0.161230	0.024170
H13071	H1307	0.430030	0.494570	0.357500
H13081	H1308	0.096700	0.827900	0.690840
C28241	C2824	0.795840	0.196870	0.030800
C28251	C2825	0.462510	0.530210	0.364140
C28261	C2826	0.129170	0.863540	0.697470
C28271	C2827	0.824300	0.188800	0.021170
C28281	C2828	0.490970	0.522130	0.354500
C28291	C2829	0.157640	0.855470	0.687840
H13091	H1309	0.809790	0.164740	0.021650
H13101	H1310	0.476460	0.498070	0.354980
H13111	H1311	0.143120	0.831410	0.688310
C28301	C2830	0.847060	0.199870	0.016140
C28311	C2831	0.513730	0.533200	0.349480
C28321	C2832	0.180400	0.866530	0.682810
H13121	H1312	0.849370	0.184220	0.012760
H13131	H1313	0.516040	0.517550	0.346090
H13141	H1314	0.182700	0.850880	0.679430
C28331	C2833	0.866870	0.230920	0.015500
C28341	C2834	0.533540	0.564250	0.348830
C28351	C2835	0.200200	0.897590	0.682170
C28361	C2836	0.863420	0.250640	0.019980
C28371	C2837	0.530090	0.583970	0.353320
C28381	C2838	0.196750	0.917310	0.686650
H13151	H1315	0.878290	0.274720	0.019560
H13161	H1316	0.544950	0.608050	0.352890
H13171	H1317	0.211620	0.941380	0.686220
C28391	C2839	0.840370	0.239600	0.024930
C28401	C2840	0.507040	0.572930	0.358260
C28411	C2841	0.173700	0.906260	0.691590
H13181	H1318	0.837700	0.255420	0.028140
H13191	H1319	0.504370	0.588760	0.361480
H13201	H1320	0.171040	0.922090	0.694810
C28421	C2842	0.820530	0.208560	0.025580
C28431	C2843	0.487200	0.541890	0.358910
C28441	C2844	0.153860	0.875220	0.692250
C28451	C2845	0.475590	0.523230	0.311710
C28461	C2846	0.142260	0.856570	0.645040
C28471	C2847	0.808930	0.189900	0.978370
H13211	H1321	0.455320	0.503510	0.313470
H13221	H1322	0.121980	0.836850	0.646810
H13231	H1323	0.788650	0.170180	0.980140
C28481	C2848	0.500170	0.536540	0.316230
C28491	C2849	0.166830	0.869880	0.649570
C28501	C2850	0.833500	0.203210	0.982900
H13241	H1324	0.498390	0.526410	0.321300
H13251	H1325	0.165050	0.859740	0.654630
H13261	H1326	0.831720	0.193080	0.987970
C28511	C2851	0.526690	0.562890	0.314320
C28521	C2852	0.193360	0.896220	0.647650
C28531	C2853	0.860020	0.229550	0.980990
C28541	C2854	0.528010	0.575550	0.307740
C28551	C2855	0.194680	0.908890	0.641070
C28561	C2856	0.861340	0.242220	0.974400
H13271	H1327	0.548220	0.595800	0.306120
H13281	H1328	0.214890	0.929140	0.639460
H13291	H1329	0.881560	0.262470	0.972790
C28571	C2857	0.503530	0.561850	0.303140
C28581	C2858	0.170190	0.895180	0.636470
C28591	C2859	0.836860	0.228510	0.969800
H13301	H1330	0.505600	0.571670	0.298030
H13311	H1331	0.172270	0.905000	0.631360
H13321	H1332	0.838940	0.238340	0.964700
C28601	C2860	0.476950	0.535460	0.305060
C28611	C2861	0.143610	0.868790	0.638400
C28621	C2862	0.810280	0.202120	0.971730
C28631	C2863	0.443480	0.537820	0.295720
C28641	C2864	0.110150	0.871160	0.629050
C28651	C2865	0.776810	0.204490	0.962380
H13331	H1333	0.457100	0.562070	0.295640
H13341	H1334	0.123760	0.895400	0.628980
H13351	H1335	0.790430	0.228740	0.962310
C28661	C2866	0.418090	0.523930	0.291400
C28671	C2867	0.084750	0.857270	0.624740
C28681	C2868	0.751420	0.190600	0.958070
H13361	H1336	0.412960	0.537720	0.288040
H13371	H1337	0.079630	0.871060	0.621370
H13381	H1338	0.746300	0.204390	0.954710
C28691	C2869	0.398820	0.492600	0.291590
C28701	C2870	0.065480	0.825930	0.624920
C28711	C2871	0.732150	0.159270	0.958260
C28721	C2872	0.406080	0.475440	0.296030
C28731	C2873	0.072740	0.808770	0.629370
C28741	C2874	0.739410	0.142110	0.962700
H13391	H1339	0.391770	0.451220	0.296240
H13401	H1340	0.058440	0.784560	0.629570
H13411	H1341	0.725100	0.117890	0.962900
C28751	C2875	0.431760	0.489250	0.300230
C28761	C2876	0.098430	0.822590	0.633570
C28771	C2877	0.765090	0.155920	0.966900
H13421	H1342	0.436900	0.475200	0.303480
H13431	H1343	0.103570	0.808540	0.636810
H13441	H1344	0.770230	0.141870	0.970140
C28781	C2878	0.450580	0.520700	0.300230
C28791	C2879	0.117250	0.854030	0.633570
C28801	C2880	0.783920	0.187370	0.966900
C28811	C2881	0.096210	0.828240	0.255710
C28821	C2882	0.762880	0.161570	0.589050
C28831	C2883	0.429550	0.494910	0.922380
H13451	H1345	0.082290	0.833610	0.252480
H13461	H1346	0.748960	0.166940	0.585820
H13471	H1347	0.415630	0.500280	0.919150
C28841	C2884	0.082190	0.802550	0.259900
C28851	C2885	0.748860	0.135880	0.593240
C28861	C2886	0.415530	0.469210	0.926570
H13481	H1348	0.057940	0.788450	0.259710
H13491	H1349	0.724610	0.121780	0.593040
H13501	H1350	0.391280	0.455120	0.926370
C28871	C2887	0.099200	0.794990	0.264320
C28881	C2888	0.765870	0.128330	0.597650
C28891	C2889	0.432540	0.461660	0.930990
C28901	C2890	0.130590	0.814010	0.264500
C28911	C2891	0.797260	0.147340	0.597830
C28921	C2892	0.463920	0.480680	0.931170
H13511	H1351	0.144250	0.808650	0.267850
H13521	H1352	0.810910	0.141980	0.601180
H13531	H1353	0.477580	0.475320	0.934520
C28931	C2893	0.144680	0.839410	0.260190
C28941	C2894	0.811350	0.172750	0.593530
C28951	C2895	0.478020	0.506080	0.926860
H13541	H1354	0.168950	0.852820	0.260250
H13551	H1355	0.835620	0.186150	0.593590
H13561	H1356	0.502290	0.519480	0.926920
C28961	C2896	0.127710	0.846760	0.255690
C28971	C2897	0.794380	0.180090	0.589020
C28981	C2898	0.461050	0.513420	0.922360
C28991	C2899	0.130380	0.871510	0.244180
C29001	C2900	0.797040	0.204840	0.577520
C29011	C2901	0.463710	0.538180	0.910850
H13571	H1357	0.110550	0.851260	0.242450
H13581	H1358	0.777220	0.184590	0.575780
H13591	H1359	0.443890	0.517930	0.909120
C29021	C2902	0.143740	0.895930	0.239620
C29031	C2903	0.810410	0.229270	0.572960
C29041	C2904	0.477070	0.562600	0.906290
H13601	H1360	0.133530	0.894070	0.234560
H13611	H1361	0.800200	0.227400	0.567890
H13621	H1362	0.466860	0.560730	0.901230
C29051	C2905	0.170200	0.922420	0.241490
C29061	C2906	0.836860	0.255760	0.574830
C29071	C2907	0.503530	0.589090	0.908160
C29081	C2908	0.182980	0.923830	0.248070
C29091	C2909	0.849640	0.257160	0.581400
C29101	C2910	0.516310	0.590500	0.914730
H13631	H1363	0.203340	0.944010	0.249640
H13641	H1364	0.870000	0.277340	0.582970
H13651	H1365	0.536670	0.610680	0.916310
C29111	C2911	0.169200	0.899470	0.252700
C29121	C2912	0.835870	0.232810	0.586040
C29131	C2913	0.502540	0.566140	0.919370
H13661	H1366	0.179090	0.901590	0.257800
H13671	H1367	0.845760	0.234920	0.591140
H13681	H1368	0.512420	0.568260	0.924470
C29141	C2914	0.142640	0.872970	0.250830
C29151	C2915	0.809310	0.206300	0.584160
C29161	C2916	0.475980	0.539630	0.917490
C29171	C2917	0.855140	0.241320	0.086730
C29181	C2918	0.521800	0.574650	0.420060
C29191	C2919	0.188470	0.907980	0.753400
H13691	H1369	0.855540	0.250650	0.081640
H13701	H1370	0.522210	0.583980	0.414980
H13711	H1371	0.188880	0.917310	0.748310
C29201	C2920	0.880970	0.255500	0.090870
C29211	C2921	0.547640	0.588830	0.424200
C29221	C2922	0.214310	0.922170	0.757530
H13721	H1372	0.900490	0.275590	0.088910
H13731	H1373	0.567150	0.608920	0.422240
H13741	H1374	0.233820	0.942260	0.755580
C29231	C2923	0.881950	0.243670	0.097410
C29241	C2924	0.548610	0.577010	0.430740
C29251	C2925	0.215280	0.910340	0.764080
C29261	C2926	0.856260	0.217330	0.099720
C29271	C2927	0.522930	0.550660	0.433060
C29281	C2928	0.189590	0.884000	0.766390
H13751	H1375	0.856370	0.207720	0.104750
H13761	H1376	0.523040	0.541050	0.438080
H13771	H1377	0.189700	0.874390	0.771420
C29291	C2929	0.830240	0.203320	0.095610
C29301	C2930	0.496900	0.536650	0.428940
C29311	C2931	0.163570	0.869980	0.762270
H13781	H1378	0.810660	0.183460	0.097590
H13791	H1379	0.477320	0.516790	0.430930
H13801	H1380	0.143990	0.850130	0.764260
C29321	C2932	0.829340	0.215120	0.089050
C29331	C2933	0.496010	0.548450	0.422380
C29341	C2934	0.162680	0.881790	0.755710
C29351	C2935	0.783800	0.168860	0.084240
C29361	C2936	0.450470	0.502190	0.417580
C29371	C2937	0.117140	0.835520	0.750910
H13811	H1381	0.789570	0.154680	0.087260
H13821	H1382	0.456240	0.488020	0.420590
H13831	H1383	0.122900	0.821350	0.753930
C29381	C2938	0.758810	0.155280	0.079780
C29391	C2939	0.425480	0.488620	0.413120
C29401	C2940	0.092140	0.821950	0.746450
H13841	H1384	0.745630	0.130980	0.079510
H13851	H1385	0.412300	0.464320	0.412840
H13861	H1386	0.078970	0.797650	0.746170
C29411	C2941	0.751480	0.172950	0.075520
C29421	C2942	0.418150	0.506280	0.408850
C29431	C2943	0.084820	0.839610	0.742180
C29441	C2944	0.769110	0.204420	0.076000
C29451	C2945	0.435780	0.537750	0.409340
C29461	C2946	0.102440	0.871080	0.742670
H13871	H1387	0.763840	0.218640	0.072840
H13881	H1388	0.430510	0.551980	0.406170
H13891	H1389	0.097180	0.885310	0.739500
C29471	C2947	0.793720	0.217900	0.080510
C29481	C2948	0.460390	0.551230	0.413840
C29491	C2949	0.127050	0.884570	0.747180
H13901	H1390	0.806500	0.242180	0.080790
H13911	H1391	0.473160	0.575510	0.414130
H13921	H1392	0.139830	0.908840	0.747460
C29501	C2950	0.801800	0.200370	0.084600
C29511	C2951	0.468470	0.533710	0.417930
C29521	C2952	0.135130	0.867040	0.751270
C29531	C2953	0.798820	0.685490	0.037000
C29541	C2954	0.465490	0.018820	0.370330
C29551	C2955	0.132160	0.352150	0.703660
H13931	H1393	0.779800	0.688030	0.038380
H13941	H1394	0.446460	0.021360	0.371710
H13951	H1395	0.113130	0.354690	0.705050
C29561	C2956	0.810050	0.673730	0.041950
C29571	C2957	0.476710	0.007060	0.375290
C29581	C2958	0.143380	0.340390	0.708620
H13961	H1396	0.799290	0.667120	0.047020
H13971	H1397	0.465950	0.000450	0.380360
H13981	H1398	0.132620	0.333780	0.713690
C29591	C2959	0.835480	0.671250	0.040460
C29601	C2960	0.502140	0.004580	0.373790
C29611	C2961	0.168810	0.337920	0.707120
C29621	C2962	0.849100	0.680260	0.033860
C29631	C2963	0.515770	0.013590	0.367200
C29641	C2964	0.182440	0.346930	0.700530
H13991	H1399	0.868670	0.678410	0.032570
H14001	H1400	0.535330	0.011750	0.365910
H14011	H1401	0.202000	0.345080	0.699240
C29651	C2965	0.837570	0.691530	0.028870
C29661	C2966	0.504240	0.024860	0.362210
C29671	C2967	0.170900	0.358190	0.695540
H14021	H1402	0.848150	0.697630	0.023790
H14031	H1403	0.514810	0.030960	0.357120
H14041	H1404	0.181480	0.364300	0.690450
C29681	C2968	0.812460	0.694540	0.030400
C29691	C2969	0.479130	0.027870	0.363730
C29701	C2970	0.145790	0.361200	0.697060
C29711	C2971	0.820140	0.730460	0.020660
C29721	C2972	0.486810	0.063790	0.354000
C29731	C2973	0.153470	0.397130	0.687330
H14051	H1405	0.844230	0.740150	0.021100
H14061	H1406	0.510900	0.073480	0.354440
H14071	H1407	0.177570	0.406810	0.687770
C29741	C2974	0.808870	0.741940	0.015640
C29751	C2975	0.475540	0.075270	0.348980
C29761	C2976	0.142200	0.408600	0.682310
H14081	H1408	0.824390	0.759880	0.012240
H14091	H1409	0.491060	0.093210	0.345570
H14101	H1410	0.157720	0.426550	0.678910
C29771	C2977	0.777780	0.730610	0.015070
C29781	C2978	0.444450	0.063940	0.348400
C29791	C2979	0.111120	0.397270	0.681740
C29801	C2980	0.758220	0.707440	0.019580
C29811	C2981	0.424890	0.040770	0.352910
C29821	C2982	0.091560	0.374100	0.686250
H14111	H1411	0.734120	0.698150	0.019200
H14121	H1412	0.400790	0.031480	0.352530
H14131	H1413	0.067450	0.364810	0.685870
C29831	C2983	0.769470	0.695640	0.024510
C29841	C2984	0.436130	0.028980	0.357840
C29851	C2985	0.102800	0.362310	0.691170
H14141	H1414	0.753760	0.677220	0.027760
H14151	H1415	0.420430	0.010550	0.361090
H14161	H1416	0.087090	0.343880	0.694420
C29861	C2986	0.800560	0.707060	0.025130
C29871	C2987	0.467220	0.040400	0.358460
C29881	C2988	0.133890	0.373730	0.691790
C29891	C2989	0.806280	0.724320	0.095430
C29901	C2990	0.472950	0.057650	0.428770
C29911	C2991	0.139620	0.390990	0.762100
H14171	H1417	0.826260	0.724770	0.097380
H14181	H1418	0.492920	0.058100	0.430720
H14191	H1419	0.159590	0.391440	0.764050
C29921	C2992	0.792210	0.736110	0.099610
C29931	C2993	0.458880	0.069450	0.432940
C29941	C2994	0.125550	0.402780	0.766270
H14201	H1420	0.801900	0.745830	0.104630
H14211	H1421	0.468570	0.079170	0.437960
H14221	H1422	0.135240	0.412500	0.771300
C29951	C2995	0.765730	0.735240	0.097350
C29961	C2996	0.432400	0.068580	0.430680
C29971	C2997	0.099060	0.401910	0.764020
C29981	C2998	0.753800	0.722430	0.090810
C29991	C2999	0.420470	0.055760	0.424140
C30001	C3000	0.087140	0.389090	0.757470
H14231	H1423	0.733590	0.721680	0.088900
H14241	H1424	0.400260	0.055020	0.422230
H14251	H1425	0.066930	0.388350	0.755560
C30011	C3001	0.768050	0.711000	0.086610
C30021	C3002	0.434720	0.044330	0.419950
C30031	C3003	0.101380	0.377670	0.753280
H14261	H1426	0.758650	0.702090	0.081530
H14271	H1427	0.425310	0.035420	0.414860
H14281	H1428	0.091980	0.368750	0.748200
C30041	C3004	0.794410	0.711630	0.088870
C30051	C3005	0.461070	0.044960	0.422210
C30061	C3006	0.127740	0.378300	0.755540
C30071	C3007	0.791760	0.673470	0.080260
C30081	C3008	0.458420	0.006800	0.413590
C30091	C3009	0.125090	0.340130	0.746920
H14291	H1429	0.767470	0.661860	0.080540
H14301	H1430	0.434140	0.995200	0.413870
H14311	H1431	0.100810	0.328530	0.747210
C30101	C3010	0.805310	0.662450	0.075730
C30111	C3011	0.471980	0.995780	0.409070
C30121	C3012	0.138640	0.329110	0.742400
H14321	H1432	0.791130	0.642940	0.072550
H14331	H1433	0.457790	0.976270	0.405890
H14341	H1434	0.124460	0.309600	0.739220
C30131	C3013	0.836800	0.676370	0.075260
C30141	C3014	0.503460	0.009700	0.408590
C30151	C3015	0.170130	0.343040	0.741920
C30161	C3016	0.854410	0.701400	0.079530
C30171	C3017	0.521070	0.034730	0.412860
C30181	C3018	0.187740	0.368070	0.746200
H14351	H1435	0.878720	0.712600	0.079260
H14361	H1436	0.545380	0.045930	0.412590
H14371	H1437	0.212050	0.379260	0.745920
C30191	C3019	0.840760	0.712720	0.084010
C30201	C3020	0.507430	0.046050	0.417340
C30211	C3021	0.174100	0.379390	0.750670
H14381	H1438	0.854910	0.732670	0.087040
H14391	H1439	0.521570	0.066000	0.420370
H14401	H1440	0.188240	0.399330	0.753700
C30221	C3022	0.809230	0.699060	0.084370
C30231	C3023	0.475900	0.032390	0.417700
C30241	C3024	0.142560	0.365720	0.751040
C30251	C3025	0.285800	0.178310	0.095650
C30261	C3026	0.952460	0.511640	0.428990
C30271	C3027	0.619130	0.844970	0.762320
H14411	H1441	0.285580	0.198010	0.097560
H14421	H1442	0.952240	0.531340	0.430890
H14431	H1443	0.618910	0.864670	0.764230
C30281	C3028	0.273690	0.152550	0.099860
C30291	C3029	0.940360	0.485880	0.433190
C30301	C3030	0.607030	0.819220	0.766520
H14441	H1444	0.263960	0.152770	0.104870
H14451	H1445	0.930630	0.486100	0.438200
H14461	H1446	0.597300	0.819440	0.771530
C30311	C3031	0.274260	0.126720	0.097650
C30321	C3032	0.940930	0.460050	0.430980
C30331	C3033	0.607590	0.793390	0.764320
C30341	C3034	0.287080	0.127270	0.091130
C30351	C3035	0.953750	0.460600	0.424460
C30361	C3036	0.620410	0.793930	0.757790
H14471	H1447	0.287580	0.107620	0.089250
H14481	H1448	0.954250	0.440950	0.422590
H14491	H1449	0.620920	0.774280	0.755920
C30371	C3037	0.298790	0.152820	0.086900
C30381	C3038	0.965460	0.486150	0.420230
C30391	C3039	0.632120	0.819490	0.753560
H14501	H1450	0.307660	0.152060	0.081820
H14511	H1451	0.974320	0.485390	0.415160
H14521	H1452	0.640990	0.818720	0.748490
C30401	C3040	0.298460	0.178760	0.089110
C30411	C3041	0.965130	0.512100	0.422440
C30421	C3042	0.631790	0.845430	0.755770
C30431	C3043	0.336640	0.213710	0.080400
C30441	C3044	0.003310	0.547050	0.413740
C30451	C3045	0.669970	0.880380	0.747070
H14531	H1453	0.348040	0.200860	0.080700
H14541	H1454	0.014710	0.534200	0.414030
H14551	H1455	0.681380	0.867530	0.747360
C30461	C3046	0.347760	0.238120	0.075830
C30471	C3047	0.014430	0.571450	0.409170
C30481	C3048	0.681090	0.904780	0.742500
H14561	H1456	0.367140	0.243170	0.072630
H14571	H1457	0.033800	0.576500	0.405960
H14581	H1458	0.700470	0.909830	0.739300
C30491	C3049	0.334100	0.255880	0.075350
C30501	C3050	0.000760	0.589210	0.408690
C30511	C3051	0.667430	0.922550	0.742020
C30521	C3052	0.309220	0.248830	0.079660
C30531	C3053	0.975890	0.582160	0.412990
C30541	C3054	0.642560	0.915490	0.746320
H14591	H1459	0.298230	0.262110	0.079380
H14601	H1460	0.964900	0.595440	0.412710
H14611	H1461	0.631560	0.928780	0.746050
C30551	C3055	0.297790	0.224040	0.084170
C30561	C3056	0.964460	0.557370	0.417500
C30571	C3057	0.631130	0.890700	0.750840
H14621	H1462	0.277950	0.218510	0.087220
H14631	H1463	0.944620	0.551840	0.420550
H14641	H1464	0.611290	0.885180	0.753880
C30581	C3058	0.311210	0.205980	0.084550
C30591	C3059	0.977870	0.539310	0.417890
C30601	C3060	0.644540	0.872650	0.751220
C30611	C3061	0.141410	0.891630	0.127090
C30621	C3062	0.808080	0.224970	0.460420
C30631	C3063	0.474740	0.558300	0.793760
H14651	H1465	0.121550	0.871990	0.125130
H14661	H1466	0.788220	0.205330	0.458460
H14671	H1467	0.454880	0.538660	0.791790
C30641	C3064	0.155330	0.917530	0.122930
C30651	C3065	0.822000	0.250860	0.456270
C30661	C3066	0.488660	0.584200	0.789600
H14681	H1468	0.145650	0.917470	0.117900
H14691	H1469	0.812310	0.250800	0.451240
H14701	H1470	0.478980	0.584140	0.784570
C30671	C3067	0.181690	0.943280	0.125200
C30681	C3068	0.848360	0.276610	0.458540
C30691	C3069	0.515020	0.609940	0.791870
C30701	C3070	0.193610	0.942520	0.131750
C30711	C3071	0.860280	0.275850	0.465090
C30721	C3072	0.526950	0.609190	0.798420
H14711	H1471	0.213720	0.962100	0.133680
H14721	H1472	0.880380	0.295440	0.467010
H14731	H1473	0.547050	0.628770	0.800340
C30731	C3073	0.179500	0.916820	0.135930
C30741	C3074	0.846170	0.250150	0.469270
C30751	C3075	0.512830	0.583480	0.802600
H14741	H1474	0.188890	0.917390	0.141020
H14751	H1475	0.855550	0.250730	0.474360
H14761	H1476	0.522220	0.584060	0.807690
C30761	C3076	0.153310	0.890940	0.133650
C30771	C3077	0.819970	0.224270	0.466980
C30781	C3078	0.486640	0.557600	0.800320
C30791	C3079	0.156260	0.855600	0.142250
C30801	C3080	0.822930	0.188930	0.475580
C30811	C3081	0.489590	0.522260	0.808920
H14771	H1477	0.180540	0.868520	0.141990
H14781	H1478	0.847210	0.201850	0.475330
H14791	H1479	0.513880	0.535190	0.808660
C30821	C3082	0.142840	0.830930	0.146750
C30831	C3083	0.809500	0.164260	0.480080
C30841	C3084	0.476170	0.497600	0.813410
H14801	H1480	0.157090	0.825770	0.149930
H14811	H1481	0.823760	0.159110	0.483270
H14821	H1482	0.490430	0.492440	0.816600
C30851	C3085	0.111360	0.813060	0.147180
C30861	C3086	0.778030	0.146390	0.480510
C30871	C3087	0.444700	0.479730	0.813850
C30881	C3088	0.093650	0.820280	0.142910
C30891	C3089	0.760320	0.153610	0.476240
C30901	C3090	0.426980	0.486940	0.809570
H14831	H1483	0.069340	0.806930	0.143150
H14841	H1484	0.736010	0.140260	0.476480
H14851	H1485	0.402680	0.473600	0.809820
C30911	C3091	0.107150	0.845320	0.138460
C30921	C3092	0.773820	0.178660	0.471800
C30931	C3093	0.440490	0.511990	0.805130
H14861	H1486	0.092910	0.850960	0.135430
H14871	H1487	0.759580	0.184290	0.468770
H14881	H1488	0.426250	0.517620	0.802100
C30941	C3094	0.138660	0.863490	0.138130
C30951	C3095	0.805330	0.196820	0.471460
C30961	C3096	0.472000	0.530150	0.804800
C30971	C3097	0.648740	0.828520	0.135580
C30981	C3098	0.315410	0.161850	0.468910
C30991	C3099	0.982080	0.495180	0.802240
H14891	H1489	0.639880	0.819090	0.140660
H14901	H1490	0.306540	0.152430	0.474000
H14911	H1491	0.973210	0.485760	0.807330
C31001	C3100	0.660370	0.814450	0.131390
C31011	C3101	0.327040	0.147790	0.464720
C31021	C3102	0.993710	0.481120	0.798060
H14921	H1492	0.659820	0.794340	0.133300
H14931	H1493	0.326480	0.127680	0.466640
H14941	H1494	0.993150	0.461010	0.799970
C31031	C3103	0.673170	0.826460	0.124850
C31041	C3104	0.339840	0.159790	0.458180
C31051	C3105	0.006510	0.493120	0.791510
C31061	C3106	0.673810	0.852810	0.122590
C31071	C3107	0.340470	0.186140	0.455920
C31081	C3108	0.007140	0.519480	0.789250
H14951	H1495	0.683510	0.862550	0.117560
H14961	H1496	0.350180	0.195890	0.450900
H14971	H1497	0.016850	0.529220	0.784230
C31091	C3109	0.661800	0.866680	0.126750
C31101	C3110	0.328460	0.200010	0.460080
C31111	C3111	0.995130	0.533350	0.793420
H14981	H1498	0.662070	0.886560	0.124800
H14991	H1499	0.328740	0.219890	0.458130
H15001	H1500	0.995400	0.553220	0.791460
C31121	C3112	0.649150	0.854750	0.133310
C31131	C3113	0.315820	0.188080	0.466650
C31141	C3114	0.982480	0.521410	0.799980
C31151	C3115	0.650020	0.900970	0.138160
C31161	C3116	0.316690	0.234300	0.471490
C31171	C3117	0.983350	0.567640	0.804820
H15011	H1501	0.669880	0.915150	0.135100
H15021	H1502	0.336540	0.248480	0.468430
H15031	H1503	0.003210	0.581820	0.801760
C31181	C3118	0.638690	0.914550	0.142640
C31191	C3119	0.305360	0.247890	0.475970
C31201	C3120	0.972020	0.581220	0.809300
H15041	H1504	0.649790	0.938860	0.142880
H15051	H1505	0.316460	0.272190	0.476220
H15061	H1506	0.983120	0.605520	0.809550
C31211	C3121	0.613810	0.896920	0.146950
C31221	C3122	0.280470	0.230260	0.480290
C31231	C3123	0.947140	0.563590	0.813620
C31241	C3124	0.600000	0.865450	0.146510
C31251	C3125	0.266670	0.198790	0.479840
C31261	C3126	0.933330	0.532120	0.813180
H15071	H1507	0.580600	0.851260	0.149720
H15081	H1508	0.247270	0.184600	0.483060
H15091	H1509	0.913930	0.517930	0.816390
C31271	C3127	0.611020	0.851950	0.141970
C31281	C3128	0.277690	0.185280	0.475310
C31291	C3129	0.944360	0.518610	0.808640
H15101	H1510	0.599530	0.827670	0.141710
H15111	H1511	0.266190	0.161000	0.475050
H15121	H1512	0.932860	0.494330	0.808380
C31301	C3130	0.636490	0.869460	0.137820
C31311	C3131	0.303160	0.202790	0.471150
C31321	C3132	0.969830	0.536130	0.804490
