data_CABDER_clean_PM
_symmetry_space_group_name_H-M	'P1'
_cell_length_a	16.183000
_cell_length_b	28.455000
_cell_length_c	17.230000
_cell_angle_alpha	90.000000
_cell_angle_beta	90.000000
_cell_angle_gamma	90.000000
_symmetry_Int_Tables_number 1

loop_
_symmetry_equiv_pos_as_xyz
'x,y,z'

loop_
_atom_site_label
_atom_site_type_symbol
_atom_site_fract_x
_atom_site_fract_y
_atom_site_fract_z
Cd11	Cd1	0.845820	0.368800	0.026730
O11	O1	0.878400	0.360450	0.163700
O21	O2	0.749300	0.367780	0.128800
O31	O3	0.765500	0.392820	0.446700
O41	O4	0.005800	0.638920	0.984900
O51	O5	0.653000	0.373330	0.387600
N11	N1	0.887500	0.445890	0.049000
N21	N2	0.918800	0.624060	0.084200
H11	H1	0.870900	0.631100	0.105500
N31	N3	0.850800	0.787130	0.986800
C11	C1	0.875600	0.529600	0.034700
H21	H2	0.849200	0.555200	0.009400
C21	C2	0.945900	0.453900	0.101700
H31	H3	0.971700	0.427500	0.125300
C31	C3	0.935400	0.537200	0.089700
C41	C4	0.803100	0.361900	0.180300
C51	C5	0.775800	0.355700	0.264000
H41	H4	0.817200	0.336200	0.291500
H51	H5	0.722700	0.338400	0.264700
C61	C6	0.765000	0.401900	0.308100
C71	C7	0.849300	0.425400	0.319300
H61	H6	0.888300	0.402700	0.341200
H71	H7	0.843600	0.452100	0.354800
H81	H8	0.869900	0.436500	0.269100
C81	C8	0.854600	0.483400	0.016800
H91	H9	0.813400	0.478600	0.978400
C91	C9	0.970900	0.498000	0.123800
H101	H10	0.012500	0.501600	0.162300
C101	C10	0.904500	0.696200	0.011400
C111	C11	0.965400	0.584900	0.114300
H111	H11	0.964400	0.586400	0.171700
H121	H12	0.023600	0.588400	0.097600
C121	C12	0.946100	0.649900	0.025300
C131	C13	0.868700	0.721800	0.069900
H131	H13	0.862000	0.708400	0.120000
C141	C14	0.909500	0.716400	0.938600
H141	H14	0.931300	0.699300	0.895900
C151	C15	0.882500	0.761500	0.929500
H151	H15	0.886500	0.775300	0.879500
C161	C16	0.842500	0.766800	0.055600
H161	H16	0.817400	0.784000	0.096500
C171	C17	0.705500	0.435000	0.264400
H171	H17	0.730000	0.443800	0.214500
H181	H18	0.695900	0.463300	0.295500
H191	H19	0.652900	0.418800	0.255500
C181	C18	0.725500	0.388400	0.385800
Cd21	Cd2	0.654180	0.868800	0.473270
O61	O6	0.621600	0.860450	0.336300
O71	O7	0.750700	0.867780	0.371200
O81	O8	0.734500	0.892820	0.053300
O91	O9	0.494200	0.138920	0.515100
O101	O10	0.847000	0.873330	0.112400
N41	N4	0.612500	0.945890	0.451000
N51	N5	0.581200	0.124060	0.415800
H201	H20	0.629100	0.131100	0.394500
N61	N6	0.649200	0.287130	0.513200
C191	C19	0.624400	0.029600	0.465300
H211	H21	0.650800	0.055200	0.490600
C201	C20	0.554100	0.953900	0.398300
H221	H22	0.528300	0.927500	0.374700
C211	C21	0.564600	0.037200	0.410300
C221	C22	0.696900	0.861900	0.319700
C231	C23	0.724200	0.855700	0.236000
H231	H23	0.682800	0.836200	0.208500
H241	H24	0.777300	0.838400	0.235300
C241	C24	0.735000	0.901900	0.191900
C251	C25	0.650700	0.925400	0.180700
H251	H25	0.611700	0.902700	0.158800
H261	H26	0.656400	0.952100	0.145200
H271	H27	0.630100	0.936500	0.230900
C261	C26	0.645400	0.983400	0.483200
H281	H28	0.686600	0.978600	0.521600
C271	C27	0.529100	0.998000	0.376200
H291	H29	0.487500	0.001600	0.337700
C281	C28	0.595500	0.196200	0.488600
C291	C29	0.534600	0.084900	0.385700
H301	H30	0.535600	0.086400	0.328300
H311	H31	0.476400	0.088400	0.402400
C301	C30	0.553900	0.149900	0.474700
C311	C31	0.631300	0.221800	0.430100
H321	H32	0.638000	0.208400	0.380000
C321	C32	0.590500	0.216400	0.561400
H331	H33	0.568700	0.199300	0.604100
C331	C33	0.617500	0.261500	0.570500
H341	H34	0.613500	0.275300	0.620500
C341	C34	0.657500	0.266800	0.444400
H351	H35	0.682600	0.284000	0.403500
C351	C35	0.794500	0.935000	0.235600
H361	H36	0.770000	0.943800	0.285500
H371	H37	0.804100	0.963300	0.204500
H381	H38	0.847100	0.918800	0.244500
C361	C36	0.774500	0.888400	0.114200
Cd31	Cd3	0.845820	0.868800	0.973270
O111	O11	0.878400	0.860450	0.836300
O121	O12	0.749300	0.867780	0.871200
O131	O13	0.765500	0.892820	0.553300
O141	O14	0.005800	0.138920	0.015100
O151	O15	0.653000	0.873330	0.612400
N71	N7	0.887500	0.945890	0.951000
N81	N8	0.918800	0.124060	0.915800
H391	H39	0.870900	0.131100	0.894500
N91	N9	0.850800	0.287130	0.013200
C371	C37	0.875600	0.029600	0.965300
H401	H40	0.849200	0.055200	0.990600
C381	C38	0.945900	0.953900	0.898300
H411	H41	0.971700	0.927500	0.874700
C391	C39	0.935400	0.037200	0.910300
C401	C40	0.803100	0.861900	0.819700
C411	C41	0.775800	0.855700	0.736000
H421	H42	0.817200	0.836200	0.708500
H431	H43	0.722700	0.838400	0.735300
C421	C42	0.765000	0.901900	0.691900
C431	C43	0.849300	0.925400	0.680700
H441	H44	0.888300	0.902700	0.658800
H451	H45	0.843600	0.952100	0.645200
H461	H46	0.869900	0.936500	0.730900
C441	C44	0.854600	0.983400	0.983200
H471	H47	0.813400	0.978600	0.021600
C451	C45	0.970900	0.998000	0.876200
H481	H48	0.012500	0.001600	0.837700
C461	C46	0.904500	0.196200	0.988600
C471	C47	0.965400	0.084900	0.885700
H491	H49	0.964400	0.086400	0.828300
H501	H50	0.023600	0.088400	0.902400
C481	C48	0.946100	0.149900	0.974700
C491	C49	0.868700	0.221800	0.930100
H511	H51	0.862000	0.208400	0.880000
C501	C50	0.909500	0.216400	0.061400
H521	H52	0.931300	0.199300	0.104100
C511	C51	0.882500	0.261500	0.070500
H531	H53	0.886500	0.275300	0.120500
C521	C52	0.842500	0.266800	0.944400
H541	H54	0.817400	0.284000	0.903500
C531	C53	0.705500	0.935000	0.735600
H551	H55	0.730000	0.943800	0.785500
H561	H56	0.695900	0.963300	0.704500
H571	H57	0.652900	0.918800	0.744500
C541	C54	0.725500	0.888400	0.614200
Cd41	Cd4	0.654180	0.368800	0.526730
O161	O16	0.621600	0.360450	0.663700
O171	O17	0.750700	0.367780	0.628800
O181	O18	0.734500	0.392820	0.946700
O191	O19	0.494200	0.638920	0.484900
O201	O20	0.847000	0.373330	0.887600
N101	N10	0.612500	0.445890	0.549000
N111	N11	0.581200	0.624060	0.584200
H581	H58	0.629100	0.631100	0.605500
N121	N12	0.649200	0.787130	0.486800
C551	C55	0.624400	0.529600	0.534700
H591	H59	0.650800	0.555200	0.509400
C561	C56	0.554100	0.453900	0.601700
H601	H60	0.528300	0.427500	0.625300
C571	C57	0.564600	0.537200	0.589700
C581	C58	0.696900	0.361900	0.680300
C591	C59	0.724200	0.355700	0.764000
H611	H61	0.682800	0.336200	0.791500
H621	H62	0.777300	0.338400	0.764700
C601	C60	0.735000	0.401900	0.808100
C611	C61	0.650700	0.425400	0.819300
H631	H63	0.611700	0.402700	0.841200
H641	H64	0.656400	0.452100	0.854800
H651	H65	0.630100	0.436500	0.769100
C621	C62	0.645400	0.483400	0.516800
H661	H66	0.686600	0.478600	0.478400
C631	C63	0.529100	0.498000	0.623800
H671	H67	0.487500	0.501600	0.662300
C641	C64	0.595500	0.696200	0.511400
C651	C65	0.534600	0.584900	0.614300
H681	H68	0.535600	0.586400	0.671700
H691	H69	0.476400	0.588400	0.597600
C661	C66	0.553900	0.649900	0.525300
C671	C67	0.631300	0.721800	0.569900
H701	H70	0.638000	0.708400	0.620000
C681	C68	0.590500	0.716400	0.438600
H711	H71	0.568700	0.699300	0.395900
C691	C69	0.617500	0.761500	0.429500
H721	H72	0.613500	0.775300	0.379500
C701	C70	0.657500	0.766800	0.555600
H731	H73	0.682600	0.784000	0.596500
C711	C71	0.794500	0.435000	0.764400
H741	H74	0.770000	0.443800	0.714500
H751	H75	0.804100	0.463300	0.795500
H761	H76	0.847100	0.418800	0.755500
C721	C72	0.774500	0.388400	0.885800
Cd51	Cd5	0.345820	0.868800	0.026730
O211	O21	0.378400	0.860450	0.163700
O221	O22	0.249300	0.867780	0.128800
O231	O23	0.265500	0.892820	0.446700
O241	O24	0.505800	0.138920	0.984900
O251	O25	0.153000	0.873330	0.387600
N131	N13	0.387500	0.945890	0.049000
N141	N14	0.418800	0.124060	0.084200
H771	H77	0.370900	0.131100	0.105500
N151	N15	0.350800	0.287130	0.986800
C731	C73	0.375600	0.029600	0.034700
H781	H78	0.349200	0.055200	0.009400
C741	C74	0.445900	0.953900	0.101700
H791	H79	0.471700	0.927500	0.125300
C751	C75	0.435400	0.037200	0.089700
C761	C76	0.303100	0.861900	0.180300
C771	C77	0.275800	0.855700	0.264000
H801	H80	0.317200	0.836200	0.291500
H811	H81	0.222700	0.838400	0.264700
C781	C78	0.265000	0.901900	0.308100
C791	C79	0.349300	0.925400	0.319300
H821	H82	0.388300	0.902700	0.341200
H831	H83	0.343600	0.952100	0.354800
H841	H84	0.369900	0.936500	0.269100
C801	C80	0.354600	0.983400	0.016800
H851	H85	0.313400	0.978600	0.978400
C811	C81	0.470900	0.998000	0.123800
H861	H86	0.512500	0.001600	0.162300
C821	C82	0.404500	0.196200	0.011400
C831	C83	0.465400	0.084900	0.114300
H871	H87	0.464400	0.086400	0.171700
H881	H88	0.523600	0.088400	0.097600
C841	C84	0.446100	0.149900	0.025300
C851	C85	0.368700	0.221800	0.069900
H891	H89	0.362000	0.208400	0.120000
C861	C86	0.409500	0.216400	0.938600
H901	H90	0.431300	0.199300	0.895900
C871	C87	0.382500	0.261500	0.929500
H911	H91	0.386500	0.275300	0.879500
C881	C88	0.342500	0.266800	0.055600
H921	H92	0.317400	0.284000	0.096500
C891	C89	0.205500	0.935000	0.264400
H931	H93	0.230000	0.943800	0.214500
H941	H94	0.195900	0.963300	0.295500
H951	H95	0.152900	0.918800	0.255500
C901	C90	0.225500	0.888400	0.385800
Cd61	Cd6	0.154180	0.368800	0.473270
O261	O26	0.121600	0.360450	0.336300
O271	O27	0.250700	0.367780	0.371200
O281	O28	0.234500	0.392820	0.053300
O291	O29	0.994200	0.638920	0.515100
O301	O30	0.347000	0.373330	0.112400
N161	N16	0.112500	0.445890	0.451000
N171	N17	0.081200	0.624060	0.415800
H961	H96	0.129100	0.631100	0.394500
N181	N18	0.149200	0.787130	0.513200
C911	C91	0.124400	0.529600	0.465300
H971	H97	0.150800	0.555200	0.490600
C921	C92	0.054100	0.453900	0.398300
H981	H98	0.028300	0.427500	0.374700
C931	C93	0.064600	0.537200	0.410300
C941	C94	0.196900	0.361900	0.319700
C951	C95	0.224200	0.355700	0.236000
H991	H99	0.182800	0.336200	0.208500
H1001	H100	0.277300	0.338400	0.235300
C961	C96	0.235000	0.401900	0.191900
C971	C97	0.150700	0.425400	0.180700
H1011	H101	0.111700	0.402700	0.158800
H1021	H102	0.156400	0.452100	0.145200
H1031	H103	0.130100	0.436500	0.230900
C981	C98	0.145400	0.483400	0.483200
H1041	H104	0.186600	0.478600	0.521600
C991	C99	0.029100	0.498000	0.376200
H1051	H105	0.987500	0.501600	0.337700
C1001	C100	0.095500	0.696200	0.488600
C1011	C101	0.034600	0.584900	0.385700
H1061	H106	0.035600	0.586400	0.328300
H1071	H107	0.976400	0.588400	0.402400
C1021	C102	0.053900	0.649900	0.474700
C1031	C103	0.131300	0.721800	0.430100
H1081	H108	0.138000	0.708400	0.380000
C1041	C104	0.090500	0.716400	0.561400
H1091	H109	0.068700	0.699300	0.604100
C1051	C105	0.117500	0.761500	0.570500
H1101	H110	0.113500	0.775300	0.620500
C1061	C106	0.157500	0.766800	0.444400
H1111	H111	0.182600	0.784000	0.403500
C1071	C107	0.294500	0.435000	0.235600
H1121	H112	0.270000	0.443800	0.285500
H1131	H113	0.304100	0.463300	0.204500
H1141	H114	0.347100	0.418800	0.244500
C1081	C108	0.274500	0.388400	0.114200
Cd71	Cd7	0.345820	0.368800	0.973270
O311	O31	0.378400	0.360450	0.836300
O321	O32	0.249300	0.367780	0.871200
O331	O33	0.265500	0.392820	0.553300
O341	O34	0.505800	0.638920	0.015100
O351	O35	0.153000	0.373330	0.612400
N191	N19	0.387500	0.445890	0.951000
N201	N20	0.418800	0.624060	0.915800
H1151	H115	0.370900	0.631100	0.894500
N211	N21	0.350800	0.787130	0.013200
C1091	C109	0.375600	0.529600	0.965300
H1161	H116	0.349200	0.555200	0.990600
C1101	C110	0.445900	0.453900	0.898300
H1171	H117	0.471700	0.427500	0.874700
C1111	C111	0.435400	0.537200	0.910300
C1121	C112	0.303100	0.361900	0.819700
C1131	C113	0.275800	0.355700	0.736000
H1181	H118	0.317200	0.336200	0.708500
H1191	H119	0.222700	0.338400	0.735300
C1141	C114	0.265000	0.401900	0.691900
C1151	C115	0.349300	0.425400	0.680700
H1201	H120	0.388300	0.402700	0.658800
H1211	H121	0.343600	0.452100	0.645200
H1221	H122	0.369900	0.436500	0.730900
C1161	C116	0.354600	0.483400	0.983200
H1231	H123	0.313400	0.478600	0.021600
C1171	C117	0.470900	0.498000	0.876200
H1241	H124	0.512500	0.501600	0.837700
C1181	C118	0.404500	0.696200	0.988600
C1191	C119	0.465400	0.584900	0.885700
H1251	H125	0.464400	0.586400	0.828300
H1261	H126	0.523600	0.588400	0.902400
C1201	C120	0.446100	0.649900	0.974700
C1211	C121	0.368700	0.721800	0.930100
H1271	H127	0.362000	0.708400	0.880000
C1221	C122	0.409500	0.716400	0.061400
H1281	H128	0.431300	0.699300	0.104100
C1231	C123	0.382500	0.761500	0.070500
H1291	H129	0.386500	0.775300	0.120500
C1241	C124	0.342500	0.766800	0.944400
H1301	H130	0.317400	0.784000	0.903500
C1251	C125	0.205500	0.435000	0.735600
H1311	H131	0.230000	0.443800	0.785500
H1321	H132	0.195900	0.463300	0.704500
H1331	H133	0.152900	0.418800	0.744500
C1261	C126	0.225500	0.388400	0.614200
Cd81	Cd8	0.154180	0.868800	0.526730
O361	O36	0.121600	0.860450	0.663700
O371	O37	0.250700	0.867780	0.628800
O381	O38	0.234500	0.892820	0.946700
O391	O39	0.994200	0.138920	0.484900
O401	O40	0.347000	0.873330	0.887600
N221	N22	0.112500	0.945890	0.549000
N231	N23	0.081200	0.124060	0.584200
H1341	H134	0.129100	0.131100	0.605500
N241	N24	0.149200	0.287130	0.486800
C1271	C127	0.124400	0.029600	0.534700
H1351	H135	0.150800	0.055200	0.509400
C1281	C128	0.054100	0.953900	0.601700
H1361	H136	0.028300	0.927500	0.625300
C1291	C129	0.064600	0.037200	0.589700
C1301	C130	0.196900	0.861900	0.680300
C1311	C131	0.224200	0.855700	0.764000
H1371	H137	0.182800	0.836200	0.791500
H1381	H138	0.277300	0.838400	0.764700
C1321	C132	0.235000	0.901900	0.808100
C1331	C133	0.150700	0.925400	0.819300
H1391	H139	0.111700	0.902700	0.841200
H1401	H140	0.156400	0.952100	0.854800
H1411	H141	0.130100	0.936500	0.769100
C1341	C134	0.145400	0.983400	0.516800
H1421	H142	0.186600	0.978600	0.478400
C1351	C135	0.029100	0.998000	0.623800
H1431	H143	0.987500	0.001600	0.662300
C1361	C136	0.095500	0.196200	0.511400
C1371	C137	0.034600	0.084900	0.614300
H1441	H144	0.035600	0.086400	0.671700
H1451	H145	0.976400	0.088400	0.597600
C1381	C138	0.053900	0.149900	0.525300
C1391	C139	0.131300	0.221800	0.569900
H1461	H146	0.138000	0.208400	0.620000
C1401	C140	0.090500	0.216400	0.438600
H1471	H147	0.068700	0.199300	0.395900
C1411	C141	0.117500	0.261500	0.429500
H1481	H148	0.113500	0.275300	0.379500
C1421	C142	0.157500	0.266800	0.555600
H1491	H149	0.182600	0.284000	0.596500
C1431	C143	0.294500	0.935000	0.764400
H1501	H150	0.270000	0.943800	0.714500
H1511	H151	0.304100	0.963300	0.795500
H1521	H152	0.347100	0.918800	0.755500
C1441	C144	0.274500	0.888400	0.885800
Cd91	Cd9	0.654180	0.631200	0.026730
O411	O41	0.621600	0.639550	0.163700
O421	O42	0.750700	0.632220	0.128800
O431	O43	0.734500	0.607180	0.446700
O441	O44	0.494200	0.361080	0.984900
O451	O45	0.847000	0.626670	0.387600
N251	N25	0.612500	0.554110	0.049000
N261	N26	0.581200	0.375940	0.084200
H1531	H153	0.629100	0.368900	0.105500
N271	N27	0.649200	0.212870	0.986800
C1451	C145	0.624400	0.470400	0.034700
H1541	H154	0.650800	0.444800	0.009400
C1461	C146	0.554100	0.546100	0.101700
H1551	H155	0.528300	0.572500	0.125300
C1471	C147	0.564600	0.462800	0.089700
C1481	C148	0.696900	0.638100	0.180300
C1491	C149	0.724200	0.644300	0.264000
H1561	H156	0.682800	0.663800	0.291500
H1571	H157	0.777300	0.661600	0.264700
C1501	C150	0.735000	0.598100	0.308100
C1511	C151	0.650700	0.574600	0.319300
H1581	H158	0.611700	0.597300	0.341200
H1591	H159	0.656400	0.547900	0.354800
H1601	H160	0.630100	0.563500	0.269100
C1521	C152	0.645400	0.516600	0.016800
H1611	H161	0.686600	0.521400	0.978400
C1531	C153	0.529100	0.502000	0.123800
H1621	H162	0.487500	0.498400	0.162300
C1541	C154	0.595500	0.303800	0.011400
C1551	C155	0.534600	0.415100	0.114300
H1631	H163	0.535600	0.413600	0.171700
H1641	H164	0.476400	0.411600	0.097600
C1561	C156	0.553900	0.350100	0.025300
C1571	C157	0.631300	0.278200	0.069900
H1651	H165	0.638000	0.291600	0.120000
C1581	C158	0.590500	0.283600	0.938600
H1661	H166	0.568700	0.300700	0.895900
C1591	C159	0.617500	0.238500	0.929500
H1671	H167	0.613500	0.224700	0.879500
C1601	C160	0.657500	0.233200	0.055600
H1681	H168	0.682600	0.216000	0.096500
C1611	C161	0.794500	0.565000	0.264400
H1691	H169	0.770000	0.556200	0.214500
H1701	H170	0.804100	0.536700	0.295500
H1711	H171	0.847100	0.581200	0.255500
C1621	C162	0.774500	0.611600	0.385800
Cd101	Cd10	0.845820	0.131200	0.473270
O461	O46	0.878400	0.139550	0.336300
O471	O47	0.749300	0.132220	0.371200
O481	O48	0.765500	0.107180	0.053300
O491	O49	0.005800	0.861080	0.515100
O501	O50	0.653000	0.126670	0.112400
N281	N28	0.887500	0.054110	0.451000
N291	N29	0.918800	0.875940	0.415800
H1721	H172	0.870900	0.868900	0.394500
N301	N30	0.850800	0.712870	0.513200
C1631	C163	0.875600	0.970400	0.465300
H1731	H173	0.849200	0.944800	0.490600
C1641	C164	0.945900	0.046100	0.398300
H1741	H174	0.971700	0.072500	0.374700
C1651	C165	0.935400	0.962800	0.410300
C1661	C166	0.803100	0.138100	0.319700
C1671	C167	0.775800	0.144300	0.236000
H1751	H175	0.817200	0.163800	0.208500
H1761	H176	0.722700	0.161600	0.235300
C1681	C168	0.765000	0.098100	0.191900
C1691	C169	0.849300	0.074600	0.180700
H1771	H177	0.888300	0.097300	0.158800
H1781	H178	0.843600	0.047900	0.145200
H1791	H179	0.869900	0.063500	0.230900
C1701	C170	0.854600	0.016600	0.483200
H1801	H180	0.813400	0.021400	0.521600
C1711	C171	0.970900	0.002000	0.376200
H1811	H181	0.012500	0.998400	0.337700
C1721	C172	0.904500	0.803800	0.488600
C1731	C173	0.965400	0.915100	0.385700
H1821	H182	0.964400	0.913600	0.328300
H1831	H183	0.023600	0.911600	0.402400
C1741	C174	0.946100	0.850100	0.474700
C1751	C175	0.868700	0.778200	0.430100
H1841	H184	0.862000	0.791600	0.380000
C1761	C176	0.909500	0.783600	0.561400
H1851	H185	0.931300	0.800700	0.604100
C1771	C177	0.882500	0.738500	0.570500
H1861	H186	0.886500	0.724700	0.620500
C1781	C178	0.842500	0.733200	0.444400
H1871	H187	0.817400	0.716000	0.403500
C1791	C179	0.705500	0.065000	0.235600
H1881	H188	0.730000	0.056200	0.285500
H1891	H189	0.695900	0.036700	0.204500
H1901	H190	0.652900	0.081200	0.244500
C1801	C180	0.725500	0.111600	0.114200
Cd111	Cd11	0.654180	0.131200	0.973270
O511	O51	0.621600	0.139550	0.836300
O521	O52	0.750700	0.132220	0.871200
O531	O53	0.734500	0.107180	0.553300
O541	O54	0.494200	0.861080	0.015100
O551	O55	0.847000	0.126670	0.612400
N311	N31	0.612500	0.054110	0.951000
N321	N32	0.581200	0.875940	0.915800
H1911	H191	0.629100	0.868900	0.894500
N331	N33	0.649200	0.712870	0.013200
C1811	C181	0.624400	0.970400	0.965300
H1921	H192	0.650800	0.944800	0.990600
C1821	C182	0.554100	0.046100	0.898300
H1931	H193	0.528300	0.072500	0.874700
C1831	C183	0.564600	0.962800	0.910300
C1841	C184	0.696900	0.138100	0.819700
C1851	C185	0.724200	0.144300	0.736000
H1941	H194	0.682800	0.163800	0.708500
H1951	H195	0.777300	0.161600	0.735300
C1861	C186	0.735000	0.098100	0.691900
C1871	C187	0.650700	0.074600	0.680700
H1961	H196	0.611700	0.097300	0.658800
H1971	H197	0.656400	0.047900	0.645200
H1981	H198	0.630100	0.063500	0.730900
C1881	C188	0.645400	0.016600	0.983200
H1991	H199	0.686600	0.021400	0.021600
C1891	C189	0.529100	0.002000	0.876200
H2001	H200	0.487500	0.998400	0.837700
C1901	C190	0.595500	0.803800	0.988600
C1911	C191	0.534600	0.915100	0.885700
H2011	H201	0.535600	0.913600	0.828300
H2021	H202	0.476400	0.911600	0.902400
C1921	C192	0.553900	0.850100	0.974700
C1931	C193	0.631300	0.778200	0.930100
H2031	H203	0.638000	0.791600	0.880000
C1941	C194	0.590500	0.783600	0.061400
H2041	H204	0.568700	0.800700	0.104100
C1951	C195	0.617500	0.738500	0.070500
H2051	H205	0.613500	0.724700	0.120500
C1961	C196	0.657500	0.733200	0.944400
H2061	H206	0.682600	0.716000	0.903500
C1971	C197	0.794500	0.065000	0.735600
H2071	H207	0.770000	0.056200	0.785500
H2081	H208	0.804100	0.036700	0.704500
H2091	H209	0.847100	0.081200	0.744500
C1981	C198	0.774500	0.111600	0.614200
Cd121	Cd12	0.845820	0.631200	0.526730
O561	O56	0.878400	0.639550	0.663700
O571	O57	0.749300	0.632220	0.628800
O581	O58	0.765500	0.607180	0.946700
O591	O59	0.005800	0.361080	0.484900
O601	O60	0.653000	0.626670	0.887600
N341	N34	0.887500	0.554110	0.549000
N351	N35	0.918800	0.375940	0.584200
H2101	H210	0.870900	0.368900	0.605500
N361	N36	0.850800	0.212870	0.486800
C1991	C199	0.875600	0.470400	0.534700
H2111	H211	0.849200	0.444800	0.509400
C2001	C200	0.945900	0.546100	0.601700
H2121	H212	0.971700	0.572500	0.625300
C2011	C201	0.935400	0.462800	0.589700
C2021	C202	0.803100	0.638100	0.680300
C2031	C203	0.775800	0.644300	0.764000
H2131	H213	0.817200	0.663800	0.791500
H2141	H214	0.722700	0.661600	0.764700
C2041	C204	0.765000	0.598100	0.808100
C2051	C205	0.849300	0.574600	0.819300
H2151	H215	0.888300	0.597300	0.841200
H2161	H216	0.843600	0.547900	0.854800
H2171	H217	0.869900	0.563500	0.769100
C2061	C206	0.854600	0.516600	0.516800
H2181	H218	0.813400	0.521400	0.478400
C2071	C207	0.970900	0.502000	0.623800
H2191	H219	0.012500	0.498400	0.662300
C2081	C208	0.904500	0.303800	0.511400
C2091	C209	0.965400	0.415100	0.614300
H2201	H220	0.964400	0.413600	0.671700
H2211	H221	0.023600	0.411600	0.597600
C2101	C210	0.946100	0.350100	0.525300
C2111	C211	0.868700	0.278200	0.569900
H2221	H222	0.862000	0.291600	0.620000
C2121	C212	0.909500	0.283600	0.438600
H2231	H223	0.931300	0.300700	0.395900
C2131	C213	0.882500	0.238500	0.429500
H2241	H224	0.886500	0.224700	0.379500
C2141	C214	0.842500	0.233200	0.555600
H2251	H225	0.817400	0.216000	0.596500
C2151	C215	0.705500	0.565000	0.764400
H2261	H226	0.730000	0.556200	0.714500
H2271	H227	0.695900	0.536700	0.795500
H2281	H228	0.652900	0.581200	0.755500
C2161	C216	0.725500	0.611600	0.885800
Cd131	Cd13	0.154180	0.131200	0.026730
O611	O61	0.121600	0.139550	0.163700
O621	O62	0.250700	0.132220	0.128800
O631	O63	0.234500	0.107180	0.446700
O641	O64	0.994200	0.861080	0.984900
O651	O65	0.347000	0.126670	0.387600
N371	N37	0.112500	0.054110	0.049000
N381	N38	0.081200	0.875940	0.084200
H2291	H229	0.129100	0.868900	0.105500
N391	N39	0.149200	0.712870	0.986800
C2171	C217	0.124400	0.970400	0.034700
H2301	H230	0.150800	0.944800	0.009400
C2181	C218	0.054100	0.046100	0.101700
H2311	H231	0.028300	0.072500	0.125300
C2191	C219	0.064600	0.962800	0.089700
C2201	C220	0.196900	0.138100	0.180300
C2211	C221	0.224200	0.144300	0.264000
H2321	H232	0.182800	0.163800	0.291500
H2331	H233	0.277300	0.161600	0.264700
C2221	C222	0.235000	0.098100	0.308100
C2231	C223	0.150700	0.074600	0.319300
H2341	H234	0.111700	0.097300	0.341200
H2351	H235	0.156400	0.047900	0.354800
H2361	H236	0.130100	0.063500	0.269100
C2241	C224	0.145400	0.016600	0.016800
H2371	H237	0.186600	0.021400	0.978400
C2251	C225	0.029100	0.002000	0.123800
H2381	H238	0.987500	0.998400	0.162300
C2261	C226	0.095500	0.803800	0.011400
C2271	C227	0.034600	0.915100	0.114300
H2391	H239	0.035600	0.913600	0.171700
H2401	H240	0.976400	0.911600	0.097600
C2281	C228	0.053900	0.850100	0.025300
C2291	C229	0.131300	0.778200	0.069900
H2411	H241	0.138000	0.791600	0.120000
C2301	C230	0.090500	0.783600	0.938600
H2421	H242	0.068700	0.800700	0.895900
C2311	C231	0.117500	0.738500	0.929500
H2431	H243	0.113500	0.724700	0.879500
C2321	C232	0.157500	0.733200	0.055600
H2441	H244	0.182600	0.716000	0.096500
C2331	C233	0.294500	0.065000	0.264400
H2451	H245	0.270000	0.056200	0.214500
H2461	H246	0.304100	0.036700	0.295500
H2471	H247	0.347100	0.081200	0.255500
C2341	C234	0.274500	0.111600	0.385800
Cd141	Cd14	0.345820	0.631200	0.473270
O661	O66	0.378400	0.639550	0.336300
O671	O67	0.249300	0.632220	0.371200
O681	O68	0.265500	0.607180	0.053300
O691	O69	0.505800	0.361080	0.515100
O701	O70	0.153000	0.626670	0.112400
N401	N40	0.387500	0.554110	0.451000
N411	N41	0.418800	0.375940	0.415800
H2481	H248	0.370900	0.368900	0.394500
N421	N42	0.350800	0.212870	0.513200
C2351	C235	0.375600	0.470400	0.465300
H2491	H249	0.349200	0.444800	0.490600
C2361	C236	0.445900	0.546100	0.398300
H2501	H250	0.471700	0.572500	0.374700
C2371	C237	0.435400	0.462800	0.410300
C2381	C238	0.303100	0.638100	0.319700
C2391	C239	0.275800	0.644300	0.236000
H2511	H251	0.317200	0.663800	0.208500
H2521	H252	0.222700	0.661600	0.235300
C2401	C240	0.265000	0.598100	0.191900
C2411	C241	0.349300	0.574600	0.180700
H2531	H253	0.388300	0.597300	0.158800
H2541	H254	0.343600	0.547900	0.145200
H2551	H255	0.369900	0.563500	0.230900
C2421	C242	0.354600	0.516600	0.483200
H2561	H256	0.313400	0.521400	0.521600
C2431	C243	0.470900	0.502000	0.376200
H2571	H257	0.512500	0.498400	0.337700
C2441	C244	0.404500	0.303800	0.488600
C2451	C245	0.465400	0.415100	0.385700
H2581	H258	0.464400	0.413600	0.328300
H2591	H259	0.523600	0.411600	0.402400
C2461	C246	0.446100	0.350100	0.474700
C2471	C247	0.368700	0.278200	0.430100
H2601	H260	0.362000	0.291600	0.380000
C2481	C248	0.409500	0.283600	0.561400
H2611	H261	0.431300	0.300700	0.604100
C2491	C249	0.382500	0.238500	0.570500
H2621	H262	0.386500	0.224700	0.620500
C2501	C250	0.342500	0.233200	0.444400
H2631	H263	0.317400	0.216000	0.403500
C2511	C251	0.205500	0.565000	0.235600
H2641	H264	0.230000	0.556200	0.285500
H2651	H265	0.195900	0.536700	0.204500
H2661	H266	0.152900	0.581200	0.244500
C2521	C252	0.225500	0.611600	0.114200
Cd151	Cd15	0.154180	0.631200	0.973270
O711	O71	0.121600	0.639550	0.836300
O721	O72	0.250700	0.632220	0.871200
O731	O73	0.234500	0.607180	0.553300
O741	O74	0.994200	0.361080	0.015100
O751	O75	0.347000	0.626670	0.612400
N431	N43	0.112500	0.554110	0.951000
N441	N44	0.081200	0.375940	0.915800
H2671	H267	0.129100	0.368900	0.894500
N451	N45	0.149200	0.212870	0.013200
C2531	C253	0.124400	0.470400	0.965300
H2681	H268	0.150800	0.444800	0.990600
C2541	C254	0.054100	0.546100	0.898300
H2691	H269	0.028300	0.572500	0.874700
C2551	C255	0.064600	0.462800	0.910300
C2561	C256	0.196900	0.638100	0.819700
C2571	C257	0.224200	0.644300	0.736000
H2701	H270	0.182800	0.663800	0.708500
H2711	H271	0.277300	0.661600	0.735300
C2581	C258	0.235000	0.598100	0.691900
C2591	C259	0.150700	0.574600	0.680700
H2721	H272	0.111700	0.597300	0.658800
H2731	H273	0.156400	0.547900	0.645200
H2741	H274	0.130100	0.563500	0.730900
C2601	C260	0.145400	0.516600	0.983200
H2751	H275	0.186600	0.521400	0.021600
C2611	C261	0.029100	0.502000	0.876200
H2761	H276	0.987500	0.498400	0.837700
C2621	C262	0.095500	0.303800	0.988600
C2631	C263	0.034600	0.415100	0.885700
H2771	H277	0.035600	0.413600	0.828300
H2781	H278	0.976400	0.411600	0.902400
C2641	C264	0.053900	0.350100	0.974700
C2651	C265	0.131300	0.278200	0.930100
H2791	H279	0.138000	0.291600	0.880000
C2661	C266	0.090500	0.283600	0.061400
H2801	H280	0.068700	0.300700	0.104100
C2671	C267	0.117500	0.238500	0.070500
H2811	H281	0.113500	0.224700	0.120500
C2681	C268	0.157500	0.233200	0.944400
H2821	H282	0.182600	0.216000	0.903500
C2691	C269	0.294500	0.565000	0.735600
H2831	H283	0.270000	0.556200	0.785500
H2841	H284	0.304100	0.536700	0.704500
H2851	H285	0.347100	0.581200	0.744500
C2701	C270	0.274500	0.611600	0.614200
Cd161	Cd16	0.345820	0.131200	0.526730
O761	O76	0.378400	0.139550	0.663700
O771	O77	0.249300	0.132220	0.628800
O781	O78	0.265500	0.107180	0.946700
O791	O79	0.505800	0.861080	0.484900
O801	O80	0.153000	0.126670	0.887600
N461	N46	0.387500	0.054110	0.549000
N471	N47	0.418800	0.875940	0.584200
H2861	H286	0.370900	0.868900	0.605500
N481	N48	0.350800	0.712870	0.486800
C2711	C271	0.375600	0.970400	0.534700
H2871	H287	0.349200	0.944800	0.509400
C2721	C272	0.445900	0.046100	0.601700
H2881	H288	0.471700	0.072500	0.625300
C2731	C273	0.435400	0.962800	0.589700
C2741	C274	0.303100	0.138100	0.680300
C2751	C275	0.275800	0.144300	0.764000
H2891	H289	0.317200	0.163800	0.791500
H2901	H290	0.222700	0.161600	0.764700
C2761	C276	0.265000	0.098100	0.808100
C2771	C277	0.349300	0.074600	0.819300
H2911	H291	0.388300	0.097300	0.841200
H2921	H292	0.343600	0.047900	0.854800
H2931	H293	0.369900	0.063500	0.769100
C2781	C278	0.354600	0.016600	0.516800
H2941	H294	0.313400	0.021400	0.478400
C2791	C279	0.470900	0.002000	0.623800
H2951	H295	0.512500	0.998400	0.662300
C2801	C280	0.404500	0.803800	0.511400
C2811	C281	0.465400	0.915100	0.614300
H2961	H296	0.464400	0.913600	0.671700
H2971	H297	0.523600	0.911600	0.597600
C2821	C282	0.446100	0.850100	0.525300
C2831	C283	0.368700	0.778200	0.569900
H2981	H298	0.362000	0.791600	0.620000
C2841	C284	0.409500	0.783600	0.438600
H2991	H299	0.431300	0.800700	0.395900
C2851	C285	0.382500	0.738500	0.429500
H3001	H300	0.386500	0.724700	0.379500
C2861	C286	0.342500	0.733200	0.555600
H3011	H301	0.317400	0.716000	0.596500
C2871	C287	0.205500	0.065000	0.764400
H3021	H302	0.230000	0.056200	0.714500
H3031	H303	0.195900	0.036700	0.795500
H3041	H304	0.152900	0.081200	0.755500
C2881	C288	0.225500	0.111600	0.885800
