data_CABJOH_clean_PM
_symmetry_space_group_name_H-M	'P1'
_cell_length_a	6.788300
_cell_length_b	14.484000
_cell_length_c	28.916700
_cell_angle_alpha	90.000000
_cell_angle_beta	93.295000
_cell_angle_gamma	90.000000
_symmetry_Int_Tables_number 1

loop_
_symmetry_equiv_pos_as_xyz
'x,y,z'

loop_
_atom_site_label
_atom_site_type_symbol
_atom_site_fract_x
_atom_site_fract_y
_atom_site_fract_z
Ni11	Ni1	0.998640	0.774260	0.253580
Ni21	Ni2	0.503600	0.524460	0.246230
N11	N1	0.802600	0.373100	0.266270
N21	N2	0.860200	0.727000	0.686310
N31	N3	0.798800	0.674300	0.272610
N41	N4	0.137900	0.773000	0.320820
C11	C1	0.687300	0.432000	0.261880
N51	N5	0.191200	0.671900	0.235760
N61	N6	0.194000	0.377100	0.228710
C21	C2	0.334500	0.774500	0.328180
H11	H1	0.413600	0.779000	0.302200
C31	C3	0.663700	0.724500	0.678670
H21	H2	0.584000	0.719700	0.704500
C41	C4	0.317200	0.790300	0.496680
H31	H3	0.191100	0.818500	0.492300
C51	C5	0.409500	0.756000	0.458370
C61	C6	0.682700	0.707500	0.510370
H41	H4	0.808200	0.678800	0.514700
C71	C7	0.592000	0.741900	0.548450
C81	C8	0.314900	0.762000	0.411030
C91	C9	0.572100	0.728800	0.634830
H51	H5	0.432200	0.727100	0.631000
C101	C10	0.685200	0.735500	0.595960
C111	C11	0.031000	0.766600	0.357950
H61	H6	0.891400	0.765900	0.353200
C121	C12	0.427000	0.769800	0.371930
H71	H7	0.566900	0.771800	0.375500
C131	C13	0.968100	0.733000	0.649180
H81	H8	0.107700	0.734600	0.654100
C141	C14	0.405400	0.783900	0.540720
H91	H9	0.339800	0.808200	0.566200
C151	C15	0.594800	0.713900	0.466050
H101	H10	0.660600	0.689600	0.440600
C161	C16	0.889100	0.736800	0.604340
H111	H11	0.973200	0.740200	0.579200
C171	C17	0.111000	0.760900	0.402700
H121	H12	0.027200	0.756300	0.427800
C181	C18	0.310400	0.615000	0.238150
C191	C19	0.683900	0.615900	0.265770
C201	C20	0.311700	0.434100	0.233980
Ni31	Ni3	0.001360	0.274260	0.246420
Ni41	Ni4	0.496400	0.024460	0.253770
N71	N7	0.197400	0.873100	0.233730
N81	N8	0.139800	0.227000	0.813690
N91	N9	0.201200	0.174300	0.227390
N101	N10	0.862100	0.273000	0.179180
C211	C21	0.312700	0.932000	0.238120
N111	N11	0.808800	0.171900	0.264240
N121	N12	0.806000	0.877100	0.271290
C221	C22	0.665500	0.274500	0.171820
H131	H13	0.586400	0.279000	0.197800
C231	C23	0.336300	0.224500	0.821330
H141	H14	0.416000	0.219700	0.795500
C241	C24	0.682800	0.290300	0.003320
H151	H15	0.808900	0.318500	0.007700
C251	C25	0.590500	0.256000	0.041630
C261	C26	0.317300	0.207500	0.989630
H161	H16	0.191800	0.178800	0.985300
C271	C27	0.408000	0.241900	0.951550
C281	C28	0.685100	0.262000	0.088970
C291	C29	0.427900	0.228800	0.865170
H171	H17	0.567800	0.227100	0.869000
C301	C30	0.314800	0.235500	0.904040
C311	C31	0.969000	0.266600	0.142050
H181	H18	0.108600	0.265900	0.146800
C321	C32	0.573000	0.269800	0.128070
H191	H19	0.433100	0.271800	0.124500
C331	C33	0.031900	0.233000	0.850820
H201	H20	0.892300	0.234600	0.845900
C341	C34	0.594600	0.283900	0.959280
H211	H21	0.660200	0.308200	0.933800
C351	C35	0.405200	0.213900	0.033950
H221	H22	0.339400	0.189600	0.059400
C361	C36	0.110900	0.236800	0.895660
H231	H23	0.026800	0.240200	0.920800
C371	C37	0.889000	0.260900	0.097300
H241	H24	0.972800	0.256300	0.072200
C381	C38	0.689600	0.115000	0.261850
C391	C39	0.316100	0.115900	0.234230
C401	C40	0.688300	0.934100	0.266020
Ni51	Ni5	0.001360	0.225740	0.746420
Ni61	Ni6	0.496400	0.475540	0.753770
N131	N13	0.197400	0.626900	0.733730
N141	N14	0.139800	0.273000	0.313690
N151	N15	0.201200	0.325700	0.727390
N161	N16	0.862100	0.227000	0.679180
C411	C41	0.312700	0.568000	0.738120
N171	N17	0.808800	0.328100	0.764240
N181	N18	0.806000	0.622900	0.771290
C421	C42	0.665500	0.225500	0.671820
H251	H25	0.586400	0.221000	0.697800
C431	C43	0.336300	0.275500	0.321330
H261	H26	0.416000	0.280300	0.295500
C441	C44	0.682800	0.209700	0.503320
H271	H27	0.808900	0.181500	0.507700
C451	C45	0.590500	0.244000	0.541630
C461	C46	0.317300	0.292500	0.489630
H281	H28	0.191800	0.321200	0.485300
C471	C47	0.408000	0.258100	0.451550
C481	C48	0.685100	0.238000	0.588970
C491	C49	0.427900	0.271200	0.365170
H291	H29	0.567800	0.272900	0.369000
C501	C50	0.314800	0.264500	0.404040
C511	C51	0.969000	0.233400	0.642050
H301	H30	0.108600	0.234100	0.646800
C521	C52	0.573000	0.230200	0.628070
H311	H31	0.433100	0.228200	0.624500
C531	C53	0.031900	0.267000	0.350820
H321	H32	0.892300	0.265400	0.345900
C541	C54	0.594600	0.216100	0.459280
H331	H33	0.660200	0.191800	0.433800
C551	C55	0.405200	0.286100	0.533950
H341	H34	0.339400	0.310400	0.559400
C561	C56	0.110900	0.263200	0.395660
H351	H35	0.026800	0.259800	0.420800
C571	C57	0.889000	0.239100	0.597300
H361	H36	0.972800	0.243700	0.572200
C581	C58	0.689600	0.385000	0.761850
C591	C59	0.316100	0.384100	0.734230
C601	C60	0.688300	0.565900	0.766020
Ni71	Ni7	0.998640	0.725740	0.753580
Ni81	Ni8	0.503600	0.975540	0.746230
N191	N19	0.802600	0.126900	0.766270
N201	N20	0.860200	0.773000	0.186310
N211	N21	0.798800	0.825700	0.772610
N221	N22	0.137900	0.727000	0.820820
C611	C61	0.687300	0.068000	0.761880
N231	N23	0.191200	0.828100	0.735760
N241	N24	0.194000	0.122900	0.728710
C621	C62	0.334500	0.725500	0.828180
H371	H37	0.413600	0.721000	0.802200
C631	C63	0.663700	0.775500	0.178670
H381	H38	0.584000	0.780300	0.204500
C641	C64	0.317200	0.709700	0.996680
H391	H39	0.191100	0.681500	0.992300
C651	C65	0.409500	0.744000	0.958370
C661	C66	0.682700	0.792500	0.010370
H401	H40	0.808200	0.821200	0.014700
C671	C67	0.592000	0.758100	0.048450
C681	C68	0.314900	0.738000	0.911030
C691	C69	0.572100	0.771200	0.134830
H411	H41	0.432200	0.772900	0.131000
C701	C70	0.685200	0.764500	0.095960
C711	C71	0.031000	0.733400	0.857950
H421	H42	0.891400	0.734100	0.853200
C721	C72	0.427000	0.730200	0.871930
H431	H43	0.566900	0.728200	0.875500
C731	C73	0.968100	0.767000	0.149180
H441	H44	0.107700	0.765400	0.154100
C741	C74	0.405400	0.716100	0.040720
H451	H45	0.339800	0.691800	0.066200
C751	C75	0.594800	0.786100	0.966050
H461	H46	0.660600	0.810400	0.940600
C761	C76	0.889100	0.763200	0.104340
H471	H47	0.973200	0.759800	0.079200
C771	C77	0.111000	0.739100	0.902700
H481	H48	0.027200	0.743700	0.927800
C781	C78	0.310400	0.885000	0.738150
C791	C79	0.683900	0.884100	0.765770
C801	C80	0.311700	0.065900	0.733980
