data_CADPIH_clean_PM
_symmetry_space_group_name_H-M	'P1'
_cell_length_a	10.283000
_cell_length_b	12.096000
_cell_length_c	16.911000
_cell_angle_alpha	76.070000
_cell_angle_beta	72.380000
_cell_angle_gamma	65.200000
_symmetry_Int_Tables_number 1

loop_
_symmetry_equiv_pos_as_xyz
'x,y,z'

loop_
_atom_site_label
_atom_site_type_symbol
_atom_site_fract_x
_atom_site_fract_y
_atom_site_fract_z
Ga11	Ga1	0.273350	0.498100	0.761320
Ga21	Ga2	0.534270	0.000870	0.744720
Ga31	Ga3	0.857250	0.593520	0.898930
Ga41	Ga4	0.345260	0.907750	0.603750
Ga51	Ga5	0.850720	0.739770	0.696070
Ga61	Ga6	0.287060	0.759350	0.806080
P11	P1	0.115100	0.599350	0.936390
P21	P2	0.001000	0.458610	0.737430
P31	P3	0.197000	0.041840	0.765370
P41	P4	0.650600	0.908970	0.566520
P51	P5	0.571800	0.751240	0.845280
P61	P6	0.170100	0.744040	0.656910
P71	P7	0.560200	0.255540	0.734450
O11	O1	0.668700	0.712700	0.759900
O21	O2	0.142700	0.784900	0.741200
O31	O3	0.159100	0.709200	0.904000
O41	O4	0.520700	0.891900	0.841600
O51	O5	0.255300	0.602900	0.661000
O61	O6	0.544600	0.868000	0.542800
O71	O7	0.260400	0.807800	0.586900
O81	O8	0.944900	0.643000	0.962000
O91	O9	0.770400	0.795800	0.598600
O101	O10	0.197800	0.927500	0.826800
O111	O11	0.322400	0.081000	0.762100
O121	O12	0.722300	0.974600	0.489200
O131	O13	0.950100	0.569700	0.674200
O141	O14	0.158300	0.515700	0.869500
O151	O15	0.439600	0.712500	0.867200
O161	O16	0.179400	0.528400	0.011600
O171	O17	0.023500	0.780700	0.633600
O181	O18	0.552600	0.130700	0.773200
O191	O19	0.204900	0.025800	0.675500
O201	O20	0.423600	0.351100	0.781700
O211	O21	0.162300	0.417500	0.739300
O221	O22	0.553300	0.996300	0.633100
O231	O23	0.984900	0.353000	0.708500
H11	H1	0.014500	0.289100	0.739700
O241	O24	0.902500	0.475700	0.826600
F11	F1	0.752700	0.914800	0.721200
F21	F2	0.383100	0.583900	0.781800
O251	O25	0.911700	0.700300	0.801200
H21	H2	0.938300	0.757000	0.811800
O261	O26	0.412600	0.800100	0.700700
H31	H3	0.516600	0.757000	0.697900
O271	O27	0.655000	0.687500	0.915500
O281	O28	0.698500	0.257800	0.748900
O291	O29	0.053300	0.146300	0.794700
O301	O30	0.564300	0.280500	0.641100
Ga71	Ga7	0.726650	0.501900	0.238680
Ga81	Ga8	0.465730	0.999130	0.255280
Ga91	Ga9	0.142750	0.406480	0.101070
Ga101	Ga10	0.654740	0.092250	0.396250
Ga111	Ga11	0.149280	0.260230	0.303930
Ga121	Ga12	0.712940	0.240650	0.193920
P81	P8	0.884900	0.400650	0.063610
P91	P9	0.999000	0.541390	0.262570
P101	P10	0.803000	0.958160	0.234630
P111	P11	0.349400	0.091030	0.433480
P121	P12	0.428200	0.248760	0.154720
P131	P13	0.829900	0.255960	0.343090
P141	P14	0.439800	0.744460	0.265550
O311	O31	0.331300	0.287300	0.240100
O321	O32	0.857300	0.215100	0.258800
O331	O33	0.840900	0.290800	0.096000
O341	O34	0.479300	0.108100	0.158400
O351	O35	0.744700	0.397100	0.339000
O361	O36	0.455400	0.132000	0.457200
O371	O37	0.739600	0.192200	0.413100
O381	O38	0.055100	0.357000	0.038000
O391	O39	0.229600	0.204200	0.401400
O401	O40	0.802200	0.072500	0.173200
O411	O41	0.677600	0.919000	0.237900
O421	O42	0.277700	0.025400	0.510800
O431	O43	0.049900	0.430300	0.325800
O441	O44	0.841700	0.484300	0.130500
O451	O45	0.560400	0.287500	0.132800
O461	O46	0.820600	0.471600	0.988400
O471	O47	0.976500	0.219300	0.366400
O481	O48	0.447400	0.869300	0.226800
O491	O49	0.795100	0.974200	0.324500
O501	O50	0.576400	0.648900	0.218300
O511	O51	0.837700	0.582500	0.260700
O521	O52	0.446700	0.003700	0.366900
O531	O53	0.015100	0.647000	0.291500
H41	H4	0.985500	0.710900	0.260300
O541	O54	0.097500	0.524300	0.173400
F31	F3	0.247300	0.085200	0.278800
F41	F4	0.616900	0.416100	0.218200
O551	O55	0.088300	0.299700	0.198800
H51	H5	0.061700	0.243000	0.188200
O561	O56	0.587400	0.199900	0.299300
H61	H6	0.483400	0.243000	0.302100
O571	O57	0.345000	0.312500	0.084500
O581	O58	0.301500	0.742200	0.251100
O591	O59	0.946700	0.853700	0.205300
O601	O60	0.435700	0.719500	0.358900
