data_CADQOP_clean_PM
_symmetry_space_group_name_H-M	'P1'
_cell_length_a	10.445000
_cell_length_b	11.119000
_cell_length_c	12.430000
_cell_angle_alpha	103.726000
_cell_angle_beta	106.487000
_cell_angle_gamma	98.395000
_symmetry_Int_Tables_number 1

loop_
_symmetry_equiv_pos_as_xyz
'x,y,z'

loop_
_atom_site_label
_atom_site_type_symbol
_atom_site_fract_x
_atom_site_fract_y
_atom_site_fract_z
Ce11	Ce1	0.094650	0.045010	0.683860
Ce21	Ce2	0.905350	0.954990	0.316140
H11	H1	0.007300	0.652000	0.668700
H21	H2	0.390600	0.058000	0.636500
H31	H3	0.926900	0.619600	0.288600
H41	H4	0.179100	0.434000	0.956400
H51	H5	0.992700	0.348000	0.331300
H61	H6	0.609400	0.942000	0.363500
H71	H7	0.073100	0.380400	0.711400
H81	H8	0.820900	0.566000	0.043600
C11	C1	0.205500	0.960000	0.425200
C21	C2	0.944900	0.746300	0.491800
C31	C3	0.004200	0.589700	0.600200
C41	C4	0.424200	0.947700	0.380800
C51	C5	0.539500	0.397100	0.939100
C61	C6	0.362100	0.493800	0.989100
C71	C7	0.357000	0.981100	0.462500
C81	C8	0.967800	0.527000	0.391500
C91	C9	0.400100	0.390400	0.928200
C101	C10	0.971600	0.616700	0.493400
C111	C11	0.295200	0.271500	0.853400
C121	C12	0.435500	0.033900	0.580800
C131	C13	0.794500	0.040000	0.574800
C141	C14	0.055100	0.253700	0.508200
C151	C15	0.995800	0.410300	0.399800
C161	C16	0.575800	0.052300	0.619200
C171	C17	0.460500	0.602900	0.060900
C181	C18	0.637900	0.506200	0.010900
C191	C19	0.643000	0.018900	0.537500
C201	C20	0.032200	0.473000	0.608500
C211	C21	0.599900	0.609600	0.071800
C221	C22	0.028400	0.383300	0.506600
C231	C23	0.704800	0.728500	0.146600
C241	C24	0.564500	0.966100	0.419200
O11	O1	0.961200	0.826000	0.587600
O21	O2	0.907700	0.766600	0.392300
O31	O3	0.171500	0.260900	0.850900
O41	O4	0.332700	0.183700	0.792500
O51	O5	0.145500	0.980500	0.500400
O61	O6	0.137700	0.920700	0.315900
O71	O7	0.356200	0.897100	0.263200
O81	O8	0.937900	0.545300	0.283500
O91	O9	0.233400	0.505900	0.986300
O101	O10	0.038800	0.174000	0.412400
O111	O11	0.092300	0.233400	0.607700
O121	O12	0.828500	0.739100	0.149100
O131	O13	0.667300	0.816300	0.207500
O141	O14	0.854500	0.019500	0.499600
O151	O15	0.862300	0.079300	0.684100
O161	O16	0.643800	0.102900	0.736800
O171	O17	0.062100	0.454700	0.716500
O181	O18	0.766600	0.494100	0.013700
