data_CAGXIU_clean_PM
_symmetry_space_group_name_H-M	'P1'
_cell_length_a	14.065200
_cell_length_b	5.860100
_cell_length_c	21.268000
_cell_angle_alpha	90.000000
_cell_angle_beta	95.213000
_cell_angle_gamma	90.000000
_symmetry_Int_Tables_number 1

loop_
_symmetry_equiv_pos_as_xyz
'x,y,z'

loop_
_atom_site_label
_atom_site_type_symbol
_atom_site_fract_x
_atom_site_fract_y
_atom_site_fract_z
Ba11	Ba1	0.121660	0.232770	0.753970
S11	S1	0.581640	0.966100	0.878300
O11	O1	0.977000	0.511600	0.779000
O21	O2	0.706300	0.937100	0.190300
O31	O3	0.510300	0.804100	0.853700
O41	O4	0.024200	0.876600	0.787000
O51	O5	0.690600	0.564900	0.171500
O61	O6	0.566500	0.206000	0.869900
C11	C1	0.964000	0.718100	0.789600
C21	C2	0.867100	0.781200	0.810100
C31	C3	0.851400	0.996600	0.833800
H11	H1	0.900600	0.103100	0.836100
C41	C4	0.764700	0.057100	0.854000
H21	H2	0.754600	0.201000	0.870600
C51	C5	0.793600	0.626100	0.804800
H31	H3	0.803900	0.482100	0.788400
C61	C6	0.706900	0.678400	0.823000
H41	H4	0.657300	0.573000	0.818500
C71	C7	0.692700	0.893400	0.848600
C81	C8	0.682800	0.765900	0.154900
C91	C9	0.652200	0.821900	0.086000
C101	C10	0.664700	0.039100	0.062400
H51	H5	0.689000	0.154700	0.089200
C111	C11	0.641300	0.084000	0.000000
H61	H6	0.650400	0.229400	0.984000
C121	C12	0.604000	0.911100	0.960200
C131	C13	0.590000	0.693600	0.982600
H71	H7	0.565500	0.578300	0.955800
C141	C14	0.614000	0.652500	0.046700
H81	H8	0.604000	0.508300	0.063100
Ba21	Ba2	0.378340	0.732770	0.746030
S21	S2	0.918360	0.466100	0.621700
O71	O7	0.523000	0.011600	0.721000
O81	O8	0.793700	0.437100	0.309700
O91	O9	0.989700	0.304100	0.646300
O101	O10	0.475800	0.376600	0.713000
O111	O11	0.809400	0.064900	0.328500
O121	O12	0.933500	0.706000	0.630100
C151	C15	0.536000	0.218100	0.710400
C161	C16	0.632900	0.281200	0.689900
C171	C17	0.648600	0.496600	0.666200
H91	H9	0.599400	0.603100	0.663900
C181	C18	0.735300	0.557100	0.646000
H101	H10	0.745400	0.701000	0.629400
C191	C19	0.706400	0.126100	0.695200
H111	H11	0.696100	0.982100	0.711600
C201	C20	0.793100	0.178400	0.677000
H121	H12	0.842700	0.073000	0.681500
C211	C21	0.807300	0.393400	0.651400
C221	C22	0.817200	0.265900	0.345100
C231	C23	0.847800	0.321900	0.414000
C241	C24	0.835300	0.539100	0.437600
H131	H13	0.811000	0.654700	0.410800
C251	C25	0.858700	0.584000	0.500000
H141	H14	0.849600	0.729400	0.516000
C261	C26	0.896000	0.411100	0.539800
C271	C27	0.910000	0.193600	0.517400
H151	H15	0.934500	0.078300	0.544200
C281	C28	0.886000	0.152500	0.453300
H161	H16	0.896000	0.008300	0.436900
Ba31	Ba3	0.878340	0.767230	0.246030
S31	S3	0.418360	0.033900	0.121700
O131	O13	0.023000	0.488400	0.221000
O141	O14	0.293700	0.062900	0.809700
O151	O15	0.489700	0.195900	0.146300
O161	O16	0.975800	0.123400	0.213000
O171	O17	0.309400	0.435100	0.828500
O181	O18	0.433500	0.794000	0.130100
C291	C29	0.036000	0.281900	0.210400
C301	C30	0.132900	0.218800	0.189900
C311	C31	0.148600	0.003400	0.166200
H171	H17	0.099400	0.896900	0.163900
C321	C32	0.235300	0.942900	0.146000
H181	H18	0.245400	0.799000	0.129400
C331	C33	0.206400	0.373900	0.195200
H191	H19	0.196100	0.517900	0.211600
C341	C34	0.293100	0.321600	0.177000
H201	H20	0.342700	0.427000	0.181500
C351	C35	0.307300	0.106600	0.151400
C361	C36	0.317200	0.234100	0.845100
C371	C37	0.347800	0.178100	0.914000
C381	C38	0.335300	0.960900	0.937600
H211	H21	0.311000	0.845300	0.910800
C391	C39	0.358700	0.916000	0.000000
H221	H22	0.349600	0.770600	0.016000
C401	C40	0.396000	0.088900	0.039800
C411	C41	0.410000	0.306400	0.017400
H231	H23	0.434500	0.421700	0.044200
C421	C42	0.386000	0.347500	0.953300
H241	H24	0.396000	0.491700	0.936900
Ba41	Ba4	0.621660	0.267230	0.253970
S41	S4	0.081640	0.533900	0.378300
O191	O19	0.477000	0.988400	0.279000
O201	O20	0.206300	0.562900	0.690300
O211	O21	0.010300	0.695900	0.353700
O221	O22	0.524200	0.623400	0.287000
O231	O23	0.190600	0.935100	0.671500
O241	O24	0.066500	0.294000	0.369900
C431	C43	0.464000	0.781900	0.289600
C441	C44	0.367100	0.718800	0.310100
C451	C45	0.351400	0.503400	0.333800
H251	H25	0.400600	0.396900	0.336100
C461	C46	0.264700	0.442900	0.354000
H261	H26	0.254600	0.299000	0.370600
C471	C47	0.293600	0.873900	0.304800
H271	H27	0.303900	0.017900	0.288400
C481	C48	0.206900	0.821600	0.323000
H281	H28	0.157300	0.927000	0.318500
C491	C49	0.192700	0.606600	0.348600
C501	C50	0.182800	0.734100	0.654900
C511	C51	0.152200	0.678100	0.586000
C521	C52	0.164700	0.460900	0.562400
H291	H29	0.189000	0.345300	0.589200
C531	C53	0.141300	0.416000	0.500000
H301	H30	0.150400	0.270600	0.484000
C541	C54	0.104000	0.588900	0.460200
C551	C55	0.090000	0.806400	0.482600
H311	H31	0.065500	0.921700	0.455800
C561	C56	0.114000	0.847500	0.546700
H321	H32	0.104000	0.991700	0.563100
