data_CAHLEE_clean_PM
_symmetry_space_group_name_H-M	'P1'
_cell_length_a	7.027500
_cell_length_b	18.139000
_cell_length_c	24.704000
_cell_angle_alpha	90.000000
_cell_angle_beta	90.000000
_cell_angle_gamma	99.860000
_symmetry_Int_Tables_number 1

loop_
_symmetry_equiv_pos_as_xyz
'x,y,z'

loop_
_atom_site_label
_atom_site_type_symbol
_atom_site_fract_x
_atom_site_fract_y
_atom_site_fract_z
Nd11	Nd1	0.278330	0.484000	0.599130
Nd21	Nd2	0.721670	0.516000	0.099130
Nd31	Nd3	0.721670	0.516000	0.400870
Nd41	Nd4	0.278330	0.484000	0.900870
Cu11	Cu1	0.120830	0.955960	0.507570
Cu21	Cu2	0.672910	0.939550	0.580610
Cu31	Cu3	0.749590	0.053350	0.684220
Cu41	Cu4	0.879170	0.044040	0.007570
Cu51	Cu5	0.327090	0.060450	0.080610
Cu61	Cu6	0.250410	0.946650	0.184220
Cu71	Cu7	0.879170	0.044040	0.492430
Cu81	Cu8	0.327090	0.060450	0.419390
Cu91	Cu9	0.250410	0.946650	0.315780
Cu101	Cu10	0.120830	0.955960	0.992430
Cu111	Cu11	0.672910	0.939550	0.919390
Cu121	Cu12	0.749590	0.053350	0.815780
Cu131	Cu13	0.728380	0.934340	0.750000
Cu141	Cu14	0.271620	0.065660	0.250000
H11	H1	0.084800	0.858200	0.604700
H21	H2	0.101100	0.736200	0.628400
H31	H3	0.202200	0.695100	0.472200
H41	H4	0.177900	0.817000	0.452300
H51	H5	0.605300	0.792500	0.637400
H61	H6	0.594500	0.667600	0.621100
H71	H7	0.694500	0.718000	0.464200
H81	H8	0.692800	0.841300	0.484600
H91	H9	0.392800	0.105200	0.653300
H101	H10	0.273400	0.213600	0.638400
H111	H11	0.806300	0.329600	0.661800
H121	H12	0.905900	0.218100	0.679600
H131	H13	0.915200	0.141800	0.104700
H141	H14	0.898900	0.263800	0.128400
H151	H15	0.797800	0.304900	0.972200
H161	H16	0.822100	0.183000	0.952300
H171	H17	0.394700	0.207500	0.137400
H181	H18	0.405500	0.332400	0.121100
H191	H19	0.305500	0.282000	0.964200
H201	H20	0.307200	0.158700	0.984600
H211	H21	0.607200	0.894800	0.153300
H221	H22	0.726600	0.786400	0.138400
H231	H23	0.193700	0.670400	0.161800
H241	H24	0.094100	0.781900	0.179600
H251	H25	0.915200	0.141800	0.395300
H261	H26	0.898900	0.263800	0.371600
H271	H27	0.797800	0.304900	0.527800
H281	H28	0.822100	0.183000	0.547700
H291	H29	0.394700	0.207500	0.362600
H301	H30	0.405500	0.332400	0.378900
H311	H31	0.305500	0.282000	0.535800
H321	H32	0.307200	0.158700	0.515400
H331	H33	0.607200	0.894800	0.346700
H341	H34	0.726600	0.786400	0.361600
H351	H35	0.193700	0.670400	0.338200
H361	H36	0.094100	0.781900	0.320400
H371	H37	0.084800	0.858200	0.895300
H381	H38	0.101100	0.736200	0.871600
H391	H39	0.202200	0.695100	0.027800
H401	H40	0.177900	0.817000	0.047700
H411	H41	0.605300	0.792500	0.862600
H421	H42	0.594500	0.667600	0.878900
H431	H43	0.694500	0.718000	0.035800
H441	H44	0.692800	0.841300	0.015400
H451	H45	0.392800	0.105200	0.846700
H461	H46	0.273400	0.213600	0.861600
H471	H47	0.806300	0.329600	0.838200
H481	H48	0.905900	0.218100	0.820400
H491	H49	0.116800	0.894200	0.750000
H501	H50	0.270200	0.791700	0.750000
H511	H51	0.750300	0.660000	0.750000
H521	H52	0.614200	0.765700	0.750000
H531	H53	0.883200	0.105800	0.250000
H541	H54	0.729800	0.208300	0.250000
H551	H55	0.249700	0.340000	0.250000
H561	H56	0.385800	0.234300	0.250000
C11	C1	0.106600	0.824600	0.577860
C21	C2	0.117600	0.751600	0.592570
C31	C3	0.153700	0.702200	0.552640
C41	C4	0.177000	0.727300	0.499540
C51	C5	0.162400	0.800300	0.487900
C61	C6	0.171100	0.623300	0.567700
C71	C7	0.622000	0.776900	0.602130
C81	C8	0.616800	0.701900	0.592850
C91	C9	0.645400	0.678300	0.540310
C101	C10	0.674800	0.731900	0.499750
C111	C11	0.674800	0.806100	0.512340
C121	C12	0.642900	0.596700	0.527660
C131	C13	0.476300	0.150800	0.655600
C141	C14	0.403700	0.215900	0.646340
C151	C15	0.524800	0.284500	0.648880
C161	C16	0.718600	0.285000	0.660600
C171	C17	0.777200	0.217200	0.670400
C181	C18	0.447600	0.355600	0.638090
C191	C19	0.893400	0.175400	0.077860
C201	C20	0.882400	0.248400	0.092570
C211	C21	0.846300	0.297800	0.052640
C221	C22	0.823000	0.272700	0.999540
C231	C23	0.837600	0.199700	0.987900
C241	C24	0.828900	0.376700	0.067700
C251	C25	0.378000	0.223100	0.102130
C261	C26	0.383200	0.298100	0.092850
C271	C27	0.354600	0.321700	0.040310
C281	C28	0.325200	0.268100	0.999750
C291	C29	0.325200	0.193900	0.012340
C301	C30	0.357100	0.403300	0.027660
C311	C31	0.523700	0.849200	0.155600
C321	C32	0.596300	0.784100	0.146340
C331	C33	0.475200	0.715500	0.148880
C341	C34	0.281400	0.715000	0.160600
C351	C35	0.222800	0.782800	0.170400
C361	C36	0.552400	0.644400	0.138090
C371	C37	0.893400	0.175400	0.422140
C381	C38	0.882400	0.248400	0.407430
C391	C39	0.846300	0.297800	0.447360
C401	C40	0.823000	0.272700	0.500460
C411	C41	0.837600	0.199700	0.512100
C421	C42	0.828900	0.376700	0.432300
C431	C43	0.378000	0.223100	0.397870
C441	C44	0.383200	0.298100	0.407150
C451	C45	0.354600	0.321700	0.459690
C461	C46	0.325200	0.268100	0.500250
C471	C47	0.325200	0.193900	0.487660
C481	C48	0.357100	0.403300	0.472340
C491	C49	0.523700	0.849200	0.344400
C501	C50	0.596300	0.784100	0.353660
C511	C51	0.475200	0.715500	0.351120
C521	C52	0.281400	0.715000	0.339400
C531	C53	0.222800	0.782800	0.329600
C541	C54	0.552400	0.644400	0.361910
C551	C55	0.106600	0.824600	0.922140
C561	C56	0.117600	0.751600	0.907430
C571	C57	0.153700	0.702200	0.947360
C581	C58	0.177000	0.727300	0.000460
C591	C59	0.162400	0.800300	0.012100
C601	C60	0.171100	0.623300	0.932300
C611	C61	0.622000	0.776900	0.897870
C621	C62	0.616800	0.701900	0.907150
C631	C63	0.645400	0.678300	0.959690
C641	C64	0.674800	0.731900	0.000250
C651	C65	0.674800	0.806100	0.987660
C661	C66	0.642900	0.596700	0.972340
C671	C67	0.476300	0.150800	0.844400
C681	C68	0.403700	0.215900	0.853660
C691	C69	0.524800	0.284500	0.851120
C701	C70	0.718600	0.285000	0.839400
C711	C71	0.777200	0.217200	0.829600
C721	C72	0.447600	0.355600	0.861910
C731	C73	0.042200	0.846600	0.750000
C741	C74	0.136000	0.784800	0.750000
C751	C75	0.029000	0.713000	0.750000
C761	C76	0.828700	0.706800	0.750000
C771	C77	0.748200	0.771100	0.750000
C781	C78	0.130400	0.645300	0.750000
C791	C79	0.957800	0.153400	0.250000
C801	C80	0.864000	0.215200	0.250000
C811	C81	0.971000	0.287000	0.250000
C821	C82	0.171300	0.293200	0.250000
C831	C83	0.251800	0.228900	0.250000
C841	C84	0.869600	0.354700	0.250000
I11	I1	0.010260	0.029460	0.589930
I21	I2	0.476290	0.942680	0.670200
I31	I3	0.989740	0.970540	0.089930
I41	I4	0.523710	0.057320	0.170200
I51	I5	0.989740	0.970540	0.410070
I61	I6	0.523710	0.057320	0.329800
I71	I7	0.010260	0.029460	0.910070
I81	I8	0.476290	0.942680	0.829800
I91	I9	0.500000	0.000000	0.500000
I101	I10	0.500000	0.000000	0.000000
I111	I11	0.030920	0.058250	0.750000
I121	I12	0.969080	0.941750	0.250000
N11	N1	0.126100	0.848640	0.526810
N21	N2	0.650000	0.829270	0.562880
N31	N3	0.662300	0.150700	0.667700
N41	N4	0.873900	0.151360	0.026810
N51	N5	0.350000	0.170730	0.062880
N61	N6	0.337700	0.849300	0.167700
N71	N7	0.873900	0.151360	0.473190
N81	N8	0.350000	0.170730	0.437120
N91	N9	0.337700	0.849300	0.332300
N101	N10	0.126100	0.848640	0.973190
N111	N11	0.650000	0.829270	0.937120
N121	N12	0.662300	0.150700	0.832300
N131	N13	0.850300	0.840600	0.750000
N141	N14	0.149700	0.159400	0.250000
O11	O1	0.199500	0.578360	0.530350
O21	O2	0.166500	0.605120	0.616760
O31	O3	0.578500	0.549370	0.562850
O41	O4	0.710300	0.583090	0.482260
O51	O5	0.563000	0.416060	0.630990
O61	O6	0.268900	0.352460	0.635960
O71	O7	0.800500	0.421640	0.030350
O81	O8	0.833500	0.394880	0.116760
O91	O9	0.421500	0.450630	0.062850
O101	O10	0.289700	0.416910	0.982260
O111	O11	0.437000	0.583940	0.130990
O121	O12	0.731100	0.647540	0.135960
O131	O13	0.800500	0.421640	0.469650
O141	O14	0.833500	0.394880	0.383240
O151	O15	0.421500	0.450630	0.437150
O161	O16	0.289700	0.416910	0.517740
O171	O17	0.437000	0.583940	0.369010
O181	O18	0.731100	0.647540	0.364040
O191	O19	0.199500	0.578360	0.969650
O201	O20	0.166500	0.605120	0.883240
O211	O21	0.578500	0.549370	0.937150
O221	O22	0.710300	0.583090	0.017740
O231	O23	0.563000	0.416060	0.869010
O241	O24	0.268900	0.352460	0.864040
O251	O25	0.310400	0.656200	0.750000
O261	O26	0.022600	0.581700	0.750000
O271	O27	0.689600	0.343800	0.250000
O281	O28	0.977400	0.418300	0.250000
