data_CAHQOS_clean_PM
_symmetry_space_group_name_H-M	'P1'
_cell_length_a	8.701000
_cell_length_b	9.210000
_cell_length_c	12.385000
_cell_angle_alpha	111.110000
_cell_angle_beta	101.420000
_cell_angle_gamma	102.080000
_symmetry_Int_Tables_number 1

loop_
_symmetry_equiv_pos_as_xyz
'x,y,z'

loop_
_atom_site_label
_atom_site_type_symbol
_atom_site_fract_x
_atom_site_fract_y
_atom_site_fract_z
Al11	Al1	0.698500	0.209600	0.624100
Al21	Al2	0.649400	0.782300	0.144300
Al31	Al3	0.980200	0.669400	0.942800
Al41	Al4	0.505100	0.206700	0.146200
P11	P1	0.599000	0.484000	0.801100
P21	P2	0.557100	0.054900	0.343300
P31	P3	0.779400	0.051700	0.067800
P41	P4	0.036300	0.343200	0.819300
O11	O1	0.673200	0.159900	0.472300
O21	O2	0.516400	0.164300	0.283500
O31	O3	0.909400	0.259400	0.693500
O41	O4	0.511600	0.748100	0.998400
O51	O5	0.636700	0.934800	0.276800
O61	O6	0.508500	0.595000	0.770000
O71	O7	0.512100	0.386200	0.857800
O81	O8	0.394700	0.960100	0.354000
O91	O9	0.623400	0.371200	0.684000
O101	O10	0.071500	0.528400	0.867800
O111	O11	0.769500	0.591800	0.890300
O121	O12	0.194500	0.304300	0.813000
O131	O13	0.692800	0.165200	0.134700
O141	O14	0.950400	0.155700	0.078700
O151	O15	0.809500	0.934400	0.124200
O161	O16	0.683600	0.958200	0.932900
O171	O17	0.958000	0.283100	0.902600
Al51	Al5	0.301500	0.790400	0.375900
Al61	Al6	0.350600	0.217700	0.855700
Al71	Al7	0.019800	0.330600	0.057200
Al81	Al8	0.494900	0.793300	0.853800
P51	P5	0.401000	0.516000	0.198900
P61	P6	0.442900	0.945100	0.656700
P71	P7	0.220600	0.948300	0.932200
P81	P8	0.963700	0.656800	0.180700
O181	O18	0.326800	0.840100	0.527700
O191	O19	0.483600	0.835700	0.716500
O201	O20	0.090600	0.740600	0.306500
O211	O21	0.488400	0.251900	0.001600
O221	O22	0.363300	0.065200	0.723200
O231	O23	0.491500	0.405000	0.230000
O241	O24	0.487900	0.613800	0.142200
O251	O25	0.605300	0.039900	0.646000
O261	O26	0.376600	0.628800	0.316000
O271	O27	0.928500	0.471600	0.132200
O281	O28	0.230500	0.408200	0.109700
O291	O29	0.805500	0.695700	0.187000
O301	O30	0.307200	0.834800	0.865300
O311	O31	0.049600	0.844300	0.921300
O321	O32	0.190500	0.065600	0.875800
O331	O33	0.316400	0.041800	0.067100
O341	O34	0.042000	0.716900	0.097400
