data_CAJLEH_clean_PM
_symmetry_space_group_name_H-M	'P1'
_cell_length_a	9.035600
_cell_length_b	16.664400
_cell_length_c	17.241900
_cell_angle_alpha	117.194000
_cell_angle_beta	98.948000
_cell_angle_gamma	93.947000
_symmetry_Int_Tables_number 1

loop_
_symmetry_equiv_pos_as_xyz
'x,y,z'

loop_
_atom_site_label
_atom_site_type_symbol
_atom_site_fract_x
_atom_site_fract_y
_atom_site_fract_z
Cd11	Cd1	0.868650	0.014310	0.304620
Cd21	Cd2	0.309560	0.670300	0.682150
Cd31	Cd3	0.945600	0.286480	0.937720
C11	C1	0.606700	0.852100	0.272500
H11	H1	0.561600	0.845700	0.217200
C21	C2	0.753700	0.889200	0.393400
H21	H2	0.837200	0.917100	0.440700
C31	C3	0.407600	0.750600	0.285500
H31	H3	0.342800	0.753100	0.236500
H41	H4	0.355000	0.768600	0.334400
C41	C4	0.509900	0.535200	0.176100
C51	C5	0.579200	0.470100	0.106400
C61	C6	0.574900	0.381000	0.089500
H51	H5	0.519600	0.358900	0.118900
C71	C7	0.652400	0.324800	0.029100
H61	H6	0.647800	0.264500	0.018200
C81	C8	0.733400	0.438600	0.999700
H71	H7	0.785800	0.458600	0.967800
C91	C9	0.658800	0.499200	0.059500
H81	H8	0.662200	0.558700	0.068200
C101	C10	0.424100	0.601500	0.293200
C111	C11	0.377200	0.624700	0.378700
C121	C12	0.453300	0.700500	0.456100
H91	H9	0.525200	0.742200	0.454600
C131	C13	0.419900	0.712700	0.535300
H101	H10	0.472700	0.763200	0.587500
C141	C14	0.240800	0.585200	0.466600
H111	H11	0.166400	0.545900	0.469400
C151	C15	0.269000	0.567700	0.384300
H121	H12	0.214100	0.517100	0.332900
C161	C16	0.794000	0.983100	0.132200
C171	C17	0.475200	0.827700	0.822900
C181	C18	0.816700	0.126700	0.934900
C191	C19	0.742400	0.981600	0.044100
C201	C20	0.633500	0.909400	0.976800
H131	H13	0.593400	0.862600	0.986400
C211	C21	0.585900	0.908300	0.895200
C221	C22	0.645700	0.978100	0.881600
H141	H14	0.613900	0.977000	0.827100
C231	C23	0.753200	0.050100	0.948500
C241	C24	0.799600	0.051000	0.029100
H151	H15	0.870600	0.099300	0.074100
C251	C25	0.971800	0.162400	0.473200
C261	C26	0.981700	0.328900	0.800900
C271	C27	0.183900	0.496200	0.649500
C281	C28	0.012700	0.249200	0.560700
C291	C29	0.982300	0.250200	0.637400
H161	H16	0.938400	0.196600	0.634600
C301	C30	0.016100	0.330100	0.718300
C311	C31	0.081800	0.409800	0.722500
H171	H17	0.103300	0.463700	0.776500
C321	C32	0.116300	0.410100	0.646300
C331	C33	0.080000	0.329400	0.566200
H181	H18	0.101300	0.329100	0.515000
N11	N1	0.739200	0.902700	0.320800
N21	N2	0.642500	0.834500	0.391800
N31	N3	0.548100	0.812300	0.313500
N41	N4	0.438600	0.658500	0.257400
N51	N5	0.495100	0.616000	0.182300
N61	N6	0.465200	0.522700	0.242400
N71	N7	0.734800	0.352700	0.984800
N81	N8	0.317100	0.656900	0.542200
O11	O1	0.749600	0.917400	0.142800
O21	O2	0.878300	0.053600	0.194400
O31	O3	0.904100	0.193900	0.999800
O41	O4	0.779000	0.125600	0.860500
O51	O5	0.456500	0.816800	0.743900
O61	O6	0.409900	0.771400	0.839100
O71	O7	0.991100	0.165700	0.403300
O81	O8	0.920600	0.090600	0.471300
O91	O9	0.952300	0.251600	0.796900
O101	O10	0.982100	0.401200	0.869300
O111	O11	0.200100	0.570600	0.720400
O121	O12	0.223800	0.492400	0.582200
Cd41	Cd4	0.131350	0.985690	0.695380
Cd51	Cd5	0.690440	0.329700	0.317850
Cd61	Cd6	0.054400	0.713520	0.062280
C341	C34	0.393300	0.147900	0.727500
H191	H19	0.438400	0.154300	0.782800
C351	C35	0.246300	0.110800	0.606600
H201	H20	0.162800	0.082900	0.559300
C361	C36	0.592400	0.249400	0.714500
H211	H21	0.657200	0.246900	0.763500
H221	H22	0.645000	0.231400	0.665600
C371	C37	0.490100	0.464800	0.823900
C381	C38	0.420800	0.529900	0.893600
C391	C39	0.425100	0.619000	0.910500
H231	H23	0.480400	0.641100	0.881100
C401	C40	0.347600	0.675200	0.970900
H241	H24	0.352200	0.735500	0.981800
C411	C41	0.266600	0.561400	0.000300
H251	H25	0.214200	0.541400	0.032200
C421	C42	0.341200	0.500800	0.940500
H261	H26	0.337800	0.441300	0.931800
C431	C43	0.575900	0.398500	0.706800
C441	C44	0.622800	0.375300	0.621300
C451	C45	0.546700	0.299500	0.543900
H271	H27	0.474800	0.257800	0.545400
C461	C46	0.580100	0.287300	0.464700
H281	H28	0.527300	0.236800	0.412500
C471	C47	0.759200	0.414800	0.533400
H291	H29	0.833600	0.454100	0.530600
C481	C48	0.731000	0.432300	0.615700
H301	H30	0.785900	0.482900	0.667100
C491	C49	0.206000	0.016900	0.867800
C501	C50	0.524800	0.172300	0.177100
C511	C51	0.183300	0.873300	0.065100
C521	C52	0.257600	0.018400	0.955900
C531	C53	0.366500	0.090600	0.023200
H311	H31	0.406600	0.137400	0.013600
C541	C54	0.414100	0.091700	0.104800
C551	C55	0.354300	0.021900	0.118400
H321	H32	0.386100	0.023000	0.172900
C561	C56	0.246800	0.949900	0.051500
C571	C57	0.200400	0.949000	0.970900
H331	H33	0.129400	0.900700	0.925900
C581	C58	0.028200	0.837600	0.526800
C591	C59	0.018300	0.671100	0.199100
C601	C60	0.816100	0.503800	0.350500
C611	C61	0.987300	0.750800	0.439300
C621	C62	0.017700	0.749800	0.362600
H341	H34	0.061600	0.803400	0.365400
C631	C63	0.983900	0.669900	0.281700
C641	C64	0.918200	0.590200	0.277500
H351	H35	0.896700	0.536300	0.223500
C651	C65	0.883700	0.589900	0.353700
C661	C66	0.920000	0.670600	0.433800
H361	H36	0.898700	0.670900	0.485000
N91	N9	0.260800	0.097300	0.679200
N101	N10	0.357500	0.165500	0.608200
N111	N11	0.451900	0.187700	0.686500
N121	N12	0.561400	0.341500	0.742600
N131	N13	0.504900	0.384000	0.817700
N141	N14	0.534800	0.477300	0.757600
N151	N15	0.265200	0.647300	0.015200
N161	N16	0.682900	0.343100	0.457800
O131	O13	0.250400	0.082600	0.857200
O141	O14	0.121700	0.946400	0.805600
O151	O15	0.095900	0.806100	0.000200
O161	O16	0.221000	0.874400	0.139500
O171	O17	0.543500	0.183200	0.256100
O181	O18	0.590100	0.228600	0.160900
O191	O19	0.008900	0.834300	0.596700
O201	O20	0.079400	0.909400	0.528700
O211	O21	0.047700	0.748400	0.203100
O221	O22	0.017900	0.598800	0.130700
O231	O23	0.799900	0.429400	0.279600
O241	O24	0.776200	0.507600	0.417800
