data_CAJQIP_clean_PM
_symmetry_space_group_name_H-M	'P1'
_cell_length_a	18.162600
_cell_length_b	18.162600
_cell_length_c	30.853600
_cell_angle_alpha	103.351000
_cell_angle_beta	103.351000
_cell_angle_gamma	102.442000
_symmetry_Int_Tables_number 1

loop_
_symmetry_equiv_pos_as_xyz
'x,y,z'

loop_
_atom_site_label
_atom_site_type_symbol
_atom_site_fract_x
_atom_site_fract_y
_atom_site_fract_z
Cu11	Cu1	0.048550	0.485390	0.533940
Cu21	Cu2	0.485390	0.048550	0.533940
Cu31	Cu3	0.514610	0.951450	0.466060
Cu41	Cu4	0.951450	0.514610	0.466060
Cu51	Cu5	0.528690	0.528690	0.469440
Cu61	Cu6	0.940750	0.940750	0.469440
Cu71	Cu7	0.471310	0.471310	0.530560
Cu81	Cu8	0.059250	0.059250	0.530560
H11	H1	0.758400	0.507600	0.520000
H21	H2	0.912000	0.489200	0.629000
H31	H3	0.689000	0.496600	0.631200
H41	H4	0.025000	0.508200	0.756600
H51	H5	0.059900	0.514100	0.836000
H61	H6	0.842500	0.518700	0.841400
H71	H7	0.801800	0.506200	0.760400
H81	H8	0.908600	0.573400	0.920800
H91	H9	0.871500	0.479100	0.896600
H101	H10	0.761600	0.012400	0.520000
H111	H11	0.717000	0.139800	0.629000
H121	H12	0.942200	0.134600	0.631200
H131	H13	0.731600	0.248400	0.756600
H141	H14	0.776100	0.321900	0.836000
H151	H15	0.998900	0.322700	0.841400
H161	H16	0.958600	0.254200	0.760400
H171	H17	0.012200	0.347400	0.920800
H181	H18	0.025100	0.417500	0.896600
H191	H19	0.492400	0.241600	0.480000
H201	H20	0.510800	0.088000	0.371000
H211	H21	0.503400	0.311000	0.368800
H221	H22	0.491800	0.975000	0.243400
H231	H23	0.485900	0.940100	0.164000
H241	H24	0.481300	0.157500	0.158600
H251	H25	0.493800	0.198200	0.239600
H261	H26	0.426600	0.091400	0.079200
H271	H27	0.520900	0.128500	0.103400
H281	H28	0.987600	0.238400	0.480000
H291	H29	0.860200	0.283000	0.371000
H301	H30	0.865400	0.057800	0.368800
H311	H31	0.751600	0.268400	0.243400
H321	H32	0.678100	0.223900	0.164000
H331	H33	0.677300	0.001100	0.158600
H341	H34	0.745800	0.041400	0.239600
H351	H35	0.652600	0.987800	0.079200
H361	H36	0.582500	0.974900	0.103400
H371	H37	0.241600	0.492400	0.480000
H381	H38	0.088000	0.510800	0.371000
H391	H39	0.311000	0.503400	0.368800
H401	H40	0.975000	0.491800	0.243400
H411	H41	0.940100	0.485900	0.164000
H421	H42	0.157500	0.481300	0.158600
H431	H43	0.198200	0.493800	0.239600
H441	H44	0.091400	0.426600	0.079200
H451	H45	0.128500	0.520900	0.103400
H461	H46	0.238400	0.987600	0.480000
H471	H47	0.283000	0.860200	0.371000
H481	H48	0.057800	0.865400	0.368800
H491	H49	0.268400	0.751600	0.243400
H501	H50	0.223900	0.678100	0.164000
H511	H51	0.001100	0.677300	0.158600
H521	H52	0.041400	0.745800	0.239600
H531	H53	0.987800	0.652600	0.079200
H541	H54	0.974900	0.582500	0.103400
H551	H55	0.507600	0.758400	0.520000
H561	H56	0.489200	0.912000	0.629000
H571	H57	0.496600	0.689000	0.631200
H581	H58	0.508200	0.025000	0.756600
H591	H59	0.514100	0.059900	0.836000
H601	H60	0.518700	0.842500	0.841400
H611	H61	0.506200	0.801800	0.760400
H621	H62	0.573400	0.908600	0.920800
H631	H63	0.479100	0.871500	0.896600
H641	H64	0.012400	0.761600	0.520000
H651	H65	0.139800	0.717000	0.629000
H661	H66	0.134600	0.942200	0.631200
H671	H67	0.248400	0.731600	0.756600
H681	H68	0.321900	0.776100	0.836000
H691	H69	0.322700	0.998900	0.841400
H701	H70	0.254200	0.958600	0.760400
H711	H71	0.347400	0.012200	0.920800
H721	H72	0.417500	0.025100	0.896600
H731	H73	0.936200	0.599000	0.000000
H741	H74	0.063800	0.401000	0.000000
H751	H75	0.401000	0.063800	0.000000
H761	H76	0.599000	0.936200	0.000000
C11	C1	0.897700	0.490100	0.542400
C21	C2	0.631000	0.504200	0.547400
C31	C3	0.767980	0.500580	0.550160
C41	C4	0.840400	0.492800	0.569200
C51	C5	0.860540	0.491140	0.614480
C61	C6	0.804100	0.492100	0.639400
C71	C7	0.728080	0.496080	0.615360
C81	C8	0.709540	0.499540	0.569280
C91	C9	0.910200	0.505200	0.753600
C101	C10	0.987700	0.508700	0.773600
C111	C11	0.007500	0.513300	0.821200
C121	C12	0.956500	0.516900	0.847800
C131	C13	0.879300	0.515100	0.824000
C141	C14	0.854300	0.508300	0.776000
C151	C15	0.920300	0.521900	0.915000
C161	C16	0.960670	0.507670	0.958140
C171	C17	0.644700	0.052300	0.542400
C181	C18	0.916400	0.043200	0.547400
C191	C19	0.782180	0.049580	0.550160
C201	C20	0.728800	0.076400	0.569200
C211	C21	0.753940	0.123340	0.614480
C221	C22	0.835300	0.147300	0.639400
C231	C23	0.887280	0.119280	0.615360
C241	C24	0.859740	0.069740	0.569280
C251	C25	0.843400	0.248400	0.753600
C261	C26	0.785900	0.264900	0.773600
C271	C27	0.813700	0.307900	0.821200
C281	C28	0.891300	0.330900	0.847800
C291	C29	0.944700	0.308900	0.824000
C301	C30	0.921700	0.267700	0.776000
C311	C31	0.994700	0.393100	0.915000
C321	C32	0.997470	0.450470	0.958140
C331	C33	0.509900	0.102300	0.457600
C341	C34	0.495800	0.369000	0.452600
C351	C35	0.499420	0.232020	0.449840
C361	C36	0.507200	0.159600	0.430800
C371	C37	0.508860	0.139460	0.385520
C381	C38	0.507900	0.195900	0.360600
C391	C39	0.503920	0.271920	0.384640
C401	C40	0.500460	0.290460	0.430720
C411	C41	0.494800	0.089800	0.246400
C421	C42	0.491300	0.012300	0.226400
C431	C43	0.486700	0.992500	0.178800
C441	C44	0.483100	0.043500	0.152200
C451	C45	0.484900	0.120700	0.176000
C461	C46	0.491700	0.145700	0.224000
C471	C47	0.478100	0.079700	0.085000
C481	C48	0.492330	0.039330	0.041860
C491	C49	0.947700	0.355300	0.457600
C501	C50	0.956800	0.083600	0.452600
C511	C51	0.950420	0.217820	0.449840
C521	C52	0.923600	0.271200	0.430800
C531	C53	0.876660	0.246060	0.385520
C541	C54	0.852700	0.164700	0.360600
C551	C55	0.880720	0.112720	0.384640
C561	C56	0.930260	0.140260	0.430720
C571	C57	0.751600	0.156600	0.246400
C581	C58	0.735100	0.214100	0.226400
C591	C59	0.692100	0.186300	0.178800
C601	C60	0.669100	0.108700	0.152200
C611	C61	0.691100	0.055300	0.176000
C621	C62	0.732300	0.078300	0.224000
C631	C63	0.606900	0.005300	0.085000
C641	C64	0.549530	0.002530	0.041860
C651	C65	0.102300	0.509900	0.457600
C661	C66	0.369000	0.495800	0.452600
C671	C67	0.232020	0.499420	0.449840
C681	C68	0.159600	0.507200	0.430800
C691	C69	0.139460	0.508860	0.385520
C701	C70	0.195900	0.507900	0.360600
C711	C71	0.271920	0.503920	0.384640
C721	C72	0.290460	0.500460	0.430720
C731	C73	0.089800	0.494800	0.246400
C741	C74	0.012300	0.491300	0.226400
C751	C75	0.992500	0.486700	0.178800
C761	C76	0.043500	0.483100	0.152200
C771	C77	0.120700	0.484900	0.176000
C781	C78	0.145700	0.491700	0.224000
C791	C79	0.079700	0.478100	0.085000
C801	C80	0.039330	0.492330	0.041860
C811	C81	0.355300	0.947700	0.457600
C821	C82	0.083600	0.956800	0.452600
C831	C83	0.217820	0.950420	0.449840
C841	C84	0.271200	0.923600	0.430800
C851	C85	0.246060	0.876660	0.385520
C861	C86	0.164700	0.852700	0.360600
C871	C87	0.112720	0.880720	0.384640
C881	C88	0.140260	0.930260	0.430720
C891	C89	0.156600	0.751600	0.246400
C901	C90	0.214100	0.735100	0.226400
C911	C91	0.186300	0.692100	0.178800
C921	C92	0.108700	0.669100	0.152200
C931	C93	0.055300	0.691100	0.176000
C941	C94	0.078300	0.732300	0.224000
C951	C95	0.005300	0.606900	0.085000
C961	C96	0.002530	0.549530	0.041860
C971	C97	0.490100	0.897700	0.542400
C981	C98	0.504200	0.631000	0.547400
C991	C99	0.500580	0.767980	0.550160
C1001	C100	0.492800	0.840400	0.569200
C1011	C101	0.491140	0.860540	0.614480
C1021	C102	0.492100	0.804100	0.639400
C1031	C103	0.496080	0.728080	0.615360
C1041	C104	0.499540	0.709540	0.569280
C1051	C105	0.505200	0.910200	0.753600
C1061	C106	0.508700	0.987700	0.773600
C1071	C107	0.513300	0.007500	0.821200
C1081	C108	0.516900	0.956500	0.847800
C1091	C109	0.515100	0.879300	0.824000
C1101	C110	0.508300	0.854300	0.776000
C1111	C111	0.521900	0.920300	0.915000
C1121	C112	0.507670	0.960670	0.958140
C1131	C113	0.052300	0.644700	0.542400
C1141	C114	0.043200	0.916400	0.547400
C1151	C115	0.049580	0.782180	0.550160
C1161	C116	0.076400	0.728800	0.569200
C1171	C117	0.123340	0.753940	0.614480
C1181	C118	0.147300	0.835300	0.639400
C1191	C119	0.119280	0.887280	0.615360
C1201	C120	0.069740	0.859740	0.569280
C1211	C121	0.248400	0.843400	0.753600
C1221	C122	0.264900	0.785900	0.773600
C1231	C123	0.307900	0.813700	0.821200
C1241	C124	0.330900	0.891300	0.847800
C1251	C125	0.308900	0.944700	0.824000
C1261	C126	0.267700	0.921700	0.776000
C1271	C127	0.393100	0.994700	0.915000
C1281	C128	0.450470	0.997470	0.958140
C1291	C129	0.962200	0.558800	0.000000
C1301	C130	0.037800	0.441200	0.000000
C1311	C131	0.441200	0.037800	0.000000
C1321	C132	0.558800	0.962200	0.000000
N11	N1	0.813500	0.489700	0.687200
N21	N2	0.884600	0.498000	0.704200
N31	N3	0.873700	0.197500	0.687200
N41	N4	0.819600	0.206200	0.704200
N51	N5	0.510300	0.186500	0.312800
N61	N6	0.502000	0.115400	0.295800
N71	N7	0.802500	0.126300	0.312800
N81	N8	0.793800	0.180400	0.295800
N91	N9	0.186500	0.510300	0.312800
N101	N10	0.115400	0.502000	0.295800
N111	N11	0.126300	0.802500	0.312800
N121	N12	0.180400	0.793800	0.295800
N131	N13	0.489700	0.813500	0.687200
N141	N14	0.498000	0.884600	0.704200
N151	N15	0.197500	0.873700	0.687200
N161	N16	0.206200	0.819600	0.704200
O11	O1	0.965390	0.481330	0.564120
O21	O2	0.998290	0.376790	0.494880
O31	O3	0.627590	0.527330	0.511320
O41	O4	0.576470	0.480930	0.564200
O51	O5	0.984200	0.521000	0.893600
O61	O6	0.598730	0.082790	0.564120
O71	O7	0.496590	0.118090	0.494880
O81	O8	0.883730	0.983990	0.511320
O91	O9	0.987730	0.083270	0.564200
O101	O10	0.909400	0.372600	0.893600
O111	O11	0.518670	0.034610	0.435880
O121	O12	0.623210	0.001710	0.505120
O131	O13	0.472670	0.372410	0.488680
O141	O14	0.519070	0.423530	0.435800
O151	O15	0.479000	0.015800	0.106400
O161	O16	0.917210	0.401270	0.435880
O171	O17	0.881910	0.503410	0.505120
O181	O18	0.016010	0.116270	0.488680
O191	O19	0.916730	0.012270	0.435800
O201	O20	0.627400	0.090600	0.106400
O211	O21	0.034610	0.518670	0.435880
O221	O22	0.001710	0.623210	0.505120
O231	O23	0.372410	0.472670	0.488680
O241	O24	0.423530	0.519070	0.435800
O251	O25	0.015800	0.479000	0.106400
O261	O26	0.401270	0.917210	0.435880
O271	O27	0.503410	0.881910	0.505120
O281	O28	0.116270	0.016010	0.488680
O291	O29	0.012270	0.916730	0.435800
O301	O30	0.090600	0.627400	0.106400
O311	O31	0.481330	0.965390	0.564120
O321	O32	0.376790	0.998290	0.494880
O331	O33	0.527330	0.627590	0.511320
O341	O34	0.480930	0.576470	0.564200
O351	O35	0.521000	0.984200	0.893600
O361	O36	0.082790	0.598730	0.564120
O371	O37	0.118090	0.496590	0.494880
O381	O38	0.983990	0.883730	0.511320
O391	O39	0.083270	0.987730	0.564200
O401	O40	0.372600	0.909400	0.893600
