data_CAKXOD_clean_PM
_symmetry_space_group_name_H-M	'P1'
_cell_length_a	7.955000
_cell_length_b	9.693000
_cell_length_c	15.869000
_cell_angle_alpha	90.000000
_cell_angle_beta	90.000000
_cell_angle_gamma	96.356000
_symmetry_Int_Tables_number 1

loop_
_symmetry_equiv_pos_as_xyz
'x,y,z'

loop_
_atom_site_label
_atom_site_type_symbol
_atom_site_fract_x
_atom_site_fract_y
_atom_site_fract_z
Gd11	Gd1	0.921450	0.133890	0.326920
Gd21	Gd2	0.578550	0.366110	0.826920
Gd31	Gd3	0.078550	0.866110	0.673080
Gd41	Gd4	0.421450	0.633890	0.173080
H11	H1	0.968600	0.684960	0.387910
H21	H2	0.617370	0.347070	0.251470
H31	H3	0.531400	0.815040	0.887910
H41	H4	0.882630	0.152930	0.751470
H51	H5	0.031400	0.315040	0.612090
H61	H6	0.382630	0.652930	0.748530
H71	H7	0.468600	0.184960	0.112090
H81	H8	0.117370	0.847070	0.248530
C11	C1	0.913900	0.474500	0.368170
C21	C2	0.743800	0.795800	0.284000
C31	C3	0.896100	0.615200	0.358870
C41	C4	0.769600	0.647800	0.306040
C51	C5	0.057000	0.423600	0.418520
C61	C6	0.690200	0.418700	0.279900
C71	C7	0.909900	0.009300	0.515490
C81	C8	0.586100	0.025500	0.868170
C91	C9	0.756200	0.704200	0.784000
C101	C10	0.603900	0.884800	0.858870
C111	C11	0.730400	0.852200	0.806040
C121	C12	0.443000	0.076400	0.918520
C131	C13	0.809800	0.081300	0.779900
C141	C14	0.590100	0.490700	0.015490
C151	C15	0.086100	0.525500	0.631830
C161	C16	0.256200	0.204200	0.716000
C171	C17	0.103900	0.384800	0.641130
C181	C18	0.230400	0.352200	0.693960
C191	C19	0.943000	0.576400	0.581480
C201	C20	0.309800	0.581300	0.720100
C211	C21	0.090100	0.990700	0.484510
C221	C22	0.413900	0.974500	0.131830
C231	C23	0.243800	0.295800	0.216000
C241	C24	0.396100	0.115200	0.141130
C251	C25	0.269600	0.147800	0.193960
C261	C26	0.557000	0.923600	0.081480
C271	C27	0.190200	0.918700	0.220100
C281	C28	0.409900	0.509300	0.984510
N11	N1	0.811600	0.377000	0.328500
N21	N2	0.663900	0.550000	0.266900
N31	N3	0.688400	0.123000	0.828500
N41	N4	0.836100	0.950000	0.766900
N51	N5	0.188400	0.623000	0.671500
N61	N6	0.336100	0.450000	0.733100
N71	N7	0.311600	0.877000	0.171500
N81	N8	0.163900	0.050000	0.233100
O11	O1	0.048300	0.294200	0.429280
O21	O2	0.850900	0.889500	0.310830
O31	O3	0.812000	0.056500	0.464170
O41	O4	0.619200	0.813000	0.239000
O51	O5	0.874900	0.976400	0.590180
O61	O6	0.171900	0.511600	0.442860
O71	O7	0.451700	0.205800	0.929280
O81	O8	0.649100	0.610500	0.810830
O91	O9	0.688000	0.443500	0.964170
O101	O10	0.880800	0.687000	0.739000
O111	O11	0.625100	0.523600	0.090180
O121	O12	0.328100	0.988400	0.942860
O131	O13	0.951700	0.705800	0.570720
O141	O14	0.149100	0.110500	0.689170
O151	O15	0.188000	0.943500	0.535830
O161	O16	0.380800	0.187000	0.761000
O171	O17	0.125100	0.023600	0.409820
O181	O18	0.828100	0.488400	0.557140
O191	O19	0.548300	0.794200	0.070720
O201	O20	0.350900	0.389500	0.189170
O211	O21	0.312000	0.556500	0.035830
O221	O22	0.119200	0.313000	0.261000
O231	O23	0.374900	0.476400	0.909820
O241	O24	0.671900	0.011600	0.057140
