data_CAKYEU_clean_PM
_symmetry_space_group_name_H-M	'P1'
_cell_length_a	7.937500
_cell_length_b	9.621900
_cell_length_c	15.821600
_cell_angle_alpha	90.000000
_cell_angle_beta	90.000000
_cell_angle_gamma	96.625000
_symmetry_Int_Tables_number 1

loop_
_symmetry_equiv_pos_as_xyz
'x,y,z'

loop_
_atom_site_label
_atom_site_type_symbol
_atom_site_fract_x
_atom_site_fract_y
_atom_site_fract_z
Ho11	Ho1	0.927240	0.133080	0.327230
Ho21	Ho2	0.572760	0.366920	0.827230
Ho31	Ho3	0.072760	0.866920	0.672770
Ho41	Ho4	0.427240	0.633080	0.172770
H11	H1	0.968600	0.684960	0.387910
H21	H2	0.617370	0.347070	0.251470
H31	H3	0.531400	0.815040	0.887910
H41	H4	0.882630	0.152930	0.751470
H51	H5	0.031400	0.315040	0.612090
H61	H6	0.382630	0.652930	0.748530
H71	H7	0.468600	0.184960	0.112090
H81	H8	0.117370	0.847070	0.248530
C11	C1	0.918100	0.472900	0.367900
C21	C2	0.748700	0.795800	0.282900
C31	C3	0.899500	0.613800	0.358600
C41	C4	0.774700	0.647300	0.305000
C51	C5	0.060400	0.422600	0.418900
C61	C6	0.696600	0.415500	0.278000
C71	C7	0.908800	0.009900	0.515000
C81	C8	0.581900	0.027100	0.867900
C91	C9	0.751300	0.704200	0.782900
C101	C10	0.600500	0.886200	0.858600
C111	C11	0.725300	0.852700	0.805000
C121	C12	0.439600	0.077400	0.918900
C131	C13	0.803400	0.084500	0.778000
C141	C14	0.591200	0.490100	0.015000
C151	C15	0.081900	0.527100	0.632100
C161	C16	0.251300	0.204200	0.717100
C171	C17	0.100500	0.386200	0.641400
C181	C18	0.225300	0.352700	0.695000
C191	C19	0.939600	0.577400	0.581100
C201	C20	0.303400	0.584500	0.722000
C211	C21	0.091200	0.990100	0.485000
C221	C22	0.418100	0.972900	0.132100
C231	C23	0.248700	0.295800	0.217100
C241	C24	0.399500	0.113800	0.141400
C251	C25	0.274700	0.147300	0.195000
C261	C26	0.560400	0.922600	0.081100
C271	C27	0.196600	0.915500	0.222000
C281	C28	0.408800	0.509900	0.985000
N11	N1	0.817200	0.374300	0.327240
N21	N2	0.668800	0.547800	0.265020
N31	N3	0.682800	0.125700	0.827240
N41	N4	0.831200	0.952200	0.765020
N51	N5	0.182800	0.625700	0.672760
N61	N6	0.331200	0.452200	0.734980
N71	N7	0.317200	0.874300	0.172760
N81	N8	0.168800	0.047800	0.234980
O11	O1	0.051500	0.291600	0.429310
O21	O2	0.856100	0.890900	0.310120
O31	O3	0.813000	0.056400	0.462270
O41	O4	0.623600	0.812600	0.237460
O51	O5	0.872700	0.977400	0.589740
O61	O6	0.175200	0.511400	0.444390
O71	O7	0.448500	0.208400	0.929310
O81	O8	0.643900	0.609100	0.810120
O91	O9	0.687000	0.443600	0.962270
O101	O10	0.876400	0.687400	0.737460
O111	O11	0.627300	0.522600	0.089740
O121	O12	0.324800	0.988600	0.944390
O131	O13	0.948500	0.708400	0.570690
O141	O14	0.143900	0.109100	0.689880
O151	O15	0.187000	0.943600	0.537730
O161	O16	0.376400	0.187400	0.762540
O171	O17	0.127300	0.022600	0.410260
O181	O18	0.824800	0.488600	0.555610
O191	O19	0.551500	0.791600	0.070690
O201	O20	0.356100	0.390900	0.189880
O211	O21	0.313000	0.556400	0.037730
O221	O22	0.123600	0.312600	0.262540
O231	O23	0.372700	0.477400	0.910260
O241	O24	0.675200	0.011400	0.055610
