data_CANRIU_clean_PM
_symmetry_space_group_name_H-M	'P1'
_cell_length_a	12.727900
_cell_length_b	14.533100
_cell_length_c	23.281200
_cell_angle_alpha	99.815000
_cell_angle_beta	92.601000
_cell_angle_gamma	97.071000
_symmetry_Int_Tables_number 1

loop_
_symmetry_equiv_pos_as_xyz
'x,y,z'

loop_
_atom_site_label
_atom_site_type_symbol
_atom_site_fract_x
_atom_site_fract_y
_atom_site_fract_z
Mg11	Mg1	0.495490	0.698080	0.608620
Mg21	Mg2	0.941340	0.312080	0.074480
Mg31	Mg3	0.504510	0.301920	0.391380
Mg41	Mg4	0.058660	0.687920	0.925520
Mg51	Mg5	0.500000	0.500000	0.500000
Mg61	Mg6	0.000000	0.500000	0.000000
Si11	Si1	0.973040	0.776080	0.366690
Si21	Si2	0.601070	0.754800	0.187470
Si31	Si3	0.026960	0.223920	0.633310
Si41	Si4	0.398930	0.245200	0.812530
H11	H1	0.866700	0.622000	0.412000
H21	H2	0.729300	0.593600	0.473900
H31	H3	0.666300	0.862100	0.476000
H41	H4	0.803000	0.886200	0.415300
H51	H5	0.835200	0.608300	0.306200
H61	H6	0.830600	0.504300	0.220400
H71	H7	0.060200	0.678600	0.164600
H81	H8	0.070500	0.780100	0.254500
H91	H9	0.161400	0.679000	0.340200
H101	H10	0.287600	0.620200	0.392900
H111	H11	0.166300	0.730800	0.542500
H121	H12	0.032000	0.777200	0.489400
H131	H13	0.935000	0.900900	0.282500
H141	H14	0.973300	0.062400	0.282000
H151	H15	0.121700	0.100200	0.443600
H161	H16	0.083300	0.938700	0.444100
H171	H17	0.535200	0.767200	0.307000
H181	H18	0.518500	0.671400	0.375600
H191	H19	0.610500	0.462300	0.262200
H201	H20	0.630600	0.558100	0.193700
H211	H21	0.662300	0.604900	0.104600
H221	H22	0.791900	0.585300	0.037000
H231	H23	0.922200	0.855200	0.092400
H241	H24	0.795500	0.872100	0.163400
H251	H25	0.391700	0.641000	0.183100
H261	H26	0.250500	0.593200	0.113600
H271	H27	0.378600	0.763800	0.013200
H281	H28	0.528500	0.803800	0.077400
H291	H29	0.738400	0.865300	0.284400
H301	H30	0.748500	0.008200	0.343600
H311	H31	0.503200	0.071000	0.249100
H321	H32	0.492600	0.927400	0.187900
H331	H33	0.133300	0.378000	0.588000
H341	H34	0.270700	0.406400	0.526100
H351	H35	0.333700	0.137900	0.524000
H361	H36	0.197000	0.113800	0.584700
H371	H37	0.164800	0.391700	0.693800
H381	H38	0.169400	0.495700	0.779600
H391	H39	0.939800	0.321400	0.835400
H401	H40	0.929500	0.219900	0.745500
H411	H41	0.838600	0.321000	0.659800
H421	H42	0.712400	0.379800	0.607100
H431	H43	0.833700	0.269200	0.457500
H441	H44	0.968000	0.222800	0.510600
H451	H45	0.065000	0.099100	0.717500
H461	H46	0.026700	0.937600	0.718000
H471	H47	0.878300	0.899800	0.556400
H481	H48	0.916700	0.061300	0.555900
H491	H49	0.464800	0.232800	0.693000
H501	H50	0.481500	0.328600	0.624400
H511	H51	0.389500	0.537700	0.737800
H521	H52	0.369400	0.441900	0.806300
H531	H53	0.337700	0.395100	0.895400
H541	H54	0.208100	0.414700	0.963000
H551	H55	0.077800	0.144800	0.907600
H561	H56	0.204500	0.127900	0.836600
H571	H57	0.608300	0.359000	0.816900
H581	H58	0.749500	0.406800	0.886400
H591	H59	0.621400	0.236200	0.986800
H601	H60	0.471500	0.196200	0.922600
H611	H61	0.261600	0.134700	0.715600
H621	H62	0.251500	0.991800	0.656400
H631	H63	0.496800	0.929000	0.750900
H641	H64	0.507400	0.072600	0.812100
C11	C1	0.852400	0.756400	0.409300
C21	C2	0.827000	0.671500	0.425900
C31	C3	0.745200	0.653300	0.462500
C41	C4	0.687200	0.729700	0.481800
C51	C5	0.707800	0.813100	0.463900
C61	C6	0.789300	0.827200	0.427800
C71	C7	0.605000	0.714100	0.525700
C81	C8	0.956100	0.703500	0.292000
C91	C9	0.884300	0.621900	0.278200
C101	C10	0.880100	0.560200	0.226800
C111	C11	0.946600	0.578100	0.184100
C121	C12	0.016300	0.662800	0.194300
C131	C13	0.021600	0.723800	0.247900
C141	C14	0.949300	0.509900	0.129500
C151	C15	0.082100	0.735500	0.408200
C161	C16	0.160300	0.688100	0.381500
C171	C17	0.236700	0.653700	0.413000
C181	C18	0.240000	0.667500	0.474500
C191	C19	0.164100	0.717100	0.501100
C201	C20	0.085500	0.747300	0.469300
C211	C21	0.324400	0.634900	0.507900
C221	C22	0.005500	0.904600	0.363300
C231	C23	0.972900	0.941400	0.315200
C241	C24	0.995700	0.037300	0.314900
C251	C25	0.051100	0.096500	0.362700
C261	C26	0.083800	0.059700	0.410900
C271	C27	0.061000	0.963800	0.411200
C281	C28	0.077200	0.197800	0.360400
C291	C29	0.589500	0.676100	0.242200
C301	C30	0.552900	0.705100	0.297600
C311	C31	0.541800	0.648200	0.338300
C321	C32	0.564100	0.557200	0.325500
C331	C33	0.596200	0.525500	0.271700
C341	C34	0.608400	0.582900	0.231000
C351	C35	0.546500	0.492900	0.368300
C361	C36	0.714600	0.741500	0.140400
C371	C37	0.715200	0.656300	0.102500
C381	C38	0.791400	0.644500	0.061700
C391	C39	0.867300	0.720900	0.057600
C401	C40	0.869400	0.803900	0.094700
C411	C41	0.792700	0.814100	0.137000
C421	C42	0.942700	0.706700	0.008600
C431	C43	0.477500	0.725900	0.136400
C441	C44	0.392100	0.664600	0.147500
C451	C45	0.307100	0.637800	0.106300
C461	C46	0.301500	0.672900	0.055800
C471	C47	0.382100	0.735700	0.047100
C481	C48	0.471200	0.761100	0.086100
C491	C49	0.206000	0.641200	0.012800
C501	C50	0.614400	0.878600	0.228800
C511	C51	0.689600	0.907100	0.276900
C521	C52	0.695000	0.990500	0.312500
C531	C53	0.624000	0.049100	0.303700
C541	C54	0.549800	0.027300	0.256200
C551	C55	0.544500	0.943000	0.219900
C561	C56	0.621800	0.139400	0.346100
C571	C57	0.147600	0.243600	0.590700
C581	C58	0.173000	0.328500	0.574100
C591	C59	0.254800	0.346700	0.537500
C601	C60	0.312800	0.270300	0.518200
C611	C61	0.292200	0.186900	0.536100
C621	C62	0.210700	0.172800	0.572200
C631	C63	0.395000	0.285900	0.474300
C641	C64	0.043900	0.296500	0.708000
C651	C65	0.115700	0.378100	0.721800
C661	C66	0.119900	0.439800	0.773200
C671	C67	0.053400	0.421900	0.815900
C681	C68	0.983700	0.337200	0.805700
C691	C69	0.978400	0.276200	0.752100
C701	C70	0.050700	0.490100	0.870500
C711	C71	0.917900	0.264500	0.591800
C721	C72	0.839700	0.311900	0.618500
C731	C73	0.763300	0.346300	0.587000
C741	C74	0.760000	0.332500	0.525500
C751	C75	0.835900	0.282900	0.498900
C761	C76	0.914500	0.252700	0.530700
C771	C77	0.675600	0.365100	0.492100
C781	C78	0.994500	0.095400	0.636700
C791	C79	0.027100	0.058600	0.684800
C801	C80	0.004300	0.962700	0.685100
C811	C81	0.948900	0.903500	0.637300
C821	C82	0.916200	0.940300	0.589100
C831	C83	0.939000	0.036200	0.588800
C841	C84	0.922800	0.802200	0.639600
C851	C85	0.410500	0.323900	0.757800
C861	C86	0.447100	0.294900	0.702400
C871	C87	0.458200	0.351800	0.661700
C881	C88	0.435900	0.442800	0.674500
C891	C89	0.403800	0.474500	0.728300
C901	C90	0.391600	0.417100	0.769000
C911	C91	0.453500	0.507100	0.631700
C921	C92	0.285400	0.258500	0.859600
C931	C93	0.284800	0.343700	0.897500
C941	C94	0.208600	0.355500	0.938300
C951	C95	0.132700	0.279100	0.942400
C961	C96	0.130600	0.196100	0.905300
C971	C97	0.207300	0.185900	0.863000
C981	C98	0.057300	0.293300	0.991400
C991	C99	0.522500	0.274100	0.863600
C1001	C100	0.607900	0.335400	0.852500
C1011	C101	0.692900	0.362200	0.893700
C1021	C102	0.698500	0.327100	0.944200
C1031	C103	0.617900	0.264300	0.952900
C1041	C104	0.528800	0.238900	0.913900
C1051	C105	0.794000	0.358800	0.987200
C1061	C106	0.385600	0.121400	0.771200
C1071	C107	0.310400	0.092900	0.723100
C1081	C108	0.305000	0.009500	0.687500
C1091	C109	0.376000	0.950900	0.696300
C1101	C110	0.450200	0.972700	0.743800
C1111	C111	0.455500	0.057000	0.780100
C1121	C112	0.378200	0.860600	0.653900
O11	O1	0.577100	0.633800	0.537490
O21	O2	0.570000	0.784500	0.552820
O31	O3	0.911500	0.425800	0.128790
O41	O4	0.991300	0.540500	0.087020
O51	O5	0.357000	0.560300	0.488280
O61	O6	0.357200	0.686700	0.556030
O71	O7	0.054700	0.229500	0.316900
O81	O8	0.131500	0.251000	0.407400
O91	O9	0.526800	0.527700	0.420120
O101	O10	0.554400	0.406600	0.352120
O111	O11	0.957000	0.626100	0.983590
O121	O12	0.987000	0.781800	0.993000
O131	O13	0.154300	0.562500	0.014560
O141	O14	0.188500	0.697700	0.979630
O151	O15	0.688700	0.155900	0.392290
O161	O16	0.559600	0.194600	0.337660
O171	O17	0.422900	0.366200	0.462510
O181	O18	0.430000	0.215500	0.447180
O191	O19	0.088500	0.574200	0.871210
O201	O20	0.008700	0.459500	0.912980
O211	O21	0.643000	0.439700	0.511720
O221	O22	0.642800	0.313300	0.443970
O231	O23	0.945300	0.770500	0.683100
O241	O24	0.868500	0.749000	0.592600
O251	O25	0.473200	0.472300	0.579880
O261	O26	0.445600	0.593400	0.647880
O271	O27	0.043000	0.373900	0.016410
O281	O28	0.013000	0.218200	0.007000
O291	O29	0.845700	0.437500	0.985440
O301	O30	0.811500	0.302300	0.020370
O311	O31	0.311300	0.844100	0.607710
O321	O32	0.440400	0.805400	0.662340
