data_CANYIB_clean_PM
_symmetry_space_group_name_H-M	'P1'
_cell_length_a	11.062800
_cell_length_b	23.498300
_cell_length_c	23.498300
_cell_angle_alpha	120.000000
_cell_angle_beta	90.000000
_cell_angle_gamma	90.000000
_symmetry_Int_Tables_number 1

loop_
_symmetry_equiv_pos_as_xyz
'x,y,z'

loop_
_atom_site_label
_atom_site_type_symbol
_atom_site_fract_x
_atom_site_fract_y
_atom_site_fract_z
Co11	Co1	0.934910	0.090530	0.376340
Co21	Co2	0.024140	0.039020	0.234220
Co31	Co3	0.794350	0.124730	0.257290
Co41	Co4	0.601580	0.285810	0.909470
Co51	Co5	0.690810	0.195200	0.960980
Co61	Co6	0.461020	0.132560	0.875270
Co71	Co7	0.268240	0.623660	0.714190
Co81	Co8	0.357470	0.765780	0.804800
Co91	Co9	0.127680	0.742710	0.867440
Co101	Co10	0.434910	0.909470	0.623660
Co111	Co11	0.524140	0.960980	0.765780
Co121	Co12	0.294350	0.875270	0.742710
Co131	Co13	0.101580	0.714190	0.090530
Co141	Co14	0.190810	0.804800	0.039020
Co151	Co15	0.961020	0.867440	0.124730
Co161	Co16	0.768240	0.376340	0.285810
Co171	Co17	0.857470	0.234220	0.195200
Co181	Co18	0.627680	0.257290	0.132560
H11	H1	0.719300	0.992500	0.137200
H21	H2	0.564300	0.015600	0.604500
H31	H3	0.430100	0.083700	0.306300
H41	H4	0.225600	0.991600	0.150900
H51	H5	0.258000	0.035900	0.427200
H61	H6	0.619700	0.035000	0.423300
H71	H7	0.868900	0.940500	0.306000
H81	H8	0.565200	0.060000	0.535200
H91	H9	0.307600	0.893600	0.500900
H101	H10	0.300800	0.942000	0.434700
H111	H11	0.385970	0.144700	0.007500
H121	H12	0.230970	0.588900	0.984400
H131	H13	0.096770	0.222600	0.916300
H141	H14	0.892270	0.159300	0.008400
H151	H15	0.924670	0.391300	0.964100
H161	H16	0.286370	0.388300	0.965000
H171	H17	0.535570	0.365500	0.059500
H181	H18	0.231870	0.475200	0.940000
H191	H19	0.974270	0.607300	0.106400
H201	H20	0.967470	0.492700	0.058000
H211	H21	0.052630	0.862800	0.855300
H221	H22	0.897630	0.395500	0.411100
H231	H23	0.763430	0.693700	0.777400
H241	H24	0.558930	0.849100	0.840700
H251	H25	0.591330	0.572800	0.608700
H261	H26	0.953030	0.576700	0.611700
H271	H27	0.202230	0.694000	0.634500
H281	H28	0.898530	0.464800	0.524800
H291	H29	0.640930	0.499100	0.392700
H301	H30	0.634130	0.565300	0.507300
H311	H31	0.219300	0.007500	0.862800
H321	H32	0.064300	0.984400	0.395500
H331	H33	0.930100	0.916300	0.693700
H341	H34	0.725600	0.008400	0.849100
H351	H35	0.758000	0.964100	0.572800
H361	H36	0.119700	0.965000	0.576700
H371	H37	0.368900	0.059500	0.694000
H381	H38	0.065200	0.940000	0.464800
H391	H39	0.807600	0.106400	0.499100
H401	H40	0.800800	0.058000	0.565300
H411	H41	0.885970	0.855300	0.992500
H421	H42	0.730970	0.411100	0.015600
H431	H43	0.596770	0.777400	0.083700
H441	H44	0.392270	0.840700	0.991600
H451	H45	0.424670	0.608700	0.035900
H461	H46	0.786370	0.611700	0.035000
H471	H47	0.035570	0.634500	0.940500
H481	H48	0.731870	0.524800	0.060000
H491	H49	0.474270	0.392700	0.893600
H501	H50	0.467470	0.507300	0.942000
H511	H51	0.552630	0.137200	0.144700
H521	H52	0.397630	0.604500	0.588900
H531	H53	0.263430	0.306300	0.222600
H541	H54	0.058930	0.150900	0.159300
H551	H55	0.091330	0.427200	0.391300
H561	H56	0.453030	0.423300	0.388300
H571	H57	0.702230	0.306000	0.365500
H581	H58	0.398530	0.535200	0.475200
H591	H59	0.140930	0.500900	0.607300
H601	H60	0.134130	0.434700	0.492700
C11	C1	0.793200	0.981500	0.147900
C21	C2	0.664100	0.079200	0.341600
C31	C3	0.511400	0.998800	0.569100
C41	C4	0.432100	0.071300	0.338200
C51	C5	0.325600	0.060900	0.361800
C61	C6	0.204300	0.072500	0.340100
C71	C7	0.187600	0.951000	0.133500
C81	C8	0.330100	0.040100	0.409400
C91	C9	0.546400	0.040600	0.407400
C101	C10	0.544900	0.063100	0.361700
C111	C11	0.911100	0.942400	0.272800
C121	C12	0.437600	0.001800	0.474600
C131	C13	0.434700	0.026300	0.429600
C141	C14	0.512700	0.025800	0.526900
C151	C15	0.360300	0.927700	0.509100
C161	C16	0.358800	0.956000	0.467600
C171	C17	0.459870	0.166400	0.018500
C181	C18	0.330770	0.262400	0.920800
C191	C19	0.178070	0.570300	0.001200
C201	C20	0.098770	0.266900	0.928700
C211	C21	0.992270	0.300900	0.939100
C221	C22	0.870970	0.267600	0.927500
C231	C23	0.854270	0.182500	0.049000
C241	C24	0.996770	0.369300	0.959900
C251	C25	0.213070	0.366800	0.959400
C261	C26	0.211570	0.298600	0.936900
C271	C27	0.577770	0.330400	0.057600
C281	C28	0.104270	0.472800	0.998200
C291	C29	0.101370	0.403300	0.973700
C301	C30	0.179370	0.501100	0.974200
C311	C31	0.026970	0.581400	0.072300
C321	C32	0.025470	0.511600	0.044000
C331	C33	0.126530	0.852100	0.833600
C341	C34	0.997430	0.658400	0.737600
C351	C35	0.844730	0.430900	0.429700
C361	C36	0.765430	0.661800	0.733100
C371	C37	0.658930	0.638200	0.699100
C381	C38	0.537630	0.659900	0.732400
C391	C39	0.520930	0.866500	0.817500
C401	C40	0.663430	0.590600	0.630700
C411	C41	0.879730	0.592600	0.633200
C421	C42	0.878230	0.638300	0.701400
C431	C43	0.244430	0.727200	0.669600
C441	C44	0.770930	0.525400	0.527200
C451	C45	0.768030	0.570400	0.596700
C461	C46	0.846030	0.473100	0.498900
C471	C47	0.693630	0.490900	0.418600
C481	C48	0.692130	0.532400	0.488400
C491	C49	0.293200	0.018500	0.852100
C501	C50	0.164100	0.920800	0.658400
C511	C51	0.011400	0.001200	0.430900
C521	C52	0.932100	0.928700	0.661800
C531	C53	0.825600	0.939100	0.638200
C541	C54	0.704300	0.927500	0.659900
C551	C55	0.687600	0.049000	0.866500
C561	C56	0.830100	0.959900	0.590600
C571	C57	0.046400	0.959400	0.592600
C581	C58	0.044900	0.936900	0.638300
C591	C59	0.411100	0.057600	0.727200
C601	C60	0.937600	0.998200	0.525400
C611	C61	0.934700	0.973700	0.570400
C621	C62	0.012700	0.974200	0.473100
C631	C63	0.860300	0.072300	0.490900
C641	C64	0.858800	0.044000	0.532400
C651	C65	0.959870	0.833600	0.981500
C661	C66	0.830770	0.737600	0.079200
C671	C67	0.678070	0.429700	0.998800
C681	C68	0.598770	0.733100	0.071300
C691	C69	0.492270	0.699100	0.060900
C701	C70	0.370970	0.732400	0.072500
C711	C71	0.354270	0.817500	0.951000
C721	C72	0.496770	0.630700	0.040100
C731	C73	0.713070	0.633200	0.040600
C741	C74	0.711570	0.701400	0.063100
C751	C75	0.077770	0.669600	0.942400
C761	C76	0.604270	0.527200	0.001800
C771	C77	0.601370	0.596700	0.026300
C781	C78	0.679370	0.498900	0.025800
C791	C79	0.526970	0.418600	0.927700
C801	C80	0.525470	0.488400	0.956000
C811	C81	0.626530	0.147900	0.166400
C821	C82	0.497430	0.341600	0.262400
C831	C83	0.344730	0.569100	0.570300
C841	C84	0.265430	0.338200	0.266900
C851	C85	0.158930	0.361800	0.300900
C861	C86	0.037630	0.340100	0.267600
C871	C87	0.020930	0.133500	0.182500
C881	C88	0.163430	0.409400	0.369300
C891	C89	0.379730	0.407400	0.366800
C901	C90	0.378230	0.361700	0.298600
C911	C91	0.744430	0.272800	0.330400
C921	C92	0.270930	0.474600	0.472800
C931	C93	0.268030	0.429600	0.403300
C941	C94	0.346030	0.526900	0.501100
C951	C95	0.193630	0.509100	0.581400
C961	C96	0.192130	0.467600	0.511600
N11	N1	0.436800	0.950000	0.559600
N21	N2	0.103470	0.609600	0.050000
N31	N3	0.770130	0.440400	0.390400
N41	N4	0.936800	0.050000	0.440400
N51	N5	0.603470	0.390400	0.950000
N61	N6	0.270130	0.559600	0.609600
O11	O1	0.122800	0.095570	0.384930
O21	O2	0.939900	0.122090	0.308730
O31	O3	0.752700	0.078100	0.372970
O41	O4	0.085900	0.950770	0.157120
O51	O5	0.851100	0.026580	0.193000
O61	O6	0.244800	0.902370	0.088480
O71	O7	0.191500	0.057950	0.282520
O81	O8	0.825000	0.921860	0.114920
O91	O9	0.908700	0.892990	0.218980
O101	O10	0.963200	0.995270	0.288720
O111	O11	0.661800	0.092100	0.296040
O121	O12	0.789470	0.289360	0.904430
O131	O13	0.606570	0.186640	0.877910
O141	O14	0.419370	0.294870	0.921900
O151	O15	0.752570	0.206350	0.049230
O161	O16	0.517770	0.166420	0.973420
O171	O17	0.911470	0.186110	0.097630
O181	O18	0.858170	0.224570	0.942050
O191	O19	0.491670	0.193060	0.078140
O201	O20	0.575370	0.325990	0.107010
O211	O21	0.629870	0.293450	0.004730
O221	O22	0.328470	0.203940	0.907900
O231	O23	0.456130	0.615070	0.710640
O241	O24	0.273230	0.691270	0.813360
O251	O25	0.086030	0.627030	0.705130
O261	O26	0.419230	0.842880	0.793650
O271	O27	0.184430	0.807000	0.833580
O281	O28	0.578130	0.911520	0.813890
O291	O29	0.524830	0.717480	0.775430
O301	O30	0.158330	0.885080	0.806940
O311	O31	0.242030	0.781020	0.674010
O321	O32	0.296530	0.711280	0.706550
O331	O33	0.995130	0.703960	0.796060
O341	O34	0.622800	0.904430	0.615070
O351	O35	0.439900	0.877910	0.691270
O361	O36	0.252700	0.921900	0.627030
O371	O37	0.585900	0.049230	0.842880
O381	O38	0.351100	0.973420	0.807000
O391	O39	0.744800	0.097630	0.911520
O401	O40	0.691500	0.942050	0.717480
O411	O41	0.325000	0.078140	0.885080
O421	O42	0.408700	0.107010	0.781020
O431	O43	0.463200	0.004730	0.711280
O441	O44	0.161800	0.907900	0.703960
O451	O45	0.289470	0.710640	0.095570
O461	O46	0.106570	0.813360	0.122090
O471	O47	0.919370	0.705130	0.078100
O481	O48	0.252570	0.793650	0.950770
O491	O49	0.017770	0.833580	0.026580
O501	O50	0.411470	0.813890	0.902370
O511	O51	0.358170	0.775430	0.057950
O521	O52	0.991670	0.806940	0.921860
O531	O53	0.075370	0.674010	0.892990
O541	O54	0.129870	0.706550	0.995270
O551	O55	0.828470	0.796060	0.092100
O561	O56	0.956130	0.384930	0.289360
O571	O57	0.773230	0.308730	0.186640
O581	O58	0.586030	0.372970	0.294870
O591	O59	0.919230	0.157120	0.206350
O601	O60	0.684430	0.193000	0.166420
O611	O61	0.078130	0.088480	0.186110
O621	O62	0.024830	0.282520	0.224570
O631	O63	0.658330	0.114920	0.193060
O641	O64	0.742030	0.218980	0.325990
O651	O65	0.796530	0.288720	0.293450
O661	O66	0.495130	0.296040	0.203940
