data_CAPLOX_clean_PM
_symmetry_space_group_name_H-M	'P1'
_cell_length_a	10.468000
_cell_length_b	11.326000
_cell_length_c	12.725900
_cell_angle_alpha	100.845000
_cell_angle_beta	109.929000
_cell_angle_gamma	99.769000
_symmetry_Int_Tables_number 1

loop_
_symmetry_equiv_pos_as_xyz
'x,y,z'

loop_
_atom_site_label
_atom_site_type_symbol
_atom_site_fract_x
_atom_site_fract_y
_atom_site_fract_z
Nd11	Nd1	0.892420	0.951090	0.823930
O11	O1	0.850100	0.997200	0.999100
O21	O2	0.877900	0.067800	0.180400
O31	O3	0.926800	0.776000	0.905000
O41	O4	0.003600	0.825000	0.097900
O51	O5	0.659500	0.791400	0.731800
O61	O6	0.815200	0.761500	0.657200
N11	N1	0.665700	0.131200	0.225500
H11	H1	0.624700	0.163100	0.269900
H21	H2	0.757600	0.143200	0.253100
N21	N2	0.976900	0.578400	0.796000
H31	H3	0.984600	0.528200	0.737900
H41	H4	0.965500	0.652800	0.791400
N31	N3	0.782000	0.533400	0.530000
H51	H5	0.848500	0.586900	0.591500
H61	H6	0.803900	0.481800	0.481900
C11	C1	0.799000	0.027900	0.074200
C21	C2	0.644900	0.014400	0.037500
C31	C3	0.587200	0.063600	0.114600
C41	C4	0.556900	0.952400	0.924300
H71	H7	0.596400	0.919800	0.871800
C51	C5	0.970100	0.750400	0.000400
C61	C6	0.983400	0.619600	0.998700
C71	C7	0.983000	0.538900	0.898700
C81	C8	0.001200	0.420600	0.903000
H81	H8	0.002900	0.366600	0.836900
C91	C9	0.695700	0.727200	0.661300
C101	C10	0.595400	0.608600	0.579200
C111	C11	0.638300	0.530300	0.507600
C121	C12	0.457100	0.579300	0.570300
N41	N4	0.398000	0.656000	0.633000
H91	H9	0.449800	0.728000	0.681900
H101	H10	0.309000	0.631400	0.623100
Nd21	Nd2	0.107580	0.048910	0.176070
O71	O7	0.149900	0.002800	0.000900
O81	O8	0.122100	0.932200	0.819600
O91	O9	0.073200	0.224000	0.095000
O101	O10	0.996400	0.175000	0.902100
O111	O11	0.340500	0.208600	0.268200
O121	O12	0.184800	0.238500	0.342800
N51	N5	0.334300	0.868800	0.774500
H111	H11	0.375300	0.836900	0.730100
H121	H12	0.242400	0.856800	0.746900
N61	N6	0.023100	0.421600	0.204000
H131	H13	0.015400	0.471800	0.262100
H141	H14	0.034500	0.347200	0.208600
N71	N7	0.218000	0.466600	0.470000
H151	H15	0.151500	0.413100	0.408500
H161	H16	0.196100	0.518200	0.518100
C131	C13	0.201000	0.972100	0.925800
C141	C14	0.355100	0.985600	0.962500
C151	C15	0.412800	0.936400	0.885400
C161	C16	0.443100	0.047600	0.075700
H171	H17	0.403600	0.080200	0.128200
C171	C17	0.029900	0.249600	0.999600
C181	C18	0.016600	0.380400	0.001300
C191	C19	0.017000	0.461100	0.101300
C201	C20	0.998800	0.579400	0.097000
H181	H18	0.997100	0.633400	0.163100
C211	C21	0.304300	0.272800	0.338700
C221	C22	0.404600	0.391400	0.420800
C231	C23	0.361700	0.469700	0.492400
C241	C24	0.542900	0.420700	0.429700
N81	N8	0.602000	0.344000	0.367000
H191	H19	0.550200	0.272000	0.318100
H201	H20	0.691000	0.368600	0.376900
