data_CATART03_clean_PM
_symmetry_space_group_name_H-M	'P1'
_cell_length_a	9.219700
_cell_length_b	9.622800
_cell_length_c	10.564900
_cell_angle_alpha	90.000000
_cell_angle_beta	90.000000
_cell_angle_gamma	90.000000
_symmetry_Int_Tables_number 1

loop_
_symmetry_equiv_pos_as_xyz
'x,y,z'

loop_
_atom_site_label
_atom_site_type_symbol
_atom_site_fract_x
_atom_site_fract_y
_atom_site_fract_z
Ca11	Ca1	0.813930	0.681120	0.322890
Ca21	Ca2	0.313930	0.818880	0.677110
Ca31	Ca3	0.686070	0.318880	0.822890
Ca41	Ca4	0.186070	0.181120	0.177110
H11	H1	0.689120	0.262550	0.342760
H21	H2	0.750940	0.173780	0.142850
H31	H3	0.571310	0.454640	0.339830
H41	H4	0.876310	0.313030	0.034430
H51	H5	0.189120	0.237450	0.657240
H61	H6	0.250940	0.326220	0.857150
H71	H7	0.071310	0.045360	0.660170
H81	H8	0.376310	0.186970	0.965570
H91	H9	0.810880	0.737450	0.842760
H101	H10	0.749060	0.826220	0.642850
H111	H11	0.928690	0.545360	0.839830
H121	H12	0.623690	0.686970	0.534430
H131	H13	0.310880	0.762550	0.157240
H141	H14	0.249060	0.673780	0.357150
H151	H15	0.428690	0.954640	0.160170
H161	H16	0.123690	0.813030	0.465570
C11	C1	0.890000	0.356900	0.295900
C21	C2	0.726300	0.339000	0.275600
C31	C3	0.702200	0.273600	0.142200
C41	C4	0.541400	0.260700	0.106200
C51	C5	0.390000	0.143100	0.704100
C61	C6	0.226300	0.161000	0.724400
C71	C7	0.202200	0.226400	0.857800
C81	C8	0.041400	0.239300	0.893800
C91	C9	0.610000	0.643100	0.795900
C101	C10	0.773700	0.661000	0.775600
C111	C11	0.797800	0.726400	0.642200
C121	C12	0.958600	0.739300	0.606200
C131	C13	0.110000	0.856900	0.204100
C141	C14	0.273700	0.839000	0.224400
C151	C15	0.297800	0.773600	0.357800
C161	C16	0.458600	0.760700	0.393800
O11	O1	0.942010	0.470050	0.325570
O21	O2	0.961540	0.245800	0.283710
O31	O3	0.660520	0.474170	0.281520
O41	O4	0.773030	0.354730	0.047980
O51	O5	0.451730	0.235190	0.189360
O61	O6	0.515410	0.267350	0.986670
O71	O7	0.442010	0.029950	0.674430
O81	O8	0.461540	0.254200	0.716290
O91	O9	0.160520	0.025830	0.718480
O101	O10	0.273030	0.145270	0.952020
O111	O11	0.951730	0.264810	0.810640
O121	O12	0.015410	0.232650	0.013330
O131	O13	0.557990	0.529950	0.825570
O141	O14	0.538460	0.754200	0.783710
O151	O15	0.839480	0.525830	0.781520
O161	O16	0.726970	0.645270	0.547980
O171	O17	0.048270	0.764810	0.689360
O181	O18	0.984590	0.732650	0.486670
O191	O19	0.057990	0.970050	0.174430
O201	O20	0.038460	0.745800	0.216290
O211	O21	0.339480	0.974170	0.218480
O221	O22	0.226970	0.854730	0.452020
O231	O23	0.548270	0.735190	0.310640
O241	O24	0.484590	0.767350	0.513330
