data_CAVNOE_clean_PM
_symmetry_space_group_name_H-M	'P1'
_cell_length_a	18.279000
_cell_length_b	7.330000
_cell_length_c	11.601000
_cell_angle_alpha	90.000000
_cell_angle_beta	90.000000
_cell_angle_gamma	90.000000
_symmetry_Int_Tables_number 1

loop_
_symmetry_equiv_pos_as_xyz
'x,y,z'

loop_
_atom_site_label
_atom_site_type_symbol
_atom_site_fract_x
_atom_site_fract_y
_atom_site_fract_z
O11	O1	0.581960	0.401600	0.610800
C11	C1	0.716000	0.091000	0.723600
N11	N1	0.690400	0.922000	0.691000
O21	O2	0.709600	0.847000	0.590000
O31	O3	0.650300	0.859000	0.779000
O41	O4	0.081960	0.901600	0.110800
C21	C2	0.216000	0.591000	0.223600
N21	N2	0.190400	0.422000	0.191000
O51	O5	0.209600	0.347000	0.090000
O61	O6	0.150300	0.359000	0.279000
O71	O7	0.418040	0.098400	0.610800
C31	C3	0.284000	0.409000	0.723600
N31	N3	0.309600	0.578000	0.691000
O81	O8	0.290400	0.653000	0.590000
O91	O9	0.349700	0.641000	0.779000
O101	O10	0.918040	0.598400	0.110800
C41	C4	0.784000	0.909000	0.223600
N41	N4	0.809600	0.078000	0.191000
O111	O11	0.790400	0.153000	0.090000
O121	O12	0.849700	0.141000	0.279000
O131	O13	0.418040	0.901600	0.389200
C51	C5	0.284000	0.591000	0.276400
N51	N5	0.309600	0.422000	0.309000
O141	O14	0.290400	0.347000	0.410000
O151	O15	0.349700	0.359000	0.221000
O161	O16	0.918040	0.401600	0.889200
C61	C6	0.784000	0.091000	0.776400
N61	N6	0.809600	0.922000	0.809000
O171	O17	0.790400	0.847000	0.910000
O181	O18	0.849700	0.859000	0.721000
O191	O19	0.581960	0.598400	0.389200
C71	C7	0.716000	0.909000	0.276400
N71	N7	0.690400	0.078000	0.309000
O201	O20	0.709600	0.153000	0.410000
O211	O21	0.650300	0.141000	0.221000
O221	O22	0.081960	0.098400	0.889200
C81	C8	0.216000	0.409000	0.776400
N81	N8	0.190400	0.578000	0.809000
O231	O23	0.209600	0.653000	0.910000
O241	O24	0.150300	0.641000	0.721000
O251	O25	0.418040	0.598400	0.389200
C91	C9	0.284000	0.909000	0.276400
N91	N9	0.309600	0.078000	0.309000
O261	O26	0.290400	0.153000	0.410000
O271	O27	0.349700	0.141000	0.221000
O281	O28	0.918040	0.098400	0.889200
C101	C10	0.784000	0.409000	0.776400
N101	N10	0.809600	0.578000	0.809000
O291	O29	0.790400	0.653000	0.910000
O301	O30	0.849700	0.641000	0.721000
O311	O31	0.581960	0.901600	0.389200
C111	C11	0.716000	0.591000	0.276400
N111	N11	0.690400	0.422000	0.309000
O321	O32	0.709600	0.347000	0.410000
O331	O33	0.650300	0.359000	0.221000
O341	O34	0.081960	0.401600	0.889200
C121	C12	0.216000	0.091000	0.776400
N121	N12	0.190400	0.922000	0.809000
O351	O35	0.209600	0.847000	0.910000
O361	O36	0.150300	0.859000	0.721000
O371	O37	0.581960	0.098400	0.610800
C131	C13	0.716000	0.409000	0.723600
N131	N13	0.690400	0.578000	0.691000
O381	O38	0.709600	0.653000	0.590000
O391	O39	0.650300	0.641000	0.779000
O401	O40	0.081960	0.598400	0.110800
C141	C14	0.216000	0.909000	0.223600
N141	N14	0.190400	0.078000	0.191000
O411	O41	0.209600	0.153000	0.090000
O421	O42	0.150300	0.141000	0.279000
O431	O43	0.418040	0.401600	0.610800
C151	C15	0.284000	0.091000	0.723600
N151	N15	0.309600	0.922000	0.691000
O441	O44	0.290400	0.847000	0.590000
O451	O45	0.349700	0.859000	0.779000
O461	O46	0.918040	0.901600	0.110800
C161	C16	0.784000	0.591000	0.223600
N161	N16	0.809600	0.422000	0.191000
O471	O47	0.790400	0.347000	0.090000
O481	O48	0.849700	0.359000	0.279000
Sc11	Sc1	0.500000	0.500000	0.500000
Sc21	Sc2	0.000000	0.000000	0.000000
Sc31	Sc3	0.500000	0.000000	0.500000
Sc41	Sc4	0.000000	0.500000	0.000000
O491	O49	0.500000	0.250000	0.418000
O501	O50	0.000000	0.750000	0.918000
O511	O51	0.500000	0.750000	0.582000
O521	O52	0.000000	0.250000	0.082000
C171	C17	0.609900	0.250000	0.633800
C181	C18	0.682700	0.250000	0.694600
C191	C19	0.109900	0.750000	0.133800
C201	C20	0.182700	0.750000	0.194600
C211	C21	0.390100	0.250000	0.633800
C221	C22	0.317300	0.250000	0.694600
C231	C23	0.890100	0.750000	0.133800
C241	C24	0.817300	0.750000	0.194600
C251	C25	0.390100	0.750000	0.366200
C261	C26	0.317300	0.750000	0.305400
C271	C27	0.890100	0.250000	0.866200
C281	C28	0.817300	0.250000	0.805400
C291	C29	0.609900	0.750000	0.366200
C301	C30	0.682700	0.750000	0.305400
C311	C31	0.109900	0.250000	0.866200
C321	C32	0.182700	0.250000	0.805400
