data_CAVREY_clean_PM
_symmetry_space_group_name_H-M	'P1'
_cell_length_a	15.585000
_cell_length_b	19.237000
_cell_length_c	25.305000
_cell_angle_alpha	90.000000
_cell_angle_beta	90.000000
_cell_angle_gamma	90.000000
_symmetry_Int_Tables_number 1

loop_
_symmetry_equiv_pos_as_xyz
'x,y,z'

loop_
_atom_site_label
_atom_site_type_symbol
_atom_site_fract_x
_atom_site_fract_y
_atom_site_fract_z
Zn11	Zn1	0.553780	0.337540	0.228870
Zn21	Zn2	0.528410	0.464380	0.450490
Zn31	Zn3	0.946220	0.662460	0.728870
Zn41	Zn4	0.971590	0.535620	0.950490
Zn51	Zn5	0.446220	0.837540	0.771130
Zn61	Zn6	0.471590	0.964380	0.549510
Zn71	Zn7	0.053780	0.162460	0.271130
Zn81	Zn8	0.028410	0.035620	0.049510
Zn91	Zn9	0.446220	0.662460	0.771130
Zn101	Zn10	0.471590	0.535620	0.549510
Zn111	Zn11	0.053780	0.337540	0.271130
Zn121	Zn12	0.028410	0.464380	0.049510
Zn131	Zn13	0.553780	0.162460	0.228870
Zn141	Zn14	0.528410	0.035620	0.450490
Zn151	Zn15	0.946220	0.837540	0.728870
Zn161	Zn16	0.971590	0.964380	0.950490
Zn171	Zn17	0.684210	0.250000	0.303860
Zn181	Zn18	0.815790	0.750000	0.803860
Zn191	Zn19	0.315790	0.750000	0.696140
Zn201	Zn20	0.184210	0.250000	0.196140
H11	H1	0.517000	0.549100	0.005600
H21	H2	0.653000	0.315500	0.450700
H31	H3	0.731600	0.316400	0.412000
H41	H4	0.706500	0.383800	0.443200
H51	H5	0.413600	0.446900	0.320400
H61	H6	0.471800	0.508800	0.338700
H71	H7	0.479400	0.480000	0.280900
H81	H8	0.466300	0.355700	0.647100
H91	H9	0.713100	0.558700	0.998700
H101	H10	0.531500	0.506400	0.104100
H111	H11	0.770200	0.432200	0.117000
H121	H12	0.803300	0.386700	0.324500
H131	H13	0.883100	0.408300	0.290500
H141	H14	0.796300	0.389500	0.262700
H151	H15	0.983000	0.450900	0.505600
H161	H16	0.847000	0.684500	0.950700
H171	H17	0.768400	0.683600	0.912000
H181	H18	0.793500	0.616200	0.943200
H191	H19	0.086400	0.553100	0.820400
H201	H20	0.028200	0.491200	0.838700
H211	H21	0.020600	0.520000	0.780900
H221	H22	0.033700	0.644300	0.147100
H231	H23	0.786900	0.441300	0.498700
H241	H24	0.968500	0.493600	0.604100
H251	H25	0.729800	0.567800	0.617000
H261	H26	0.696700	0.613300	0.824500
H271	H27	0.616900	0.591700	0.790500
H281	H28	0.703700	0.610500	0.762700
H291	H29	0.483000	0.049100	0.994400
H301	H30	0.347000	0.815500	0.549300
H311	H31	0.268400	0.816400	0.588000
H321	H32	0.293500	0.883800	0.556800
H331	H33	0.586400	0.946900	0.679600
H341	H34	0.528200	0.008800	0.661300
H351	H35	0.520600	0.980000	0.719100
H361	H36	0.533700	0.855700	0.352900
H371	H37	0.286900	0.058700	0.001300
H381	H38	0.468500	0.006400	0.895900
H391	H39	0.229800	0.932200	0.883000
H401	H40	0.196700	0.886700	0.675500
H411	H41	0.116900	0.908300	0.709500
H421	H42	0.203700	0.889500	0.737300
H431	H43	0.017000	0.950900	0.494400
H441	H44	0.153000	0.184500	0.049300
H451	H45	0.231600	0.183600	0.088000
H461	H46	0.206500	0.116200	0.056800
H471	H47	0.913600	0.053100	0.179600
H481	H48	0.971800	0.991200	0.161300
H491	H49	0.979400	0.020000	0.219100
H501	H50	0.966300	0.144300	0.852900
H511	H51	0.213100	0.941300	0.501300
H521	H52	0.031500	0.993600	0.395900
H531	H53	0.270200	0.067800	0.383000
H541	H54	0.303300	0.113300	0.175500
H551	H55	0.383100	0.091700	0.209500
H561	H56	0.296300	0.110500	0.237300
H571	H57	0.483000	0.450900	0.994400
H581	H58	0.347000	0.684500	0.549300
H591	H59	0.268400	0.683600	0.588000
H601	H60	0.293500	0.616200	0.556800
H611	H61	0.586400	0.553100	0.679600
H621	H62	0.528200	0.491200	0.661300
H631	H63	0.520600	0.520000	0.719100
H641	H64	0.533700	0.644300	0.352900
H651	H65	0.286900	0.441300	0.001300
H661	H66	0.468500	0.493600	0.895900
H671	H67	0.229800	0.567800	0.883000
H681	H68	0.196700	0.613300	0.675500
H691	H69	0.116900	0.591700	0.709500
H701	H70	0.203700	0.610500	0.737300
H711	H71	0.017000	0.549100	0.494400
H721	H72	0.153000	0.315500	0.049300
H731	H73	0.231600	0.316400	0.088000
H741	H74	0.206500	0.383800	0.056800
H751	H75	0.913600	0.446900	0.179600
H761	H76	0.971800	0.508800	0.161300
H771	H77	0.979400	0.480000	0.219100
H781	H78	0.966300	0.355700	0.852900
H791	H79	0.213100	0.558700	0.501300
H801	H80	0.031500	0.506400	0.395900
H811	H81	0.270200	0.432200	0.383000
H821	H82	0.303300	0.386700	0.175500
H831	H83	0.383100	0.408300	0.209500
H841	H84	0.296300	0.389500	0.237300
H851	H85	0.517000	0.950900	0.005600
H861	H86	0.653000	0.184500	0.450700
H871	H87	0.731600	0.183600	0.412000
H881	H88	0.706500	0.116200	0.443200
H891	H89	0.413600	0.053100	0.320400
H901	H90	0.471800	0.991200	0.338700
H911	H91	0.479400	0.020000	0.280900
H921	H92	0.466300	0.144300	0.647100
H931	H93	0.713100	0.941300	0.998700
H941	H94	0.531500	0.993600	0.104100
H951	H95	0.770200	0.067800	0.117000
H961	H96	0.803300	0.113300	0.324500
H971	H97	0.883100	0.091700	0.290500
H981	H98	0.796300	0.110500	0.262700
H991	H99	0.983000	0.049100	0.505600
H1001	H100	0.847000	0.815500	0.950700
H1011	H101	0.768400	0.816400	0.912000
H1021	H102	0.793500	0.883800	0.943200
H1031	H103	0.086400	0.946900	0.820400
H1041	H104	0.028200	0.008800	0.838700
H1051	H105	0.020600	0.980000	0.780900
H1061	H106	0.033700	0.855700	0.147100
H1071	H107	0.786900	0.058700	0.498700
H1081	H108	0.968500	0.006400	0.604100
H1091	H109	0.729800	0.932200	0.617000
H1101	H110	0.696700	0.886700	0.824500
H1111	H111	0.616900	0.908300	0.790500
H1121	H112	0.703700	0.889500	0.762700
H1131	H113	0.665900	0.250000	0.209900
H1141	H114	0.485200	0.250000	0.738500
H1151	H115	0.508300	0.250000	0.512400
H1161	H116	0.834100	0.750000	0.709900
H1171	H117	0.014800	0.750000	0.238500
H1181	H118	0.991700	0.750000	0.012400
H1191	H119	0.334100	0.750000	0.790100
H1201	H120	0.514800	0.750000	0.261500
H1211	H121	0.491700	0.750000	0.487600
H1221	H122	0.165900	0.250000	0.290100
H1231	H123	0.985200	0.250000	0.761500
H1241	H124	0.008300	0.250000	0.987600
C11	C1	0.684600	0.343100	0.425800
C21	C2	0.627300	0.364300	0.381900
C31	C3	0.535600	0.417800	0.334900
C41	C4	0.469300	0.467800	0.317200
C51	C5	0.492900	0.380200	0.546600
C61	C6	0.488800	0.313200	0.574500
C71	C7	0.474500	0.313900	0.629400
C81	C8	0.844700	0.489200	0.033500
C91	C9	0.754900	0.495400	0.053800
C101	C10	0.697000	0.533400	0.028500
C111	C11	0.614700	0.536000	0.045400
C121	C12	0.587100	0.501700	0.091300
C131	C13	0.647200	0.460900	0.116200
C141	C14	0.729900	0.458600	0.098700
C151	C15	0.620600	0.418500	0.163600
C161	C16	0.833400	0.378900	0.291900
C171	C17	0.860400	0.305000	0.288800
C181	C18	0.815400	0.656900	0.925800
C191	C19	0.872700	0.635700	0.881900
C201	C20	0.964400	0.582200	0.834900
C211	C21	0.030700	0.532200	0.817200
C221	C22	0.007100	0.619800	0.046600
C231	C23	0.011200	0.686800	0.074500
C241	C24	0.025500	0.686100	0.129400
C251	C25	0.655300	0.510800	0.533500
C261	C26	0.745100	0.504600	0.553800
C271	C27	0.803000	0.466600	0.528500
C281	C28	0.885300	0.464000	0.545400
C291	C29	0.912900	0.498300	0.591300
C301	C30	0.852800	0.539100	0.616200
C311	C31	0.770100	0.541400	0.598700
C321	C32	0.879400	0.581500	0.663600
C331	C33	0.666600	0.621100	0.791900
C341	C34	0.639600	0.695000	0.788800
C351	C35	0.315400	0.843100	0.574200
C361	C36	0.372700	0.864300	0.618100
C371	C37	0.464400	0.917800	0.665100
C381	C38	0.530700	0.967800	0.682800
C391	C39	0.507100	0.880200	0.453400
C401	C40	0.511200	0.813200	0.425500
C411	C41	0.525500	0.813900	0.370600
C421	C42	0.155300	0.989200	0.966500
C431	C43	0.245100	0.995400	0.946200
C441	C44	0.303000	0.033400	0.971500
C451	C45	0.385300	0.036000	0.954600
C461	C46	0.412900	0.001700	0.908700
C471	C47	0.352800	0.960900	0.883800
C481	C48	0.270100	0.958600	0.901300
C491	C49	0.379400	0.918500	0.836400
C501	C50	0.166600	0.878900	0.708100
C511	C51	0.139600	0.805000	0.711200
C521	C52	0.184600	0.156900	0.074200
C531	C53	0.127300	0.135700	0.118100
C541	C54	0.035600	0.082200	0.165100
C551	C55	0.969300	0.032200	0.182800
C561	C56	0.992900	0.119800	0.953400
C571	C57	0.988800	0.186800	0.925500
C581	C58	0.974500	0.186100	0.870600
C591	C59	0.344700	0.010800	0.466500
C601	C60	0.254900	0.004600	0.446200
C611	C61	0.197000	0.966600	0.471500
C621	C62	0.114700	0.964000	0.454600
C631	C63	0.087100	0.998300	0.408700
C641	C64	0.147200	0.039100	0.383800
C651	C65	0.229900	0.041400	0.401300
C661	C66	0.120600	0.081500	0.336400
C671	C67	0.333400	0.121100	0.208100
C681	C68	0.360400	0.195000	0.211200
C691	C69	0.315400	0.656900	0.574200
C701	C70	0.372700	0.635700	0.618100
C711	C71	0.464400	0.582200	0.665100
C721	C72	0.530700	0.532200	0.682800
C731	C73	0.507100	0.619800	0.453400
C741	C74	0.511200	0.686800	0.425500
C751	C75	0.525500	0.686100	0.370600
C761	C76	0.155300	0.510800	0.966500
C771	C77	0.245100	0.504600	0.946200
C781	C78	0.303000	0.466600	0.971500
C791	C79	0.385300	0.464000	0.954600
C801	C80	0.412900	0.498300	0.908700
C811	C81	0.352800	0.539100	0.883800
C821	C82	0.270100	0.541400	0.901300
C831	C83	0.379400	0.581500	0.836400
C841	C84	0.166600	0.621100	0.708100
C851	C85	0.139600	0.695000	0.711200
C861	C86	0.184600	0.343100	0.074200
C871	C87	0.127300	0.364300	0.118100
C881	C88	0.035600	0.417800	0.165100
C891	C89	0.969300	0.467800	0.182800
C901	C90	0.992900	0.380200	0.953400
C911	C91	0.988800	0.313200	0.925500
C921	C92	0.974500	0.313900	0.870600
C931	C93	0.344700	0.489200	0.466500
C941	C94	0.254900	0.495400	0.446200
C951	C95	0.197000	0.533400	0.471500
C961	C96	0.114700	0.536000	0.454600
C971	C97	0.087100	0.501700	0.408700
C981	C98	0.147200	0.460900	0.383800
C991	C99	0.229900	0.458600	0.401300
C1001	C100	0.120600	0.418500	0.336400
C1011	C101	0.333400	0.378900	0.208100
C1021	C102	0.360400	0.305000	0.211200
C1031	C103	0.684600	0.156900	0.425800
C1041	C104	0.627300	0.135700	0.381900
C1051	C105	0.535600	0.082200	0.334900
C1061	C106	0.469300	0.032200	0.317200
C1071	C107	0.492900	0.119800	0.546600
C1081	C108	0.488800	0.186800	0.574500
C1091	C109	0.474500	0.186100	0.629400
C1101	C110	0.844700	0.010800	0.033500
C1111	C111	0.754900	0.004600	0.053800
C1121	C112	0.697000	0.966600	0.028500
C1131	C113	0.614700	0.964000	0.045400
C1141	C114	0.587100	0.998300	0.091300
C1151	C115	0.647200	0.039100	0.116200
C1161	C116	0.729900	0.041400	0.098700
C1171	C117	0.620600	0.081500	0.163600
C1181	C118	0.833400	0.121100	0.291900
C1191	C119	0.860400	0.195000	0.288800
C1201	C120	0.815400	0.843100	0.925800
C1211	C121	0.872700	0.864300	0.881900
C1221	C122	0.964400	0.917800	0.834900
C1231	C123	0.030700	0.967800	0.817200
C1241	C124	0.007100	0.880200	0.046600
C1251	C125	0.011200	0.813200	0.074500
C1261	C126	0.025500	0.813900	0.129400
C1271	C127	0.655300	0.989200	0.533500
C1281	C128	0.745100	0.995400	0.553800
C1291	C129	0.803000	0.033400	0.528500
C1301	C130	0.885300	0.036000	0.545400
C1311	C131	0.912900	0.001700	0.591300
C1321	C132	0.852800	0.960900	0.616200
C1331	C133	0.770100	0.958600	0.598700
C1341	C134	0.879400	0.918500	0.663600
C1351	C135	0.666600	0.878900	0.791900
C1361	C136	0.639600	0.805000	0.788800
C1371	C137	0.497000	0.250000	0.548500
C1381	C138	0.473000	0.250000	0.657400
C1391	C139	0.003000	0.750000	0.048500
C1401	C140	0.027000	0.750000	0.157400
C1411	C141	0.503000	0.750000	0.451500
C1421	C142	0.527000	0.750000	0.342600
C1431	C143	0.997000	0.250000	0.951500
C1441	C144	0.973000	0.250000	0.842600
N11	N1	0.628700	0.334600	0.334300
N21	N2	0.570100	0.369500	0.304300
N31	N3	0.569100	0.415400	0.383900
N41	N4	0.940900	0.285200	0.278800
N51	N5	0.871300	0.665400	0.834300
N61	N6	0.929900	0.630500	0.804300
N71	N7	0.930900	0.584600	0.883900
N81	N8	0.559100	0.714800	0.778800
N91	N9	0.371300	0.834600	0.665700
N101	N10	0.429900	0.869500	0.695700
N111	N11	0.430900	0.915400	0.616100
N121	N12	0.059100	0.785200	0.721200
N131	N13	0.128700	0.165400	0.165700
N141	N14	0.070100	0.130500	0.195700
N151	N15	0.069100	0.084600	0.116100
N161	N16	0.440900	0.214800	0.221200
N171	N17	0.371300	0.665400	0.665700
N181	N18	0.429900	0.630500	0.695700
N191	N19	0.430900	0.584600	0.616100
N201	N20	0.059100	0.714800	0.721200
N211	N21	0.128700	0.334600	0.165700
N221	N22	0.070100	0.369500	0.195700
N231	N23	0.069100	0.415400	0.116100
N241	N24	0.440900	0.285200	0.221200
N251	N25	0.628700	0.165400	0.334300
N261	N26	0.570100	0.130500	0.304300
N271	N27	0.569100	0.084600	0.383900
N281	N28	0.940900	0.214800	0.278800
N291	N29	0.871300	0.834600	0.834300
N301	N30	0.929900	0.869500	0.804300
N311	N31	0.930900	0.915400	0.883900
N321	N32	0.559100	0.785200	0.778800
N331	N33	0.809000	0.250000	0.296100
N341	N34	0.691000	0.750000	0.796100
N351	N35	0.191000	0.750000	0.703900
N361	N36	0.309000	0.250000	0.203900
O11	O1	0.515500	0.378900	0.498300
O21	O2	0.475800	0.434000	0.571900
O31	O3	0.899400	0.461700	0.062100
O41	O4	0.859500	0.517400	0.989600
O51	O5	0.674900	0.394700	0.192900
O61	O6	0.543500	0.410600	0.172900
O71	O7	0.552900	0.575200	0.018500
O81	O8	0.984500	0.621100	0.998300
O91	O9	0.024200	0.566000	0.071900
O101	O10	0.600600	0.538300	0.562100
O111	O11	0.640500	0.482600	0.489600
O121	O12	0.825100	0.605300	0.692900
O131	O13	0.956500	0.589400	0.672900
O141	O14	0.947100	0.424800	0.518500
O151	O15	0.484500	0.878900	0.501700
O161	O16	0.524200	0.934000	0.428100
O171	O17	0.100600	0.961700	0.937900
O181	O18	0.140500	0.017400	0.010400
O191	O19	0.325100	0.894700	0.807100
O201	O20	0.456500	0.910600	0.827100
O211	O21	0.447100	0.075200	0.981500
O221	O22	0.015500	0.121100	0.001700
O231	O23	0.975800	0.066000	0.928100
O241	O24	0.399400	0.038300	0.437900
O251	O25	0.359500	0.982600	0.510400
O261	O26	0.174900	0.105300	0.307100
O271	O27	0.043500	0.089400	0.327100
O281	O28	0.052900	0.924800	0.481500
O291	O29	0.484500	0.621100	0.501700
O301	O30	0.524200	0.566000	0.428100
O311	O31	0.100600	0.538300	0.937900
O321	O32	0.140500	0.482600	0.010400
O331	O33	0.325100	0.605300	0.807100
O341	O34	0.456500	0.589400	0.827100
O351	O35	0.447100	0.424800	0.981500
O361	O36	0.015500	0.378900	0.001700
O371	O37	0.975800	0.434000	0.928100
O381	O38	0.399400	0.461700	0.437900
O391	O39	0.359500	0.517400	0.510400
O401	O40	0.174900	0.394700	0.307100
O411	O41	0.043500	0.410600	0.327100
O421	O42	0.052900	0.575200	0.481500
O431	O43	0.515500	0.121100	0.498300
O441	O44	0.475800	0.066000	0.571900
O451	O45	0.899400	0.038300	0.062100
O461	O46	0.859500	0.982600	0.989600
O471	O47	0.674900	0.105300	0.192900
O481	O48	0.543500	0.089400	0.172900
O491	O49	0.552900	0.924800	0.018500
O501	O50	0.984500	0.878900	0.998300
O511	O51	0.024200	0.934000	0.071900
O521	O52	0.600600	0.961700	0.562100
O531	O53	0.640500	0.017400	0.489600
O541	O54	0.825100	0.894700	0.692900
O551	O55	0.956500	0.910600	0.672900
O561	O56	0.947100	0.075200	0.518500
O571	O57	0.624800	0.250000	0.234800
O581	O58	0.454600	0.250000	0.708800
O591	O59	0.875200	0.750000	0.734800
O601	O60	0.045400	0.750000	0.208800
O611	O61	0.375200	0.750000	0.765200
O621	O62	0.545400	0.750000	0.291200
O631	O63	0.124800	0.250000	0.265200
O641	O64	0.954600	0.250000	0.791200
