data_CAVSUP_clean_PM
_symmetry_space_group_name_H-M	'P1'
_cell_length_a	13.344400
_cell_length_b	18.782000
_cell_length_c	5.849000
_cell_angle_alpha	90.000000
_cell_angle_beta	97.711000
_cell_angle_gamma	90.000000
_symmetry_Int_Tables_number 1

loop_
_symmetry_equiv_pos_as_xyz
'x,y,z'

loop_
_atom_site_label
_atom_site_type_symbol
_atom_site_fract_x
_atom_site_fract_y
_atom_site_fract_z
La11	La1	0.628900	0.250000	0.335100
P11	P1	0.439900	0.085300	0.144000
P21	P2	0.733100	0.133600	0.863000
O11	O1	0.423000	0.074300	0.881000
O21	O2	0.463000	0.163600	0.206000
O31	O3	0.524900	0.036600	0.258000
O41	O4	0.842600	0.138000	0.807000
O51	O5	0.661000	0.175800	0.684000
O61	O6	0.729000	0.161300	0.109000
C11	C1	0.324800	0.062400	0.261000
C21	C2	0.694000	0.041700	0.845000
N11	N1	0.267400	0.992700	0.249000
C31	C3	0.164300	0.005500	0.318000
C41	C4	0.155000	0.981300	0.558000
C51	C5	0.047000	0.978500	0.604000
P31	P3	0.542400	0.904500	0.780000
P41	P4	0.280300	0.865100	0.106300
O71	O7	0.563000	0.909100	0.045000
O81	O8	0.503300	0.830400	0.700000
O91	O9	0.466200	0.962400	0.684000
O101	O10	0.173100	0.832600	0.080000
O111	O11	0.330800	0.862800	0.358000
O121	O12	0.347400	0.828400	0.948000
C61	C6	0.659700	0.920700	0.664000
C71	C7	0.266000	0.957100	0.018000
N21	N2	0.718300	0.989700	0.663000
C81	C8	0.829600	0.981700	0.649000
C91	C9	0.862600	0.980800	0.415000
C101	C10	0.969700	0.958700	0.404000
La21	La2	0.371100	0.750000	0.664900
P51	P5	0.560100	0.585300	0.856000
P61	P6	0.266900	0.633600	0.137000
O131	O13	0.577000	0.574300	0.119000
O141	O14	0.537000	0.663600	0.794000
O151	O15	0.475100	0.536600	0.742000
O161	O16	0.157400	0.638000	0.193000
O171	O17	0.339000	0.675800	0.316000
O181	O18	0.271000	0.661300	0.891000
C111	C11	0.675200	0.562400	0.739000
C121	C12	0.306000	0.541700	0.155000
N31	N3	0.732600	0.492700	0.751000
C131	C13	0.835700	0.505500	0.682000
C141	C14	0.845000	0.481300	0.442000
C151	C15	0.953000	0.478500	0.396000
P71	P7	0.457600	0.404500	0.220000
P81	P8	0.719700	0.365100	0.893700
O191	O19	0.437000	0.409100	0.955000
O201	O20	0.496700	0.330400	0.300000
O211	O21	0.533800	0.462400	0.316000
O221	O22	0.826900	0.332600	0.920000
O231	O23	0.669200	0.362800	0.642000
O241	O24	0.652600	0.328400	0.052000
C161	C16	0.340300	0.420700	0.336000
C171	C17	0.734000	0.457100	0.982000
N41	N4	0.281700	0.489700	0.337000
C181	C18	0.170400	0.481700	0.351000
C191	C19	0.137400	0.480800	0.585000
C201	C20	0.030300	0.458700	0.596000
