data_CAWDOU02_clean_PM
_symmetry_space_group_name_H-M	'P1'
_cell_length_a	13.907700
_cell_length_b	16.435500
_cell_length_c	16.435500
_cell_angle_alpha	90.000000
_cell_angle_beta	90.000000
_cell_angle_gamma	90.000000
_symmetry_Int_Tables_number 1

loop_
_symmetry_equiv_pos_as_xyz
'x,y,z'

loop_
_atom_site_label
_atom_site_type_symbol
_atom_site_fract_x
_atom_site_fract_y
_atom_site_fract_z
Cu11	Cu1	0.500000	0.817390	0.817390
Cu21	Cu2	0.000000	0.182610	0.182610
Cu31	Cu3	0.250000	0.682610	0.317390
Cu41	Cu4	0.750000	0.317390	0.682610
H11	H1	0.616600	0.967900	0.781300
H21	H2	0.751100	0.004200	0.709900
H31	H3	0.774300	0.774200	0.635000
H41	H4	0.642400	0.742600	0.710800
H51	H5	0.229200	0.860000	0.370600
H61	H6	0.130500	0.938400	0.450200
H71	H7	0.975400	0.739300	0.496500
H81	H8	0.079100	0.665800	0.418600
H91	H9	0.116600	0.032100	0.218700
H101	H10	0.251100	0.995800	0.290100
H111	H11	0.274300	0.225800	0.365000
H121	H12	0.142400	0.257400	0.289200
H131	H13	0.729200	0.140000	0.629400
H141	H14	0.630500	0.061600	0.549800
H151	H15	0.475400	0.260700	0.503500
H161	H16	0.579100	0.334200	0.581400
H171	H17	0.366600	0.718700	0.467900
H181	H18	0.501100	0.790100	0.504200
H191	H19	0.524300	0.865000	0.274200
H201	H20	0.392400	0.789200	0.242600
H211	H21	0.979200	0.129400	0.360000
H221	H22	0.880500	0.049800	0.438400
H231	H23	0.725400	0.003500	0.239300
H241	H24	0.829100	0.081400	0.165800
H251	H25	0.866600	0.281300	0.532100
H261	H26	0.001100	0.209900	0.495800
H271	H27	0.024300	0.135000	0.725800
H281	H28	0.892400	0.210800	0.757400
H291	H29	0.479200	0.870600	0.640000
H301	H30	0.380500	0.950200	0.561600
H311	H31	0.225400	0.996500	0.760700
H321	H32	0.329100	0.918600	0.834200
H331	H33	0.133400	0.532100	0.281300
H341	H34	0.998900	0.495800	0.209900
H351	H35	0.975700	0.725800	0.135000
H361	H36	0.107600	0.757400	0.210800
H371	H37	0.520800	0.640000	0.870600
H381	H38	0.619500	0.561600	0.950200
H391	H39	0.774600	0.760700	0.996500
H401	H40	0.670900	0.834200	0.918600
H411	H41	0.633400	0.467900	0.718700
H421	H42	0.498900	0.504200	0.790100
H431	H43	0.475700	0.274200	0.865000
H441	H44	0.607600	0.242600	0.789200
H451	H45	0.020800	0.360000	0.129400
H461	H46	0.119500	0.438400	0.049800
H471	H47	0.274600	0.239300	0.003500
H481	H48	0.170900	0.165800	0.081400
H491	H49	0.383400	0.781300	0.967900
H501	H50	0.248900	0.709900	0.004200
H511	H51	0.225700	0.635000	0.774200
H521	H52	0.357600	0.710800	0.742600
H531	H53	0.770800	0.370600	0.860000
H541	H54	0.869500	0.450200	0.938400
H551	H55	0.024600	0.496500	0.739300
H561	H56	0.920900	0.418600	0.665800
H571	H57	0.883400	0.218700	0.032100
H581	H58	0.748900	0.290100	0.995800
H591	H59	0.725700	0.365000	0.225800
H601	H60	0.857600	0.289200	0.257400
H611	H61	0.270800	0.629400	0.140000
H621	H62	0.369500	0.549800	0.061600
H631	H63	0.524600	0.503500	0.260700
H641	H64	0.420900	0.581400	0.334200
C11	C1	0.649840	0.928240	0.752390
C21	C2	0.729630	0.950620	0.709070
C31	C3	0.777650	0.892700	0.664210
C41	C4	0.743680	0.814480	0.665160
C51	C5	0.664590	0.795980	0.710630
C61	C6	0.862370	0.913650	0.615700
C71	C7	0.978860	0.893650	0.536170
C81	C8	0.177750	0.835330	0.396930
C91	C9	0.118960	0.882980	0.444580
C101	C10	0.041870	0.846410	0.484180
C111	C11	0.027530	0.765050	0.472200
C121	C12	0.089500	0.721370	0.424700
C131	C13	0.149840	0.071760	0.247610
C141	C14	0.229630	0.049380	0.290930
C151	C15	0.277650	0.107300	0.335790
C161	C16	0.243680	0.185520	0.334840
C171	C17	0.164590	0.204020	0.289370
C181	C18	0.362370	0.086350	0.384300
C191	C19	0.478860	0.106350	0.463830
C201	C20	0.677750	0.164670	0.603070
C211	C21	0.618960	0.117020	0.555420
C221	C22	0.541870	0.153590	0.515820
C231	C23	0.527530	0.234950	0.527800
C241	C24	0.589500	0.278630	0.575300
C251	C25	0.399840	0.747610	0.428240
C261	C26	0.479630	0.790930	0.450620
C271	C27	0.527650	0.835790	0.392700
C281	C28	0.493680	0.834840	0.314480
C291	C29	0.414590	0.789370	0.295980
C301	C30	0.612370	0.884300	0.413650
C311	C31	0.728860	0.963830	0.393650
C321	C32	0.927750	0.103070	0.335330
C331	C33	0.868960	0.055420	0.382980
C341	C34	0.791870	0.015820	0.346410
C351	C35	0.777530	0.027800	0.265050
C361	C36	0.839500	0.075300	0.221370
C371	C37	0.899840	0.252390	0.571760
C381	C38	0.979630	0.209070	0.549380
C391	C39	0.027650	0.164210	0.607300
C401	C40	0.993680	0.165160	0.685520
C411	C41	0.914590	0.210630	0.704020
C421	C42	0.112370	0.115700	0.586350
C431	C43	0.228860	0.036170	0.606350
C441	C44	0.427750	0.896930	0.664670
C451	C45	0.368960	0.944580	0.617020
C461	C46	0.291870	0.984180	0.653590
C471	C47	0.277530	0.972200	0.734950
C481	C48	0.339500	0.924700	0.778630
C491	C49	0.100160	0.571760	0.252390
C501	C50	0.020370	0.549380	0.209070
C511	C51	0.972350	0.607300	0.164210
C521	C52	0.006320	0.685520	0.165160
C531	C53	0.085410	0.704020	0.210630
C541	C54	0.887630	0.586350	0.115700
C551	C55	0.771140	0.606350	0.036170
C561	C56	0.572250	0.664670	0.896930
C571	C57	0.631040	0.617020	0.944580
C581	C58	0.708130	0.653590	0.984180
C591	C59	0.722470	0.734950	0.972200
C601	C60	0.660500	0.778630	0.924700
C611	C61	0.600160	0.428240	0.747610
C621	C62	0.520370	0.450620	0.790930
C631	C63	0.472350	0.392700	0.835790
C641	C64	0.506320	0.314480	0.834840
C651	C65	0.585410	0.295980	0.789370
C661	C66	0.387630	0.413650	0.884300
C671	C67	0.271140	0.393650	0.963830
C681	C68	0.072250	0.335330	0.103070
C691	C69	0.131040	0.382980	0.055420
C701	C70	0.208130	0.346410	0.015820
C711	C71	0.222470	0.265050	0.027800
C721	C72	0.160500	0.221370	0.075300
C731	C73	0.350160	0.752390	0.928240
C741	C74	0.270370	0.709070	0.950620
C751	C75	0.222350	0.664210	0.892700
C761	C76	0.256320	0.665160	0.814480
C771	C77	0.335410	0.710630	0.795980
C781	C78	0.137630	0.615700	0.913650
C791	C79	0.021140	0.536170	0.893650
C801	C80	0.822250	0.396930	0.835330
C811	C81	0.881040	0.444580	0.882980
C821	C82	0.958130	0.484180	0.846410
C831	C83	0.972470	0.472200	0.765050
C841	C84	0.910500	0.424700	0.721370
C851	C85	0.850160	0.247610	0.071760
C861	C86	0.770370	0.290930	0.049380
C871	C87	0.722350	0.335790	0.107300
C881	C88	0.756320	0.334840	0.185520
C891	C89	0.835410	0.289370	0.204020
C901	C90	0.637630	0.384300	0.086350
C911	C91	0.521140	0.463830	0.106350
C921	C92	0.322250	0.603070	0.164670
C931	C93	0.381040	0.555420	0.117020
C941	C94	0.458130	0.515820	0.153590
C951	C95	0.472470	0.527800	0.234950
C961	C96	0.410500	0.575300	0.278630
N11	N1	0.617700	0.851340	0.754810
N21	N2	0.904540	0.982590	0.608820
N31	N3	0.982080	0.969850	0.555220
N41	N4	0.164790	0.755460	0.386540
N51	N5	0.117700	0.148660	0.245190
N61	N6	0.404540	0.017410	0.391180
N71	N7	0.482080	0.030150	0.444780
N81	N8	0.664790	0.244540	0.613460
N91	N9	0.367700	0.745190	0.351340
N101	N10	0.654540	0.891180	0.482590
N111	N11	0.732080	0.944780	0.469850
N121	N12	0.914790	0.113460	0.255460
N131	N13	0.867700	0.254810	0.648660
N141	N14	0.154540	0.108820	0.517410
N151	N15	0.232080	0.055220	0.530150
N161	N16	0.414790	0.886540	0.744540
N171	N17	0.132300	0.648660	0.254810
N181	N18	0.845460	0.517410	0.108820
N191	N19	0.767920	0.530150	0.055220
N201	N20	0.585210	0.744540	0.886540
N211	N21	0.632300	0.351340	0.745190
N221	N22	0.345460	0.482590	0.891180
N231	N23	0.267920	0.469850	0.944780
N241	N24	0.085210	0.255460	0.113460
N251	N25	0.382300	0.754810	0.851340
N261	N26	0.095460	0.608820	0.982590
N271	N27	0.017920	0.555220	0.969850
N281	N28	0.835210	0.386540	0.755460
N291	N29	0.882300	0.245190	0.148660
N301	N30	0.595460	0.391180	0.017410
N311	N31	0.517920	0.444780	0.030150
N321	N32	0.335210	0.613460	0.244540
O11	O1	0.903660	0.853820	0.571430
O21	O2	0.403660	0.146180	0.428570
O31	O3	0.653660	0.928570	0.353820
O41	O4	0.153660	0.071430	0.646180
O51	O5	0.846340	0.646180	0.071430
O61	O6	0.346340	0.353820	0.928570
O71	O7	0.096340	0.571430	0.853820
O81	O8	0.596340	0.428570	0.146180
