data_CAWDOU_charged_PM
_symmetry_space_group_name_H-M	'P1'
_cell_length_a	13.732700
_cell_length_b	16.418900
_cell_length_c	16.597500
_cell_angle_alpha	90.000000
_cell_angle_beta	90.000000
_cell_angle_gamma	90.000000
_symmetry_Int_Tables_number 1

loop_
_symmetry_equiv_pos_as_xyz
'x,y,z'

loop_
_atom_site_label
_atom_site_type_symbol
_atom_site_fract_x
_atom_site_fract_y
_atom_site_fract_z
Cu11	Cu1	0.623660	0.561110	0.677960
Cu21	Cu2	0.876340	0.438890	0.177960
Cu31	Cu3	0.376340	0.061110	0.822040
Cu41	Cu4	0.123660	0.938890	0.322040
H11	H1	0.444400	0.580700	0.581000
H21	H2	0.345300	0.499900	0.497400
H31	H3	0.508800	0.302500	0.546600
H41	H4	0.601900	0.380900	0.631600
H51	H5	0.018000	0.508500	0.284500
H61	H6	0.145900	0.472500	0.366800
H71	H7	0.131600	0.245700	0.276400
H81	H8	0.990800	0.284000	0.207300
H91	H9	0.749100	0.536300	0.531100
H101	H10	0.890400	0.462300	0.495300
H111	H11	0.905100	0.376100	0.721200
H121	H12	0.761900	0.453900	0.752200
H131	H13	0.362000	0.115000	0.640300
H141	H14	0.267200	0.199200	0.566400
H151	H15	0.096700	0.241100	0.758500
H161	H16	0.193900	0.157700	0.832700
H171	H17	0.641000	0.704500	0.600400
H181	H18	0.607800	0.648400	0.535300
H191	H19	0.055600	0.419300	0.081000
H201	H20	0.154700	0.500100	0.997400
H211	H21	0.991200	0.697500	0.046600
H221	H22	0.898100	0.619100	0.131600
H231	H23	0.482000	0.491500	0.784500
H241	H24	0.354100	0.527500	0.866800
H251	H25	0.368400	0.754300	0.776400
H261	H26	0.509200	0.716000	0.707300
H271	H27	0.750900	0.463700	0.031100
H281	H28	0.609600	0.537700	0.995300
H291	H29	0.594900	0.623900	0.221200
H301	H30	0.738100	0.546100	0.252200
H311	H31	0.138000	0.885000	0.140300
H321	H32	0.232800	0.800800	0.066400
H331	H33	0.403300	0.758900	0.258500
H341	H34	0.306100	0.842300	0.332700
H351	H35	0.859000	0.295500	0.100400
H361	H36	0.892200	0.351600	0.035300
H371	H37	0.555600	0.080700	0.919000
H381	H38	0.654700	0.999900	0.002600
H391	H39	0.491200	0.802500	0.953400
H401	H40	0.398100	0.880900	0.868400
H411	H41	0.982000	0.008500	0.215500
H421	H42	0.854100	0.972500	0.133200
H431	H43	0.868400	0.745700	0.223600
H441	H44	0.009200	0.784000	0.292700
H451	H45	0.250900	0.036300	0.968900
H461	H46	0.109600	0.962300	0.004700
H471	H47	0.094900	0.876100	0.778800
H481	H48	0.238100	0.953900	0.747800
H491	H49	0.638000	0.615000	0.859700
H501	H50	0.732800	0.699200	0.933600
H511	H51	0.903300	0.741100	0.741500
H521	H52	0.806100	0.657700	0.667300
H531	H53	0.359000	0.204500	0.899600
H541	H54	0.392200	0.148400	0.964700
H551	H55	0.944400	0.919300	0.419000
H561	H56	0.845300	0.000100	0.502600
H571	H57	0.008800	0.197500	0.453400
H581	H58	0.101900	0.119100	0.368400
H591	H59	0.518000	0.991500	0.715500
H601	H60	0.645900	0.027500	0.633200
H611	H61	0.631600	0.254300	0.723600
H621	H62	0.490800	0.216000	0.792700
H631	H63	0.249100	0.963700	0.468900
H641	H64	0.390400	0.037700	0.504700
H651	H65	0.405100	0.123900	0.278800
H661	H66	0.261900	0.046100	0.247800
H671	H67	0.862000	0.385000	0.359700
H681	H68	0.767200	0.300800	0.433600
H691	H69	0.596700	0.258900	0.241500
H701	H70	0.693900	0.342300	0.167300
H711	H71	0.141000	0.795500	0.399600
H721	H72	0.107800	0.851600	0.464700
C11	C1	0.457900	0.524500	0.573400
C21	C2	0.398400	0.475600	0.525100
C31	C3	0.414500	0.392900	0.516600
C41	C4	0.493900	0.358500	0.554100
C51	C5	0.550900	0.406200	0.602200
C61	C6	0.349700	0.348800	0.464700
C71	C7	0.237300	0.329700	0.380500
C81	C8	0.040000	0.453600	0.284600
C91	C9	0.116700	0.432500	0.333200
C101	C10	0.151200	0.355700	0.333800
C111	C11	0.106600	0.299400	0.281600
C121	C12	0.025500	0.323500	0.237800
C131	C13	0.780800	0.503300	0.570100
C141	C14	0.864900	0.460000	0.548500
C151	C15	0.907900	0.415300	0.606000
C161	C16	0.874000	0.409000	0.681700
C171	C17	0.788100	0.455100	0.699300
C181	C18	0.996900	0.366300	0.585600
C191	C19	0.113100	0.281400	0.608000
C201	C20	0.308600	0.141600	0.665400
C211	C21	0.251900	0.190700	0.621600
C221	C22	0.171400	0.229600	0.654100
C231	C23	0.151500	0.215900	0.734000
C241	C24	0.209800	0.166600	0.777700
C251	C25	0.042100	0.475500	0.073400
C261	C26	0.101600	0.524400	0.025100
C271	C27	0.085500	0.607100	0.016600
C281	C28	0.006100	0.641500	0.054100
C291	C29	0.949100	0.593800	0.102200
C301	C30	0.150300	0.651200	0.964700
C311	C31	0.262700	0.670300	0.880500
C321	C32	0.460000	0.546400	0.784600
C331	C33	0.383300	0.567500	0.833200
C341	C34	0.348800	0.644300	0.833800
C351	C35	0.393400	0.700600	0.781600
C361	C36	0.474500	0.676500	0.737800
C371	C37	0.719200	0.496700	0.070100
C381	C38	0.635100	0.540000	0.048500
C391	C39	0.592100	0.584700	0.106000
C401	C40	0.626000	0.591000	0.181700
C411	C41	0.711900	0.544900	0.199300
C421	C42	0.503100	0.633700	0.085600
C431	C43	0.386900	0.718600	0.108000
C441	C44	0.191400	0.858400	0.165400
C451	C45	0.248100	0.809300	0.121600
C461	C46	0.328600	0.770400	0.154100
C471	C47	0.348500	0.784100	0.234000
C481	C48	0.290200	0.833400	0.277700
C491	C49	0.542100	0.024500	0.926600
C501	C50	0.601600	0.975600	0.974900
C511	C51	0.585500	0.892900	0.983400
C521	C52	0.506100	0.858500	0.945900
C531	C53	0.449100	0.906200	0.897800
C541	C54	0.650300	0.848800	0.035300
C551	C55	0.762700	0.829700	0.119500
C561	C56	0.960000	0.953600	0.215400
C571	C57	0.883300	0.932500	0.166800
C581	C58	0.848800	0.855700	0.166200
C591	C59	0.893400	0.799400	0.218400
C601	C60	0.974500	0.823500	0.262200
C611	C61	0.219200	0.003300	0.929900
C621	C62	0.135100	0.960000	0.951500
C631	C63	0.092100	0.915300	0.894000
C641	C64	0.126000	0.909000	0.818300
C651	C65	0.211900	0.955100	0.800700
C661	C66	0.003100	0.866300	0.914400
C671	C67	0.886900	0.781400	0.892000
C681	C68	0.691400	0.641600	0.834600
C691	C69	0.748100	0.690700	0.878400
C701	C70	0.828600	0.729600	0.845900
C711	C71	0.848500	0.715900	0.766000
C721	C72	0.790200	0.666600	0.722300
C731	C73	0.957900	0.975500	0.426600
C741	C74	0.898400	0.024400	0.474900
C751	C75	0.914500	0.107100	0.483400
C761	C76	0.993900	0.141500	0.445900
C771	C77	0.050900	0.093800	0.397800
C781	C78	0.849700	0.151200	0.535300
C791	C79	0.737300	0.170300	0.619500
C801	C80	0.540000	0.046400	0.715400
C811	C81	0.616700	0.067500	0.666800
C821	C82	0.651200	0.144300	0.666200
C831	C83	0.606600	0.200600	0.718400
C841	C84	0.525500	0.176500	0.762200
C851	C85	0.280800	0.996700	0.429900
C861	C86	0.364900	0.040000	0.451500
C871	C87	0.407900	0.084700	0.394000
C881	C88	0.374000	0.091000	0.318300
C891	C89	0.288100	0.044900	0.300700
C901	C90	0.496900	0.133700	0.414400
C911	C91	0.613100	0.218600	0.392000
C921	C92	0.808600	0.358400	0.334600
C931	C93	0.751900	0.309300	0.378400
C941	C94	0.671400	0.270400	0.345900
C951	C95	0.651500	0.284100	0.266000
C961	C96	0.709800	0.333400	0.222300
N11	N1	0.538700	0.487000	0.610300
N21	N2	0.350400	0.274100	0.442700
N31	N3	0.273700	0.259800	0.388500
N41	N4	0.995600	0.399500	0.237500
N51	N5	0.744700	0.499000	0.643800
N61	N6	0.042500	0.359200	0.519700
N71	N7	0.119000	0.307300	0.533000
N81	N8	0.291200	0.128500	0.746900
N91	N9	0.961300	0.513000	0.110300
N101	N10	0.149600	0.725900	0.942700
N111	N11	0.226300	0.740200	0.888500
N121	N12	0.504400	0.600500	0.737500
N131	N13	0.755300	0.501000	0.143800
N141	N14	0.457500	0.640800	0.019700
N151	N15	0.381000	0.692700	0.033000
N161	N16	0.208800	0.871500	0.246900
N171	N17	0.461300	0.987000	0.889700
N181	N18	0.649600	0.774100	0.057300
N191	N19	0.726300	0.759800	0.111500
N201	N20	0.004400	0.899500	0.262500
N211	N21	0.255300	0.999000	0.856200
N221	N22	0.957500	0.859200	0.980300
N231	N23	0.881000	0.807300	0.967000
N241	N24	0.708800	0.628500	0.753100
N251	N25	0.038700	0.013000	0.389700
N261	N26	0.850400	0.225900	0.557300
N271	N27	0.773700	0.240200	0.611500
N281	N28	0.495600	0.100500	0.762500
N291	N29	0.244700	0.001000	0.356200
N301	N30	0.542500	0.140800	0.480300
N311	N31	0.619000	0.192700	0.467000
N321	N32	0.791200	0.371500	0.253100
O11	O1	0.276400	0.389000	0.425700
O21	O2	0.034600	0.319400	0.645100
O31	O3	0.626900	0.653900	0.584500
O41	O4	0.223600	0.611000	0.925700
O51	O5	0.465400	0.680600	0.145100
O61	O6	0.873100	0.346100	0.084500
O71	O7	0.723600	0.889000	0.074300
O81	O8	0.965400	0.819400	0.854900
O91	O9	0.373100	0.153900	0.915500
O101	O10	0.776400	0.111000	0.574300
O111	O11	0.534600	0.180600	0.354900
O121	O12	0.126900	0.846100	0.415500
Cl11	Cl1	0.622100	0.375800	0.871700
O131	O13	0.555000	0.361900	0.807900
O141	O14	0.648800	0.460900	0.870900
O151	O15	0.706700	0.326300	0.860600
O161	O16	0.574400	0.360200	0.947200
Cl21	Cl2	0.877900	0.624200	0.371700
O171	O17	0.945000	0.638100	0.307900
O181	O18	0.851200	0.539100	0.370900
O191	O19	0.793300	0.673700	0.360600
O201	O20	0.925600	0.639800	0.447200
Cl31	Cl3	0.377900	0.875800	0.628300
O211	O21	0.445000	0.861900	0.692100
O221	O22	0.351200	0.960900	0.629100
O231	O23	0.293300	0.826300	0.639400
O241	O24	0.425600	0.860200	0.552800
Cl41	Cl4	0.122100	0.124200	0.128300
O251	O25	0.055000	0.138100	0.192100
O261	O26	0.148800	0.039100	0.129100
O271	O27	0.206700	0.173700	0.139400
O281	O28	0.074400	0.139800	0.052800
