data_CAXPIC_clean_PM
_symmetry_space_group_name_H-M	'P1'
_cell_length_a	9.202000
_cell_length_b	11.088000
_cell_length_c	11.992000
_cell_angle_alpha	108.580000
_cell_angle_beta	91.400000
_cell_angle_gamma	104.710000
_symmetry_Int_Tables_number 1

loop_
_symmetry_equiv_pos_as_xyz
'x,y,z'

loop_
_atom_site_label
_atom_site_type_symbol
_atom_site_fract_x
_atom_site_fract_y
_atom_site_fract_z
Co11	Co1	0.154610	0.267310	0.380080
Co21	Co2	0.080900	0.700400	0.836400
Co31	Co3	0.845390	0.732690	0.619920
Co41	Co4	0.919100	0.299600	0.163600
Co51	Co5	0.500000	0.500000	0.500000
H11	H1	0.808300	0.970200	0.439900
H21	H2	0.552100	0.047400	0.213400
H31	H3	0.363800	0.795600	0.377000
H41	H4	0.848100	0.495000	0.889800
H51	H5	0.469500	0.269200	0.963000
H61	H6	0.438300	0.471200	0.743000
H71	H7	0.645100	0.316600	0.297200
H81	H8	0.031700	0.584500	0.403500
H91	H9	0.191700	0.029800	0.560100
H101	H10	0.447900	0.952600	0.786600
H111	H11	0.636200	0.204400	0.623000
H121	H12	0.151900	0.505000	0.110200
H131	H13	0.530500	0.730800	0.037000
H141	H14	0.561700	0.528800	0.257000
H151	H15	0.354900	0.683400	0.702800
H161	H16	0.968300	0.415500	0.596500
C11	C1	0.615200	0.784300	0.489200
C21	C2	0.589400	0.864900	0.417200
C31	C3	0.713700	0.955400	0.400600
C41	C4	0.696200	0.024400	0.324500
C51	C5	0.560500	0.007600	0.269900
C61	C6	0.434200	0.931600	0.297200
C71	C7	0.449100	0.854700	0.365600
C81	C8	0.837100	0.110500	0.295000
C91	C9	0.717900	0.592400	0.744100
C101	C10	0.649600	0.503400	0.811600
C111	C11	0.743200	0.465100	0.883000
C121	C12	0.672400	0.382600	0.941200
C131	C13	0.515200	0.328800	0.926100
C141	C14	0.429300	0.368100	0.853300
C151	C15	0.497000	0.450700	0.794800
C161	C16	0.759700	0.339700	0.021600
C171	C17	0.719900	0.393800	0.338500
C181	C18	0.930400	0.538500	0.397000
C191	C19	0.384800	0.215700	0.510800
C201	C20	0.410600	0.135100	0.582800
C211	C21	0.286300	0.044600	0.599400
C221	C22	0.303800	0.975600	0.675500
C231	C23	0.439500	0.992400	0.730100
C241	C24	0.565800	0.068400	0.702800
C251	C25	0.550900	0.145300	0.634400
C261	C26	0.162900	0.889500	0.705000
C271	C27	0.282100	0.407600	0.255900
C281	C28	0.350400	0.496600	0.188400
C291	C29	0.256800	0.534900	0.117000
C301	C30	0.327600	0.617400	0.058800
C311	C31	0.484800	0.671200	0.073900
C321	C32	0.570700	0.631900	0.146700
C331	C33	0.503000	0.549300	0.205200
C341	C34	0.240300	0.660300	0.978400
C351	C35	0.280100	0.606200	0.661500
C361	C36	0.069600	0.461500	0.603000
N11	N1	0.837700	0.578200	0.470400
N21	N2	0.700800	0.483500	0.427300
N31	N3	0.864400	0.423900	0.310500
N41	N4	0.281300	0.917500	0.245300
N51	N5	0.265000	0.310100	0.835000
N61	N6	0.162300	0.421800	0.529600
N71	N7	0.299200	0.516500	0.572700
N81	N8	0.135600	0.576100	0.689500
N91	N9	0.718700	0.082500	0.754700
N101	N10	0.735000	0.689900	0.165000
O11	O1	0.950900	0.156300	0.374800
O21	O2	0.728700	0.826200	0.562300
O31	O3	0.640800	0.609800	0.668900
O41	O4	0.859900	0.655100	0.760700
O51	O5	0.513400	0.677800	0.470100
O61	O6	0.829700	0.137900	0.206200
O71	O7	0.903400	0.384000	0.037300
O81	O8	0.694100	0.272300	0.076200
O91	O9	0.275000	0.984500	0.186100
O101	O10	0.175100	0.840900	0.264500
O111	O11	0.210200	0.243600	0.891000
O121	O12	0.197300	0.341100	0.770100
O131	O13	0.049100	0.843700	0.625200
O141	O14	0.271300	0.173800	0.437700
O151	O15	0.359200	0.390200	0.331100
O161	O16	0.140100	0.344900	0.239300
O171	O17	0.486600	0.322200	0.529900
O181	O18	0.170300	0.862100	0.793800
O191	O19	0.096600	0.616000	0.962700
O201	O20	0.305900	0.727700	0.923800
O211	O21	0.725000	0.015500	0.813900
O221	O22	0.824900	0.159100	0.735500
O231	O23	0.789800	0.756400	0.109000
O241	O24	0.802700	0.658900	0.229900
