data_CAXVUU_clean_PM
_symmetry_space_group_name_H-M	'P1'
_cell_length_a	6.820900
_cell_length_b	15.164600
_cell_length_c	15.164600
_cell_angle_alpha	62.206800
_cell_angle_beta	81.377200
_cell_angle_gamma	98.622800
_symmetry_Int_Tables_number 1

loop_
_symmetry_equiv_pos_as_xyz
'x,y,z'

loop_
_atom_site_label
_atom_site_type_symbol
_atom_site_fract_x
_atom_site_fract_y
_atom_site_fract_z
Fe11	Fe1	0.895100	0.686500	0.586600
Fe21	Fe2	0.481700	0.586600	0.726900
Fe31	Fe3	0.208600	0.726900	0.686500
Fe41	Fe4	0.104900	0.313500	0.413400
Fe51	Fe5	0.518300	0.413400	0.273100
Fe61	Fe6	0.791400	0.273100	0.313500
H11	H1	0.623300	0.010300	0.547400
H21	H2	0.170700	0.547400	0.442300
H31	H3	0.613000	0.442300	0.010300
H41	H4	0.376700	0.989700	0.452600
H51	H5	0.829300	0.452600	0.557700
H61	H6	0.387000	0.557700	0.989700
C11	C1	0.658500	0.822000	0.615300
C21	C2	0.840200	0.912500	0.539000
C31	C3	0.046300	0.899100	0.528900
C41	C4	0.805800	0.000500	0.536100
C51	C5	0.273800	0.615300	0.562700
C61	C6	0.379200	0.539000	0.548500
C71	C7	0.575200	0.528900	0.572000
C81	C8	0.341900	0.536100	0.463400
C91	C9	0.836500	0.562700	0.822000
C101	C10	0.927700	0.548500	0.912500
C111	C11	0.147200	0.572000	0.899100
C121	C12	0.805300	0.463400	0.000500
C131	C13	0.341500	0.178000	0.384700
C141	C14	0.159800	0.087500	0.461000
C151	C15	0.953700	0.100900	0.471100
C161	C16	0.194200	0.999500	0.463900
C171	C17	0.726200	0.384700	0.437300
C181	C18	0.620800	0.461000	0.451500
C191	C19	0.424800	0.471100	0.428000
C201	C20	0.658100	0.463900	0.536600
C211	C21	0.163500	0.437300	0.178000
C221	C22	0.072300	0.451500	0.087500
C231	C23	0.852800	0.428000	0.100900
C241	C24	0.194700	0.536600	0.999500
O11	O1	0.669900	0.730900	0.643600
O21	O2	0.476300	0.861200	0.607700
O31	O3	0.079000	0.809800	0.568600
O41	O4	0.313500	0.643600	0.625500
O51	O5	0.084000	0.607700	0.531100
O61	O6	0.647600	0.568600	0.621600
O71	O7	0.939000	0.625500	0.730900
O81	O8	0.615100	0.531100	0.861200
O91	O9	0.269200	0.621600	0.809800
O101	O10	0.330100	0.269100	0.356400
O111	O11	0.523700	0.138800	0.392300
O121	O12	0.921000	0.190200	0.431400
O131	O13	0.686500	0.356400	0.374500
O141	O14	0.916000	0.392300	0.468900
O151	O15	0.352400	0.431400	0.378400
O161	O16	0.061000	0.374500	0.269100
O171	O17	0.384900	0.468900	0.138800
O181	O18	0.730800	0.378400	0.190200
