data_CAXVII_clean_PM
_symmetry_space_group_name_H-M	'P1'
_cell_length_a	6.894500
_cell_length_b	15.240300
_cell_length_c	15.240300
_cell_angle_alpha	62.232100
_cell_angle_beta	81.327000
_cell_angle_gamma	98.673000
_symmetry_Int_Tables_number 1

loop_
_symmetry_equiv_pos_as_xyz
'x,y,z'

loop_
_atom_site_label
_atom_site_type_symbol
_atom_site_fract_x
_atom_site_fract_y
_atom_site_fract_z
Fe11	Fe1	0.889000	0.679200	0.587400
Fe21	Fe2	0.476400	0.587400	0.733400
Fe31	Fe3	0.209800	0.733400	0.679200
Fe41	Fe4	0.111000	0.320800	0.412600
Fe51	Fe5	0.523600	0.412600	0.266600
Fe61	Fe6	0.790200	0.266600	0.320800
H11	H1	0.658300	0.030700	0.537800
H21	H2	0.196100	0.537800	0.431500
H31	H3	0.627600	0.431500	0.030700
H41	H4	0.341700	0.969300	0.462200
H51	H5	0.803900	0.462200	0.568500
H61	H6	0.372400	0.568500	0.969300
C11	C1	0.628600	0.829200	0.617400
C21	C2	0.838100	0.910600	0.551200
C31	C3	0.045800	0.900800	0.535400
C41	C4	0.797600	0.003300	0.527500
C51	C5	0.246000	0.617400	0.553400
C61	C6	0.389300	0.551200	0.538200
C71	C7	0.581200	0.535400	0.563800
C81	C8	0.325100	0.527500	0.469200
C91	C9	0.799400	0.553400	0.829200
C101	C10	0.927500	0.538200	0.910600
C111	C11	0.145000	0.563800	0.900800
C121	C12	0.794300	0.469200	0.003300
C131	C13	0.371400	0.170800	0.382600
C141	C14	0.161900	0.089400	0.448800
C151	C15	0.954200	0.099200	0.464600
C161	C16	0.202400	0.996700	0.472500
C171	C17	0.754000	0.382600	0.446600
C181	C18	0.610700	0.448800	0.461800
C191	C19	0.418800	0.464600	0.436200
C201	C20	0.674900	0.472500	0.530800
C211	C21	0.200600	0.446600	0.170800
C221	C22	0.072500	0.461800	0.089400
C231	C23	0.855000	0.436200	0.099200
C241	C24	0.205700	0.530800	0.996700
O11	O1	0.668000	0.748500	0.646500
O21	O2	0.473600	0.844800	0.624000
O31	O3	0.077000	0.817000	0.556000
O41	O4	0.314500	0.646500	0.605000
O51	O5	0.097600	0.624000	0.531200
O61	O6	0.633000	0.556000	0.627000
O71	O7	0.919500	0.605000	0.748500
O81	O8	0.628800	0.531200	0.844800
O91	O9	0.260000	0.627000	0.817000
O101	O10	0.332000	0.251500	0.353500
O111	O11	0.526400	0.155200	0.376000
O121	O12	0.923000	0.183000	0.444000
O131	O13	0.685500	0.353500	0.395000
O141	O14	0.902400	0.376000	0.468800
O151	O15	0.367000	0.444000	0.373000
O161	O16	0.080500	0.395000	0.251500
O171	O17	0.371200	0.468800	0.155200
O181	O18	0.740000	0.373000	0.183000
