data_CAXWEF_clean_PM
_symmetry_space_group_name_H-M	'P1'
_cell_length_a	6.843000
_cell_length_b	15.159000
_cell_length_c	15.159000
_cell_angle_alpha	62.222600
_cell_angle_beta	81.345800
_cell_angle_gamma	98.654200
_symmetry_Int_Tables_number 1

loop_
_symmetry_equiv_pos_as_xyz
'x,y,z'

loop_
_atom_site_label
_atom_site_type_symbol
_atom_site_fract_x
_atom_site_fract_y
_atom_site_fract_z
Fe11	Fe1	0.891900	0.684900	0.586200
Fe21	Fe2	0.478100	0.586200	0.728900
Fe31	Fe3	0.207000	0.728900	0.684900
Fe41	Fe4	0.108100	0.315100	0.413800
Fe51	Fe5	0.521900	0.413800	0.271100
Fe61	Fe6	0.793000	0.271100	0.315100
H11	H1	0.646500	0.018600	0.538000
H21	H2	0.184500	0.538000	0.443400
H31	H3	0.627900	0.443400	0.018600
H41	H4	0.353500	0.981400	0.462000
H51	H5	0.815500	0.462000	0.556600
H61	H6	0.372100	0.556600	0.981400
C11	C1	0.663400	0.822100	0.615700
C21	C2	0.831500	0.912400	0.542800
C31	C3	0.033200	0.896800	0.535300
C41	C4	0.804700	0.008000	0.522900
C51	C5	0.279100	0.615700	0.562200
C61	C6	0.374300	0.542800	0.544800
C71	C7	0.568500	0.535300	0.567900
C81	C8	0.327600	0.522900	0.469100
C91	C9	0.841300	0.562200	0.822100
C101	C10	0.919100	0.544800	0.912400
C111	C11	0.136400	0.567900	0.896800
C121	C12	0.796700	0.469100	0.008000
C131	C13	0.336600	0.177900	0.384300
C141	C14	0.168500	0.087600	0.457200
C151	C15	0.966800	0.103200	0.464700
C161	C16	0.195300	0.992000	0.477100
C171	C17	0.720900	0.384300	0.437800
C181	C18	0.625700	0.457200	0.455200
C191	C19	0.431500	0.464700	0.432100
C201	C20	0.672400	0.477100	0.530900
C211	C21	0.158700	0.437800	0.177900
C221	C22	0.080900	0.455200	0.087600
C231	C23	0.863600	0.432100	0.103200
C241	C24	0.203300	0.530900	0.992000
O11	O1	0.679600	0.728700	0.648000
O21	O2	0.479100	0.858300	0.616500
O31	O3	0.071000	0.808600	0.568600
O41	O4	0.327600	0.648000	0.623300
O51	O5	0.095600	0.616500	0.525200
O61	O6	0.639600	0.568600	0.622800
O71	O7	0.950900	0.623300	0.728700
O81	O8	0.620800	0.525200	0.858300
O91	O9	0.262400	0.622800	0.808600
O101	O10	0.320400	0.271300	0.352000
O111	O11	0.520900	0.141700	0.383500
O121	O12	0.929000	0.191400	0.431400
O131	O13	0.672400	0.352000	0.376700
O141	O14	0.904400	0.383500	0.474800
O151	O15	0.360400	0.431400	0.377200
O161	O16	0.049100	0.376700	0.271300
O171	O17	0.379200	0.474800	0.141700
O181	O18	0.737600	0.377200	0.191400
