data_CAXXEG_clean_PM
_symmetry_space_group_name_H-M	'P1'
_cell_length_a	13.098900
_cell_length_b	18.444400
_cell_length_c	22.050400
_cell_angle_alpha	90.000000
_cell_angle_beta	103.202000
_cell_angle_gamma	90.000000
_symmetry_Int_Tables_number 1

loop_
_symmetry_equiv_pos_as_xyz
'x,y,z'

loop_
_atom_site_label
_atom_site_type_symbol
_atom_site_fract_x
_atom_site_fract_y
_atom_site_fract_z
Ni11	Ni1	0.715870	0.782740	0.875110
Ni21	Ni2	0.612610	0.140780	0.128780
Ni31	Ni3	0.514670	0.731540	0.784260
Ni41	Ni4	0.989160	0.389420	0.732870
Ni51	Ni5	0.784130	0.282740	0.624890
Ni61	Ni6	0.887390	0.640780	0.371220
Ni71	Ni7	0.985330	0.231540	0.715740
Ni81	Ni8	0.510840	0.889420	0.767130
Ni91	Ni9	0.284130	0.217260	0.124890
Ni101	Ni10	0.387390	0.859220	0.871220
Ni111	Ni11	0.485330	0.268460	0.215740
Ni121	Ni12	0.010840	0.610580	0.267130
Ni131	Ni13	0.215870	0.717260	0.375110
Ni141	Ni14	0.112610	0.359220	0.628780
Ni151	Ni15	0.014670	0.768460	0.284260
Ni161	Ni16	0.489160	0.110580	0.232870
H11	H1	0.997000	0.501200	0.828000
H21	H2	0.906600	0.598400	0.854800
H31	H3	0.663100	0.542100	0.714700
H41	H4	0.764300	0.449400	0.689400
H51	H5	0.811400	0.818700	0.330400
H61	H6	0.687000	0.909700	0.307300
H71	H7	0.852800	0.996400	0.191800
H81	H8	0.974300	0.904700	0.218800
H91	H9	0.504700	0.126400	0.987200
H101	H10	0.498700	0.044300	0.906300
H111	H11	0.760400	0.950600	0.009300
H121	H12	0.757800	0.034800	0.086600
H131	H13	0.886200	0.676700	0.945600
H141	H14	0.960600	0.640900	0.046900
H151	H15	0.797200	0.796900	0.109600
H161	H16	0.708600	0.818900	0.007600
H171	H17	0.825700	0.784400	0.768100
H181	H18	0.990000	0.788000	0.746000
H191	H19	0.103800	0.850500	0.922600
H201	H20	0.934900	0.857800	0.936500
H211	H21	0.636000	0.191000	0.234000
H221	H22	0.651000	0.810000	0.771000
H231	H23	0.503000	0.001200	0.672000
H241	H24	0.593400	0.098400	0.645200
H251	H25	0.836900	0.042100	0.785300
H261	H26	0.735700	0.949400	0.810600
H271	H27	0.688600	0.318700	0.169600
H281	H28	0.813000	0.409700	0.192700
H291	H29	0.647200	0.496400	0.308200
H301	H30	0.525700	0.404700	0.281200
H311	H31	0.995300	0.626400	0.512800
H321	H32	0.001300	0.544300	0.593700
H331	H33	0.739600	0.450600	0.490700
H341	H34	0.742200	0.534800	0.413400
H351	H35	0.613800	0.176700	0.554400
H361	H36	0.539400	0.140900	0.453100
H371	H37	0.702800	0.296900	0.390400
H381	H38	0.791400	0.318900	0.492400
H391	H39	0.674300	0.284400	0.731900
H401	H40	0.510000	0.288000	0.754000
H411	H41	0.396200	0.350500	0.577400
H421	H42	0.565100	0.357800	0.563500
H431	H43	0.864000	0.691000	0.266000
H441	H44	0.849000	0.310000	0.729000
H451	H45	0.003000	0.498800	0.172000
H461	H46	0.093400	0.401600	0.145200
H471	H47	0.336900	0.457900	0.285300
H481	H48	0.235700	0.550600	0.310600
H491	H49	0.188600	0.181300	0.669600
H501	H50	0.313000	0.090300	0.692700
H511	H51	0.147200	0.003600	0.808200
H521	H52	0.025700	0.095300	0.781200
H531	H53	0.495300	0.873600	0.012800
H541	H54	0.501300	0.955700	0.093700
H551	H55	0.239600	0.049400	0.990700
H561	H56	0.242200	0.965200	0.913400
H571	H57	0.113800	0.323300	0.054400
H581	H58	0.039400	0.359100	0.953100
H591	H59	0.202800	0.203100	0.890400
H601	H60	0.291400	0.181100	0.992400
H611	H61	0.174300	0.215600	0.231900
H621	H62	0.010000	0.212000	0.254000
H631	H63	0.896200	0.149500	0.077400
H641	H64	0.065100	0.142200	0.063500
H651	H65	0.364000	0.809000	0.766000
H661	H66	0.349000	0.190000	0.229000
H671	H67	0.497000	0.998800	0.328000
H681	H68	0.406600	0.901600	0.354800
H691	H69	0.163100	0.957900	0.214700
H701	H70	0.264300	0.050600	0.189400
H711	H71	0.311400	0.681300	0.830400
H721	H72	0.187000	0.590300	0.807300
H731	H73	0.352800	0.503600	0.691800
H741	H74	0.474300	0.595300	0.718800
H751	H75	0.004700	0.373600	0.487200
H761	H76	0.998700	0.455700	0.406300
H771	H77	0.260400	0.549400	0.509300
H781	H78	0.257800	0.465200	0.586600
H791	H79	0.386200	0.823300	0.445600
H801	H80	0.460600	0.859100	0.546900
H811	H81	0.297200	0.703100	0.609600
H821	H82	0.208600	0.681100	0.507600
H831	H83	0.325700	0.715600	0.268100
H841	H84	0.490000	0.712000	0.246000
H851	H85	0.603800	0.649500	0.422600
H861	H86	0.434900	0.642200	0.436500
H871	H87	0.136000	0.309000	0.734000
H881	H88	0.151000	0.690000	0.271000
C11	C1	0.928600	0.510900	0.803800
C21	C2	0.875000	0.568600	0.820530
C31	C3	0.774300	0.582800	0.786760
C41	C4	0.733100	0.535800	0.738050
C51	C5	0.793400	0.480100	0.723600
C61	C6	0.713000	0.646100	0.802900
C71	C7	0.819900	0.855400	0.301660
C81	C8	0.744600	0.909100	0.287830
C91	C9	0.754600	0.962300	0.244880
C101	C10	0.842300	0.959900	0.220300
C111	C11	0.914600	0.905200	0.236500
C121	C12	0.674200	0.021800	0.223800
C131	C13	0.555500	0.088700	0.992560
C141	C14	0.550900	0.039900	0.943840
C151	C15	0.624900	0.984300	0.951530
C161	C16	0.704700	0.984700	0.004370
C171	C17	0.702600	0.035500	0.050200
C181	C18	0.616100	0.924000	0.905140
C191	C19	0.866000	0.700600	0.979200
C201	C20	0.914200	0.681200	0.039900
C211	C21	0.816200	0.771100	0.076600
C221	C22	0.764700	0.785100	0.015600
C231	C23	0.896200	0.718900	0.089710
C241	C24	0.949400	0.705400	0.156910
C251	C25	0.517600	0.729800	0.922490
C261	C26	0.531500	0.666400	0.967900
C271	C27	0.573400	0.599400	0.944900
C281	C28	0.882000	0.799500	0.800900
C291	C29	0.982000	0.799900	0.786600
C301	C30	0.066200	0.817800	0.832800
C311	C31	0.047000	0.837900	0.889200
C321	C32	0.944400	0.839700	0.897800
C331	C33	0.177000	0.812200	0.822800
C341	C34	0.571400	0.010900	0.696200
C351	C35	0.625000	0.068600	0.679470
C361	C36	0.725700	0.082800	0.713240
C371	C37	0.766900	0.035800	0.761950
C381	C38	0.706600	0.980100	0.776400
C391	C39	0.787000	0.146100	0.697100
C401	C40	0.680100	0.355400	0.198340
C411	C41	0.755400	0.409100	0.212170
C421	C42	0.745400	0.462300	0.255120
C431	C43	0.657700	0.459900	0.279700
C441	C44	0.585400	0.405200	0.263500
C451	C45	0.825800	0.521800	0.276200
C461	C46	0.944500	0.588700	0.507440
C471	C47	0.949100	0.539900	0.556160
C481	C48	0.875100	0.484300	0.548470
C491	C49	0.795300	0.484700	0.495630
C501	C50	0.797400	0.535500	0.449800
C511	C51	0.883900	0.424000	0.594860
C521	C52	0.634000	0.200600	0.520800
C531	C53	0.585800	0.181200	0.460100
C541	C54	0.683800	0.271100	0.423400
C551	C55	0.735300	0.285100	0.484400
C561	C56	0.603800	0.218900	0.410290
C571	C57	0.550600	0.205400	0.343090
C581	C58	0.982400	0.229800	0.577510
C591	C59	0.968500	0.166400	0.532100
C601	C60	0.926600	0.099400	0.555100
C611	C61	0.618000	0.299500	0.699100
C621	C62	0.518000	0.299900	0.713400
C631	C63	0.433800	0.317800	0.667200
C641	C64	0.453000	0.337900	0.610800
C651	C65	0.555600	0.339700	0.602200
C661	C66	0.323000	0.312200	0.677200
C671	C67	0.071400	0.489100	0.196200
C681	C68	0.125000	0.431400	0.179470
C691	C69	0.225700	0.417200	0.213240
C701	C70	0.266900	0.464200	0.261950
C711	C71	0.206600	0.519900	0.276400
C721	C72	0.287000	0.353900	0.197100
C731	C73	0.180100	0.144600	0.698340
C741	C74	0.255400	0.090900	0.712170
C751	C75	0.245400	0.037700	0.755120
C761	C76	0.157700	0.040100	0.779700
C771	C77	0.085400	0.094800	0.763500
C781	C78	0.325800	0.978200	0.776200
C791	C79	0.444500	0.911300	0.007440
C801	C80	0.449100	0.960100	0.056160
C811	C81	0.375100	0.015700	0.048470
C821	C82	0.295300	0.015300	0.995630
C831	C83	0.297400	0.964500	0.949800
C841	C84	0.383900	0.076000	0.094860
C851	C85	0.134000	0.299400	0.020800
C861	C86	0.085800	0.318800	0.960100
C871	C87	0.183800	0.228900	0.923400
C881	C88	0.235300	0.214900	0.984400
C891	C89	0.103800	0.281100	0.910290
C901	C90	0.050600	0.294600	0.843090
C911	C91	0.482400	0.270200	0.077510
C921	C92	0.468500	0.333600	0.032100
C931	C93	0.426600	0.400600	0.055100
C941	C94	0.118000	0.200500	0.199100
C951	C95	0.018000	0.200100	0.213400
C961	C96	0.933800	0.182200	0.167200
C971	C97	0.953000	0.162100	0.110800
C981	C98	0.055600	0.160300	0.102200
C991	C99	0.823000	0.187800	0.177200
C1001	C100	0.428600	0.989100	0.303800
C1011	C101	0.375000	0.931400	0.320530
C1021	C102	0.274300	0.917200	0.286760
C1031	C103	0.233100	0.964200	0.238050
C1041	C104	0.293400	0.019900	0.223600
C1051	C105	0.213000	0.853900	0.302900
C1061	C106	0.319900	0.644600	0.801660
C1071	C107	0.244600	0.590900	0.787830
C1081	C108	0.254600	0.537700	0.744880
C1091	C109	0.342300	0.540100	0.720300
C1101	C110	0.414600	0.594800	0.736500
C1111	C111	0.174200	0.478200	0.723800
C1121	C112	0.055500	0.411300	0.492560
C1131	C113	0.050900	0.460100	0.443840
C1141	C114	0.124900	0.515700	0.451530
C1151	C115	0.204700	0.515300	0.504370
C1161	C116	0.202600	0.464500	0.550200
C1171	C117	0.116100	0.576000	0.405140
C1181	C118	0.366000	0.799400	0.479200
C1191	C119	0.414200	0.818800	0.539900
C1201	C120	0.316200	0.728900	0.576600
C1211	C121	0.264700	0.714900	0.515600
C1221	C122	0.396200	0.781100	0.589710
C1231	C123	0.449400	0.794600	0.656910
C1241	C124	0.017600	0.770200	0.422490
C1251	C125	0.031500	0.833600	0.467900
C1261	C126	0.073400	0.900600	0.444900
C1271	C127	0.382000	0.700500	0.300900
C1281	C128	0.482000	0.700100	0.286600
C1291	C129	0.566200	0.682200	0.332800
C1301	C130	0.547000	0.662100	0.389200
C1311	C131	0.444400	0.660300	0.397800
C1321	C132	0.677000	0.687800	0.322800
N11	N1	0.890400	0.467780	0.755510
N21	N2	0.903900	0.852110	0.276910
N31	N3	0.627000	0.085670	0.046350
N41	N4	0.792500	0.751600	0.966770
N51	N5	0.855000	0.817600	0.854800
N61	N6	0.609600	0.967780	0.744490
N71	N7	0.596100	0.352110	0.223090
N81	N8	0.873000	0.585670	0.453650
N91	N9	0.707500	0.251600	0.533230
N101	N10	0.645000	0.317600	0.645200
N111	N11	0.109600	0.532220	0.244490
N121	N12	0.096100	0.147890	0.723090
N131	N13	0.373000	0.914330	0.953650
N141	N14	0.207500	0.248400	0.033230
N151	N15	0.145000	0.182400	0.145200
N161	N16	0.390400	0.032220	0.255510
N171	N17	0.403900	0.647890	0.776910
N181	N18	0.127000	0.414330	0.546350
N191	N19	0.292500	0.748400	0.466770
N201	N20	0.355000	0.682400	0.354800
O11	O1	0.585400	0.186470	0.206960
O21	O2	0.624600	0.811770	0.790950
O31	O3	0.621100	0.654200	0.771800
O41	O4	0.760600	0.685250	0.846770
O51	O5	0.684900	0.054420	0.175790
O61	O6	0.607800	0.033040	0.254750
O71	O7	0.968400	0.761450	0.189500
O81	O8	0.968200	0.641190	0.173910
O91	O9	0.531500	0.920140	0.862990
O101	O10	0.692000	0.881550	0.912840
O111	O11	0.455200	0.778380	0.928620
O121	O12	0.572500	0.729440	0.881910
O131	O13	0.188700	0.807800	0.769300
O141	O14	0.248300	0.813700	0.871200
O151	O15	0.914600	0.686470	0.293040
O161	O16	0.875400	0.311770	0.709050
O171	O17	0.878900	0.154200	0.728200
O181	O18	0.739400	0.185250	0.653230
O191	O19	0.815100	0.554420	0.324210
O201	O20	0.892200	0.533040	0.245250
O211	O21	0.531600	0.261450	0.310500
O221	O22	0.531800	0.141190	0.326090
O231	O23	0.968500	0.420140	0.637010
O241	O24	0.808000	0.381550	0.587160
O251	O25	0.044800	0.278380	0.571380
O261	O26	0.927500	0.229440	0.618090
O271	O27	0.311300	0.307800	0.730700
O281	O28	0.251700	0.313700	0.628800
O291	O29	0.414600	0.813530	0.793040
O301	O30	0.375400	0.188230	0.209050
O311	O31	0.378900	0.345800	0.228200
O321	O32	0.239400	0.314750	0.153230
O331	O33	0.315100	0.945580	0.824210
O341	O34	0.392200	0.966960	0.745250
O351	O35	0.031600	0.238550	0.810500
O361	O36	0.031800	0.358810	0.826090
O371	O37	0.468500	0.079860	0.137010
O381	O38	0.308000	0.118450	0.087160
O391	O39	0.544800	0.221620	0.071380
O401	O40	0.427500	0.270560	0.118090
O411	O41	0.811300	0.192200	0.230700
O421	O42	0.751700	0.186300	0.128800
O431	O43	0.085400	0.313530	0.706960
O441	O44	0.124600	0.688230	0.290950
O451	O45	0.121100	0.845800	0.271800
O461	O46	0.260600	0.814750	0.346770
O471	O47	0.184900	0.445580	0.675790
O481	O48	0.107800	0.466960	0.754750
O491	O49	0.468400	0.738550	0.689500
O501	O50	0.468200	0.858810	0.673910
O511	O51	0.031500	0.579860	0.362990
O521	O52	0.192000	0.618450	0.412840
O531	O53	0.955200	0.721620	0.428620
O541	O54	0.072500	0.770560	0.381910
O551	O55	0.688700	0.692200	0.269300
O561	O56	0.748300	0.686300	0.371200
