data_CAXZOS_clean_PM
_symmetry_space_group_name_H-M	'P1'
_cell_length_a	25.332300
_cell_length_b	25.920100
_cell_length_c	25.920100
_cell_angle_alpha	76.184900
_cell_angle_beta	60.747400
_cell_angle_gamma	60.747400
_symmetry_Int_Tables_number 1

loop_
_symmetry_equiv_pos_as_xyz
'x,y,z'

loop_
_atom_site_label
_atom_site_type_symbol
_atom_site_fract_x
_atom_site_fract_y
_atom_site_fract_z
Co11	Co1	0.829040	0.771530	0.739450
Co21	Co2	0.333730	0.769900	0.733200
Co31	Co3	0.850410	0.729530	0.237010
Co41	Co4	0.312940	0.271070	0.762770
Co51	Co5	0.340020	0.228470	0.260550
Co61	Co6	0.836830	0.230100	0.266800
Co71	Co7	0.816950	0.270470	0.762990
Co81	Co8	0.346780	0.728930	0.237230
H11	H1	0.725900	0.127600	0.786800
H21	H2	0.096100	0.395100	0.805500
H31	H3	0.930100	0.894600	0.683400
H41	H4	0.424000	0.073500	0.667700
H51	H5	0.418500	0.153600	0.692200
H61	H6	0.426100	0.985300	0.693300
H71	H7	0.694700	0.257700	0.308700
H81	H8	0.057200	0.634200	0.733000
H91	H9	0.433500	0.893900	0.682500
H101	H10	0.917700	0.075900	0.669700
H111	H11	0.909900	0.368500	0.286900
H121	H12	0.595200	0.276900	0.395300
H131	H13	0.921000	0.987600	0.697400
H141	H14	0.912600	0.766300	0.355100
H151	H15	0.824100	0.333300	0.185900
H161	H16	0.916000	0.572500	0.833900
H171	H17	0.538200	0.780300	0.102700
H181	H18	0.002400	0.481000	0.815800
H191	H19	0.767900	0.726900	0.695100
H201	H20	0.782900	0.693200	0.445400
H211	H21	0.808800	0.515200	0.182800
H221	H22	0.802300	0.602700	0.194100
H231	H23	0.154000	0.728500	0.859500
H241	H24	0.784400	0.265200	0.392600
H251	H25	0.553600	0.736700	0.943300
H261	H26	0.954600	0.521000	0.239600
H271	H27	0.723900	0.215000	0.805000
H281	H28	0.223400	0.213700	0.794900
H291	H29	0.919600	0.150500	0.695700
H301	H30	0.831400	0.423800	0.166600
H311	H31	0.835600	0.662100	0.814300
H321	H32	0.961700	0.433000	0.230400
H331	H33	0.239300	0.978100	0.705500
H341	H34	0.732300	0.978200	0.721200
H351	H35	0.784800	0.694900	0.535700
H361	H36	0.173200	0.832100	0.936300
H371	H37	0.195900	0.481800	0.793600
H381	H38	0.234700	0.069000	0.721800
H391	H39	0.448300	0.773000	0.019000
H401	H40	0.530800	0.228500	0.643700
H411	H41	0.584700	0.822100	0.027700
H421	H42	0.726600	0.069000	0.736600
H431	H43	0.093100	0.814800	0.024400
H441	H44	0.908100	0.775600	0.448400
H451	H45	0.686700	0.295400	0.479000
H461	H46	0.898700	0.286600	0.298000
H471	H47	0.671400	0.832800	0.938200
H481	H48	0.063400	0.725300	0.943300
H491	H49	0.960300	0.763800	0.189400
H501	H50	0.880800	0.740600	0.105400
H511	H51	0.623000	0.237100	0.554900
H521	H52	0.921600	0.768800	0.604600
H531	H53	0.045900	0.775600	0.102800
H541	H54	0.969400	0.749800	0.015000
H551	H55	0.914300	0.774200	0.519000
H561	H56	0.463400	0.750400	0.191800
H571	H57	0.365700	0.761000	0.105800
H581	H58	0.414600	0.335100	0.558700
H591	H59	0.637000	0.748600	0.855600
H601	H60	0.226900	0.127300	0.774700
H611	H61	0.107700	0.570800	0.795000
H621	H62	0.502700	0.336000	0.478000
H631	H63	0.976700	0.718100	0.720500
H641	H64	0.771100	0.719600	0.607800
H651	H65	0.640300	0.872400	0.213200
H661	H66	0.296700	0.604900	0.194500
H671	H67	0.508100	0.105400	0.316600
H681	H68	0.165200	0.926500	0.332300
H691	H69	0.264300	0.846400	0.307800
H701	H70	0.104700	0.014700	0.306700
H711	H71	0.261100	0.742300	0.691300
H721	H72	0.424400	0.365800	0.267000
H731	H73	0.009900	0.106100	0.317500
H741	H74	0.663300	0.924100	0.330300
H751	H75	0.565300	0.631500	0.713100
H761	H76	0.267400	0.723100	0.604700
H771	H77	0.606000	0.012400	0.302600
H781	H78	0.034000	0.233700	0.644900
H791	H79	0.343300	0.666700	0.814100
H801	H80	0.322400	0.427500	0.166100
H811	H81	0.421200	0.219700	0.897300
H821	H82	0.299200	0.519000	0.184200
H831	H83	0.189900	0.273100	0.304900
H841	H84	0.921500	0.306800	0.554600
H851	H85	0.506800	0.484800	0.817200
H861	H86	0.599100	0.397300	0.805900
H871	H87	0.742000	0.271500	0.140500
H881	H88	0.442200	0.734800	0.607400
H891	H89	0.233600	0.263300	0.056700
H901	H90	0.715200	0.479000	0.760400
H911	H91	0.743900	0.785000	0.195000
H921	H92	0.232000	0.786300	0.205100
H931	H93	0.765800	0.849500	0.304300
H941	H94	0.421800	0.576200	0.833400
H951	H95	0.312000	0.337900	0.185700
H961	H96	0.625100	0.567000	0.769600
H971	H97	0.922900	0.021900	0.294500
H981	H98	0.431700	0.021800	0.278800
H991	H99	0.015400	0.305100	0.464300
H1001	H100	0.941600	0.167900	0.063700
H1011	H101	0.471300	0.518200	0.206400
H1021	H102	0.025500	0.931000	0.278200
H1031	H103	0.240300	0.227000	0.981000
H1041	H104	0.403000	0.771500	0.356300
H1051	H105	0.434500	0.177900	0.972300
H1061	H106	0.532200	0.931000	0.263400
H1071	H107	0.932300	0.185200	0.975600
H1081	H108	0.132100	0.224400	0.551600
H1091	H109	0.461100	0.704600	0.521000
H1101	H110	0.483300	0.713400	0.702000
H1111	H111	0.442400	0.167200	0.061800
H1121	H112	0.732000	0.274700	0.056700
H1131	H113	0.913500	0.236200	0.810600
H1141	H114	0.726800	0.259400	0.894600
H1151	H115	0.415000	0.762900	0.445100
H1161	H116	0.295000	0.231200	0.395400
H1171	H117	0.924300	0.224400	0.897200
H1181	H118	0.734200	0.250200	0.985000
H1191	H119	0.207500	0.225800	0.481000
H1201	H120	0.405600	0.249600	0.808200
H1211	H121	0.232500	0.239000	0.894200
H1221	H122	0.308400	0.664900	0.441300
H1231	H123	0.241200	0.251400	0.144400
H1241	H124	0.128900	0.872700	0.225300
H1251	H125	0.473500	0.429200	0.205000
H1261	H126	0.316700	0.664000	0.522000
H1271	H127	0.415300	0.281900	0.279500
H1281	H128	0.098500	0.280400	0.392200
C11	C1	0.850600	0.725500	0.392100
C21	C2	0.845400	0.729600	0.334000
C31	C3	0.233000	0.779100	0.834900
C41	C4	0.828100	0.927500	0.709100
C51	C5	0.668200	0.780900	0.889900
C61	C6	0.765000	0.134200	0.765200
C71	C7	0.403800	0.278700	0.671300
C81	C8	0.097400	0.431400	0.804000
C91	C9	0.630400	0.280000	0.453200
C101	C10	0.728900	0.780500	0.837300
C111	C11	0.502900	0.774700	0.054500
C121	C12	0.462100	0.284300	0.609900
C131	C13	0.888200	0.928900	0.695700
C141	C14	0.333500	0.925600	0.700000
C151	C15	0.177600	0.778400	0.886200
C161	C16	0.382000	0.101900	0.693700
C171	C17	0.155100	0.429000	0.799600
C181	C18	0.377600	0.150400	0.707200
C191	C19	0.995500	0.591400	0.787000
C201	C20	0.387800	0.984300	0.696100
C211	C21	0.216500	0.369500	0.790900
C221	C22	0.331300	0.036300	0.704500
C231	C23	0.694200	0.262400	0.344200
C241	C24	0.012500	0.638400	0.750000
C251	C25	0.392100	0.928700	0.691300
C261	C26	0.015300	0.764500	0.050500
C271	C27	0.324900	0.092600	0.717800
C281	C28	0.877400	0.103600	0.698200
C291	C29	0.890200	0.364100	0.266100
C301	C30	0.633600	0.273600	0.396600
C311	C31	0.882700	0.985300	0.701900
C321	C32	0.873400	0.465400	0.219000
C331	C33	0.887500	0.751500	0.390900
C341	C34	0.824700	0.873000	0.714800
C351	C35	0.838200	0.343200	0.208400
C361	C36	0.929800	0.601400	0.809200
C371	C37	0.852800	0.737400	0.552000
C381	C38	0.072000	0.771200	0.991600
C391	C39	0.505600	0.772400	0.102200
C401	C40	0.558700	0.783300	0.993900
C411	C41	0.823100	0.036200	0.714000
C421	C42	0.043500	0.481200	0.806400
C431	C43	0.800900	0.734300	0.659700
C441	C44	0.811300	0.707200	0.445400
C451	C45	0.835200	0.516100	0.198500
C461	C46	0.835400	0.566800	0.200800
C471	C47	0.140200	0.748300	0.893500
C481	C48	0.745400	0.268300	0.392700
C491	C49	0.329400	0.872300	0.703700
C501	C50	0.576900	0.756700	0.942500
C511	C51	0.925400	0.519200	0.228000
C521	C52	0.763500	0.186500	0.776900
C531	C53	0.264400	0.185200	0.767600
C541	C54	0.877700	0.149100	0.711300
C551	C55	0.050200	0.533500	0.794100
C561	C56	0.844300	0.397100	0.195100
C571	C57	0.881500	0.654700	0.795900
C581	C58	0.869800	0.410100	0.225300
C591	C59	0.926200	0.468600	0.226600
C601	C60	0.573000	0.284600	0.507800
C611	C61	0.276800	0.977900	0.705700
C621	C62	0.770800	0.978800	0.718600
C631	C63	0.811400	0.708100	0.499700
C641	C64	0.154800	0.807400	0.937000
C651	C65	0.157000	0.482400	0.795800
C661	C66	0.275600	0.033900	0.712100
C671	C67	0.450600	0.770100	0.055100
C681	C68	0.524700	0.251500	0.610700
C691	C69	0.595300	0.807100	0.992100
C701	C70	0.768100	0.034300	0.724700
C711	C71	0.104500	0.799200	0.988800
C721	C72	0.886200	0.755300	0.446900
C731	C73	0.820300	0.094500	0.724500
C741	C74	0.687500	0.283200	0.446800
C751	C75	0.881100	0.316300	0.273500
C761	C76	0.649200	0.811200	0.940000
C771	C77	0.087500	0.744500	0.942500
C781	C78	0.961800	0.761300	0.152700
C791	C79	0.579200	0.256000	0.556400
C801	C80	0.888000	0.760200	0.607000
C811	C81	0.013200	0.768400	0.101400
C821	C82	0.968200	0.753100	0.051300
C831	C83	0.888400	0.759200	0.553800
C841	C84	0.458500	0.757700	0.156300
C851	C85	0.402800	0.761900	0.105500
C861	C86	0.457600	0.314200	0.558600
C871	C87	0.854800	0.730400	0.496000
C881	C88	0.628900	0.760900	0.891500
C891	C89	0.266400	0.133300	0.755900
C901	C90	0.106700	0.534600	0.795000
C911	C91	0.508900	0.314500	0.511500
C921	C92	0.965100	0.686700	0.740300
C931	C93	0.803100	0.729000	0.607400
C941	C94	0.881900	0.568900	0.212500
C951	C95	0.875700	0.632500	0.214900
C961	C96	0.918000	0.746400	0.104200
C971	C97	0.968200	0.274500	0.607900
C981	C98	0.909000	0.270400	0.666000
C991	C99	0.847000	0.220900	0.165100
C1001	C100	0.464700	0.072500	0.290900
C1011	C101	0.339000	0.219100	0.110100
C1021	C102	0.664400	0.865800	0.234800
C1031	C103	0.353800	0.721300	0.328700
C1041	C104	0.332800	0.568600	0.196000
C1051	C105	0.363600	0.720000	0.546800
C1061	C106	0.346700	0.219500	0.162700
C1071	C107	0.332100	0.225300	0.945500
C1081	C108	0.356300	0.715700	0.390100
C1091	C109	0.512800	0.071100	0.304300
C1101	C110	0.959100	0.074400	0.300000
C1111	C111	0.842200	0.221600	0.113800
C1121	C112	0.177600	0.898100	0.306300
C1131	C113	0.383700	0.571000	0.200400
C1141	C114	0.235200	0.849600	0.292800
C1151	C115	0.373900	0.408600	0.213000
C1161	C116	0.068200	0.015700	0.303900
C1171	C117	0.376900	0.630500	0.209100
C1181	C118	0.072100	0.963700	0.295500
C1191	C119	0.300800	0.737600	0.655800
C1201	C120	0.400900	0.361600	0.250000
C1211	C121	0.012100	0.071300	0.308700
C1221	C122	0.830300	0.235500	0.949500
C1231	C123	0.135300	0.907400	0.282200
C1241	C124	0.679200	0.896400	0.301800
C1251	C125	0.520400	0.635900	0.733900
C1261	C126	0.303800	0.726400	0.603400
C1271	C127	0.569900	0.014700	0.298100
C1281	C128	0.557800	0.534600	0.781000
C1291	C129	0.029900	0.248500	0.609100
C1301	C130	0.412500	0.127000	0.285200
C1311	C131	0.389800	0.656800	0.791600
C1321	C132	0.340400	0.398600	0.190800
C1331	C133	0.142200	0.262600	0.448000
C1341	C134	0.834800	0.228800	0.008400
C1351	C135	0.380200	0.227600	0.897800
C1361	C136	0.335900	0.216700	0.006100
C1371	C137	0.573300	0.963800	0.286000
C1381	C138	0.331100	0.518800	0.193600
C1391	C139	0.194900	0.265700	0.340300
C1401	C140	0.963900	0.292800	0.554600
C1411	C141	0.549800	0.483900	0.801500
C1421	C142	0.603000	0.433200	0.799200
C1431	C143	0.782000	0.251700	0.106500
C1441	C144	0.406400	0.731700	0.607300
C1451	C145	0.905400	0.127700	0.296300
C1461	C146	0.276100	0.243300	0.057500
C1471	C147	0.672600	0.480800	0.772000
C1481	C148	0.726900	0.813500	0.223100
C1491	C149	0.217200	0.814800	0.232400
C1501	C150	0.738100	0.850900	0.288700
C1511	C151	0.377800	0.466500	0.205900
C1521	C152	0.436500	0.602900	0.804900
C1531	C153	0.332100	0.345300	0.204100
C1541	C154	0.505200	0.589900	0.774700
C1551	C155	0.621400	0.531400	0.773400
C1561	C156	0.365400	0.715400	0.492200
C1571	C157	0.960400	0.022100	0.294300
C1581	C158	0.468200	0.021200	0.281400
C1591	C159	0.019200	0.291900	0.500300
C1601	C160	0.899200	0.192600	0.063000
C1611	C161	0.435200	0.517600	0.204200
C1621	C162	0.021600	0.966100	0.287900
C1631	C163	0.275800	0.229900	0.944900
C1641	C164	0.386900	0.748500	0.389300
C1651	C165	0.394500	0.192900	0.007900
C1661	C166	0.527100	0.965700	0.275300
C1671	C167	0.892500	0.200800	0.011200
C1681	C168	0.088400	0.244700	0.553100
C1691	C169	0.639300	0.905500	0.275500
C1701	C170	0.417500	0.716800	0.553200
C1711	C171	0.470900	0.683700	0.726500
C1721	C172	0.400400	0.188800	0.060000
C1731	C173	0.774500	0.255500	0.057500
C1741	C174	0.875800	0.238700	0.847300
C1751	C175	0.391600	0.744000	0.443600
C1761	C176	0.255200	0.239800	0.393000
C1771	C177	0.883000	0.231600	0.898600
C1781	C178	0.772600	0.246900	0.948700
C1791	C179	0.201400	0.240800	0.446200
C1801	C180	0.372500	0.242300	0.843700
C1811	C181	0.270200	0.238100	0.894500
C1821	C182	0.330400	0.685800	0.441400
C1831	C183	0.081200	0.269600	0.504000
C1841	C184	0.281300	0.239100	0.108500
C1851	C185	0.155600	0.866700	0.244100
C1861	C186	0.436300	0.465400	0.205000
C1871	C187	0.334900	0.685500	0.488500
C1881	C188	0.392100	0.313300	0.259700
C1891	C189	0.139500	0.271000	0.392600
C1901	C190	0.663300	0.431100	0.787500
C1911	C191	0.723100	0.367500	0.785100
C1921	C192	0.768600	0.253600	0.895800
N11	N1	0.321500	0.195000	0.739600
N21	N2	0.844000	0.750000	0.664800
N31	N3	0.822600	0.193400	0.745200
N41	N4	0.752100	0.257900	0.340300
N51	N5	0.851600	0.304200	0.252400
N61	N6	0.901900	0.696300	0.755500
N71	N7	0.915800	0.751600	0.154000
N81	N8	0.409100	0.754800	0.155200
N91	N9	0.256100	0.805000	0.260400
N101	N10	0.258800	0.250000	0.335200
N111	N11	0.761200	0.806600	0.254800
N121	N12	0.350300	0.742100	0.659700
N131	N13	0.408200	0.695800	0.747600
N141	N14	0.353700	0.303700	0.244500
N151	N15	0.821400	0.248400	0.846000
N161	N16	0.319100	0.245200	0.844800
O11	O1	0.806900	0.709800	0.337800
O21	O2	0.347000	0.302700	0.664500
O31	O3	0.767900	0.798400	0.834000
O41	O4	0.273700	0.797100	0.829900
O51	O5	0.210800	0.326000	0.791200
O61	O6	0.380100	0.821500	0.709300
O71	O7	0.744900	0.754900	0.787700
O81	O8	0.411900	0.255200	0.709000
O91	O9	0.876700	0.823800	0.714200
O101	O10	0.250200	0.756100	0.782900
O111	O11	0.877900	0.746900	0.291300
O121	O12	0.267700	0.367500	0.786900
O131	O13	0.772200	0.869900	0.723900
O141	O14	0.275900	0.869500	0.712500
O151	O15	0.831400	0.675100	0.209300
O161	O16	0.918700	0.634900	0.222500
O171	O17	0.854500	0.290200	0.662200
O181	O18	0.314200	0.697300	0.335500
O191	O19	0.400300	0.201600	0.166000
O201	O20	0.900700	0.202900	0.170100
O211	O21	0.328000	0.674000	0.208800
O221	O22	0.910900	0.178500	0.290700
O231	O23	0.287500	0.245100	0.212300
O241	O24	0.376100	0.744800	0.291000
O251	O25	0.414700	0.176200	0.285800
O261	O26	0.789200	0.243900	0.217100
O271	O27	0.916100	0.253100	0.708700
O281	O28	0.422100	0.632500	0.213100
O291	O29	0.366000	0.130100	0.276100
O301	O30	0.857900	0.130500	0.287500
O311	O31	0.715800	0.324900	0.790700
O321	O32	0.776100	0.365100	0.777500
Co91	Co9	0.568490	0.260550	0.771530
Co101	Co10	0.066930	0.266800	0.769900
Co111	Co11	0.087420	0.762990	0.729530
Co121	Co12	0.075710	0.237230	0.271070
Co131	Co13	0.600570	0.739450	0.228470
Co141	Co14	0.103630	0.733200	0.230100
Co151	Co15	0.579940	0.237010	0.270470
Co161	Co16	0.584010	0.762770	0.728930
H1291	H129	0.512700	0.213200	0.127600
H1301	H130	0.901600	0.194500	0.395100
H1311	H131	0.613500	0.316600	0.894600
H1321	H132	0.091700	0.332300	0.073500
H1331	H133	0.110700	0.307800	0.153600
H1341	H134	0.119400	0.306700	0.985300
H1351	H135	0.003400	0.691300	0.257700
H1361	H136	0.790200	0.267000	0.634200
H1371	H137	0.116000	0.317500	0.893900
H1381	H138	0.587400	0.330300	0.075900
H1391	H139	0.196800	0.713100	0.368500
H1401	H140	0.990500	0.604700	0.276900
H1411	H141	0.618400	0.302600	0.987600
H1421	H142	0.267700	0.644900	0.766300
H1431	H143	0.010000	0.814100	0.333300
H1441	H144	0.749900	0.166100	0.572500
H1451	H145	0.640900	0.897300	0.780300
H1461	H146	0.818200	0.184200	0.481000
H1471	H147	0.463000	0.304900	0.726900
H1481	H148	0.228300	0.554600	0.693200
H1491	H149	0.991600	0.817200	0.515200
H1501	H150	0.996400	0.805900	0.602700
H1511	H151	0.013500	0.140500	0.728500
H1521	H152	0.177000	0.607400	0.265200
H1531	H153	0.496900	0.056700	0.736700
H1541	H154	0.194200	0.760400	0.521000
H1551	H155	0.528900	0.195000	0.215000
H1561	H156	0.018300	0.205100	0.213700
H1571	H157	0.615300	0.304300	0.150500
H1581	H158	0.998000	0.833400	0.423800
H1591	H159	0.649900	0.185700	0.662100
H1601	H160	0.192100	0.769600	0.433000
H1611	H161	0.944800	0.294500	0.978100
H1621	H162	0.453500	0.278800	0.978200
H1631	H163	0.320500	0.464300	0.694900
H1641	H164	0.109500	0.063700	0.832100
H1651	H165	0.989500	0.206400	0.481800
H1661	H166	0.956500	0.278200	0.069000
H1671	H167	0.467300	0.981000	0.773000
H1681	H168	0.174500	0.356300	0.228500
H1691	H169	0.612400	0.972300	0.822100
H1701	H170	0.463200	0.263400	0.069000
H1711	H171	0.117500	0.975600	0.814800
H1721	H172	0.356500	0.551600	0.775600
H1731	H173	0.165700	0.521000	0.295400
H1741	H174	0.196700	0.702000	0.286600
H1751	H175	0.609600	0.061800	0.832800
H1761	H176	0.006700	0.056700	0.725300
H1771	H177	0.149700	0.810600	0.763800
H1781	H178	0.986200	0.894600	0.740600
H1791	H179	0.177900	0.445100	0.237100
H1801	H180	0.526200	0.395400	0.768800
H1811	H181	0.148700	0.897200	0.775600
H1821	H182	0.984400	0.985000	0.749800
H1831	H183	0.433300	0.481000	0.774200
H1841	H184	0.655200	0.808200	0.750400
H1851	H185	0.471500	0.894200	0.761000
H1861	H186	0.973300	0.441300	0.335100
H1871	H187	0.492600	0.144400	0.748600
H1881	H188	0.001600	0.225300	0.127300
H1891	H189	0.902700	0.205000	0.570800
H1901	H190	0.980700	0.522000	0.336000
H1911	H191	0.697200	0.279500	0.718100
H1921	H192	0.378900	0.392200	0.719600
H1931	H193	0.853500	0.786800	0.872400
H1941	H194	0.491200	0.805500	0.604900
H1951	H195	0.824700	0.683400	0.105400
H1961	H196	0.497500	0.667700	0.926500
H1971	H197	0.572100	0.692200	0.846400
H1981	H198	0.411400	0.693300	0.014700
H1991	H199	0.952400	0.308700	0.742300
H2001	H200	0.691400	0.733000	0.365800
H2011	H201	0.327400	0.682500	0.106100
H2021	H202	0.993600	0.669700	0.924100
H2031	H203	0.278400	0.286900	0.631500
H2041	H204	0.872100	0.395300	0.723100
H2051	H205	0.908600	0.697400	0.012400
H2061	H206	0.678900	0.355100	0.233700
H2071	H207	0.157400	0.185900	0.666700
H2081	H208	0.488500	0.833900	0.427500
H2091	H209	0.318500	0.102700	0.219700
H2101	H210	0.483400	0.815800	0.519000
H2111	H211	0.494800	0.695100	0.273100
H2121	H212	0.476100	0.445400	0.306800
H2131	H213	0.324000	0.182800	0.484800
H2141	H214	0.405000	0.194100	0.397300
H2151	H215	0.882500	0.859500	0.271500
H2161	H216	0.049600	0.392600	0.734800
H2171	H217	0.290300	0.943300	0.263300
H2181	H218	0.475600	0.239600	0.479000
H2191	H219	0.938900	0.805000	0.785000
H2201	H220	0.437100	0.794900	0.786300
H2211	H221	0.070100	0.695700	0.849500
H2221	H222	0.255200	0.166600	0.576200
H2231	H223	0.497700	0.814300	0.337900
H2241	H224	0.394700	0.230400	0.567000
H2251	H225	0.217400	0.705500	0.021900
H2261	H226	0.710500	0.721200	0.021800
H2271	H227	0.479700	0.535700	0.305100
H2281	H228	0.005300	0.936300	0.167900
H2291	H229	0.677700	0.793600	0.518200
H2301	H230	0.303700	0.721800	0.931000
H2311	H231	0.221300	0.019000	0.227000
H2321	H232	0.759300	0.643700	0.771500
H2331	H233	0.406800	0.027700	0.177900
H2341	H234	0.795600	0.736600	0.931000
H2351	H235	0.907900	0.024400	0.185200
H2361	H236	0.683700	0.448400	0.224400
H2371	H237	0.982100	0.479000	0.704600
H2381	H238	0.185300	0.298000	0.713400
H2391	H239	0.504200	0.938200	0.167200
H2401	H240	0.788700	0.943300	0.274700
H2411	H241	0.724100	0.189400	0.236200
H2421	H242	0.621400	0.105400	0.259400
H2431	H243	0.860100	0.554900	0.762900
H2441	H244	0.690400	0.604600	0.231200
H2451	H245	0.821500	0.102800	0.224400
H2461	H246	0.719200	0.015000	0.250200
H2471	H247	0.688500	0.519000	0.225800
H2481	H248	0.213800	0.191800	0.249600
H2491	H249	0.126700	0.105800	0.239000
H2501	H250	0.749700	0.558700	0.664900
H2511	H251	0.385600	0.855600	0.251400
H2521	H252	0.354200	0.774700	0.872700
H2531	H253	0.678500	0.795000	0.429200
H2541	H254	0.838700	0.478000	0.664000
H2551	H255	0.694800	0.720500	0.281900
H2561	H256	0.490700	0.607800	0.280400
C1931	C193	0.242700	0.607900	0.725500
C1941	C194	0.179400	0.666000	0.729600
C1951	C195	0.067900	0.165100	0.779100
C1961	C196	0.537200	0.290900	0.927500
C1971	C197	0.558100	0.110100	0.780900
C1981	C198	0.530200	0.234800	0.134200
C1991	C199	0.075100	0.328700	0.278700
C2001	C200	0.901400	0.196000	0.431400
C2011	C201	0.083600	0.546800	0.280000
C2021	C202	0.566200	0.162700	0.780500
C2031	C203	0.557400	0.945500	0.774700
C2041	C204	0.072000	0.390100	0.284300
C2051	C205	0.583900	0.304300	0.928900
C2061	C206	0.033500	0.300000	0.925600
C2071	C207	0.063800	0.113800	0.778400
C2081	C208	0.075700	0.306300	0.101900
C2091	C209	0.954700	0.200400	0.429000
C2101	C210	0.084800	0.292800	0.150400
C2111	C211	0.782500	0.213000	0.591400
C2121	C212	0.083900	0.303900	0.984300
C2131	C213	0.007400	0.209100	0.369500
C2141	C214	0.035800	0.295500	0.036300
C2151	C215	0.038400	0.655800	0.262400
C2161	C216	0.762500	0.250000	0.638400
C2171	C217	0.083400	0.308700	0.928700
C2181	C218	0.065800	0.949500	0.764500
C2191	C219	0.042700	0.282200	0.092600
C2201	C220	0.575600	0.301800	0.103600
C2211	C221	0.156300	0.733900	0.364100
C2221	C222	0.030200	0.603400	0.273600
C2231	C223	0.584600	0.298100	0.985300
C2241	C224	0.092400	0.781000	0.465400
C2251	C225	0.278400	0.609100	0.751500
C2261	C226	0.539500	0.285200	0.873000
C2271	C227	0.046600	0.791600	0.343200
C2281	C228	0.739000	0.190800	0.601400
C2291	C229	0.404800	0.448000	0.737400
C2301	C230	0.063600	0.008400	0.771200
C2311	C231	0.607800	0.897800	0.772400
C2321	C232	0.552600	0.006100	0.783300
C2331	C233	0.537100	0.286000	0.036200
C2341	C234	0.849900	0.193600	0.481200
C2351	C235	0.460600	0.340300	0.734300
C2361	C236	0.256700	0.554600	0.707200
C2371	C237	0.033700	0.801500	0.516100
C2381	C238	0.036200	0.799200	0.566800
C2391	C239	0.033700	0.106500	0.748300
C2401	C240	0.138100	0.607300	0.268300
C2411	C241	0.033100	0.296300	0.872300
C2421	C242	0.519400	0.057500	0.756700
C2431	C243	0.153400	0.772000	0.519200
C2441	C244	0.540400	0.223100	0.186500
C2451	C245	0.032000	0.232400	0.185200
C2461	C246	0.589000	0.288700	0.149100
C2471	C247	0.844300	0.205900	0.533500
C2481	C248	0.039400	0.804900	0.397100
C2491	C249	0.677400	0.204100	0.654700
C2501	C250	0.095100	0.774700	0.410100
C2511	C251	0.152800	0.773400	0.468600
C2521	C252	0.080800	0.492200	0.284600
C2531	C253	0.982500	0.294300	0.977900
C2541	C254	0.489400	0.281400	0.978800
C2551	C255	0.311100	0.500300	0.708100
C2561	C256	0.091800	0.063000	0.807400
C2571	C257	0.952800	0.204200	0.482400
C2581	C258	0.987700	0.287900	0.033900
C2591	C259	0.505700	0.944900	0.770100
C2601	C260	0.135400	0.389300	0.251500
C2611	C261	0.587400	0.007900	0.807100
C2621	C262	0.492800	0.275300	0.034300
C2631	C263	0.093300	0.011200	0.799200
C2641	C264	0.333100	0.553100	0.755300
C2651	C265	0.544800	0.275500	0.094500
C2661	C266	0.134300	0.553200	0.283200
C2671	C267	0.154600	0.726500	0.316300
C2681	C268	0.589200	0.060000	0.811200
C2691	C269	0.030000	0.057500	0.744500
C2701	C270	0.114500	0.847300	0.761300
C2711	C271	0.135600	0.443600	0.256000
C2721	C272	0.495000	0.393000	0.760200
C2731	C273	0.114600	0.898600	0.768400
C2741	C274	0.019500	0.948700	0.753100
C2751	C275	0.442200	0.446200	0.759200
C2761	C276	0.614800	0.843700	0.757700
C2771	C277	0.508300	0.894500	0.761900
C2781	C278	0.016200	0.441400	0.314200
C2791	C279	0.350800	0.504000	0.730400
C2801	C280	0.520400	0.108500	0.760900
C2811	C281	0.022300	0.244100	0.133300
C2821	C282	0.901700	0.205000	0.534600
C2831	C283	0.020400	0.488500	0.314500
C2841	C284	0.705400	0.259700	0.686700
C2851	C285	0.410500	0.392600	0.729000
C2861	C286	0.094400	0.787500	0.568900
C2871	C287	0.090600	0.785100	0.632500
C2881	C288	0.022200	0.895800	0.746400
C2891	C289	0.576100	0.392100	0.274500
C2901	C290	0.575000	0.334000	0.270400
C2911	C291	0.012100	0.834900	0.220900
C2921	C292	0.755600	0.709100	0.072500
C2931	C293	0.449100	0.889900	0.219100
C2941	C294	0.899200	0.765200	0.865800
C2951	C295	0.682500	0.671300	0.721300
C2961	C296	0.528800	0.804000	0.568600
C2971	C297	0.910400	0.453200	0.720000
C2981	C298	0.509400	0.837300	0.219500
C2991	C299	0.277600	0.054500	0.225300
C3001	C300	0.746400	0.609900	0.715700
C3011	C301	0.817100	0.695700	0.071100
C3021	C302	0.259100	0.700000	0.074400
C3031	C303	0.956000	0.886200	0.221600
C3041	C304	0.483900	0.693700	0.898100
C3051	C305	0.584100	0.799600	0.571000
C3061	C306	0.528000	0.707200	0.849600
C3071	C307	0.586900	0.787000	0.408600
C3081	C308	0.372100	0.696100	0.015700
C3091	C309	0.586000	0.790900	0.630500
C3101	C310	0.367600	0.704500	0.963700
C3111	C311	0.956600	0.344200	0.737600
C3121	C312	0.650900	0.750000	0.361600
C3131	C313	0.320800	0.691300	0.071300
C3141	C314	0.779800	0.050500	0.235500
C3151	C315	0.417500	0.717800	0.907400
C3161	C316	0.981000	0.698200	0.896400
C3171	C317	0.254300	0.266100	0.635900
C3181	C318	0.907200	0.396600	0.726400
C3191	C319	0.868000	0.701900	0.014700
C3201	C320	0.338800	0.219000	0.534600
C3211	C321	0.639000	0.390900	0.248500
C3221	C322	0.697700	0.714800	0.127000
C3231	C323	0.181400	0.208400	0.656800
C3241	C324	0.531200	0.809200	0.398600
C3251	C325	0.590200	0.552000	0.262600
C3261	C326	0.843200	0.991600	0.228800
C3271	C327	0.278000	0.102200	0.227600
C3281	C328	0.342000	0.993900	0.216700
C3291	C329	0.859300	0.714000	0.963800
C3301	C330	0.524700	0.806400	0.518800
C3311	C331	0.535200	0.659700	0.265700
C3321	C332	0.518500	0.445400	0.292800
C3331	C333	0.351300	0.198500	0.483900
C3341	C334	0.402200	0.200800	0.433200
C3351	C335	0.888500	0.893500	0.251700
C3361	C336	0.013700	0.392700	0.731700
C3371	C337	0.201700	0.703700	0.127700
C3381	C338	0.333600	0.942500	0.243300
C3391	C339	0.444600	0.228000	0.480800
C3401	C340	0.950000	0.776900	0.813500
C3411	C341	0.449600	0.767600	0.814800
C3421	C342	0.026800	0.711300	0.850900
C3431	C343	0.583700	0.794100	0.466500
C3441	C344	0.241400	0.195100	0.602900
C3451	C345	0.536200	0.795900	0.345300
C3461	C346	0.279900	0.225300	0.589900
C3471	C347	0.394800	0.226600	0.531400
C3481	C348	0.857600	0.507800	0.715400
C3491	C349	0.254700	0.705700	0.022100
C3501	C350	0.749600	0.718600	0.021200
C3511	C351	0.519500	0.499700	0.291900
C3521	C352	0.962200	0.937000	0.192600
C3531	C353	0.639400	0.795800	0.517600
C3541	C354	0.309500	0.712100	0.966100
C3551	C355	0.220700	0.055100	0.229900
C3561	C356	0.776200	0.610700	0.748500
C3571	C357	0.402400	0.992100	0.192900
C3581	C358	0.802400	0.724700	0.965700
C3591	C359	0.903700	0.988800	0.200800
C3601	C360	0.641500	0.446900	0.244700
C3611	C361	0.914800	0.724500	0.905500
C3621	C362	0.970700	0.446800	0.716800
C3631	C363	0.197400	0.273500	0.683700
C3641	C364	0.460400	0.940000	0.188800
C3651	C365	0.832000	0.942500	0.255500
C3661	C366	0.723100	0.152700	0.238700
C3671	C367	0.835200	0.556400	0.744000
C3681	C368	0.648200	0.607000	0.239800
C3691	C369	0.781600	0.101400	0.231600
C3701	C370	0.721300	0.051300	0.246900
C3711	C371	0.647600	0.553800	0.240800
C3721	C372	0.216200	0.156300	0.242300
C3731	C373	0.164700	0.105500	0.238100
C3741	C374	0.771800	0.558600	0.685800
C3751	C375	0.585200	0.496000	0.269600
C3761	C376	0.389800	0.891500	0.239100
C3771	C377	0.399700	0.755900	0.866700
C3781	C378	0.641300	0.795000	0.465400
C3791	C379	0.823400	0.511500	0.685500
C3801	C380	0.651800	0.740300	0.313300
C3811	C381	0.532100	0.607400	0.271000
C3821	C382	0.450800	0.212500	0.431100
C3831	C383	0.508200	0.214900	0.367500
C3841	C384	0.664400	0.104200	0.253600
N171	N17	0.061100	0.260400	0.195000
N181	N18	0.508800	0.335200	0.750000
N191	N19	0.567800	0.254800	0.193400
N201	N20	0.092400	0.659700	0.257900
N211	N21	0.104000	0.747600	0.304200
N221	N22	0.657400	0.244500	0.696300
N231	N23	0.069800	0.846000	0.751600
N241	N24	0.564300	0.844800	0.754800
N251	N25	0.516500	0.739600	0.805000
N261	N26	0.594000	0.664800	0.250000
N271	N27	0.016000	0.745200	0.806600
N281	N28	0.010000	0.340300	0.742100
N291	N29	0.155800	0.252400	0.695800
N301	N30	0.598200	0.755500	0.303700
N311	N31	0.667400	0.154000	0.248400
N321	N32	0.163900	0.155200	0.245200
O331	O33	0.144700	0.662200	0.709800
O341	O34	0.011500	0.335500	0.302700
O351	O35	0.601900	0.166000	0.798400
O361	O36	0.103600	0.170100	0.797100
O371	O37	0.002000	0.208800	0.326000
O381	O38	0.089400	0.290700	0.821500
O391	O39	0.532600	0.212300	0.754900
O401	O40	0.120900	0.291000	0.255200
O411	O41	0.590900	0.285800	0.823800
O421	O42	0.033100	0.217100	0.756100
O431	O43	0.169200	0.708700	0.746900
O441	O44	0.054600	0.213100	0.367500
O451	O45	0.496100	0.276100	0.869900
O461	O46	0.988400	0.287500	0.869500
O471	O47	0.040700	0.790700	0.675100
O481	O48	0.141200	0.777500	0.634900
O491	O49	0.516700	0.337800	0.290200
O501	O50	0.649700	0.664500	0.697300
O511	O51	0.566300	0.834000	0.201600
O521	O52	0.070800	0.829900	0.202900
O531	O53	0.536800	0.791200	0.674000
O541	O54	0.201600	0.709300	0.178500
O551	O55	0.499800	0.787700	0.245100
O561	O56	0.667100	0.709000	0.744800
O571	O57	0.700500	0.714200	0.176200
O581	O58	0.006300	0.782900	0.243900
O591	O59	0.624800	0.291300	0.253100
O601	O60	0.635200	0.786900	0.632500
O611	O61	0.642100	0.723900	0.130100
O621	O62	0.145400	0.712500	0.130500
O631	O63	0.506500	0.209300	0.324900
O641	O64	0.553600	0.222500	0.365100
