data_CAYSIE_clean_PM
_symmetry_space_group_name_H-M	'P1'
_cell_length_a	9.312400
_cell_length_b	19.157500
_cell_length_c	19.157500
_cell_angle_alpha	62.573000
_cell_angle_beta	80.675100
_cell_angle_gamma	99.324900
_symmetry_Int_Tables_number 1

loop_
_symmetry_equiv_pos_as_xyz
'x,y,z'

loop_
_atom_site_label
_atom_site_type_symbol
_atom_site_fract_x
_atom_site_fract_y
_atom_site_fract_z
Co11	Co1	0.000000	0.000000	0.500000
H11	H1	0.525400	0.779400	0.573900
H21	H2	0.438800	0.854900	0.638300
H31	H3	0.299800	0.886600	0.347500
H41	H4	0.042700	0.796400	0.401300
H51	H5	0.604400	0.986000	0.421100
H61	H6	0.816200	0.988700	0.340700
H71	H7	0.653200	0.056000	0.155400
H81	H8	0.426400	0.053500	0.228800
H91	H9	0.840800	0.683000	0.575900
H101	H10	0.738200	0.567100	0.572800
H111	H11	0.563700	0.690500	0.399800
H121	H12	0.658000	0.809500	0.398500
H131	H13	0.474600	0.220600	0.426100
H141	H14	0.561200	0.145100	0.361700
H151	H15	0.700200	0.113400	0.652500
H161	H16	0.957300	0.203600	0.598700
H171	H17	0.395600	0.014000	0.578900
H181	H18	0.183800	0.011300	0.659300
H191	H19	0.346800	0.944000	0.844600
H201	H20	0.573600	0.946500	0.771200
H211	H21	0.159200	0.317000	0.424100
H221	H22	0.261800	0.432900	0.427200
H231	H23	0.436300	0.309500	0.600200
H241	H24	0.342000	0.190500	0.601500
C11	C1	0.260500	0.135900	0.470500
C21	C2	0.583300	0.825200	0.571400
C31	C3	0.535500	0.866700	0.606300
C41	C4	0.662800	0.933600	0.584700
C51	C5	0.659700	0.989200	0.612700
C61	C6	0.785800	0.048100	0.597200
C71	C7	0.216400	0.890800	0.377800
C81	C8	0.075200	0.841600	0.406900
C91	C9	0.983400	0.872500	0.448600
C101	C10	0.170100	0.163800	0.511600
C111	C11	0.485900	0.016700	0.335700
C121	C12	0.609200	0.999500	0.367400
C131	C13	0.737200	0.002700	0.317800
C141	C14	0.641700	0.041500	0.209900
C151	C15	0.503400	0.039900	0.253600
C161	C16	0.238900	0.240300	0.512200
C171	C17	0.216200	0.314100	0.460600
C181	C18	0.277600	0.383500	0.462800
C191	C19	0.620300	0.688900	0.436000
C201	C20	0.676700	0.761200	0.434500
C211	C21	0.739500	0.864100	0.529500
C221	C22	0.416700	0.174800	0.428600
C231	C23	0.464500	0.133300	0.393700
C241	C24	0.337200	0.066400	0.415300
C251	C25	0.340300	0.010800	0.387300
C261	C26	0.214200	0.951900	0.402800
C271	C27	0.783600	0.109200	0.622200
C281	C28	0.924800	0.158400	0.593100
C291	C29	0.016600	0.127500	0.551400
C301	C30	0.829900	0.836200	0.488400
C311	C31	0.514100	0.983300	0.664300
C321	C32	0.390800	0.000500	0.632600
C331	C33	0.262800	0.997300	0.682200
C341	C34	0.358300	0.958500	0.790100
C351	C35	0.496600	0.960100	0.746400
C361	C36	0.761100	0.759700	0.487800
C371	C37	0.783800	0.685900	0.539400
C381	C38	0.722400	0.616500	0.537200
C391	C39	0.379700	0.311100	0.564000
C401	C40	0.323300	0.238800	0.565500
N11	N1	0.213200	0.068300	0.463500
N21	N2	0.931200	0.059600	0.555000
N31	N3	0.756100	0.024300	0.240400
N41	N4	0.359100	0.381900	0.514900
N51	N5	0.786800	0.931700	0.536500
N61	N6	0.068800	0.940400	0.445000
N71	N7	0.243900	0.975700	0.759600
N81	N8	0.640900	0.618100	0.485100
Co21	Co2	0.500000	0.500000	0.500000
H251	H25	0.099300	0.573900	0.646700
H261	H26	0.077100	0.638300	0.506800
H271	H27	0.647300	0.347500	0.765900
H281	H28	0.444000	0.401300	0.802300
H291	H29	0.025500	0.421100	0.592900
H301	H30	0.156900	0.340700	0.670600
H311	H31	0.808600	0.155400	0.788600
H321	H32	0.655200	0.228800	0.717700
H331	H33	0.416700	0.575900	0.741100
H341	H34	0.311000	0.572800	0.860100
H351	H35	0.963500	0.399800	0.909700
H361	H36	0.056500	0.398500	0.792000
H371	H37	0.900700	0.426100	0.353300
H381	H38	0.922900	0.361700	0.493200
H391	H39	0.352700	0.652500	0.234100
H401	H40	0.556000	0.598700	0.197700
H411	H41	0.974500	0.578900	0.407100
H421	H42	0.843100	0.659300	0.329400
H431	H43	0.191400	0.844600	0.211400
H441	H44	0.344800	0.771200	0.282300
H451	H45	0.583300	0.424100	0.258900
H461	H46	0.689000	0.427200	0.139900
H471	H47	0.036500	0.600200	0.090300
H481	H48	0.943500	0.601500	0.208000
C411	C41	0.731000	0.470500	0.393600
C421	C42	0.154700	0.571400	0.603400
C431	C43	0.141800	0.606300	0.527000
C441	C44	0.247500	0.584700	0.481700
C451	C45	0.272400	0.612700	0.398100
C461	C46	0.383000	0.597200	0.354700
C471	C47	0.594200	0.377800	0.731400
C481	C48	0.482100	0.406900	0.751500
C491	C49	0.432000	0.448600	0.678900
C501	C50	0.681700	0.511600	0.324600
C511	C51	0.821600	0.335700	0.647600
C521	C52	0.976600	0.367400	0.633100
C531	C53	0.055000	0.317800	0.679500
C541	C54	0.851600	0.209900	0.748600
C551	C55	0.757000	0.253600	0.706500
C561	C56	0.751100	0.512200	0.247500
C571	C57	0.676800	0.460600	0.225300
C581	C58	0.740400	0.462800	0.153700
C591	C59	0.056300	0.436000	0.875100
C601	C60	0.111200	0.434500	0.804300
C611	C61	0.269000	0.529500	0.606400
C621	C62	0.845300	0.428600	0.396600
C631	C63	0.858200	0.393700	0.473000
C641	C64	0.752500	0.415300	0.518300
C651	C65	0.727600	0.387300	0.601900
C661	C66	0.617000	0.402800	0.645300
C671	C67	0.405800	0.622200	0.268600
C681	C68	0.517900	0.593100	0.248500
C691	C69	0.568000	0.551400	0.321100
C701	C70	0.318300	0.488400	0.675400
C711	C71	0.178400	0.664300	0.352400
C721	C72	0.023400	0.632600	0.366900
C731	C73	0.945000	0.682200	0.320500
C741	C74	0.148400	0.790100	0.251400
C751	C75	0.243000	0.746400	0.293500
C761	C76	0.248900	0.487800	0.752500
C771	C77	0.323200	0.539400	0.774700
C781	C78	0.259600	0.537200	0.846300
C791	C79	0.943700	0.564000	0.124900
C801	C80	0.888800	0.565500	0.195700
N91	N9	0.676700	0.463500	0.468200
N101	N10	0.486200	0.555000	0.385400
N111	N11	0.996500	0.240400	0.735300
N121	N12	0.874000	0.514900	0.103200
N131	N13	0.323300	0.536500	0.531800
N141	N14	0.513800	0.445000	0.614600
N151	N15	0.003500	0.759600	0.264700
N161	N16	0.126000	0.485100	0.896800
Co31	Co3	0.000000	0.500000	0.000000
H491	H49	0.746000	0.646700	0.779400
H501	H50	0.583900	0.506800	0.854900
H511	H51	0.413200	0.765900	0.886600
H521	H52	0.246300	0.802300	0.796400
H531	H53	0.618400	0.592900	0.986000
H541	H54	0.827500	0.670600	0.988700
H551	H55	0.597200	0.788600	0.056000
H561	H56	0.372900	0.717700	0.053500
H571	H57	0.157800	0.741100	0.683000
H581	H58	0.171100	0.860100	0.567100
H591	H59	0.873200	0.909700	0.690500
H601	H60	0.848500	0.792000	0.809500
H611	H61	0.254000	0.353300	0.220600
H621	H62	0.416100	0.493200	0.145100
H631	H63	0.586800	0.234100	0.113400
H641	H64	0.753700	0.197700	0.203600
H651	H65	0.381600	0.407100	0.014000
H661	H66	0.172500	0.329400	0.011300
H671	H67	0.402800	0.211400	0.944000
H681	H68	0.627100	0.282300	0.946500
H691	H69	0.842200	0.258900	0.317000
H701	H70	0.828900	0.139900	0.432900
H711	H71	0.126800	0.090300	0.309500
H721	H72	0.151500	0.208000	0.190500
C811	C81	0.124600	0.393600	0.135900
C821	C82	0.758100	0.603400	0.825200
C831	C83	0.668800	0.527000	0.866700
C841	C84	0.729200	0.481700	0.933600
C851	C85	0.670500	0.398100	0.989200
C861	C86	0.737700	0.354700	0.048100
C871	C87	0.325600	0.731400	0.890800
C881	C88	0.233600	0.751500	0.841600
C891	C89	0.110900	0.678900	0.872500
C901	C90	0.006300	0.324600	0.163800
C911	C91	0.469200	0.647600	0.016700
C921	C92	0.609700	0.633100	0.999500
C931	C93	0.734500	0.679500	0.002700
C941	C94	0.600200	0.748600	0.041500
C951	C95	0.463500	0.706500	0.039900
C961	C96	0.998600	0.247500	0.240300
C971	C97	0.902100	0.225300	0.314100
C981	C98	0.894100	0.153700	0.383500
C991	C99	0.931400	0.875100	0.688900
C1001	C100	0.915500	0.804300	0.761200
C1011	C101	0.875400	0.606400	0.864100
C1021	C102	0.241900	0.396600	0.174800
C1031	C103	0.331200	0.473000	0.133300
C1041	C104	0.270800	0.518300	0.066400
C1051	C105	0.329500	0.601900	0.010800
C1061	C106	0.262300	0.645300	0.951900
C1071	C107	0.674400	0.268600	0.109200
C1081	C108	0.766400	0.248500	0.158400
C1091	C109	0.889100	0.321100	0.127500
C1101	C110	0.993700	0.675400	0.836200
C1111	C111	0.530800	0.352400	0.983300
C1121	C112	0.390300	0.366900	0.000500
C1131	C113	0.265500	0.320500	0.997300
C1141	C114	0.399800	0.251400	0.958500
C1151	C115	0.536500	0.293500	0.960100
C1161	C116	0.001400	0.752500	0.759700
C1171	C117	0.097900	0.774700	0.685900
C1181	C118	0.105900	0.846300	0.616500
C1191	C119	0.068600	0.124900	0.311100
C1201	C120	0.084500	0.195700	0.238800
N171	N17	0.144900	0.468200	0.068300
N181	N18	0.871600	0.385400	0.059600
N191	N19	0.731800	0.735300	0.024300
N201	N20	0.977200	0.103200	0.381900
N211	N21	0.855100	0.531800	0.931700
N221	N22	0.128400	0.614600	0.940400
N231	N23	0.268200	0.264700	0.975700
N241	N24	0.022800	0.896800	0.618100
