data_CAYYEG_clean_PM
_symmetry_space_group_name_H-M	'P1'
_cell_length_a	9.330700
_cell_length_b	19.481400
_cell_length_c	19.481400
_cell_angle_alpha	62.498800
_cell_angle_beta	80.813300
_cell_angle_gamma	99.186700
_symmetry_Int_Tables_number 1

loop_
_symmetry_equiv_pos_as_xyz
'x,y,z'

loop_
_atom_site_label
_atom_site_type_symbol
_atom_site_fract_x
_atom_site_fract_y
_atom_site_fract_z
Mn11	Mn1	0.000000	0.000000	0.500000
H11	H1	0.524300	0.776800	0.579400
H21	H2	0.435900	0.852300	0.641700
H31	H3	0.303500	0.883300	0.353200
H41	H4	0.044100	0.797000	0.403100
H51	H5	0.609200	0.991100	0.419300
H61	H6	0.822600	0.996200	0.340700
H71	H7	0.651800	0.051100	0.161900
H81	H8	0.425400	0.045300	0.235000
H91	H9	0.837300	0.687700	0.576400
H101	H10	0.734500	0.573900	0.574500
H111	H11	0.558200	0.693600	0.403800
H121	H12	0.654800	0.811000	0.400600
H131	H13	0.475700	0.223200	0.420600
H141	H14	0.564100	0.147700	0.358300
H151	H15	0.696500	0.116700	0.646800
H161	H16	0.955900	0.203000	0.596900
H171	H17	0.390800	0.008900	0.580700
H181	H18	0.177400	0.003800	0.659300
H191	H19	0.348200	0.948900	0.838100
H201	H20	0.574600	0.954700	0.765000
H211	H21	0.162700	0.312300	0.423600
H221	H22	0.265500	0.426100	0.425500
H231	H23	0.441800	0.306400	0.596200
H241	H24	0.345200	0.189000	0.599400
C11	C1	0.266450	0.134830	0.471680
C21	C2	0.580200	0.823800	0.574200
C31	C3	0.531300	0.865200	0.608700
C41	C4	0.655540	0.933490	0.584470
C51	C5	0.656980	0.989750	0.611510
C61	C6	0.783230	0.049390	0.597800
C71	C7	0.219600	0.889200	0.380700
C81	C8	0.076400	0.841500	0.408300
C91	C9	0.983980	0.872980	0.447040
C101	C10	0.171170	0.160700	0.513090
C111	C11	0.489230	0.016580	0.337590
C121	C12	0.613100	0.002900	0.366900
C131	C13	0.741700	0.006800	0.318900
C141	C14	0.642000	0.038300	0.215100
C151	C15	0.504600	0.035200	0.258500
C161	C16	0.240320	0.236200	0.511940
C171	C17	0.219000	0.309300	0.459700
C181	C18	0.281500	0.377900	0.461100
C191	C19	0.615600	0.692500	0.439000
C201	C20	0.673600	0.763800	0.436500
C211	C21	0.733550	0.865170	0.528320
C221	C22	0.419800	0.176200	0.425800
C231	C23	0.468700	0.134800	0.391300
C241	C24	0.344460	0.066510	0.415530
C251	C25	0.343020	0.010250	0.388490
C261	C26	0.216770	0.950610	0.402200
C271	C27	0.780400	0.110800	0.619300
C281	C28	0.923600	0.158500	0.591700
C291	C29	0.016020	0.127020	0.552960
C301	C30	0.828830	0.839300	0.486910
C311	C31	0.510770	0.983420	0.662410
C321	C32	0.386900	0.997100	0.633100
C331	C33	0.258300	0.993200	0.681100
C341	C34	0.358000	0.961700	0.784900
C351	C35	0.495400	0.964800	0.741500
C361	C36	0.759680	0.763800	0.488060
C371	C37	0.781000	0.690700	0.540300
C381	C38	0.718500	0.622100	0.538900
C391	C39	0.384400	0.307500	0.561000
C401	C40	0.326400	0.236200	0.563500
N11	N1	0.224360	0.067200	0.465520
N21	N2	0.927600	0.059940	0.558940
N31	N3	0.758300	0.024500	0.243900
N41	N4	0.363270	0.377520	0.511510
N51	N5	0.775640	0.932800	0.534480
N61	N6	0.072400	0.940060	0.441060
N71	N7	0.241700	0.975500	0.756100
N81	N8	0.636730	0.622480	0.488490
Mn21	Mn2	0.500000	0.500000	0.500000
H251	H25	0.103700	0.579400	0.643800
H261	H26	0.077600	0.641700	0.506000
H271	H27	0.656700	0.353200	0.763500
H281	H28	0.447200	0.403100	0.799900
H291	H29	0.028500	0.419300	0.589600
H301	H30	0.163300	0.340700	0.663100
H311	H31	0.813700	0.161900	0.787000
H321	H32	0.660400	0.235000	0.719700
H331	H33	0.413700	0.576400	0.735900
H341	H34	0.309000	0.574500	0.851600
H351	H35	0.962000	0.403800	0.902600
H361	H36	0.055400	0.400600	0.788400
H371	H37	0.896300	0.420600	0.356200
H381	H38	0.922400	0.358300	0.494000
H391	H39	0.343300	0.646800	0.236500
H401	H40	0.552800	0.596900	0.200100
H411	H41	0.971500	0.580700	0.410400
H421	H42	0.836700	0.659300	0.336900
H431	H43	0.186300	0.838100	0.213000
H441	H44	0.339600	0.765000	0.280300
H451	H45	0.586300	0.423600	0.264100
H461	H46	0.691000	0.425500	0.148400
H471	H47	0.038000	0.596200	0.097400
H481	H48	0.944600	0.599400	0.211600
C411	C41	0.738130	0.471680	0.393490
C421	C42	0.154400	0.574200	0.602000
C431	C43	0.140000	0.608700	0.526100
C441	C44	0.240010	0.584470	0.482040
C451	C45	0.268490	0.611510	0.398740
C461	C46	0.381030	0.597800	0.352810
C471	C47	0.600300	0.380700	0.730100
C481	C48	0.484700	0.408300	0.750200
C491	C49	0.431020	0.447040	0.679980
C501	C50	0.684260	0.513090	0.326210
C511	C51	0.826820	0.337590	0.645830
C521	C52	0.980000	0.366900	0.630200
C531	C53	0.060600	0.318900	0.674300
C541	C54	0.857100	0.215100	0.746600
C551	C55	0.763100	0.258500	0.706300
C561	C56	0.752260	0.511940	0.251860
C571	C57	0.678700	0.459700	0.231000
C581	C58	0.742600	0.461100	0.161000
C591	C59	0.054600	0.439000	0.868500
C601	C60	0.110100	0.436500	0.799700
C611	C61	0.261870	0.528320	0.606510
C621	C62	0.845600	0.425800	0.398000
C631	C63	0.860000	0.391300	0.473900
C641	C64	0.759990	0.415530	0.517960
C651	C65	0.731510	0.388490	0.601260
C661	C66	0.618970	0.402200	0.647190
C671	C67	0.399700	0.619300	0.269900
C681	C68	0.515300	0.591700	0.249800
C691	C69	0.568980	0.552960	0.320020
C701	C70	0.315740	0.486910	0.673790
C711	C71	0.173180	0.662410	0.354170
C721	C72	0.020000	0.633100	0.369800
C731	C73	0.939400	0.681100	0.325700
C741	C74	0.142900	0.784900	0.253400
C751	C75	0.236900	0.741500	0.293700
C761	C76	0.247740	0.488060	0.748140
C771	C77	0.321300	0.540300	0.769000
C781	C78	0.257400	0.538900	0.839000
C791	C79	0.945400	0.561000	0.131500
C801	C80	0.889900	0.563500	0.200300
N91	N9	0.689880	0.465520	0.467280
N101	N10	0.486540	0.558940	0.381120
N111	N11	0.002200	0.243900	0.731600
N121	N12	0.874780	0.511510	0.110970
N131	N13	0.310120	0.534480	0.532720
N141	N14	0.513460	0.441060	0.618880
N151	N15	0.997800	0.756100	0.268400
N161	N16	0.125220	0.488490	0.889030
Mn31	Mn3	0.000000	0.500000	0.000000
H491	H49	0.747500	0.643800	0.776800
H501	H50	0.583600	0.506000	0.852300
H511	H51	0.420200	0.763500	0.883300
H521	H52	0.247100	0.799900	0.797000
H531	H53	0.618100	0.589600	0.991100
H541	H54	0.826400	0.663100	0.996200
H551	H55	0.600700	0.787000	0.051100
H561	H56	0.380100	0.719700	0.045300
H571	H57	0.149600	0.735900	0.687700
H581	H58	0.160600	0.851600	0.573900
H591	H59	0.864600	0.902600	0.693600
H601	H60	0.843800	0.788400	0.811000
H611	H61	0.252500	0.356200	0.223200
H621	H62	0.416400	0.494000	0.147700
H631	H63	0.579800	0.236500	0.116700
H641	H64	0.752900	0.200100	0.203000
H651	H65	0.381900	0.410400	0.008900
H661	H66	0.173600	0.336900	0.003800
H671	H67	0.399300	0.213000	0.948900
H681	H68	0.619900	0.280300	0.954700
H691	H69	0.850400	0.264100	0.312300
H701	H70	0.839400	0.148400	0.426100
H711	H71	0.135400	0.097400	0.306400
H721	H72	0.156200	0.211600	0.189000
C811	C81	0.131620	0.393490	0.134830
C821	C82	0.756400	0.602000	0.823800
C831	C83	0.666100	0.526100	0.865200
C841	C84	0.722050	0.482040	0.933490
C851	C85	0.667230	0.398740	0.989750
C861	C86	0.733840	0.352810	0.049390
C871	C87	0.330400	0.730100	0.889200
C881	C88	0.234900	0.750200	0.841500
C891	C89	0.111000	0.679980	0.872980
C901	C90	0.010470	0.326210	0.160700
C911	C91	0.472650	0.645830	0.016580
C921	C92	0.610200	0.630200	0.002900
C931	C93	0.734900	0.674300	0.006800
C941	C94	0.603700	0.746600	0.038300
C951	C95	0.469400	0.706300	0.035200
C961	C96	0.004120	0.251860	0.236200
C971	C97	0.909700	0.231000	0.309300
C981	C98	0.903600	0.161000	0.377900
C991	C99	0.923100	0.868500	0.692500
C1001	C100	0.909800	0.799700	0.763800
C1011	C101	0.868380	0.606510	0.865170
C1021	C102	0.243600	0.398000	0.176200
C1031	C103	0.333900	0.473900	0.134800
C1041	C104	0.277950	0.517960	0.066510
C1051	C105	0.332770	0.601260	0.010250
C1061	C106	0.266160	0.647190	0.950610
C1071	C107	0.669600	0.269900	0.110800
C1081	C108	0.765100	0.249800	0.158500
C1091	C109	0.889000	0.320020	0.127020
C1101	C110	0.989530	0.673790	0.839300
C1111	C111	0.527350	0.354170	0.983420
C1121	C112	0.389800	0.369800	0.997100
C1131	C113	0.265100	0.325700	0.993200
C1141	C114	0.396300	0.253400	0.961700
C1151	C115	0.530600	0.293700	0.964800
C1161	C116	0.995880	0.748140	0.763800
C1171	C117	0.090300	0.769000	0.690700
C1181	C118	0.096400	0.839000	0.622100
C1191	C119	0.076900	0.131500	0.307500
C1201	C120	0.090200	0.200300	0.236200
N171	N17	0.157160	0.467280	0.067200
N181	N18	0.867660	0.381120	0.059940
N191	N19	0.733800	0.731600	0.024500
N201	N20	0.985750	0.110970	0.377520
N211	N21	0.842840	0.532720	0.932800
N221	N22	0.132340	0.618880	0.940060
N231	N23	0.266200	0.268400	0.975500
N241	N24	0.014250	0.889030	0.622480
