data_CAZGIT_clean_PM
_symmetry_space_group_name_H-M	'P1'
_cell_length_a	9.587900
_cell_length_b	21.844400
_cell_length_c	21.845300
_cell_angle_alpha	90.000000
_cell_angle_beta	98.785000
_cell_angle_gamma	90.000000
_symmetry_Int_Tables_number 1

loop_
_symmetry_equiv_pos_as_xyz
'x,y,z'

loop_
_atom_site_label
_atom_site_type_symbol
_atom_site_fract_x
_atom_site_fract_y
_atom_site_fract_z
Cu11	Cu1	0.946210	0.689850	0.851590
Cu21	Cu2	0.453760	0.671820	0.671620
Cu31	Cu3	0.496840	0.760400	0.252110
Cu41	Cu4	0.553790	0.189850	0.148410
Cu51	Cu5	0.046240	0.171820	0.328380
Cu61	Cu6	0.003160	0.260400	0.747890
Cu71	Cu7	0.053790	0.310150	0.148410
Cu81	Cu8	0.546240	0.328180	0.328380
Cu91	Cu9	0.503160	0.239600	0.747890
Cu101	Cu10	0.446210	0.810150	0.851590
Cu111	Cu11	0.953760	0.828180	0.671620
Cu121	Cu12	0.996840	0.739600	0.252110
Mo11	Mo1	0.880180	0.673080	0.649340
Mo21	Mo2	0.544390	0.663130	0.840410
Mo31	Mo3	0.688280	0.750920	0.739710
Mo41	Mo4	0.619820	0.173080	0.350660
Mo51	Mo5	0.955610	0.163130	0.159590
Mo61	Mo6	0.811720	0.250920	0.260290
Mo71	Mo7	0.119820	0.326920	0.350660
Mo81	Mo8	0.455610	0.336870	0.159590
Mo91	Mo9	0.311720	0.249080	0.260290
Mo101	Mo10	0.380180	0.826920	0.649340
Mo111	Mo11	0.044390	0.836870	0.840410
Mo121	Mo12	0.188280	0.749080	0.739710
H11	H1	0.906800	0.656400	0.981100
H21	H2	0.237600	0.700200	0.908400
H31	H3	0.028000	0.675900	0.079300
H41	H4	0.365900	0.723200	0.003500
H51	H5	0.715400	0.072900	0.178900
H61	H6	0.317000	0.108800	0.162100
H71	H7	0.262500	0.006600	0.183600
H81	H8	0.666300	0.969900	0.201600
H91	H9	0.566100	0.829100	0.494100
H101	H10	0.680100	0.836800	0.598100
H111	H11	0.049500	0.815000	0.551300
H121	H12	0.952800	0.805900	0.445000
H131	H13	0.769900	0.421500	0.322800
H141	H14	0.353100	0.430800	0.323800
H151	H15	0.777500	0.529700	0.308200
H161	H16	0.358400	0.535700	0.302200
H171	H17	0.171500	0.827800	0.054200
H181	H18	0.269100	0.924500	0.103600
H191	H19	0.576700	0.982500	0.318200
H201	H20	0.671300	0.926600	0.410900
H211	H21	0.789700	0.692500	0.456400
H221	H22	0.719300	0.595600	0.402700
H231	H23	0.450600	0.539600	0.180200
H241	H24	0.313300	0.595000	0.095600
H251	H25	0.593200	0.156400	0.018900
H261	H26	0.262400	0.200200	0.091600
H271	H27	0.472000	0.175900	0.920700
H281	H28	0.134100	0.223200	0.996500
H291	H29	0.784600	0.572900	0.821100
H301	H30	0.183000	0.608800	0.837900
H311	H31	0.237500	0.506600	0.816400
H321	H32	0.833700	0.469900	0.798400
H331	H33	0.933900	0.329100	0.505900
H341	H34	0.819900	0.336800	0.401900
H351	H35	0.450500	0.315000	0.448700
H361	H36	0.547200	0.305900	0.555000
H371	H37	0.730100	0.921500	0.677200
H381	H38	0.146900	0.930800	0.676200
H391	H39	0.722500	0.029700	0.691800
H401	H40	0.141600	0.035700	0.697800
H411	H41	0.328500	0.327800	0.945800
H421	H42	0.230900	0.424500	0.896400
H431	H43	0.923300	0.482500	0.681800
H441	H44	0.828700	0.426600	0.589100
H451	H45	0.710300	0.192500	0.543600
H461	H46	0.780700	0.095600	0.597300
H471	H47	0.049400	0.039600	0.819800
H481	H48	0.186700	0.095000	0.904400
H491	H49	0.093200	0.343600	0.018900
H501	H50	0.762400	0.299800	0.091600
H511	H51	0.972000	0.324100	0.920700
H521	H52	0.634100	0.276800	0.996500
H531	H53	0.284600	0.927100	0.821100
H541	H54	0.683000	0.891200	0.837900
H551	H55	0.737500	0.993400	0.816400
H561	H56	0.333700	0.030100	0.798400
H571	H57	0.433900	0.170900	0.505900
H581	H58	0.319900	0.163200	0.401900
H591	H59	0.950500	0.185000	0.448700
H601	H60	0.047200	0.194100	0.555000
H611	H61	0.230100	0.578500	0.677200
H621	H62	0.646900	0.569200	0.676200
H631	H63	0.222500	0.470300	0.691800
H641	H64	0.641600	0.464300	0.697800
H651	H65	0.828500	0.172200	0.945800
H661	H66	0.730900	0.075500	0.896400
H671	H67	0.423300	0.017500	0.681800
H681	H68	0.328700	0.073400	0.589100
H691	H69	0.210300	0.307500	0.543600
H701	H70	0.280700	0.404400	0.597300
H711	H71	0.549400	0.460400	0.819800
H721	H72	0.686700	0.405000	0.904400
H731	H73	0.406800	0.843600	0.981100
H741	H74	0.737600	0.799800	0.908400
H751	H75	0.528000	0.824100	0.079300
H761	H76	0.865900	0.776800	0.003500
H771	H77	0.215400	0.427100	0.178900
H781	H78	0.817000	0.391200	0.162100
H791	H79	0.762500	0.493400	0.183600
H801	H80	0.166300	0.530100	0.201600
H811	H81	0.066100	0.670900	0.494100
H821	H82	0.180100	0.663200	0.598100
H831	H83	0.549500	0.685000	0.551300
H841	H84	0.452800	0.694100	0.445000
H851	H85	0.269900	0.078500	0.322800
H861	H86	0.853100	0.069200	0.323800
H871	H87	0.277500	0.970300	0.308200
H881	H88	0.858400	0.964300	0.302200
H891	H89	0.671500	0.672200	0.054200
H901	H90	0.769100	0.575500	0.103600
H911	H91	0.076700	0.517500	0.318200
H921	H92	0.171300	0.573400	0.410900
H931	H93	0.289700	0.807500	0.456400
H941	H94	0.219300	0.904400	0.402700
H951	H95	0.950600	0.960400	0.180200
H961	H96	0.813300	0.905000	0.095600
C11	C1	0.998500	0.671500	0.985900
C21	C2	0.194800	0.697800	0.943800
C31	C3	0.072400	0.683200	0.045100
C41	C4	0.272300	0.710700	0.000300
C51	C5	0.205600	0.704600	0.054100
C61	C6	0.622700	0.060900	0.179800
C71	C7	0.390900	0.081000	0.170100
C81	C8	0.355300	0.018900	0.183500
C91	C9	0.591900	0.997600	0.194000
C101	C10	0.467700	0.978600	0.196500
C111	C11	0.663200	0.824400	0.504600
C121	C12	0.733500	0.829400	0.566700
C131	C13	0.751200	0.811800	0.460400
C141	C14	0.952200	0.816500	0.539400
C151	C15	0.894900	0.810500	0.475200
C161	C16	0.687900	0.444800	0.319300
C171	C17	0.436700	0.450400	0.318900
C181	C18	0.563400	0.541400	0.299900
C191	C19	0.692400	0.509500	0.308900
C201	C20	0.441400	0.513000	0.306300
C211	C21	0.293700	0.722300	0.115300
C221	C22	0.304800	0.782700	0.131300
C231	C23	0.235700	0.832000	0.090400
C241	C24	0.288400	0.885100	0.118500
C251	C25	0.378900	0.869200	0.175200
C261	C26	0.452000	0.912700	0.216100
C271	C27	0.522600	0.897500	0.275500
C281	C28	0.578800	0.940100	0.322400
C291	C29	0.634100	0.910000	0.372700
C301	C30	0.624200	0.843500	0.355200
C311	C31	0.680400	0.797500	0.394400
C321	C32	0.679100	0.736600	0.376000
C331	C33	0.737000	0.688000	0.417300
C341	C34	0.699300	0.634900	0.387500
C351	C35	0.621000	0.651000	0.326900
C361	C36	0.566500	0.609700	0.282600
C371	C37	0.482400	0.624200	0.226500
C381	C38	0.433600	0.581500	0.178800
C391	C39	0.360100	0.611600	0.132300
C401	C40	0.366700	0.674600	0.149400
C411	C41	0.501500	0.171500	0.014100
C421	C42	0.305200	0.197800	0.056200
C431	C43	0.427600	0.183200	0.954900
C441	C44	0.227700	0.210700	0.999700
C451	C45	0.294400	0.204600	0.945900
C461	C46	0.877300	0.560900	0.820200
C471	C47	0.109100	0.581000	0.829900
C481	C48	0.144700	0.518900	0.816500
C491	C49	0.908100	0.497600	0.806000
C501	C50	0.032300	0.478600	0.803500
C511	C51	0.836800	0.324400	0.495400
C521	C52	0.766500	0.329400	0.433300
C531	C53	0.748800	0.311800	0.539600
C541	C54	0.547800	0.316500	0.460600
C551	C55	0.605100	0.310500	0.524800
C561	C56	0.812100	0.944800	0.680700
C571	C57	0.063300	0.950400	0.681100
C581	C58	0.936600	0.041400	0.700100
C591	C59	0.807600	0.009500	0.691100
C601	C60	0.058600	0.013000	0.693700
C611	C61	0.206300	0.222300	0.884700
C621	C62	0.195200	0.282700	0.868700
C631	C63	0.264300	0.332000	0.909600
C641	C64	0.211600	0.385100	0.881500
C651	C65	0.121100	0.369200	0.824800
C661	C66	0.048000	0.412700	0.783900
C671	C67	0.977400	0.397500	0.724500
C681	C68	0.921200	0.440100	0.677600
C691	C69	0.865900	0.410000	0.627300
C701	C70	0.875800	0.343500	0.644800
C711	C71	0.819600	0.297500	0.605600
C721	C72	0.820900	0.236600	0.624000
C731	C73	0.763000	0.188000	0.582700
C741	C74	0.800700	0.134900	0.612500
C751	C75	0.879000	0.151000	0.673100
C761	C76	0.933500	0.109700	0.717400
C771	C77	0.017600	0.124200	0.773500
C781	C78	0.066400	0.081500	0.821200
C791	C79	0.139900	0.111600	0.867700
C801	C80	0.133300	0.174600	0.850600
C811	C81	0.001500	0.328500	0.014100
C821	C82	0.805200	0.302200	0.056200
C831	C83	0.927600	0.316800	0.954900
C841	C84	0.727700	0.289300	0.999700
C851	C85	0.794400	0.295400	0.945900
C861	C86	0.377300	0.939100	0.820200
C871	C87	0.609100	0.919000	0.829900
C881	C88	0.644700	0.981100	0.816500
C891	C89	0.408100	0.002400	0.806000
C901	C90	0.532300	0.021400	0.803500
C911	C91	0.336800	0.175600	0.495400
C921	C92	0.266500	0.170600	0.433300
C931	C93	0.248800	0.188200	0.539600
C941	C94	0.047800	0.183500	0.460600
C951	C95	0.105100	0.189500	0.524800
C961	C96	0.312100	0.555200	0.680700
C971	C97	0.563300	0.549600	0.681100
C981	C98	0.436600	0.458600	0.700100
C991	C99	0.307600	0.490500	0.691100
C1001	C100	0.558600	0.487000	0.693700
C1011	C101	0.706300	0.277700	0.884700
C1021	C102	0.695200	0.217300	0.868700
C1031	C103	0.764300	0.168000	0.909600
C1041	C104	0.711600	0.114900	0.881500
C1051	C105	0.621100	0.130800	0.824800
C1061	C106	0.548000	0.087300	0.783900
C1071	C107	0.477400	0.102500	0.724500
C1081	C108	0.421200	0.059900	0.677600
C1091	C109	0.365900	0.090000	0.627300
C1101	C110	0.375800	0.156500	0.644800
C1111	C111	0.319600	0.202500	0.605600
C1121	C112	0.320900	0.263400	0.624000
C1131	C113	0.263000	0.312000	0.582700
C1141	C114	0.300700	0.365100	0.612500
C1151	C115	0.379000	0.349000	0.673100
C1161	C116	0.433500	0.390300	0.717400
C1171	C117	0.517600	0.375800	0.773500
C1181	C118	0.566400	0.418500	0.821200
C1191	C119	0.639900	0.388400	0.867700
C1201	C120	0.633300	0.325400	0.850600
C1211	C121	0.498500	0.828500	0.985900
C1221	C122	0.694800	0.802200	0.943800
C1231	C123	0.572400	0.816800	0.045100
C1241	C124	0.772300	0.789300	0.000300
C1251	C125	0.705600	0.795400	0.054100
C1261	C126	0.122700	0.439100	0.179800
C1271	C127	0.890900	0.419000	0.170100
C1281	C128	0.855300	0.481100	0.183500
C1291	C129	0.091900	0.502400	0.194000
C1301	C130	0.967700	0.521400	0.196500
C1311	C131	0.163200	0.675600	0.504600
C1321	C132	0.233500	0.670600	0.566700
C1331	C133	0.251200	0.688200	0.460400
C1341	C134	0.452200	0.683500	0.539400
C1351	C135	0.394900	0.689500	0.475200
C1361	C136	0.187900	0.055200	0.319300
C1371	C137	0.936700	0.049600	0.318900
C1381	C138	0.063400	0.958600	0.299900
C1391	C139	0.192400	0.990500	0.308900
C1401	C140	0.941400	0.987000	0.306300
C1411	C141	0.793700	0.777700	0.115300
C1421	C142	0.804800	0.717300	0.131300
C1431	C143	0.735700	0.668000	0.090400
C1441	C144	0.788400	0.614900	0.118500
C1451	C145	0.878900	0.630800	0.175200
C1461	C146	0.952000	0.587300	0.216100
C1471	C147	0.022600	0.602500	0.275500
C1481	C148	0.078800	0.559900	0.322400
C1491	C149	0.134100	0.590000	0.372700
C1501	C150	0.124200	0.656500	0.355200
C1511	C151	0.180400	0.702500	0.394400
C1521	C152	0.179100	0.763400	0.376000
C1531	C153	0.237000	0.812000	0.417300
C1541	C154	0.199300	0.865100	0.387500
C1551	C155	0.121000	0.849000	0.326900
C1561	C156	0.066500	0.890300	0.282600
C1571	C157	0.982400	0.875800	0.226500
C1581	C158	0.933600	0.918500	0.178800
C1591	C159	0.860100	0.888400	0.132300
C1601	C160	0.866700	0.825400	0.149400
N11	N1	0.058200	0.681800	0.938400
N21	N2	0.518700	0.101500	0.168100
N31	N3	0.871700	0.823900	0.581300
N41	N4	0.566400	0.418800	0.323600
N51	N5	0.548000	0.838400	0.297400
N61	N6	0.606300	0.713400	0.321600
N71	N7	0.440900	0.681300	0.208700
N81	N8	0.386300	0.807100	0.183600
N91	N9	0.441800	0.181800	0.061600
N101	N10	0.981300	0.601500	0.831900
N111	N11	0.628300	0.323900	0.418700
N121	N12	0.933600	0.918800	0.676400
N131	N13	0.952000	0.338400	0.702600
N141	N14	0.893700	0.213400	0.678400
N151	N15	0.059100	0.181300	0.791300
N161	N16	0.113700	0.307100	0.816400
N171	N17	0.941800	0.318200	0.061600
N181	N18	0.481300	0.898500	0.831900
N191	N19	0.128300	0.176100	0.418700
N201	N20	0.433600	0.581200	0.676400
N211	N21	0.452000	0.161600	0.702600
N221	N22	0.393700	0.286600	0.678400
N231	N23	0.559100	0.318700	0.791300
N241	N24	0.613700	0.192900	0.816400
N251	N25	0.558200	0.818200	0.938400
N261	N26	0.018700	0.398500	0.168100
N271	N27	0.371700	0.676100	0.581300
N281	N28	0.066400	0.081200	0.323600
N291	N29	0.048000	0.661600	0.297400
N301	N30	0.106300	0.786600	0.321600
N311	N31	0.940900	0.818700	0.208700
N321	N32	0.886300	0.692900	0.183600
O11	O1	0.695600	0.687900	0.658000
O21	O2	0.754800	0.812600	0.703700
O31	O3	0.836500	0.705900	0.771400
O41	O4	0.937900	0.778600	0.869900
O51	O5	0.000100	0.738700	0.677300
O61	O6	0.553600	0.672300	0.757600
O71	O7	0.804400	0.187900	0.342000
O81	O8	0.745200	0.312600	0.296300
O91	O9	0.663500	0.205900	0.228600
O101	O10	0.562100	0.278600	0.130100
O111	O11	0.499900	0.238700	0.322700
O121	O12	0.946400	0.172300	0.242400
O131	O13	0.304400	0.312100	0.342000
O141	O14	0.245200	0.187400	0.296300
O151	O15	0.163500	0.294100	0.228600
O161	O16	0.062100	0.221400	0.130100
O171	O17	0.999900	0.261300	0.322700
O181	O18	0.446400	0.327700	0.242400
O191	O19	0.195600	0.812100	0.658000
O201	O20	0.254800	0.687400	0.703700
O211	O21	0.336500	0.794100	0.771400
O221	O22	0.437900	0.721400	0.869900
O231	O23	0.500100	0.761300	0.677300
O241	O24	0.053600	0.827700	0.757600
