data_CDLGLU01_clean_PM
_symmetry_space_group_name_H-M	'P1'
_cell_length_a	7.255600
_cell_length_b	10.763900
_cell_length_c	11.574700
_cell_angle_alpha	90.000000
_cell_angle_beta	90.000000
_cell_angle_gamma	90.000000
_symmetry_Int_Tables_number 1

loop_
_symmetry_equiv_pos_as_xyz
'x,y,z'

loop_
_atom_site_label
_atom_site_type_symbol
_atom_site_fract_x
_atom_site_fract_y
_atom_site_fract_z
Cd11	Cd1	0.360600	0.683640	0.209060
Cd21	Cd2	0.860600	0.316360	0.290940
Cd31	Cd3	0.139400	0.183640	0.790940
Cd41	Cd4	0.639400	0.816360	0.709060
H11	H1	0.394000	0.477000	0.479000
H21	H2	0.121000	0.503000	0.568000
H31	H3	0.244000	0.617000	0.592000
H41	H4	0.977000	0.635000	0.416000
H51	H5	0.097000	0.749000	0.441000
H61	H6	0.539000	0.607000	0.389000
H71	H7	0.459000	0.689000	0.443000
H81	H8	0.894000	0.523000	0.021000
H91	H9	0.621000	0.497000	0.932000
H101	H10	0.744000	0.383000	0.908000
H111	H11	0.477000	0.365000	0.084000
H121	H12	0.597000	0.251000	0.059000
H131	H13	0.039000	0.393000	0.111000
H141	H14	0.959000	0.311000	0.057000
H151	H15	0.106000	0.977000	0.521000
H161	H16	0.379000	0.003000	0.432000
H171	H17	0.256000	0.117000	0.408000
H181	H18	0.523000	0.135000	0.584000
H191	H19	0.403000	0.249000	0.559000
H201	H20	0.961000	0.107000	0.611000
H211	H21	0.041000	0.189000	0.557000
H221	H22	0.606000	0.023000	0.979000
H231	H23	0.879000	0.997000	0.068000
H241	H24	0.756000	0.883000	0.092000
H251	H25	0.023000	0.865000	0.916000
H261	H26	0.903000	0.751000	0.941000
H271	H27	0.461000	0.893000	0.889000
H281	H28	0.541000	0.811000	0.943000
C11	C1	0.214400	0.462100	0.350100
C21	C2	0.321200	0.532700	0.443200
C31	C3	0.185800	0.585600	0.531900
C41	C4	0.046400	0.674800	0.480300
C51	C5	0.912800	0.727800	0.568900
C61	C6	0.714400	0.537900	0.149900
C71	C7	0.821200	0.467300	0.056800
C81	C8	0.685800	0.414400	0.968100
C91	C9	0.546400	0.325200	0.019700
C101	C10	0.412800	0.272200	0.931100
C111	C11	0.285600	0.962100	0.649900
C121	C12	0.178800	0.032700	0.556800
C131	C13	0.314200	0.085600	0.468100
C141	C14	0.453600	0.174800	0.519700
C151	C15	0.587200	0.227800	0.431100
C161	C16	0.785600	0.037900	0.850100
C171	C17	0.678800	0.967300	0.943200
C181	C18	0.814200	0.914400	0.031900
C191	C19	0.953600	0.825200	0.980300
C201	C20	0.087200	0.772200	0.068900
N11	N1	0.439500	0.630000	0.394000
N21	N2	0.939500	0.370000	0.106000
N31	N3	0.060500	0.130000	0.606000
N41	N4	0.560500	0.870000	0.894000
O11	O1	0.222200	0.497600	0.246600
O21	O2	0.119200	0.372500	0.385300
O31	O3	0.775600	0.788500	0.531200
O41	O4	0.935000	0.712800	0.674900
O51	O5	0.722200	0.502400	0.253400
O61	O6	0.619200	0.627500	0.114700
O71	O7	0.275600	0.211500	0.968800
O81	O8	0.435000	0.287200	0.825100
O91	O9	0.277800	0.997600	0.753400
O101	O10	0.380800	0.872500	0.614700
O111	O11	0.724400	0.288500	0.468800
O121	O12	0.565000	0.212800	0.325100
O131	O13	0.777800	0.002400	0.746600
O141	O14	0.880800	0.127500	0.885300
O151	O15	0.224400	0.711500	0.031200
O161	O16	0.065000	0.787200	0.174900
