data_CDLGLU11_clean_PM
_symmetry_space_group_name_H-M	'P1'
_cell_length_a	7.286000
_cell_length_b	10.790000
_cell_length_c	11.610000
_cell_angle_alpha	90.000000
_cell_angle_beta	90.000000
_cell_angle_gamma	90.000000
_symmetry_Int_Tables_number 1

loop_
_symmetry_equiv_pos_as_xyz
'x,y,z'

loop_
_atom_site_label
_atom_site_type_symbol
_atom_site_fract_x
_atom_site_fract_y
_atom_site_fract_z
Cd11	Cd1	0.638000	0.817300	0.709300
Cd21	Cd2	0.138000	0.182700	0.790700
Cd31	Cd3	0.862000	0.317300	0.290700
Cd41	Cd4	0.362000	0.682700	0.209300
H11	H1	0.046000	0.200000	0.549000
H21	H2	0.941000	0.095000	0.625000
H31	H3	0.097000	0.962000	0.511000
H41	H4	0.390000	0.005000	0.432000
H51	H5	0.235000	0.138000	0.403000
H61	H6	0.388000	0.247000	0.559000
H71	H7	0.538000	0.125000	0.587000
H81	H8	0.546000	0.800000	0.951000
H91	H9	0.441000	0.905000	0.875000
H101	H10	0.597000	0.038000	0.989000
H111	H11	0.890000	0.995000	0.068000
H121	H12	0.735000	0.862000	0.097000
H131	H13	0.888000	0.753000	0.941000
H141	H14	0.038000	0.875000	0.913000
H151	H15	0.454000	0.700000	0.451000
H161	H16	0.559000	0.595000	0.375000
H171	H17	0.403000	0.462000	0.489000
H181	H18	0.110000	0.505000	0.568000
H191	H19	0.265000	0.638000	0.597000
H201	H20	0.112000	0.747000	0.441000
H211	H21	0.962000	0.625000	0.413000
H221	H22	0.954000	0.300000	0.049000
H231	H23	0.059000	0.405000	0.125000
H241	H24	0.903000	0.538000	0.011000
H251	H25	0.610000	0.495000	0.932000
H261	H26	0.765000	0.362000	0.903000
H271	H27	0.612000	0.253000	0.059000
H281	H28	0.462000	0.375000	0.087000
C11	C1	0.178600	0.032300	0.556800
C21	C2	0.287400	0.963300	0.650200
C31	C3	0.313300	0.086500	0.468200
C41	C4	0.458000	0.174800	0.519100
C51	C5	0.587000	0.228700	0.431400
C61	C6	0.678600	0.967700	0.943200
C71	C7	0.787400	0.036700	0.849800
C81	C8	0.813300	0.913500	0.031800
C91	C9	0.958000	0.825200	0.980900
C101	C10	0.087000	0.771300	0.068600
C111	C11	0.321400	0.532300	0.443200
C121	C12	0.212600	0.463300	0.349800
C131	C13	0.186700	0.586500	0.531800
C141	C14	0.042000	0.674800	0.480900
C151	C15	0.913000	0.728700	0.568600
C161	C16	0.821400	0.467700	0.056800
C171	C17	0.712600	0.536700	0.150200
C181	C18	0.686700	0.413500	0.968200
C191	C19	0.542000	0.325200	0.019100
C201	C20	0.413000	0.271300	0.931400
N11	N1	0.059000	0.130500	0.606700
N21	N2	0.559000	0.869500	0.893300
N31	N3	0.441000	0.630500	0.393300
N41	N4	0.941000	0.369500	0.106700
O11	O1	0.276200	0.996000	0.752900
O21	O2	0.382400	0.875300	0.614500
O31	O3	0.725400	0.287000	0.469400
O41	O4	0.565200	0.212100	0.325000
O51	O5	0.776200	0.004000	0.747100
O61	O6	0.882400	0.124700	0.885500
O71	O7	0.225400	0.713000	0.030600
O81	O8	0.065200	0.787900	0.175000
O91	O9	0.223800	0.496000	0.247100
O101	O10	0.117600	0.375300	0.385500
O111	O11	0.774600	0.787000	0.530600
O121	O12	0.934800	0.712100	0.675000
O131	O13	0.723800	0.504000	0.252900
O141	O14	0.617600	0.624700	0.114500
O151	O15	0.274600	0.213000	0.969400
O161	O16	0.434800	0.287900	0.825000
