data_CECVIQ_clean_PM
_symmetry_space_group_name_H-M	'P1'
_cell_length_a	6.754000
_cell_length_b	11.937000
_cell_length_c	13.456000
_cell_angle_alpha	90.000000
_cell_angle_beta	100.381000
_cell_angle_gamma	90.000000
_symmetry_Int_Tables_number 1

loop_
_symmetry_equiv_pos_as_xyz
'x,y,z'

loop_
_atom_site_label
_atom_site_type_symbol
_atom_site_fract_x
_atom_site_fract_y
_atom_site_fract_z
Pr11	Pr1	0.051960	0.831130	0.754930
Pr21	Pr2	0.948040	0.331130	0.745070
Pr31	Pr3	0.948040	0.168870	0.245070
Pr41	Pr4	0.051960	0.668870	0.254930
H11	H1	0.800300	0.938500	0.958900
H21	H2	0.459000	0.804000	0.145100
H31	H3	0.199700	0.438500	0.541100
H41	H4	0.541000	0.304000	0.354900
H51	H5	0.199700	0.061500	0.041100
H61	H6	0.541000	0.196000	0.854900
H71	H7	0.800300	0.561500	0.458900
H81	H8	0.459000	0.696000	0.645100
C11	C1	0.542000	0.897700	0.780700
C21	C2	0.527200	0.880000	0.890200
C31	C3	0.682100	0.904800	0.970100
C41	C4	0.654900	0.877700	0.066800
C51	C5	0.819300	0.900700	0.157100
C61	C6	0.476300	0.827200	0.081300
C71	C7	0.324900	0.812700	0.997600
C81	C8	0.117500	0.767000	0.004000
C91	C9	0.458000	0.397700	0.719300
C101	C10	0.472800	0.380000	0.609800
C111	C11	0.317900	0.404800	0.529900
C121	C12	0.345100	0.377700	0.433200
C131	C13	0.180700	0.400700	0.342900
C141	C14	0.523700	0.327200	0.418700
C151	C15	0.675100	0.312700	0.502400
C161	C16	0.882500	0.267000	0.496000
C171	C17	0.458000	0.102300	0.219300
C181	C18	0.472800	0.120000	0.109800
C191	C19	0.317900	0.095200	0.029900
C201	C20	0.345100	0.122300	0.933200
C211	C21	0.180700	0.099300	0.842900
C221	C22	0.523700	0.172800	0.918700
C231	C23	0.675100	0.187300	0.002400
C241	C24	0.882500	0.233000	0.996000
C251	C25	0.542000	0.602300	0.280700
C261	C26	0.527200	0.620000	0.390200
C271	C27	0.682100	0.595200	0.470100
C281	C28	0.654900	0.622300	0.566800
C291	C29	0.819300	0.599300	0.657100
C301	C30	0.476300	0.672800	0.581300
C311	C31	0.324900	0.687300	0.497600
C321	C32	0.117500	0.733000	0.504000
N11	N1	0.349600	0.838500	0.904300
N21	N2	0.650400	0.338500	0.595700
N31	N3	0.650400	0.161500	0.095700
N41	N4	0.349600	0.661500	0.404300
O11	O1	0.376800	0.901100	0.719200
O21	O2	0.712300	0.907200	0.758100
O31	O3	0.833900	0.832100	0.229100
O41	O4	0.925900	0.985900	0.154700
O51	O5	0.077200	0.742700	0.088400
O61	O6	0.997600	0.757200	0.920500
O71	O7	0.623200	0.401100	0.780800
O81	O8	0.287700	0.407200	0.741900
O91	O9	0.166100	0.332100	0.270900
O101	O10	0.074100	0.485900	0.345300
O111	O11	0.922800	0.242700	0.411600
O121	O12	0.002400	0.257200	0.579500
O131	O13	0.623200	0.098900	0.280800
O141	O14	0.287700	0.092800	0.241900
O151	O15	0.166100	0.167900	0.770900
O161	O16	0.074100	0.014100	0.845300
O171	O17	0.922800	0.257300	0.911600
O181	O18	0.002400	0.242800	0.079500
O191	O19	0.376800	0.598900	0.219200
O201	O20	0.712300	0.592800	0.258100
O211	O21	0.833900	0.667900	0.729100
O221	O22	0.925900	0.514100	0.654700
O231	O23	0.077200	0.757300	0.588400
O241	O24	0.997600	0.742800	0.420500
