data_CEDFIC_clean_PM
_symmetry_space_group_name_H-M	'P1'
_cell_length_a	13.690800
_cell_length_b	13.690800
_cell_length_c	16.317000
_cell_angle_alpha	67.021900
_cell_angle_beta	67.021900
_cell_angle_gamma	75.693400
_symmetry_Int_Tables_number 1

loop_
_symmetry_equiv_pos_as_xyz
'x,y,z'

loop_
_atom_site_label
_atom_site_type_symbol
_atom_site_fract_x
_atom_site_fract_y
_atom_site_fract_z
Gd11	Gd1	0.167690	0.454490	0.997860
Gd21	Gd2	0.545510	0.832310	0.502140
Gd31	Gd3	0.832310	0.545510	0.002140
Gd41	Gd4	0.454490	0.167690	0.497860
H11	H1	0.081900	0.345500	0.564400
H21	H2	0.082400	0.127800	0.151100
H31	H3	0.225200	0.338400	0.743200
H41	H4	0.911800	0.454000	0.785500
H51	H5	0.654500	0.918100	0.935600
H61	H6	0.872200	0.917600	0.348900
H71	H7	0.661600	0.774800	0.756800
H81	H8	0.546000	0.088200	0.714500
H91	H9	0.918100	0.654500	0.435600
H101	H10	0.917600	0.872200	0.848900
H111	H11	0.774800	0.661600	0.256800
H121	H12	0.088200	0.546000	0.214500
H131	H13	0.345500	0.081900	0.064400
H141	H14	0.127800	0.082400	0.651100
H151	H15	0.338400	0.225200	0.243200
H161	H16	0.454000	0.911800	0.285500
H171	H17	0.767800	0.232200	0.250000
H181	H18	0.232200	0.767800	0.750000
C11	C1	0.927620	0.196860	0.189390
C21	C2	0.079030	0.358250	0.618550
C31	C3	0.951140	0.308160	0.122280
C41	C4	0.063800	0.428320	0.858830
C51	C5	0.011190	0.114330	0.190350
C61	C6	0.163800	0.355360	0.724470
C71	C7	0.068680	0.402040	0.775770
C81	C8	0.169050	0.333490	0.646100
C91	C9	0.270120	0.281540	0.590760
C101	C10	0.977450	0.424250	0.750210
C111	C11	0.985260	0.401800	0.671950
C121	C12	0.803140	0.072380	0.310610
C131	C13	0.641750	0.920970	0.881450
C141	C14	0.691840	0.048860	0.377720
C151	C15	0.571680	0.936200	0.641170
C161	C16	0.885670	0.988810	0.309650
C171	C17	0.644640	0.836200	0.775530
C181	C18	0.597960	0.931320	0.724230
C191	C19	0.666510	0.830950	0.853900
C201	C20	0.718460	0.729880	0.909240
C211	C21	0.575750	0.022550	0.749790
C221	C22	0.598200	0.014740	0.828050
C231	C23	0.072380	0.803140	0.810610
C241	C24	0.920970	0.641750	0.381450
C251	C25	0.048860	0.691840	0.877720
C261	C26	0.936200	0.571680	0.141170
C271	C27	0.988810	0.885670	0.809650
C281	C28	0.836200	0.644640	0.275530
C291	C29	0.931320	0.597960	0.224230
C301	C30	0.830950	0.666510	0.353900
C311	C31	0.729880	0.718460	0.409240
C321	C32	0.022550	0.575750	0.249790
C331	C33	0.014740	0.598200	0.328050
C341	C34	0.196860	0.927620	0.689390
C351	C35	0.358250	0.079030	0.118550
C361	C36	0.308160	0.951140	0.622280
C371	C37	0.428320	0.063800	0.358830
C381	C38	0.114330	0.011190	0.690350
C391	C39	0.355360	0.163800	0.224470
C401	C40	0.402040	0.068680	0.275770
C411	C41	0.333490	0.169050	0.146100
C421	C42	0.281540	0.270120	0.090760
C431	C43	0.424250	0.977450	0.250210
C441	C44	0.401800	0.985260	0.171950
C451	C45	0.824360	0.175640	0.250000
C461	C46	0.987760	0.012240	0.250000
C471	C47	0.175640	0.824360	0.750000
C481	C48	0.012240	0.987760	0.750000
N11	N1	0.889240	0.423540	0.644540
N21	N2	0.576460	0.110760	0.855460
N31	N3	0.110760	0.576460	0.355460
N41	N4	0.423540	0.889240	0.144540
N51	N5	0.075330	0.924670	0.250000
N61	N6	0.924670	0.075330	0.750000
O11	O1	0.872910	0.375490	0.108910
O21	O2	0.048170	0.324030	0.085130
O31	O3	0.148510	0.408330	0.878550
O41	O4	0.975330	0.469250	0.902550
O51	O5	0.273440	0.273620	0.515370
O61	O6	0.348160	0.245740	0.622190
O71	O7	0.167740	0.947440	0.209740
O81	O8	0.901420	0.422160	0.566370
O91	O9	0.802240	0.442340	0.700930
O101	O10	0.624510	0.127090	0.391090
O111	O11	0.675970	0.951830	0.414870
O121	O12	0.591670	0.851490	0.621450
O131	O13	0.530750	0.024670	0.597450
O141	O14	0.726380	0.726560	0.984630
O151	O15	0.754260	0.651840	0.877810
O161	O16	0.052560	0.832260	0.290260
O171	O17	0.577840	0.098580	0.933630
O181	O18	0.557660	0.197760	0.799070
O191	O19	0.127090	0.624510	0.891090
O201	O20	0.951830	0.675970	0.914870
O211	O21	0.851490	0.591670	0.121450
O221	O22	0.024670	0.530750	0.097450
O231	O23	0.726560	0.726380	0.484630
O241	O24	0.651840	0.754260	0.377810
O251	O25	0.832260	0.052560	0.790260
O261	O26	0.098580	0.577840	0.433630
O271	O27	0.197760	0.557660	0.299070
O281	O28	0.375490	0.872910	0.608910
O291	O29	0.324030	0.048170	0.585130
O301	O30	0.408330	0.148510	0.378550
O311	O31	0.469250	0.975330	0.402550
O321	O32	0.273620	0.273440	0.015370
O331	O33	0.245740	0.348160	0.122190
O341	O34	0.947440	0.167740	0.709740
O351	O35	0.422160	0.901420	0.066370
O361	O36	0.442340	0.802240	0.200930
