data_CEGFAW_clean_PM
_symmetry_space_group_name_H-M	'P1'
_cell_length_a	11.113700
_cell_length_b	12.683600
_cell_length_c	19.726000
_cell_angle_alpha	90.000000
_cell_angle_beta	90.000000
_cell_angle_gamma	101.835000
_symmetry_Int_Tables_number 1

loop_
_symmetry_equiv_pos_as_xyz
'x,y,z'

loop_
_atom_site_label
_atom_site_type_symbol
_atom_site_fract_x
_atom_site_fract_y
_atom_site_fract_z
Ag11	Ag1	0.642300	0.654420	0.047600
Ag21	Ag2	0.765150	0.245120	0.167050
Ag31	Ag3	0.858900	0.840040	0.029880
Ag41	Ag4	0.485870	0.764180	0.765110
Ag51	Ag5	0.857700	0.345580	0.547600
Ag61	Ag6	0.734850	0.754880	0.667050
Ag71	Ag7	0.641100	0.159960	0.529880
Ag81	Ag8	0.014130	0.235820	0.265110
Ag91	Ag9	0.357700	0.345580	0.952400
Ag101	Ag10	0.234850	0.754880	0.832950
Ag111	Ag11	0.141100	0.159960	0.970120
Ag121	Ag12	0.514130	0.235820	0.234890
Ag131	Ag13	0.142300	0.654420	0.452400
Ag141	Ag14	0.265150	0.245120	0.332950
Ag151	Ag15	0.358900	0.840040	0.470120
Ag161	Ag16	0.985870	0.764180	0.734890
H11	H1	0.683700	0.624100	0.213500
H21	H2	0.732000	0.459100	0.262900
H31	H3	0.709500	0.459800	0.003200
H41	H4	0.808600	0.394100	0.029900
H51	H5	0.665000	0.341500	0.034000
H61	H6	0.800500	0.024500	0.255700
H71	H7	0.844300	0.862100	0.200400
H81	H8	0.770100	0.157700	0.037600
H91	H9	0.866800	0.092300	0.007600
H101	H10	0.722900	0.040500	0.005800
H111	H11	0.449300	0.615500	0.524100
H121	H12	0.487900	0.583600	0.645400
H131	H13	0.349200	0.936500	0.594200
H141	H14	0.441300	0.949600	0.657400
H151	H15	0.301000	0.889300	0.666800
H161	H16	0.538500	0.880100	0.014600
H171	H17	0.483800	0.928400	0.898400
H181	H18	0.600200	0.613900	0.828500
H191	H19	0.559300	0.554200	0.898800
H201	H20	0.698000	0.617800	0.888500
H211	H21	0.816300	0.375900	0.713500
H221	H22	0.768000	0.540900	0.762900
H231	H23	0.790500	0.540200	0.503200
H241	H24	0.691400	0.605900	0.529900
H251	H25	0.835000	0.658500	0.534000
H261	H26	0.699500	0.975500	0.755700
H271	H27	0.655700	0.137900	0.700400
H281	H28	0.729900	0.842300	0.537600
H291	H29	0.633200	0.907700	0.507600
H301	H30	0.777100	0.959500	0.505800
H311	H31	0.050700	0.384500	0.024100
H321	H32	0.012100	0.416400	0.145400
H331	H33	0.150800	0.063500	0.094200
H341	H34	0.058700	0.050400	0.157400
H351	H35	0.199000	0.110700	0.166800
H361	H36	0.961500	0.119900	0.514600
H371	H37	0.016200	0.071600	0.398400
H381	H38	0.899800	0.386100	0.328500
H391	H39	0.940700	0.445800	0.398800
H401	H40	0.802000	0.382200	0.388500
H411	H41	0.316300	0.375900	0.786500
H421	H42	0.268000	0.540900	0.737100
H431	H43	0.290500	0.540200	0.996800
H441	H44	0.191400	0.605900	0.970100
H451	H45	0.335000	0.658500	0.966000
H461	H46	0.199500	0.975500	0.744300
H471	H47	0.155700	0.137900	0.799600
H481	H48	0.229900	0.842300	0.962400
H491	H49	0.133200	0.907700	0.992400
H501	H50	0.277100	0.959500	0.994200
H511	H51	0.550700	0.384500	0.475900
H521	H52	0.512100	0.416400	0.354600
H531	H53	0.650800	0.063500	0.405800
H541	H54	0.558700	0.050400	0.342600
H551	H55	0.699000	0.110700	0.333200
H561	H56	0.461500	0.119900	0.985400
H571	H57	0.516200	0.071600	0.101600
H581	H58	0.399800	0.386100	0.171500
H591	H59	0.440700	0.445800	0.101200
H601	H60	0.302000	0.382200	0.111500
H611	H61	0.183700	0.624100	0.286500
H621	H62	0.232000	0.459100	0.237100
H631	H63	0.209500	0.459800	0.496800
H641	H64	0.308600	0.394100	0.470100
H651	H65	0.165000	0.341500	0.466000
H661	H66	0.300500	0.024500	0.244300
H671	H67	0.344300	0.862100	0.299600
H681	H68	0.270100	0.157700	0.462400
H691	H69	0.366800	0.092300	0.492400
H701	H70	0.222900	0.040500	0.494200
H711	H71	0.949300	0.615500	0.975900
H721	H72	0.987900	0.583600	0.854600
H731	H73	0.849200	0.936500	0.905800
H741	H74	0.941300	0.949600	0.842600
H751	H75	0.801000	0.889300	0.833200
H761	H76	0.038500	0.880100	0.485400
H771	H77	0.983800	0.928400	0.601600
H781	H78	0.100200	0.613900	0.671500
H791	H79	0.059300	0.554200	0.601200
H801	H80	0.198000	0.617800	0.611500
C11	C1	0.720600	0.456200	0.106500
C21	C2	0.698000	0.563500	0.188700
C31	C3	0.724900	0.473000	0.215900
C41	C4	0.726400	0.408800	0.037400
C51	C5	0.798500	0.036700	0.099800
C61	C6	0.803700	0.013200	0.208200
C71	C7	0.827500	0.923700	0.177800
C81	C8	0.788800	0.086000	0.031900
C91	C9	0.405200	0.797300	0.618100
C101	C10	0.440600	0.662200	0.560600
C111	C11	0.461900	0.644700	0.627300
C121	C12	0.371300	0.902200	0.635600
C131	C13	0.578100	0.717400	0.904600
C141	C14	0.544400	0.839800	0.974600
C151	C15	0.514500	0.866300	0.910500
C161	C16	0.611800	0.617200	0.877800
C171	C17	0.779400	0.543800	0.606500
C181	C18	0.802000	0.436500	0.688700
C191	C19	0.775100	0.527000	0.715900
C201	C20	0.773600	0.591200	0.537400
C211	C21	0.701500	0.963300	0.599800
C221	C22	0.696300	0.986800	0.708200
C231	C23	0.672500	0.076300	0.677800
C241	C24	0.711200	0.914000	0.531900
C251	C25	0.094800	0.202700	0.118100
C261	C26	0.059400	0.337800	0.060600
C271	C27	0.038100	0.355300	0.127300
C281	C28	0.128700	0.097800	0.135600
C291	C29	0.921900	0.282600	0.404600
C301	C30	0.955600	0.160200	0.474600
C311	C31	0.985500	0.133700	0.410500
C321	C32	0.888200	0.382800	0.377800
C331	C33	0.279400	0.543800	0.893500
C341	C34	0.302000	0.436500	0.811300
C351	C35	0.275100	0.527000	0.784100
C361	C36	0.273600	0.591200	0.962600
C371	C37	0.201500	0.963300	0.900200
C381	C38	0.196300	0.986800	0.791800
C391	C39	0.172500	0.076300	0.822200
C401	C40	0.211200	0.914000	0.968100
C411	C41	0.594800	0.202700	0.381900
C421	C42	0.559400	0.337800	0.439400
C431	C43	0.538100	0.355300	0.372700
C441	C44	0.628700	0.097800	0.364400
C451	C45	0.421900	0.282600	0.095400
C461	C46	0.455600	0.160200	0.025400
C471	C47	0.485500	0.133700	0.089500
C481	C48	0.388200	0.382800	0.122200
C491	C49	0.220600	0.456200	0.393500
C501	C50	0.198000	0.563500	0.311300
C511	C51	0.224900	0.473000	0.284100
C521	C52	0.226400	0.408800	0.462600
C531	C53	0.298500	0.036700	0.400200
C541	C54	0.303700	0.013200	0.291800
C551	C55	0.327500	0.923700	0.322200
C561	C56	0.288800	0.086000	0.468100
C571	C57	0.905200	0.797300	0.881900
C581	C58	0.940600	0.662200	0.939400
C591	C59	0.961900	0.644700	0.872700
C601	C60	0.871300	0.902200	0.864400
C611	C61	0.078100	0.717400	0.595400
C621	C62	0.044400	0.839800	0.525400
C631	C63	0.014500	0.866300	0.589500
C641	C64	0.111800	0.617200	0.622200
N11	N1	0.694700	0.552900	0.118900
N21	N2	0.740300	0.404300	0.163700
N31	N3	0.785000	0.085400	0.158700
N41	N4	0.823200	0.937500	0.108200
N51	N5	0.404400	0.759100	0.555400
N61	N6	0.439100	0.731100	0.664000
N71	N7	0.535800	0.789100	0.867000
N81	N8	0.584700	0.744500	0.970800
N91	N9	0.805300	0.447100	0.618900
N101	N10	0.759700	0.595700	0.663700
N111	N11	0.715000	0.914600	0.658700
N121	N12	0.676800	0.062500	0.608200
N131	N13	0.095600	0.240900	0.055400
N141	N14	0.060900	0.268900	0.164000
N151	N15	0.964200	0.210900	0.367000
N161	N16	0.915300	0.255500	0.470800
N171	N17	0.305300	0.447100	0.881100
N181	N18	0.259700	0.595700	0.836300
N191	N19	0.215000	0.914600	0.841300
N201	N20	0.176800	0.062500	0.891800
N211	N21	0.595600	0.240900	0.444600
N221	N22	0.560900	0.268900	0.336000
N231	N23	0.464200	0.210900	0.133000
N241	N24	0.415300	0.255500	0.029200
N251	N25	0.194700	0.552900	0.381100
N261	N26	0.240300	0.404300	0.336300
N271	N27	0.285000	0.085400	0.341300
N281	N28	0.323200	0.937500	0.391800
N291	N29	0.904400	0.759100	0.944600
N301	N30	0.939100	0.731100	0.836000
N311	N31	0.035800	0.789100	0.633000
N321	N32	0.084700	0.744500	0.529200
