data_CEGWER_clean_PM
_symmetry_space_group_name_H-M	'P1'
_cell_length_a	7.260300
_cell_length_b	10.352300
_cell_length_c	18.692000
_cell_angle_alpha	90.000000
_cell_angle_beta	94.087000
_cell_angle_gamma	90.000000
_symmetry_Int_Tables_number 1

loop_
_symmetry_equiv_pos_as_xyz
'x,y,z'

loop_
_atom_site_label
_atom_site_type_symbol
_atom_site_fract_x
_atom_site_fract_y
_atom_site_fract_z
Ca11	Ca1	0.746950	0.257200	0.867080
Ca21	Ca2	0.753050	0.757200	0.632920
Ca31	Ca3	0.253050	0.742800	0.132920
Ca41	Ca4	0.246950	0.242800	0.367080
P11	P1	0.823660	0.434390	0.700060
P21	P2	0.676340	0.934390	0.799940
P31	P3	0.176340	0.565610	0.299940
P41	P4	0.323660	0.065610	0.200060
H11	H1	0.121300	0.417200	0.794800
H21	H2	0.238200	0.461800	0.732100
H31	H3	0.991700	0.301400	0.588300
H41	H4	0.184100	0.249400	0.618600
H51	H5	0.311400	0.453000	0.619600
H61	H6	0.117400	0.517800	0.604800
H71	H7	0.487400	0.153700	0.766000
H81	H8	0.716800	0.422300	0.576300
H91	H9	0.871500	0.053300	0.696700
H101	H10	0.378700	0.917200	0.705200
H111	H11	0.261800	0.961800	0.767900
H121	H12	0.508300	0.801400	0.911700
H131	H13	0.315900	0.749400	0.881400
H141	H14	0.188600	0.953000	0.880400
H151	H15	0.382600	0.017800	0.895200
H161	H16	0.012600	0.653700	0.734000
H171	H17	0.783200	0.922300	0.923700
H181	H18	0.628500	0.553300	0.803300
H191	H19	0.878700	0.582800	0.205200
H201	H20	0.761800	0.538200	0.267900
H211	H21	0.008300	0.698600	0.411700
H221	H22	0.815900	0.750600	0.381400
H231	H23	0.688600	0.547000	0.380400
H241	H24	0.882600	0.482200	0.395200
H251	H25	0.512600	0.846300	0.234000
H261	H26	0.283200	0.577700	0.423700
H271	H27	0.128500	0.946700	0.303300
H281	H28	0.621300	0.082800	0.294800
H291	H29	0.738200	0.038200	0.232100
H301	H30	0.491700	0.198600	0.088300
H311	H31	0.684100	0.250600	0.118600
H321	H32	0.811400	0.047000	0.119600
H331	H33	0.617400	0.982200	0.104800
H341	H34	0.987400	0.346300	0.266000
H351	H35	0.216800	0.077700	0.076300
H361	H36	0.371500	0.446700	0.196700
C11	C1	0.335000	0.296500	0.779400
C21	C2	0.182900	0.387100	0.753510
C31	C3	0.035000	0.330300	0.698280
C41	C4	0.098400	0.320900	0.620720
C51	C5	0.191400	0.443300	0.593910
C61	C6	0.216200	0.441400	0.514500
C71	C7	0.978500	0.200400	0.726600
C81	C8	0.165000	0.796500	0.720600
C91	C9	0.317100	0.887100	0.746490
C101	C10	0.465000	0.830300	0.801720
C111	C11	0.401600	0.820900	0.879280
C121	C12	0.308600	0.943300	0.906090
C131	C13	0.283800	0.941400	0.985500
C141	C14	0.521500	0.700400	0.773400
C151	C15	0.665000	0.703500	0.220600
C161	C16	0.817100	0.612900	0.246490
C171	C17	0.965000	0.669700	0.301720
C181	C18	0.901600	0.679100	0.379280
C191	C19	0.808600	0.556700	0.406090
C201	C20	0.783800	0.558600	0.485500
C211	C21	0.021500	0.799600	0.273400
C221	C22	0.835000	0.203500	0.279400
C231	C23	0.682900	0.112900	0.253510
C241	C24	0.535000	0.169700	0.198280
C251	C25	0.598400	0.179100	0.120720
C261	C26	0.691400	0.056700	0.093910
C271	C27	0.716200	0.058600	0.014500
C281	C28	0.478500	0.299600	0.226600
O11	O1	0.417900	0.309400	0.838700
O21	O2	0.372300	0.204000	0.735280
O31	O3	0.186200	0.349400	0.475650
O41	O4	0.275800	0.552500	0.492320
O51	O5	0.982200	0.176800	0.790760
O61	O6	0.919000	0.117100	0.677540
O71	O7	0.747100	0.411000	0.772560
O81	O8	0.889300	0.572900	0.692190
O91	O9	0.691400	0.395400	0.637280
O101	O10	0.082100	0.809400	0.661300
O111	O11	0.127700	0.704000	0.764720
O121	O12	0.313800	0.849400	0.024350
O131	O13	0.224200	0.052500	0.007680
O141	O14	0.517800	0.676800	0.709240
O151	O15	0.581000	0.617100	0.822460
O161	O16	0.752900	0.911000	0.727440
O171	O17	0.610700	0.072900	0.807810
O181	O18	0.808600	0.895400	0.862720
O191	O19	0.582100	0.690600	0.161300
O201	O20	0.627700	0.796000	0.264720
O211	O21	0.813800	0.650600	0.524350
O221	O22	0.724200	0.447500	0.507680
O231	O23	0.017800	0.823200	0.209240
O241	O24	0.081000	0.882900	0.322460
O251	O25	0.252900	0.589000	0.227440
O261	O26	0.110700	0.427100	0.307810
O271	O27	0.308600	0.604600	0.362720
O281	O28	0.917900	0.190600	0.338700
O291	O29	0.872300	0.296000	0.235280
O301	O30	0.686200	0.150600	0.975650
O311	O31	0.775800	0.947500	0.992320
O321	O32	0.482200	0.323200	0.290760
O331	O33	0.419000	0.382900	0.177540
O341	O34	0.247100	0.089000	0.272560
O351	O35	0.389300	0.927100	0.192190
O361	O36	0.191400	0.104600	0.137280
