data_CEHWIX_clean_PM
_symmetry_space_group_name_H-M	'P1'
_cell_length_a	7.865100
_cell_length_b	10.545000
_cell_length_c	11.200000
_cell_angle_alpha	90.000000
_cell_angle_beta	90.000000
_cell_angle_gamma	90.000000
_symmetry_Int_Tables_number 1

loop_
_symmetry_equiv_pos_as_xyz
'x,y,z'

loop_
_atom_site_label
_atom_site_type_symbol
_atom_site_fract_x
_atom_site_fract_y
_atom_site_fract_z
Ni11	Ni1	0.743080	0.215450	0.321080
Ni21	Ni2	0.243080	0.784550	0.678920
Ni31	Ni3	0.743080	0.715450	0.178920
Ni41	Ni4	0.243080	0.284550	0.821080
H11	H1	0.963900	0.037700	0.144400
H21	H2	0.995900	0.428100	0.982100
H31	H3	0.125500	0.072300	0.979500
H41	H4	0.463900	0.962300	0.855600
H51	H5	0.495900	0.571900	0.017900
H61	H6	0.625500	0.927700	0.020500
H71	H7	0.963900	0.537700	0.355600
H81	H8	0.995900	0.928100	0.517900
H91	H9	0.125500	0.572300	0.520500
H101	H10	0.463900	0.462300	0.644400
H111	H11	0.495900	0.071900	0.482100
H121	H12	0.625500	0.427700	0.479500
C11	C1	0.788600	0.428900	0.173000
C21	C2	0.969200	0.119000	0.112400
C31	C3	0.890900	0.325800	0.112200
C41	C4	0.991500	0.347000	0.014600
C51	C5	0.067700	0.140200	0.013500
C61	C6	0.288600	0.571100	0.827000
C71	C7	0.469200	0.881000	0.887600
C81	C8	0.390900	0.674200	0.887800
C91	C9	0.491500	0.653000	0.985400
C101	C10	0.567700	0.859800	0.986500
C111	C11	0.788600	0.928900	0.327000
C121	C12	0.969200	0.619000	0.387600
C131	C13	0.890900	0.825800	0.387800
C141	C14	0.991500	0.847000	0.485400
C151	C15	0.067700	0.640200	0.486500
C161	C16	0.288600	0.071100	0.673000
C171	C17	0.469200	0.381000	0.612400
C181	C18	0.390900	0.174200	0.612200
C191	C19	0.491500	0.153000	0.514600
C201	C20	0.567700	0.359800	0.513500
N11	N1	0.882000	0.210700	0.163200
N21	N2	0.083700	0.254600	0.964400
N31	N3	0.382000	0.789300	0.836800
N41	N4	0.583700	0.745400	0.035600
N51	N5	0.882000	0.710700	0.336800
N61	N6	0.083700	0.754600	0.535600
N71	N7	0.382000	0.289300	0.663200
N81	N8	0.583700	0.245400	0.464400
Cl11	Cl1	0.992100	0.281460	0.438930
Cl21	Cl2	0.492100	0.718540	0.561070
Cl31	Cl3	0.992100	0.781460	0.061070
Cl41	Cl4	0.492100	0.218540	0.938930
O11	O1	0.714200	0.400400	0.267400
O21	O2	0.792700	0.535300	0.124200
O31	O3	0.214200	0.599600	0.732600
O41	O4	0.292700	0.464700	0.875800
O51	O5	0.714200	0.900400	0.232600
O61	O6	0.792700	0.035300	0.375800
O71	O7	0.214200	0.099600	0.767400
O81	O8	0.292700	0.964700	0.624200
