data_CEJCAW_clean_PM
_symmetry_space_group_name_H-M	'P1'
_cell_length_a	11.155600
_cell_length_b	13.043000
_cell_length_c	14.135000
_cell_angle_alpha	89.759000
_cell_angle_beta	87.182000
_cell_angle_gamma	85.006000
_symmetry_Int_Tables_number 1

loop_
_symmetry_equiv_pos_as_xyz
'x,y,z'

loop_
_atom_site_label
_atom_site_type_symbol
_atom_site_fract_x
_atom_site_fract_y
_atom_site_fract_z
Cu11	Cu1	0.594440	0.932110	0.999340
Cu21	Cu2	0.598470	0.549720	0.498930
C11	C1	0.658200	0.149700	0.783800
C21	C2	0.593600	0.227700	0.734800
C31	C3	0.658200	0.285600	0.669000
C41	C4	0.779900	0.263700	0.650500
H11	H1	0.820300	0.303000	0.606400
C51	C5	0.842900	0.183900	0.696500
H21	H2	0.925400	0.169700	0.684500
C61	C6	0.779100	0.124700	0.762100
H31	H3	0.819000	0.068200	0.791000
C71	C7	0.598500	0.089500	0.862800
C81	C8	0.461700	0.247700	0.750500
C91	C9	0.595000	0.369800	0.612200
O11	O1	0.655500	0.011000	0.893300
O21	O2	0.498900	0.128300	0.896400
O31	O3	0.416300	0.326200	0.793900
O41	O4	0.397000	0.183900	0.712200
O51	O5	0.654700	0.443700	0.589600
O61	O6	0.488000	0.360800	0.592400
C101	C10	0.340000	0.824200	0.819000
C111	C11	0.404100	0.750400	0.758300
C121	C12	0.339000	0.691100	0.700600
C131	C13	0.216700	0.701900	0.704800
H41	H4	0.175800	0.660100	0.666800
C141	C14	0.150900	0.772800	0.763400
H51	H5	0.067100	0.779600	0.764600
C151	C15	0.214000	0.834200	0.821000
H61	H6	0.171600	0.882300	0.861200
C161	C16	0.401100	0.887400	0.885000
C171	C17	0.540200	0.745100	0.752400
C181	C18	0.402000	0.615100	0.629900
O71	O7	0.503000	0.855400	0.911400
O81	O8	0.345000	0.970000	0.911200
O91	O9	0.588600	0.814700	0.709200
O101	O10	0.596100	0.668000	0.790400
O111	O11	0.503600	0.629100	0.600700
O121	O12	0.341000	0.543600	0.604400
N11	N1	0.327800	0.560800	0.002100
C191	C19	0.293200	0.640700	0.057200
H71	H7	0.349900	0.665900	0.095100
C201	C20	0.177600	0.688900	0.061700
H81	H8	0.157700	0.744400	0.102300
C211	C21	0.092300	0.653900	0.005400
C221	C22	0.129900	0.570100	0.949000
H91	H9	0.076600	0.542700	0.909600
C231	C23	0.246700	0.527500	0.951500
H101	H10	0.268800	0.470100	0.913600
N21	N2	0.750700	0.825200	0.003700
C241	C24	0.805900	0.809700	0.083300
H111	H11	0.769800	0.839200	0.138500
C251	C25	0.915800	0.751200	0.088700
H121	H12	0.951200	0.741700	0.146600
C261	C26	0.971800	0.707500	0.007800
C271	C27	0.907100	0.717700	0.926400
H131	H13	0.936800	0.684400	0.870900
C281	C28	0.796800	0.778400	0.927800
H141	H14	0.755300	0.785500	0.872400
Cu31	Cu3	0.405560	0.067890	0.000660
Cu41	Cu4	0.401530	0.450280	0.501070
C291	C29	0.341800	0.850300	0.216200
C301	C30	0.406400	0.772300	0.265200
C311	C31	0.341800	0.714400	0.331000
C321	C32	0.220100	0.736300	0.349500
H151	H15	0.179700	0.697000	0.393600
C331	C33	0.157100	0.816100	0.303500
H161	H16	0.074600	0.830300	0.315500
C341	C34	0.220900	0.875300	0.237900
H171	H17	0.181000	0.931800	0.209000
C351	C35	0.401500	0.910500	0.137200
C361	C36	0.538300	0.752300	0.249500
C371	C37	0.405000	0.630200	0.387800
O131	O13	0.344500	0.989000	0.106700
O141	O14	0.501100	0.871700	0.103600
O151	O15	0.583700	0.673800	0.206100
O161	O16	0.603000	0.816100	0.287800
O171	O17	0.345300	0.556300	0.410400
O181	O18	0.512000	0.639200	0.407600
C381	C38	0.660000	0.175800	0.181000
C391	C39	0.595900	0.249600	0.241700
C401	C40	0.661000	0.308900	0.299400
C411	C41	0.783300	0.298100	0.295200
H181	H18	0.824200	0.339900	0.333200
C421	C42	0.849100	0.227200	0.236600
H191	H19	0.932900	0.220400	0.235400
C431	C43	0.786000	0.165800	0.179000
H201	H20	0.828400	0.117700	0.138800
C441	C44	0.598900	0.112600	0.115000
C451	C45	0.459800	0.254900	0.247600
C461	C46	0.598000	0.384900	0.370100
O191	O19	0.497000	0.144600	0.088600
O201	O20	0.655000	0.030000	0.088800
O211	O21	0.411400	0.185300	0.290800
O221	O22	0.403900	0.332000	0.209600
O231	O23	0.496400	0.370900	0.399300
O241	O24	0.659000	0.456400	0.395600
N31	N3	0.672200	0.439200	0.997900
C471	C47	0.706800	0.359300	0.942800
H211	H21	0.650100	0.334100	0.904900
C481	C48	0.822400	0.311100	0.938300
H221	H22	0.842300	0.255600	0.897700
C491	C49	0.907700	0.346100	0.994600
C501	C50	0.870100	0.429900	0.051000
H231	H23	0.923400	0.457300	0.090400
C511	C51	0.753300	0.472500	0.048500
H241	H24	0.731200	0.529900	0.086400
N41	N4	0.249300	0.174800	0.996300
C521	C52	0.194100	0.190300	0.916700
H251	H25	0.230200	0.160800	0.861500
C531	C53	0.084200	0.248800	0.911300
H261	H26	0.048800	0.258300	0.853400
C541	C54	0.028200	0.292500	0.992200
C551	C55	0.092900	0.282300	0.073600
H271	H27	0.063200	0.315600	0.129100
C561	C56	0.203200	0.221600	0.072200
H281	H28	0.244700	0.214500	0.127600
Cu51	Cu5	0.500000	0.500000	0.000000
