data_CEJVET_clean_PM
_symmetry_space_group_name_H-M	'P1'
_cell_length_a	16.673000
_cell_length_b	9.586100
_cell_length_c	22.518000
_cell_angle_alpha	90.000000
_cell_angle_beta	103.956000
_cell_angle_gamma	90.000000
_symmetry_Int_Tables_number 1

loop_
_symmetry_equiv_pos_as_xyz
'x,y,z'

loop_
_atom_site_label
_atom_site_type_symbol
_atom_site_fract_x
_atom_site_fract_y
_atom_site_fract_z
Ce11	Ce1	0.074000	0.272120	0.182240
Ce21	Ce2	0.236810	0.765010	0.045630
Ce31	Ce3	0.332260	0.201320	0.129750
Ce41	Ce4	0.467390	0.241500	0.415520
S11	S1	0.159500	0.033670	0.105310
S21	S2	0.410570	0.835100	0.170180
S31	S3	0.011090	0.034160	0.259510
S41	S4	0.181590	0.507970	0.114200
S51	S5	0.372320	0.474370	0.015470
S61	S6	0.378210	0.988810	0.997860
S71	S7	0.913220	0.250560	0.072940
S81	S8	0.298040	0.291150	0.280310
O11	O1	0.059100	0.018400	0.212770
O21	O2	0.985400	0.339300	0.076470
O31	O3	0.141200	0.564000	0.053710
O41	O4	0.405500	0.756000	0.223760
O51	O5	0.928400	0.170300	0.130470
O61	O6	0.496100	0.878800	0.172270
O71	O7	0.385600	0.749200	0.113840
O81	O8	0.211100	0.062500	0.060720
O91	O9	0.836400	0.333800	0.064710
O101	O10	0.162200	0.881600	0.115150
O111	O11	0.008500	0.187100	0.269660
O121	O12	0.376900	0.415600	0.956190
O131	O13	0.298600	0.914400	0.983140
O141	O14	0.897900	0.156000	0.019640
O151	O15	0.306700	0.577500	0.004940
O161	O16	0.355200	0.954500	0.163800
O171	O17	0.337000	0.204100	0.240530
O181	O18	0.328800	0.241600	0.343410
O191	O19	0.199400	0.107800	0.162200
O201	O20	0.252300	0.601700	0.138950
O211	O21	0.075800	0.085000	0.085410
O221	O22	0.207500	0.276000	0.263040
O231	O23	0.049300	0.959800	0.315930
O241	O24	0.385700	0.069400	0.945330
O251	O25	0.124800	0.504700	0.154270
O261	O26	0.927700	0.974500	0.237530
O271	O27	0.208800	0.364100	0.108500
O281	O28	0.449900	0.535700	0.045900
O291	O29	0.321800	0.435200	0.274700
O301	O30	0.387400	0.069400	0.051800
O311	O31	0.442600	0.877900	0.006400
O321	O32	0.349500	0.363800	0.052000
Ce51	Ce5	0.926000	0.772120	0.317760
Ce61	Ce6	0.763190	0.265010	0.454370
Ce71	Ce7	0.667740	0.701320	0.370250
Ce81	Ce8	0.532610	0.741500	0.084480
S91	S9	0.840500	0.533670	0.394690
S101	S10	0.589430	0.335100	0.329820
S111	S11	0.988910	0.534160	0.240490
S121	S12	0.818410	0.007970	0.385800
S131	S13	0.627680	0.974370	0.484530
S141	S14	0.621790	0.488810	0.502140
S151	S15	0.086780	0.750560	0.427060
S161	S16	0.701960	0.791150	0.219690
O331	O33	0.940900	0.518400	0.287230
O341	O34	0.014600	0.839300	0.423530
O351	O35	0.858800	0.064000	0.446290
O361	O36	0.594500	0.256000	0.276240
O371	O37	0.071600	0.670300	0.369530
O381	O38	0.503900	0.378800	0.327730
O391	O39	0.614400	0.249200	0.386160
O401	O40	0.788900	0.562500	0.439280
O411	O41	0.163600	0.833800	0.435290
O421	O42	0.837800	0.381600	0.384850
O431	O43	0.991500	0.687100	0.230340
O441	O44	0.623100	0.915600	0.543810
O451	O45	0.701400	0.414400	0.516860
O461	O46	0.102100	0.656000	0.480360
O471	O47	0.693300	0.077500	0.495060
O481	O48	0.644800	0.454500	0.336200
O491	O49	0.663000	0.704100	0.259470
O501	O50	0.671200	0.741600	0.156590
O511	O51	0.800600	0.607800	0.337800
O521	O52	0.747700	0.101700	0.361050
O531	O53	0.924200	0.585000	0.414590
O541	O54	0.792500	0.776000	0.236960
O551	O55	0.950700	0.459800	0.184070
O561	O56	0.614300	0.569400	0.554670
O571	O57	0.875200	0.004700	0.345730
O581	O58	0.072300	0.474500	0.262470
O591	O59	0.791200	0.864100	0.391500
O601	O60	0.550100	0.035700	0.454100
O611	O61	0.678200	0.935200	0.225300
O621	O62	0.612600	0.569400	0.448200
O631	O63	0.557400	0.377900	0.493600
O641	O64	0.650500	0.863800	0.448000
Ce91	Ce9	0.926000	0.727880	0.817760
Ce101	Ce10	0.763190	0.234990	0.954370
Ce111	Ce11	0.667740	0.798680	0.870250
Ce121	Ce12	0.532610	0.758500	0.584480
S171	S17	0.840500	0.966330	0.894690
S181	S18	0.589430	0.164900	0.829820
S191	S19	0.988910	0.965840	0.740490
S201	S20	0.818410	0.492030	0.885800
S211	S21	0.627680	0.525630	0.984530
S221	S22	0.621790	0.011190	0.002140
S231	S23	0.086780	0.749440	0.927060
S241	S24	0.701960	0.708850	0.719690
O651	O65	0.940900	0.981600	0.787230
O661	O66	0.014600	0.660700	0.923530
O671	O67	0.858800	0.436000	0.946290
O681	O68	0.594500	0.244000	0.776240
O691	O69	0.071600	0.829700	0.869530
O701	O70	0.503900	0.121200	0.827730
O711	O71	0.614400	0.250800	0.886160
O721	O72	0.788900	0.937500	0.939280
O731	O73	0.163600	0.666200	0.935290
O741	O74	0.837800	0.118400	0.884850
O751	O75	0.991500	0.812900	0.730340
O761	O76	0.623100	0.584400	0.043810
O771	O77	0.701400	0.085600	0.016860
O781	O78	0.102100	0.844000	0.980360
O791	O79	0.693300	0.422500	0.995060
O801	O80	0.644800	0.045500	0.836200
O811	O81	0.663000	0.795900	0.759470
O821	O82	0.671200	0.758400	0.656590
O831	O83	0.800600	0.892200	0.837800
O841	O84	0.747700	0.398300	0.861050
O851	O85	0.924200	0.915000	0.914590
O861	O86	0.792500	0.724000	0.736960
O871	O87	0.950700	0.040200	0.684070
O881	O88	0.614300	0.930600	0.054670
O891	O89	0.875200	0.495300	0.845730
O901	O90	0.072300	0.025500	0.762470
O911	O91	0.791200	0.635900	0.891500
O921	O92	0.550100	0.464300	0.954100
O931	O93	0.678200	0.564800	0.725300
O941	O94	0.612600	0.930600	0.948200
O951	O95	0.557400	0.122100	0.993600
O961	O96	0.650500	0.636200	0.948000
Ce131	Ce13	0.074000	0.227880	0.682240
Ce141	Ce14	0.236810	0.734990	0.545630
Ce151	Ce15	0.332260	0.298680	0.629750
Ce161	Ce16	0.467390	0.258500	0.915520
S251	S25	0.159500	0.466330	0.605310
S261	S26	0.410570	0.664900	0.670180
S271	S27	0.011090	0.465840	0.759510
S281	S28	0.181590	0.992030	0.614200
S291	S29	0.372320	0.025630	0.515470
S301	S30	0.378210	0.511190	0.497860
S311	S31	0.913220	0.249440	0.572940
S321	S32	0.298040	0.208850	0.780310
O971	O97	0.059100	0.481600	0.712770
O981	O98	0.985400	0.160700	0.576470
O991	O99	0.141200	0.936000	0.553710
O1001	O100	0.405500	0.744000	0.723760
O1011	O101	0.928400	0.329700	0.630470
O1021	O102	0.496100	0.621200	0.672270
O1031	O103	0.385600	0.750800	0.613840
O1041	O104	0.211100	0.437500	0.560720
O1051	O105	0.836400	0.166200	0.564710
O1061	O106	0.162200	0.618400	0.615150
O1071	O107	0.008500	0.312900	0.769660
O1081	O108	0.376900	0.084400	0.456190
O1091	O109	0.298600	0.585600	0.483140
O1101	O110	0.897900	0.344000	0.519640
O1111	O111	0.306700	0.922500	0.504940
O1121	O112	0.355200	0.545500	0.663800
O1131	O113	0.337000	0.295900	0.740530
O1141	O114	0.328800	0.258400	0.843410
O1151	O115	0.199400	0.392200	0.662200
O1161	O116	0.252300	0.898300	0.638950
O1171	O117	0.075800	0.415000	0.585410
O1181	O118	0.207500	0.224000	0.763040
O1191	O119	0.049300	0.540200	0.815930
O1201	O120	0.385700	0.430600	0.445330
O1211	O121	0.124800	0.995300	0.654270
O1221	O122	0.927700	0.525500	0.737530
O1231	O123	0.208800	0.135900	0.608500
O1241	O124	0.449900	0.964300	0.545900
O1251	O125	0.321800	0.064800	0.774700
O1261	O126	0.387400	0.430600	0.551800
O1271	O127	0.442600	0.622100	0.506400
O1281	O128	0.349500	0.136200	0.552000
