data_CEJZAU_clean_PM
_symmetry_space_group_name_H-M	'P1'
_cell_length_a	16.165200
_cell_length_b	16.165200
_cell_length_c	29.496400
_cell_angle_alpha	74.316000
_cell_angle_beta	74.316000
_cell_angle_gamma	63.785100
_symmetry_Int_Tables_number 1

loop_
_symmetry_equiv_pos_as_xyz
'x,y,z'

loop_
_atom_site_label
_atom_site_type_symbol
_atom_site_fract_x
_atom_site_fract_y
_atom_site_fract_z
Co11	Co1	0.789390	0.125250	0.517000
Co21	Co2	0.037620	0.819960	0.580900
Co31	Co3	0.874750	0.210610	0.983000
Co41	Co4	0.180040	0.962380	0.919100
Co51	Co5	0.210610	0.874750	0.483000
Co61	Co6	0.962380	0.180040	0.419100
Co71	Co7	0.125250	0.789390	0.017000
Co81	Co8	0.819960	0.037620	0.080900
Co91	Co9	0.000000	0.000000	0.500000
Co101	Co10	0.000000	0.000000	0.000000
H11	H1	0.717400	0.019800	0.613400
H21	H2	0.634700	0.050300	0.687600
H31	H3	0.546500	0.323700	0.632600
H41	H4	0.630100	0.285300	0.559900
H51	H5	0.481000	0.114400	0.738000
H61	H6	0.378400	0.296400	0.828800
H71	H7	0.564300	0.325500	0.711100
H81	H8	0.470300	0.020300	0.831100
H91	H9	0.380700	0.941700	0.877100
H101	H10	0.153500	0.162300	0.860900
H111	H11	0.236700	0.249300	0.817900
H121	H12	0.389700	0.468700	0.859100
H131	H13	0.173200	0.681200	0.804500
H141	H14	0.371500	0.499700	0.722500
H151	H15	0.364700	0.574500	0.904500
H161	H16	0.308500	0.642900	0.970800
H171	H17	0.052400	0.724200	0.954300
H181	H18	0.100900	0.662700	0.886500
H191	H19	0.137500	0.776500	0.738200
H201	H20	0.063900	0.854300	0.674500
H211	H21	0.209500	0.644100	0.608900
H221	H22	0.283400	0.558800	0.672000
H231	H23	0.954600	0.728200	0.525800
H241	H24	0.902600	0.608800	0.544200
H251	H25	0.638000	0.794000	0.564400
H261	H26	0.688900	0.913900	0.546300
H271	H27	0.835300	0.583500	0.487100
H281	H28	0.875700	0.451700	0.456500
H291	H29	0.732400	0.354200	0.575100
H301	H30	0.697300	0.482700	0.607200
H311	H31	0.117800	0.032600	0.302700
H321	H32	0.179500	0.945700	0.242800
H331	H33	0.216600	0.711600	0.339600
H341	H34	0.159700	0.798100	0.400100
H351	H35	0.980200	0.282600	0.886600
H361	H36	0.949700	0.365300	0.812400
H371	H37	0.676300	0.453500	0.867400
H381	H38	0.714700	0.369900	0.940100
H391	H39	0.885600	0.519000	0.762000
H401	H40	0.703600	0.621600	0.671200
H411	H41	0.674500	0.435700	0.788900
H421	H42	0.979700	0.529700	0.668900
H431	H43	0.058300	0.619300	0.622900
H441	H44	0.837700	0.846500	0.639100
H451	H45	0.750700	0.763300	0.682100
H461	H46	0.531300	0.610300	0.640900
H471	H47	0.318800	0.826800	0.695500
H481	H48	0.500300	0.628500	0.777500
H491	H49	0.425500	0.635300	0.595500
H501	H50	0.357100	0.691500	0.529200
H511	H51	0.275800	0.947600	0.545700
H521	H52	0.337300	0.899100	0.613500
H531	H53	0.223500	0.862500	0.761800
H541	H54	0.145700	0.936100	0.825500
H551	H55	0.355900	0.790500	0.891100
H561	H56	0.441200	0.716600	0.828000
H571	H57	0.271800	0.045400	0.974200
H581	H58	0.391200	0.097400	0.955800
H591	H59	0.206000	0.362000	0.935600
H601	H60	0.086100	0.311100	0.953700
H611	H61	0.416500	0.164700	0.012900
H621	H62	0.548300	0.124300	0.043500
H631	H63	0.645800	0.267600	0.924900
H641	H64	0.517300	0.302700	0.892800
H651	H65	0.967400	0.882200	0.197300
H661	H66	0.054300	0.820500	0.257200
H671	H67	0.288400	0.783400	0.160400
H681	H68	0.201900	0.840300	0.099900
H691	H69	0.282600	0.980200	0.386600
H701	H70	0.365300	0.949700	0.312400
H711	H71	0.453500	0.676300	0.367400
H721	H72	0.369900	0.714700	0.440100
H731	H73	0.519000	0.885600	0.262000
H741	H74	0.621600	0.703600	0.171200
H751	H75	0.435700	0.674500	0.288900
H761	H76	0.529700	0.979700	0.168900
H771	H77	0.619300	0.058300	0.122900
H781	H78	0.846500	0.837700	0.139100
H791	H79	0.763300	0.750700	0.182100
H801	H80	0.610300	0.531300	0.140900
H811	H81	0.826800	0.318800	0.195500
H821	H82	0.628500	0.500300	0.277500
H831	H83	0.635300	0.425500	0.095500
H841	H84	0.691500	0.357100	0.029200
H851	H85	0.947600	0.275800	0.045700
H861	H86	0.899100	0.337300	0.113500
H871	H87	0.862500	0.223500	0.261800
H881	H88	0.936100	0.145700	0.325500
H891	H89	0.790500	0.355900	0.391100
H901	H90	0.716600	0.441200	0.328000
H911	H91	0.045400	0.271800	0.474200
H921	H92	0.097400	0.391200	0.455800
H931	H93	0.362000	0.206000	0.435600
H941	H94	0.311100	0.086100	0.453700
H951	H95	0.164700	0.416500	0.512900
H961	H96	0.124300	0.548300	0.543500
H971	H97	0.267600	0.645800	0.424900
H981	H98	0.302700	0.517300	0.392800
H991	H99	0.882200	0.967400	0.697300
H1001	H100	0.820500	0.054300	0.757200
H1011	H101	0.783400	0.288400	0.660400
H1021	H102	0.840300	0.201900	0.599900
H1031	H103	0.019800	0.717400	0.113400
H1041	H104	0.050300	0.634700	0.187600
H1051	H105	0.323700	0.546500	0.132600
H1061	H106	0.285300	0.630100	0.059900
H1071	H107	0.114400	0.481000	0.238000
H1081	H108	0.296400	0.378400	0.328800
H1091	H109	0.325500	0.564300	0.211100
H1101	H110	0.020300	0.470300	0.331100
H1111	H111	0.941700	0.380700	0.377100
H1121	H112	0.162300	0.153500	0.360900
H1131	H113	0.249300	0.236700	0.317900
H1141	H114	0.468700	0.389700	0.359100
H1151	H115	0.681200	0.173200	0.304500
H1161	H116	0.499700	0.371500	0.222500
H1171	H117	0.574500	0.364700	0.404500
H1181	H118	0.642900	0.308500	0.470800
H1191	H119	0.724200	0.052400	0.454300
H1201	H120	0.662700	0.100900	0.386500
H1211	H121	0.776500	0.137500	0.238200
H1221	H122	0.854300	0.063900	0.174500
H1231	H123	0.644100	0.209500	0.108900
H1241	H124	0.558800	0.283400	0.172000
H1251	H125	0.728200	0.954600	0.025800
H1261	H126	0.608800	0.902600	0.044200
H1271	H127	0.794000	0.638000	0.064400
H1281	H128	0.913900	0.688900	0.046300
H1291	H129	0.583500	0.835300	0.987100
H1301	H130	0.451700	0.875700	0.956500
H1311	H131	0.354200	0.732400	0.075100
H1321	H132	0.482700	0.697300	0.107200
H1331	H133	0.032600	0.117800	0.802700
H1341	H134	0.945700	0.179500	0.742800
H1351	H135	0.711600	0.216600	0.839600
H1361	H136	0.798100	0.159700	0.900100
C11	C1	0.683570	0.081790	0.617550
C21	C2	0.633950	0.099550	0.662310
C31	C3	0.583100	0.191000	0.669410
C41	C4	0.581650	0.261170	0.629760
C51	C5	0.632630	0.237450	0.586190
C61	C6	0.530460	0.216120	0.716520
C71	C7	0.478030	0.167430	0.746240
C81	C8	0.420960	0.197300	0.788350
C91	C9	0.417430	0.275130	0.801130
C101	C10	0.472960	0.320960	0.772010
C111	C11	0.528250	0.293130	0.730280
C121	C12	0.363700	0.144740	0.818640
C131	C13	0.405400	0.051540	0.837140
C141	C14	0.350890	0.004730	0.864610
C151	C15	0.218610	0.133270	0.855670
C161	C16	0.268070	0.185830	0.828970
C171	C17	0.391650	0.472430	0.790240
C181	C18	0.357660	0.501620	0.833680
C191	C19	0.275110	0.580710	0.839350
C201	C20	0.229060	0.628880	0.800710
C211	C21	0.264730	0.600530	0.756520
C221	C22	0.346950	0.520490	0.751700
C231	C23	0.239340	0.614740	0.885660
C241	C24	0.300500	0.607040	0.913190
C251	C25	0.265980	0.647600	0.953360
C261	C26	0.116400	0.695620	0.943470
C271	C27	0.144950	0.658530	0.902760
C281	C28	0.216920	0.655300	0.714470
C291	C29	0.152080	0.746280	0.712580
C301	C30	0.108350	0.793410	0.673750
C311	C31	0.192540	0.671000	0.636010
C321	C32	0.238050	0.619010	0.673910
C331	C33	0.858070	0.912070	0.527200
C341	C34	0.827210	0.833530	0.534770
C351	C35	0.890770	0.741850	0.533780
C361	C36	0.859810	0.670390	0.544560
C371	C37	0.766130	0.691050	0.555760
C381	C38	0.701720	0.781120	0.556680
C391	C39	0.732290	0.852410	0.545990
C401	C40	0.762190	0.546290	0.550100
C411	C41	0.815370	0.536690	0.505050
C421	C42	0.838840	0.458080	0.486610
C431	C43	0.808490	0.388510	0.512190
C441	C44	0.754170	0.399910	0.557460
C451	C45	0.732170	0.477130	0.576590
C461	C46	0.831070	0.303830	0.492280
C471	C47	0.088970	0.982090	0.396890
C481	C48	0.130890	0.925090	0.358020
C491	C49	0.137700	0.967780	0.310350
C501	C50	0.173020	0.916460	0.274590
C511	C51	0.199130	0.820850	0.285810
C521	C52	0.195920	0.776520	0.332320
C531	C53	0.161910	0.828350	0.368370
C541	C54	0.918210	0.316430	0.882450
C551	C55	0.900450	0.366050	0.837690
C561	C56	0.809000	0.416900	0.830590
C571	C57	0.738830	0.418350	0.870240
C581	C58	0.762550	0.367370	0.913810
C591	C59	0.783880	0.469540	0.783480
C601	C60	0.832570	0.521970	0.753760
C611	C61	0.802700	0.579040	0.711650
C621	C62	0.724870	0.582570	0.698870
C631	C63	0.679040	0.527040	0.727990
C641	C64	0.706870	0.471750	0.769720
C651	C65	0.855260	0.636300	0.681360
C661	C66	0.948460	0.594600	0.662860
C671	C67	0.995270	0.649110	0.635390
C681	C68	0.866730	0.781390	0.644330
C691	C69	0.814170	0.731930	0.671030
C701	C70	0.527570	0.608350	0.709760
C711	C71	0.498380	0.642340	0.666320
C721	C72	0.419290	0.724890	0.660650
C731	C73	0.371120	0.770940	0.699290
C741	C74	0.399470	0.735270	0.743480
C751	C75	0.479510	0.653050	0.748300
C761	C76	0.385260	0.760660	0.614340
C771	C77	0.392960	0.699500	0.586810
C781	C78	0.352400	0.734020	0.546640
C791	C79	0.304380	0.883600	0.556530
C801	C80	0.341470	0.855050	0.597240
C811	C81	0.344700	0.783080	0.785530
C821	C82	0.253720	0.847920	0.787420
C831	C83	0.206590	0.891650	0.826250
C841	C84	0.329000	0.807460	0.863990
C851	C85	0.380990	0.761950	0.826090
C861	C86	0.087930	0.141930	0.972800
C871	C87	0.166470	0.172790	0.965230
C881	C88	0.258150	0.109230	0.966220
C891	C89	0.329610	0.140190	0.955440
C901	C90	0.308950	0.233870	0.944240
C911	C91	0.218880	0.298280	0.943320
C921	C92	0.147590	0.267710	0.954010
C931	C93	0.453710	0.237810	0.949900
C941	C94	0.463310	0.184630	0.994950
C951	C95	0.541920	0.161160	0.013390
C961	C96	0.611490	0.191510	0.987810
C971	C97	0.600090	0.245830	0.942540
C981	C98	0.522870	0.267830	0.923410
C991	C99	0.696170	0.168930	0.007720
C1001	C100	0.017910	0.911030	0.103110
C1011	C101	0.074910	0.869110	0.141980
C1021	C102	0.032220	0.862300	0.189650
C1031	C103	0.083540	0.826980	0.225410
C1041	C104	0.179150	0.800870	0.214190
C1051	C105	0.223480	0.804080	0.167680
C1061	C106	0.171650	0.838090	0.131630
C1071	C107	0.316430	0.918210	0.382450
C1081	C108	0.366050	0.900450	0.337690
C1091	C109	0.416900	0.809000	0.330590
C1101	C110	0.418350	0.738830	0.370240
C1111	C111	0.367370	0.762550	0.413810
C1121	C112	0.469540	0.783880	0.283480
C1131	C113	0.521970	0.832570	0.253760
C1141	C114	0.579040	0.802700	0.211650
C1151	C115	0.582570	0.724870	0.198870
C1161	C116	0.527040	0.679040	0.227990
C1171	C117	0.471750	0.706870	0.269720
C1181	C118	0.636300	0.855260	0.181360
C1191	C119	0.594600	0.948460	0.162860
C1201	C120	0.649110	0.995270	0.135390
C1211	C121	0.781390	0.866730	0.144330
C1221	C122	0.731930	0.814170	0.171030
C1231	C123	0.608350	0.527570	0.209760
C1241	C124	0.642340	0.498380	0.166320
C1251	C125	0.724890	0.419290	0.160650
C1261	C126	0.770940	0.371120	0.199290
C1271	C127	0.735270	0.399470	0.243480
C1281	C128	0.653050	0.479510	0.248300
C1291	C129	0.760660	0.385260	0.114340
C1301	C130	0.699500	0.392960	0.086810
C1311	C131	0.734020	0.352400	0.046640
C1321	C132	0.883600	0.304380	0.056530
C1331	C133	0.855050	0.341470	0.097240
C1341	C134	0.783080	0.344700	0.285530
C1351	C135	0.847920	0.253720	0.287420
C1361	C136	0.891650	0.206590	0.326250
C1371	C137	0.807460	0.329000	0.363990
C1381	C138	0.761950	0.380990	0.326090
C1391	C139	0.141930	0.087930	0.472800
C1401	C140	0.172790	0.166470	0.465230
C1411	C141	0.109230	0.258150	0.466220
C1421	C142	0.140190	0.329610	0.455440
C1431	C143	0.233870	0.308950	0.444240
C1441	C144	0.298280	0.218880	0.443320
C1451	C145	0.267710	0.147590	0.454010
C1461	C146	0.237810	0.453710	0.449900
C1471	C147	0.184630	0.463310	0.494950
C1481	C148	0.161160	0.541920	0.513390
C1491	C149	0.191510	0.611490	0.487810
C1501	C150	0.245830	0.600090	0.442540
C1511	C151	0.267830	0.522870	0.423410
C1521	C152	0.168930	0.696170	0.507720
C1531	C153	0.911030	0.017910	0.603110
C1541	C154	0.869110	0.074910	0.641980
C1551	C155	0.862300	0.032220	0.689650
C1561	C156	0.826980	0.083540	0.725410
C1571	C157	0.800870	0.179150	0.714190
C1581	C158	0.804080	0.223480	0.667680
C1591	C159	0.838090	0.171650	0.631630
C1601	C160	0.081790	0.683570	0.117550
C1611	C161	0.099550	0.633950	0.162310
C1621	C162	0.191000	0.583100	0.169410
C1631	C163	0.261170	0.581650	0.129760
C1641	C164	0.237450	0.632630	0.086190
C1651	C165	0.216120	0.530460	0.216520
C1661	C166	0.167430	0.478030	0.246240
C1671	C167	0.197300	0.420960	0.288350
C1681	C168	0.275130	0.417430	0.301130
C1691	C169	0.320960	0.472960	0.272010
C1701	C170	0.293130	0.528250	0.230280
C1711	C171	0.144740	0.363700	0.318640
C1721	C172	0.051540	0.405400	0.337140
C1731	C173	0.004730	0.350890	0.364610
C1741	C174	0.133270	0.218610	0.355670
C1751	C175	0.185830	0.268070	0.328970
C1761	C176	0.472430	0.391650	0.290240
C1771	C177	0.501620	0.357660	0.333680
C1781	C178	0.580710	0.275110	0.339350
C1791	C179	0.628880	0.229060	0.300710
C1801	C180	0.600530	0.264730	0.256520
C1811	C181	0.520490	0.346950	0.251700
C1821	C182	0.614740	0.239340	0.385660
C1831	C183	0.607040	0.300500	0.413190
C1841	C184	0.647600	0.265980	0.453360
C1851	C185	0.695620	0.116400	0.443470
C1861	C186	0.658530	0.144950	0.402760
C1871	C187	0.655300	0.216920	0.214470
C1881	C188	0.746280	0.152080	0.212580
C1891	C189	0.793410	0.108350	0.173750
C1901	C190	0.671000	0.192540	0.136010
C1911	C191	0.619010	0.238050	0.173910
C1921	C192	0.912070	0.858070	0.027200
C1931	C193	0.833530	0.827210	0.034770
C1941	C194	0.741850	0.890770	0.033780
C1951	C195	0.670390	0.859810	0.044560
C1961	C196	0.691050	0.766130	0.055760
C1971	C197	0.781120	0.701720	0.056680
C1981	C198	0.852410	0.732290	0.045990
C1991	C199	0.546290	0.762190	0.050100
C2001	C200	0.536690	0.815370	0.005050
C2011	C201	0.458080	0.838840	0.986610
C2021	C202	0.388510	0.808490	0.012190
C2031	C203	0.399910	0.754170	0.057460
C2041	C204	0.477130	0.732170	0.076590
C2051	C205	0.303830	0.831070	0.992280
C2061	C206	0.982090	0.088970	0.896890
C2071	C207	0.925090	0.130890	0.858020
C2081	C208	0.967780	0.137700	0.810350
C2091	C209	0.916460	0.173020	0.774590
C2101	C210	0.820850	0.199130	0.785810
C2111	C211	0.776520	0.195920	0.832320
C2121	C212	0.828350	0.161910	0.868370
N11	N1	0.685390	0.149430	0.579750
N21	N2	0.257600	0.044120	0.874450
N31	N3	0.174840	0.693480	0.968790
N41	N4	0.125600	0.757380	0.635270
N51	N5	0.850570	0.314610	0.920250
N61	N6	0.955880	0.742400	0.625550
N71	N7	0.306520	0.825160	0.531210
N81	N8	0.242620	0.874400	0.864730
N91	N9	0.314610	0.850570	0.420250
N101	N10	0.742400	0.955880	0.125550
N111	N11	0.825160	0.306520	0.031210
N121	N12	0.874400	0.242620	0.364730
N131	N13	0.149430	0.685390	0.079750
N141	N14	0.044120	0.257600	0.374450
N151	N15	0.693480	0.174840	0.468790
N161	N16	0.757380	0.125600	0.135270
O11	O1	0.475740	0.395400	0.785940
O21	O2	0.728800	0.623460	0.571530
O31	O3	0.794570	0.992250	0.527580
O41	O4	0.944700	0.892560	0.521430
O51	O5	0.890120	0.290760	0.454280
O61	O6	0.789230	0.251830	0.515000
O71	O7	0.054290	0.069790	0.384030
O81	O8	0.089640	0.939560	0.439810
O91	O9	0.900120	0.093260	0.461340
O101	O10	0.604600	0.524260	0.714060
O111	O11	0.376540	0.271200	0.928470
O121	O12	0.007750	0.205430	0.972420
O131	O13	0.107440	0.055300	0.978570
O141	O14	0.709240	0.109880	0.045720
O151	O15	0.748170	0.210770	0.985000
O161	O16	0.930210	0.945710	0.115970
O171	O17	0.060440	0.910360	0.060190
O181	O18	0.906740	0.099880	0.038660
O191	O19	0.524260	0.604600	0.214060
O201	O20	0.271200	0.376540	0.428470
O211	O21	0.205430	0.007750	0.472420
O221	O22	0.055300	0.107440	0.478570
O231	O23	0.109880	0.709240	0.545720
O241	O24	0.210770	0.748170	0.485000
O251	O25	0.945710	0.930210	0.615970
O261	O26	0.910360	0.060440	0.560190
O271	O27	0.099880	0.906740	0.538660
O281	O28	0.395400	0.475740	0.285940
O291	O29	0.623460	0.728800	0.071530
O301	O30	0.992250	0.794570	0.027580
O311	O31	0.892560	0.944700	0.021430
O321	O32	0.290760	0.890120	0.954280
O331	O33	0.251830	0.789230	0.015000
O341	O34	0.069790	0.054290	0.884030
O351	O35	0.939560	0.089640	0.939810
O361	O36	0.093260	0.900120	0.961340
O371	O37	0.233400	0.766600	0.250000
O381	O38	0.766600	0.233400	0.750000
