data_CESYEF01_clean_PM
_symmetry_space_group_name_H-M	'P1'
_cell_length_a	3.651900
_cell_length_b	12.151200
_cell_length_c	15.070000
_cell_angle_alpha	90.000000
_cell_angle_beta	90.982000
_cell_angle_gamma	90.000000
_symmetry_Int_Tables_number 1

loop_
_symmetry_equiv_pos_as_xyz
'x,y,z'

loop_
_atom_site_label
_atom_site_type_symbol
_atom_site_fract_x
_atom_site_fract_y
_atom_site_fract_z
Ag11	Ag1	0.395600	0.426070	0.924520
Ag21	Ag2	0.604400	0.926070	0.575480
Ag31	Ag3	0.604400	0.573930	0.075480
Ag41	Ag4	0.395600	0.073930	0.424520
H11	H1	0.070200	0.593600	0.744500
H21	H2	0.305000	0.692700	0.629200
H31	H3	0.410200	0.954400	0.778200
H41	H4	0.173100	0.864000	0.898400
H51	H5	0.929800	0.093600	0.755500
H61	H6	0.695000	0.192700	0.870800
H71	H7	0.589800	0.454400	0.721800
H81	H8	0.826900	0.364000	0.601600
H91	H9	0.929800	0.406400	0.255500
H101	H10	0.695000	0.307300	0.370800
H111	H11	0.589800	0.045600	0.221800
H121	H12	0.826900	0.136000	0.101600
H131	H13	0.070200	0.906400	0.244500
H141	H14	0.305000	0.807300	0.129200
H151	H15	0.410200	0.545600	0.278200
H161	H16	0.173100	0.636000	0.398400
C11	C1	0.931000	0.659100	0.911400
C21	C2	0.095000	0.717600	0.835400
C31	C3	0.139000	0.668300	0.753200
C41	C4	0.280000	0.727600	0.685200
C51	C5	0.340000	0.879500	0.771900
C61	C6	0.199000	0.826500	0.843600
C71	C7	0.069000	0.159100	0.588600
C81	C8	0.905000	0.217600	0.664600
C91	C9	0.861000	0.168300	0.746800
C101	C10	0.720000	0.227600	0.814800
C111	C11	0.660000	0.379500	0.728100
C121	C12	0.801000	0.326500	0.656400
C131	C13	0.069000	0.340900	0.088600
C141	C14	0.905000	0.282400	0.164600
C151	C15	0.861000	0.331700	0.246800
C161	C16	0.720000	0.272400	0.314800
C171	C17	0.660000	0.120500	0.228100
C181	C18	0.801000	0.173500	0.156400
C191	C19	0.931000	0.840900	0.411400
C201	C20	0.095000	0.782400	0.335400
C211	C21	0.139000	0.831700	0.253200
C221	C22	0.280000	0.772400	0.185200
C231	C23	0.340000	0.620500	0.271900
C241	C24	0.199000	0.673500	0.343600
N11	N1	0.383000	0.830700	0.693100
N21	N2	0.617000	0.330700	0.806900
N31	N3	0.617000	0.169300	0.306900
N41	N4	0.383000	0.669300	0.193100
O11	O1	0.884000	0.553800	0.898500
O21	O2	0.831000	0.711100	0.977400
O31	O3	0.116000	0.053800	0.601500
O41	O4	0.169000	0.211100	0.522600
O51	O5	0.116000	0.446200	0.101500
O61	O6	0.169000	0.288900	0.022600
O71	O7	0.884000	0.946200	0.398500
O81	O8	0.831000	0.788900	0.477400
