data_CETGOY_clean_PM
_symmetry_space_group_name_H-M	'P1'
_cell_length_a	14.907000
_cell_length_b	25.531000
_cell_length_c	25.531000
_cell_angle_alpha	120.000000
_cell_angle_beta	90.000000
_cell_angle_gamma	90.000000
_symmetry_Int_Tables_number 1

loop_
_symmetry_equiv_pos_as_xyz
'x,y,z'

loop_
_atom_site_label
_atom_site_type_symbol
_atom_site_fract_x
_atom_site_fract_y
_atom_site_fract_z
Ni11	Ni1	0.117270	0.483580	0.555020
Ni21	Ni2	0.783940	0.071440	0.516420
Ni31	Ni3	0.450600	0.444980	0.928560
Ni41	Ni4	0.882730	0.928560	0.444980
Ni51	Ni5	0.216060	0.555020	0.483580
Ni61	Ni6	0.549400	0.516420	0.071440
H11	H1	0.125500	0.588900	0.576000
H21	H2	0.962900	0.383000	0.412300
H31	H3	0.379000	0.498500	0.688200
H41	H4	0.136900	0.485200	0.751200
H51	H5	0.307800	0.502700	0.610400
H61	H6	0.072200	0.489000	0.671300
H71	H7	0.438000	0.496900	0.761600
H81	H8	0.043300	0.339700	0.297700
H91	H9	0.099500	0.373900	0.359500
H101	H10	0.503000	0.473800	0.829800
H111	H11	0.741200	0.365500	0.358400
H121	H12	0.798100	0.383900	0.418200
H131	H13	0.198200	0.471300	0.813900
H141	H14	0.039100	0.445000	0.321000
H151	H15	0.990300	0.509100	0.359200
H161	H16	0.933200	0.450400	0.314600
H171	H17	0.882100	0.485300	0.469300
H181	H18	0.879400	0.525400	0.437100
H191	H19	0.743800	0.470100	0.418800
H201	H20	0.794300	0.450800	0.356500
H211	H21	0.915000	0.315200	0.251900
H221	H22	0.861100	0.377600	0.278900
H231	H23	0.808400	0.316000	0.259500
H241	H24	0.073800	0.299600	0.382100
H251	H25	0.092500	0.262600	0.310700
H261	H26	0.268900	0.452800	0.883200
H271	H27	0.760700	0.263200	0.329700
H281	H28	0.774500	0.167800	0.320900
H291	H29	0.044700	0.187500	0.334300
H301	H30	0.975000	0.109300	0.350400
H311	H31	0.012300	0.076400	0.249400
H321	H32	0.911800	0.052900	0.229400
H331	H33	0.974700	0.022000	0.257200
H341	H34	0.826900	0.109500	0.378800
H351	H35	0.856600	0.041500	0.332100
H361	H36	0.794900	0.077900	0.309800
H371	H37	0.792170	0.987100	0.411100
H381	H38	0.629570	0.029300	0.617000
H391	H39	0.045670	0.189700	0.501500
H401	H40	0.803570	0.266000	0.514800
H411	H41	0.974470	0.107700	0.497300
H421	H42	0.738870	0.182300	0.511000
H431	H43	0.104670	0.264700	0.503100
H441	H44	0.709970	0.958000	0.660300
H451	H45	0.766170	0.985600	0.626100
H461	H46	0.169670	0.356000	0.526200
H471	H47	0.407870	0.992900	0.634500
H481	H48	0.464770	0.034300	0.616100
H491	H49	0.864870	0.342600	0.528700
H501	H50	0.705770	0.876000	0.555000
H511	H51	0.656970	0.850100	0.490900
H521	H52	0.599870	0.864200	0.549600
H531	H53	0.548770	0.984000	0.514700
H541	H54	0.546070	0.911700	0.474600
H551	H55	0.410470	0.948700	0.529900
H561	H56	0.460970	0.905700	0.549200
H571	H57	0.581670	0.936700	0.684800
H581	H58	0.527770	0.901300	0.622400
H591	H59	0.475070	0.943500	0.684000
H601	H60	0.740470	0.082500	0.700400
H611	H61	0.759170	0.048100	0.737400
H621	H62	0.935570	0.430400	0.547200
H631	H63	0.427370	0.066500	0.736800
H641	H64	0.441170	0.153100	0.832200
H651	H65	0.711370	0.146800	0.812500
H661	H66	0.641670	0.241100	0.890700
H671	H67	0.678970	0.173000	0.923600
H681	H68	0.578470	0.176500	0.947100
H691	H69	0.641370	0.235200	0.978000
H701	H70	0.493570	0.269300	0.890500
H711	H71	0.523270	0.290600	0.958500
H721	H72	0.461570	0.231900	0.922100
H731	H73	0.458830	0.424000	0.012900
H741	H74	0.296230	0.587700	0.970700
H751	H75	0.712330	0.311800	0.810300
H761	H76	0.470230	0.248800	0.734000
H771	H77	0.641130	0.389600	0.892300
H781	H78	0.405530	0.328700	0.817700
H791	H79	0.771330	0.238400	0.735300
H801	H80	0.376630	0.702300	0.042000
H811	H81	0.432830	0.640500	0.014400
H821	H82	0.836330	0.170200	0.644000
H831	H83	0.074530	0.641600	0.007100
H841	H84	0.131430	0.581800	0.965700
H851	H85	0.531530	0.186100	0.657400
H861	H86	0.372430	0.679000	0.124000
H871	H87	0.323630	0.640800	0.149900
H881	H88	0.266530	0.685400	0.135800
H891	H89	0.215430	0.530700	0.016000
H901	H90	0.212730	0.562900	0.088300
H911	H91	0.077130	0.581200	0.051300
H921	H92	0.127630	0.643500	0.094300
H931	H93	0.248330	0.748100	0.063300
H941	H94	0.194430	0.721100	0.098700
H951	H95	0.141730	0.740500	0.056500
H961	H96	0.407130	0.617900	0.917500
H971	H97	0.425830	0.689300	0.951900
H981	H98	0.602230	0.116800	0.569600
H991	H99	0.094030	0.670300	0.933500
H1001	H100	0.107830	0.679100	0.846900
H1011	H101	0.378030	0.665700	0.853200
H1021	H102	0.308330	0.649600	0.758900
H1031	H103	0.345630	0.750600	0.827000
H1041	H104	0.245130	0.770600	0.823500
H1051	H105	0.308030	0.742800	0.764800
H1061	H106	0.160230	0.621200	0.730700
H1071	H107	0.189930	0.667900	0.709400
H1081	H108	0.128230	0.690200	0.768100
H1091	H109	0.874500	0.012900	0.424000
H1101	H110	0.037100	0.970700	0.587700
H1111	H111	0.621000	0.810300	0.311800
H1121	H112	0.863100	0.734000	0.248800
H1131	H113	0.692200	0.892300	0.389600
H1141	H114	0.927800	0.817700	0.328700
H1151	H115	0.562000	0.735300	0.238400
H1161	H116	0.956700	0.042000	0.702300
H1171	H117	0.900500	0.014400	0.640500
H1181	H118	0.497000	0.644000	0.170200
H1191	H119	0.258800	0.007100	0.641600
H1201	H120	0.201900	0.965700	0.581800
H1211	H121	0.801800	0.657400	0.186100
H1221	H122	0.960900	0.124000	0.679000
H1231	H123	0.009700	0.149900	0.640800
H1241	H124	0.066800	0.135800	0.685400
H1251	H125	0.117900	0.016000	0.530700
H1261	H126	0.120600	0.088300	0.562900
H1271	H127	0.256200	0.051300	0.581200
H1281	H128	0.205700	0.094300	0.643500
H1291	H129	0.085000	0.063300	0.748100
H1301	H130	0.138900	0.098700	0.721100
H1311	H131	0.191600	0.056500	0.740500
H1321	H132	0.926200	0.917500	0.617900
H1331	H133	0.907500	0.951900	0.689300
H1341	H134	0.731100	0.569600	0.116800
H1351	H135	0.239300	0.933500	0.670300
H1361	H136	0.225500	0.846900	0.679100
H1371	H137	0.955300	0.853200	0.665700
H1381	H138	0.025000	0.758900	0.649600
H1391	H139	0.987700	0.827000	0.750600
H1401	H140	0.088200	0.823500	0.770600
H1411	H141	0.025300	0.764800	0.742800
H1421	H142	0.173100	0.730700	0.621200
H1431	H143	0.143400	0.709400	0.667900
H1441	H144	0.205100	0.768100	0.690200
H1451	H145	0.207830	0.576000	0.588900
H1461	H146	0.370430	0.412300	0.383000
H1471	H147	0.954330	0.688200	0.498500
H1481	H148	0.196430	0.751200	0.485200
H1491	H149	0.025530	0.610400	0.502700
H1501	H150	0.261130	0.671300	0.489000
H1511	H151	0.895330	0.761600	0.496900
H1521	H152	0.290030	0.297700	0.339700
H1531	H153	0.233830	0.359500	0.373900
H1541	H154	0.830330	0.829800	0.473800
H1551	H155	0.592130	0.358400	0.365500
H1561	H156	0.535230	0.418200	0.383900
H1571	H157	0.135130	0.813900	0.471300
H1581	H158	0.294230	0.321000	0.445000
H1591	H159	0.343030	0.359200	0.509100
H1601	H160	0.400130	0.314600	0.450400
H1611	H161	0.451230	0.469300	0.485300
H1621	H162	0.453930	0.437100	0.525400
H1631	H163	0.589530	0.418800	0.470100
H1641	H164	0.539030	0.356500	0.450800
H1651	H165	0.418330	0.251900	0.315200
H1661	H166	0.472230	0.278900	0.377600
H1671	H167	0.524930	0.259500	0.316000
H1681	H168	0.259530	0.382100	0.299600
H1691	H169	0.240830	0.310700	0.262600
H1701	H170	0.064430	0.883200	0.452800
H1711	H171	0.572630	0.329700	0.263200
H1721	H172	0.558830	0.320900	0.167800
H1731	H173	0.288630	0.334300	0.187500
H1741	H174	0.358330	0.350400	0.109300
H1751	H175	0.321030	0.249400	0.076400
H1761	H176	0.421530	0.229400	0.052900
H1771	H177	0.358630	0.257200	0.022000
H1781	H178	0.506430	0.378800	0.109500
H1791	H179	0.476730	0.332100	0.041500
H1801	H180	0.538430	0.309800	0.077900
H1811	H181	0.541170	0.411100	0.987100
H1821	H182	0.703770	0.617000	0.029300
H1831	H183	0.287670	0.501500	0.189700
H1841	H184	0.529770	0.514800	0.266000
H1851	H185	0.358870	0.497300	0.107700
H1861	H186	0.594470	0.511000	0.182300
H1871	H187	0.228670	0.503100	0.264700
H1881	H188	0.623370	0.660300	0.958000
H1891	H189	0.567170	0.626100	0.985600
H1901	H190	0.163670	0.526200	0.356000
H1911	H191	0.925470	0.634500	0.992900
H1921	H192	0.868570	0.616100	0.034300
H1931	H193	0.468470	0.528700	0.342600
H1941	H194	0.627570	0.555000	0.876000
H1951	H195	0.676370	0.490900	0.850100
H1961	H196	0.733470	0.549600	0.864200
H1971	H197	0.784570	0.514700	0.984000
H1981	H198	0.787270	0.474600	0.911700
H1991	H199	0.922870	0.529900	0.948700
H2001	H200	0.872370	0.549200	0.905700
H2011	H201	0.751670	0.684800	0.936700
H2021	H202	0.805570	0.622400	0.901300
H2031	H203	0.858270	0.684000	0.943500
H2041	H204	0.592870	0.700400	0.082500
H2051	H205	0.574170	0.737400	0.048100
H2061	H206	0.397770	0.547200	0.430400
H2071	H207	0.905970	0.736800	0.066500
H2081	H208	0.892170	0.832200	0.153100
H2091	H209	0.621970	0.812500	0.146800
H2101	H210	0.691670	0.890700	0.241100
H2111	H211	0.654370	0.923600	0.173000
H2121	H212	0.754870	0.947100	0.176500
H2131	H213	0.691970	0.978000	0.235200
H2141	H214	0.839770	0.890500	0.269300
H2151	H215	0.810070	0.958500	0.290600
H2161	H216	0.871770	0.922100	0.231900
C11	C1	0.961700	0.384000	0.373600
C21	C2	0.267700	0.490500	0.728900
C31	C3	0.967900	0.452400	0.394700
C41	C4	0.046900	0.478200	0.440500
C51	C5	0.315400	0.496100	0.685700
C61	C6	0.173800	0.488300	0.722500
C71	C7	0.272600	0.498300	0.638900
C81	C8	0.135700	0.490500	0.674700
C91	C9	0.400800	0.486200	0.785000
C101	C10	0.875800	0.348400	0.341600
C111	C11	0.045500	0.349000	0.340300
C121	C12	0.439500	0.473000	0.826700
C131	C13	0.797500	0.384900	0.380000
C141	C14	0.261800	0.471800	0.815700
C151	C15	0.984100	0.465400	0.342600
C161	C16	0.881400	0.483400	0.429600
C171	C17	0.797600	0.449500	0.394500
C181	C18	0.864000	0.338400	0.277100
C191	C19	0.050800	0.291100	0.342300
C201	C20	0.304800	0.460400	0.857000
C211	C21	0.310400	0.483800	0.777400
C221	C22	0.978900	0.259500	0.338600
C231	C23	0.894500	0.282000	0.337300
C241	C24	0.818300	0.247800	0.330600
C251	C25	0.826500	0.191100	0.325300
C261	C26	0.910900	0.168600	0.326700
C271	C27	0.987100	0.202800	0.333300
C281	C28	0.926800	0.104600	0.321100
C291	C29	0.959200	0.060100	0.258900
C301	C30	0.844000	0.081300	0.336800
C311	C31	0.628370	0.989600	0.616000
C321	C32	0.934370	0.238400	0.509500
C331	C33	0.634570	0.942300	0.547600
C341	C34	0.713570	0.962300	0.521800
C351	C35	0.982070	0.189600	0.503900
C361	C36	0.840470	0.234200	0.511700
C371	C37	0.939270	0.140600	0.501700
C381	C38	0.802370	0.184200	0.509500
C391	C39	0.067470	0.298800	0.513800
C401	C40	0.542470	0.993200	0.651600
C411	C41	0.712170	0.991300	0.651000
C421	C42	0.106170	0.353700	0.527000
C431	C43	0.464170	0.995100	0.615100
C441	C44	0.928470	0.343900	0.528200
C451	C45	0.650770	0.877200	0.534600
C461	C46	0.548070	0.946200	0.516600
C471	C47	0.464270	0.945000	0.550500
C481	C48	0.530670	0.938700	0.661600
C491	C49	0.717470	0.051200	0.708900
C501	C50	0.971470	0.396600	0.539600
C511	C51	0.977070	0.293600	0.516200
C521	C52	0.645570	0.079100	0.740500
C531	C53	0.561170	0.055300	0.718000
C541	C54	0.484970	0.082800	0.752200
C551	C55	0.493170	0.134200	0.808900
C561	C56	0.577570	0.158100	0.831400
C571	C57	0.653770	0.130500	0.797200
C581	C58	0.593470	0.216500	0.895400
C591	C59	0.625870	0.198800	0.939900
C601	C60	0.510670	0.255500	0.918700
C611	C61	0.295030	0.626400	0.010400
C621	C62	0.601030	0.271100	0.761600
C631	C63	0.301230	0.605300	0.057700
C641	C64	0.380230	0.559500	0.037700
C651	C65	0.648730	0.314300	0.810400
C661	C66	0.507130	0.277500	0.765800
C671	C67	0.605930	0.361100	0.859400
C681	C68	0.469030	0.325300	0.815800
C691	C69	0.734130	0.215000	0.701200
C701	C70	0.209130	0.658400	0.006800
C711	C71	0.378830	0.659700	0.008700
C721	C72	0.772830	0.173300	0.646300
C731	C73	0.130830	0.620000	0.004900
C741	C74	0.595130	0.184300	0.656100
C751	C75	0.317430	0.657400	0.122800
C761	C76	0.214730	0.570400	0.053800
C771	C77	0.130930	0.605500	0.055000
C781	C78	0.197330	0.722900	0.061300
C791	C79	0.384130	0.657700	0.948800
C801	C80	0.638130	0.143000	0.603400
C811	C81	0.643730	0.222600	0.706400
C821	C82	0.312230	0.661400	0.920900
C831	C83	0.227830	0.662700	0.944700
C841	C84	0.151630	0.669400	0.917200
C851	C85	0.159830	0.674700	0.865800
C861	C86	0.244230	0.673300	0.841900
C871	C87	0.320430	0.666700	0.869500
C881	C88	0.260130	0.678900	0.783500
C891	C89	0.292530	0.741100	0.801200
C901	C90	0.177330	0.663200	0.744500
C911	C91	0.038300	0.010400	0.626400
C921	C92	0.732300	0.761600	0.271100
C931	C93	0.032100	0.057700	0.605300
C941	C94	0.953100	0.037700	0.559500
C951	C95	0.684600	0.810400	0.314300
C961	C96	0.826200	0.765800	0.277500
C971	C97	0.727400	0.859400	0.361100
C981	C98	0.864300	0.815800	0.325300
C991	C99	0.599200	0.701200	0.215000
C1001	C100	0.124200	0.006800	0.658400
C1011	C101	0.954500	0.008700	0.659700
C1021	C102	0.560500	0.646300	0.173300
C1031	C103	0.202500	0.004900	0.620000
C1041	C104	0.738200	0.656100	0.184300
C1051	C105	0.015900	0.122800	0.657400
C1061	C106	0.118600	0.053800	0.570400
C1071	C107	0.202400	0.055000	0.605500
C1081	C108	0.136000	0.061300	0.722900
C1091	C109	0.949200	0.948800	0.657700
C1101	C110	0.695200	0.603400	0.143000
C1111	C111	0.689600	0.706400	0.222600
C1121	C112	0.021100	0.920900	0.661400
C1131	C113	0.105500	0.944700	0.662700
C1141	C114	0.181700	0.917200	0.669400
C1151	C115	0.173500	0.865800	0.674700
C1161	C116	0.089100	0.841900	0.673300
C1171	C117	0.012900	0.869500	0.666700
C1181	C118	0.073200	0.783500	0.678900
C1191	C119	0.040800	0.801200	0.741100
C1201	C120	0.156000	0.744500	0.663200
C1211	C121	0.371630	0.373600	0.384000
C1221	C122	0.065630	0.728900	0.490500
C1231	C123	0.365430	0.394700	0.452400
C1241	C124	0.286430	0.440500	0.478200
C1251	C125	0.017930	0.685700	0.496100
C1261	C126	0.159530	0.722500	0.488300
C1271	C127	0.060730	0.638900	0.498300
C1281	C128	0.197630	0.674700	0.490500
C1291	C129	0.932530	0.785000	0.486200
C1301	C130	0.457530	0.341600	0.348400
C1311	C131	0.287830	0.340300	0.349000
C1321	C132	0.893830	0.826700	0.473000
C1331	C133	0.535830	0.380000	0.384900
C1341	C134	0.071530	0.815700	0.471800
C1351	C135	0.349230	0.342600	0.465400
C1361	C136	0.451930	0.429600	0.483400
C1371	C137	0.535730	0.394500	0.449500
C1381	C138	0.469330	0.277100	0.338400
C1391	C139	0.282530	0.342300	0.291100
C1401	C140	0.028530	0.857000	0.460400
C1411	C141	0.022930	0.777400	0.483800
C1421	C142	0.354430	0.338600	0.259500
C1431	C143	0.438830	0.337300	0.282000
C1441	C144	0.515030	0.330600	0.247800
C1451	C145	0.506830	0.325300	0.191100
C1461	C146	0.422430	0.326700	0.168600
C1471	C147	0.346230	0.333300	0.202800
C1481	C148	0.406530	0.321100	0.104600
C1491	C149	0.374130	0.258900	0.060100
C1501	C150	0.489330	0.336800	0.081300
C1511	C151	0.704970	0.616000	0.989600
C1521	C152	0.398970	0.509500	0.238400
C1531	C153	0.698770	0.547600	0.942300
C1541	C154	0.619770	0.521800	0.962300
C1551	C155	0.351270	0.503900	0.189600
C1561	C156	0.492870	0.511700	0.234200
C1571	C157	0.394070	0.501700	0.140600
C1581	C158	0.530970	0.509500	0.184200
C1591	C159	0.265870	0.513800	0.298800
C1601	C160	0.790870	0.651600	0.993200
C1611	C161	0.621170	0.651000	0.991300
C1621	C162	0.227170	0.527000	0.353700
C1631	C163	0.869170	0.615100	0.995100
C1641	C164	0.404870	0.528200	0.343900
C1651	C165	0.682570	0.534600	0.877200
C1661	C166	0.785270	0.516600	0.946200
C1671	C167	0.869070	0.550500	0.945000
C1681	C168	0.802670	0.661600	0.938700
C1691	C169	0.615870	0.708900	0.051200
C1701	C170	0.361870	0.539600	0.396600
C1711	C171	0.356270	0.516200	0.293600
C1721	C172	0.687770	0.740500	0.079100
C1731	C173	0.772170	0.718000	0.055300
C1741	C174	0.848370	0.752200	0.082800
C1751	C175	0.840170	0.808900	0.134200
C1761	C176	0.755770	0.831400	0.158100
C1771	C177	0.679570	0.797200	0.130500
C1781	C178	0.739870	0.895400	0.216500
C1791	C179	0.707470	0.939900	0.198800
C1801	C180	0.822670	0.918700	0.255500
N11	N1	0.183900	0.494600	0.632430
N21	N2	0.392700	0.459300	0.862000
N31	N3	0.850570	0.137830	0.505400
N41	N4	0.059370	0.402700	0.540700
N51	N5	0.517230	0.367570	0.862170
N61	N6	0.726030	0.138000	0.597300
N71	N7	0.816100	0.862170	0.367570
N81	N8	0.607300	0.597300	0.138000
N91	N9	0.149430	0.632430	0.494600
N101	N10	0.940630	0.862000	0.459300
N111	N11	0.482770	0.505400	0.137830
N121	N12	0.273970	0.540700	0.402700
O11	O1	0.040100	0.470350	0.485140
O21	O2	0.109500	0.506140	0.431950
O31	O3	0.706770	0.014790	0.529650
O41	O4	0.776170	0.925810	0.493860
O51	O5	0.373430	0.514860	0.985210
O61	O6	0.442830	0.568050	0.074190
O71	O7	0.959900	0.985210	0.514860
O81	O8	0.890500	0.074190	0.568050
O91	O9	0.293230	0.485140	0.470350
O101	O10	0.223830	0.431950	0.506140
O111	O11	0.626570	0.529650	0.014790
O121	O12	0.557170	0.493860	0.925810
O131	O13	0.166670	0.562990	0.562990
O141	O14	0.833330	0.000000	0.437010
O151	O15	0.500000	0.437010	0.000000
