data_CETVAA_clean_PM
_symmetry_space_group_name_H-M	'P1'
_cell_length_a	11.752600
_cell_length_b	11.752600
_cell_length_c	11.832300
_cell_angle_alpha	91.781200
_cell_angle_beta	91.781200
_cell_angle_gamma	105.187000
_symmetry_Int_Tables_number 1

loop_
_symmetry_equiv_pos_as_xyz
'x,y,z'

loop_
_atom_site_label
_atom_site_type_symbol
_atom_site_fract_x
_atom_site_fract_y
_atom_site_fract_z
Cu11	Cu1	0.129450	0.731220	0.530170
Cu21	Cu2	0.731220	0.129450	0.030170
H11	H1	0.125600	0.565400	0.725100
H21	H2	0.031500	0.521900	0.893200
H31	H3	0.889800	0.798200	0.850300
H41	H4	0.986800	0.832600	0.682800
H51	H5	0.617000	0.635800	0.088600
H61	H6	0.743100	0.698900	0.942400
H71	H7	0.974400	0.532000	0.075000
H81	H8	0.850700	0.471900	0.224100
H91	H9	0.960900	0.213700	0.932000
H101	H10	0.157900	0.304300	0.972200
H111	H11	0.077100	0.355700	0.297300
H121	H12	0.881700	0.266500	0.246400
H131	H13	0.460200	0.548800	0.355800
H141	H14	0.258000	0.479400	0.314300
H151	H15	0.325900	0.303100	0.034400
H161	H16	0.528100	0.372500	0.076600
H171	H17	0.791800	0.372000	0.938700
H181	H18	0.783000	0.461800	0.767800
H191	H19	0.702300	0.137500	0.612000
H201	H20	0.711600	0.057000	0.786600
H211	H21	0.530900	0.302700	0.341400
H221	H22	0.574000	0.226000	0.511700
H231	H23	0.857400	0.506800	0.571000
H241	H24	0.815300	0.585500	0.399900
H251	H25	0.565400	0.125600	0.225100
H261	H26	0.521900	0.031500	0.393200
H271	H27	0.798200	0.889800	0.350300
H281	H28	0.832600	0.986800	0.182800
H291	H29	0.635800	0.617000	0.588600
H301	H30	0.698900	0.743100	0.442400
H311	H31	0.532000	0.974400	0.575000
H321	H32	0.471900	0.850700	0.724100
H331	H33	0.213700	0.960900	0.432000
H341	H34	0.304300	0.157900	0.472200
H351	H35	0.355700	0.077100	0.797300
H361	H36	0.266500	0.881700	0.746400
H371	H37	0.548800	0.460200	0.855800
H381	H38	0.479400	0.258000	0.814300
H391	H39	0.303100	0.325900	0.534400
H401	H40	0.372500	0.528100	0.576600
H411	H41	0.372000	0.791800	0.438700
H421	H42	0.461800	0.783000	0.267800
H431	H43	0.137500	0.702300	0.112000
H441	H44	0.057000	0.711600	0.286600
H451	H45	0.302700	0.530900	0.841400
H461	H46	0.226000	0.574000	0.011700
H471	H47	0.506800	0.857400	0.071000
H481	H48	0.585500	0.815300	0.899900
C11	C1	0.075580	0.612000	0.750160
C21	C2	0.019470	0.585410	0.850920
C31	C3	0.944680	0.652100	0.890670
C41	C4	0.936000	0.747540	0.825700
C51	C5	0.994810	0.767910	0.725600
C61	C6	0.718800	0.543960	0.170210
C71	C7	0.689180	0.613840	0.085800
C81	C8	0.764590	0.651210	0.998300
C91	C9	0.871740	0.620140	0.990660
C101	C10	0.901650	0.552970	0.077130
C111	C11	0.827470	0.516070	0.166050
C121	C12	0.984960	0.242860	0.007120
C131	C13	0.103350	0.295650	0.030940
C141	C14	0.143160	0.336480	0.141500
C151	C15	0.056070	0.326310	0.221720
C161	C16	0.938920	0.273100	0.190320
C171	C17	0.513510	0.466830	0.220540
C181	C18	0.432670	0.498690	0.290670
C191	C19	0.312360	0.457660	0.265850
C201	C20	0.270620	0.384020	0.169270
C211	C21	0.352850	0.353070	0.099780
C221	C22	0.473390	0.394090	0.124800
C231	C23	0.772390	0.323890	0.871250
C241	C24	0.767090	0.378370	0.769400
C251	C25	0.738110	0.308950	0.669310
C261	C26	0.719510	0.187810	0.678170
C271	C27	0.725910	0.140150	0.782700
C281	C28	0.668250	0.452530	0.354340
C291	C29	0.596720	0.344580	0.387980
C301	C30	0.622560	0.299340	0.489460
C311	C31	0.718700	0.359400	0.559890
C321	C32	0.790780	0.465840	0.524880
C331	C33	0.765990	0.512830	0.422740
C341	C34	0.612000	0.075580	0.250160
C351	C35	0.585410	0.019470	0.350920
C361	C36	0.652100	0.944680	0.390670
C371	C37	0.747540	0.936000	0.325700
C381	C38	0.767910	0.994810	0.225600
C391	C39	0.543960	0.718800	0.670210
C401	C40	0.613840	0.689180	0.585800
C411	C41	0.651210	0.764590	0.498300
C421	C42	0.620140	0.871740	0.490660
C431	C43	0.552970	0.901650	0.577130
C441	C44	0.516070	0.827470	0.666050
C451	C45	0.242860	0.984960	0.507120
C461	C46	0.295650	0.103350	0.530940
C471	C47	0.336480	0.143160	0.641500
C481	C48	0.326310	0.056070	0.721720
C491	C49	0.273100	0.938920	0.690320
C501	C50	0.466830	0.513510	0.720540
C511	C51	0.498690	0.432670	0.790670
C521	C52	0.457660	0.312360	0.765850
C531	C53	0.384020	0.270620	0.669270
C541	C54	0.353070	0.352850	0.599780
C551	C55	0.394090	0.473390	0.624800
C561	C56	0.323890	0.772390	0.371250
C571	C57	0.378370	0.767090	0.269400
C581	C58	0.308950	0.738110	0.169310
C591	C59	0.187810	0.719510	0.178170
C601	C60	0.140150	0.725910	0.282700
C611	C61	0.452530	0.668250	0.854340
C621	C62	0.344580	0.596720	0.887980
C631	C63	0.299340	0.622560	0.989460
C641	C64	0.359400	0.718700	0.059890
C651	C65	0.465840	0.790780	0.024880
C661	C66	0.512830	0.765990	0.922740
N11	N1	0.062480	0.701040	0.685930
N21	N2	0.902030	0.230630	0.085240
N31	N3	0.751480	0.206840	0.878960
N41	N4	0.636760	0.501740	0.253570
N51	N5	0.701040	0.062480	0.185930
N61	N6	0.230630	0.902030	0.585240
N71	N7	0.206840	0.751480	0.378960
N81	N8	0.501740	0.636760	0.753570
Cl11	Cl1	0.115700	0.533820	0.495370
Cl21	Cl2	0.964710	0.804530	0.455940
Cl31	Cl3	0.533820	0.115700	0.995370
Cl41	Cl4	0.804530	0.964710	0.955940
