data_CEXSEE_charged_PM
_symmetry_space_group_name_H-M	'P1'
_cell_length_a	12.327000
_cell_length_b	26.914000
_cell_length_c	33.375000
_cell_angle_alpha	90.000000
_cell_angle_beta	90.000000
_cell_angle_gamma	90.000000
_symmetry_Int_Tables_number 1

loop_
_symmetry_equiv_pos_as_xyz
'x,y,z'

loop_
_atom_site_label
_atom_site_type_symbol
_atom_site_fract_x
_atom_site_fract_y
_atom_site_fract_z
Co11	Co1	0.523360	0.568580	0.613670
Co21	Co2	0.976640	0.068580	0.386330
Co31	Co3	0.023360	0.068580	0.886330
Co41	Co4	0.476640	0.568580	0.113670
Ag11	Ag1	0.739200	0.221190	0.640010
Ag21	Ag2	0.760800	0.721190	0.359990
Ag31	Ag3	0.239200	0.721190	0.859990
Ag41	Ag4	0.260800	0.221190	0.140010
H11	H1	0.287600	0.539100	0.643100
H21	H2	0.236100	0.455900	0.669500
H31	H3	0.397200	0.401900	0.660600
H41	H4	0.792900	0.428600	0.597600
H51	H5	0.884100	0.504200	0.570500
H61	H6	0.754500	0.573600	0.574700
H71	H7	0.722400	0.404400	0.676200
H81	H8	0.759200	0.325000	0.685100
H91	H9	0.542400	0.281700	0.606800
H101	H10	0.498600	0.363500	0.592300
H111	H11	0.221800	0.035900	0.833200
H121	H12	0.228600	0.042800	0.759700
H131	H13	0.068400	0.090800	0.736400
H141	H14	0.750600	0.180600	0.822100
H151	H15	0.705800	0.181800	0.895000
H161	H16	0.836700	0.124200	0.928900
H171	H17	0.008400	0.186400	0.753100
H181	H18	0.929900	0.221500	0.695100
H191	H19	0.669300	0.141100	0.706800
H201	H20	0.738500	0.098100	0.763000
H211	H21	0.847700	0.152300	0.345800
H221	H22	0.750200	0.222300	0.381000
H231	H23	0.775000	0.207200	0.454500
H241	H24	0.031500	0.078500	0.534700
H251	H25	0.167500	0.014100	0.511000
H261	H26	0.139300	0.006600	0.437300
H271	H27	0.798200	0.085600	0.532000
H281	H28	0.728000	0.123300	0.589300
H291	H29	0.884600	0.246700	0.564800
H301	H30	0.945400	0.217900	0.504800
H311	H31	0.212400	0.039100	0.356900
H321	H32	0.263900	0.955900	0.330500
H331	H33	0.102800	0.901900	0.339400
H341	H34	0.707100	0.928600	0.402400
H351	H35	0.615900	0.004200	0.429500
H361	H36	0.745500	0.073600	0.425300
H371	H37	0.777600	0.904400	0.323800
H381	H38	0.740800	0.825000	0.314900
H391	H39	0.957600	0.781700	0.393200
H401	H40	0.001400	0.863500	0.407700
H411	H41	0.278200	0.535900	0.166800
H421	H42	0.271400	0.542800	0.240300
H431	H43	0.431600	0.590800	0.263600
H441	H44	0.749400	0.680600	0.177900
H451	H45	0.794200	0.681800	0.105000
H461	H46	0.663300	0.624200	0.071100
H471	H47	0.491600	0.686400	0.246900
H481	H48	0.570100	0.721500	0.304900
H491	H49	0.830700	0.641100	0.293200
H501	H50	0.761500	0.598100	0.237000
H511	H51	0.652300	0.652300	0.654200
H521	H52	0.749800	0.722300	0.619000
H531	H53	0.725000	0.707200	0.545500
H541	H54	0.468500	0.578500	0.465300
H551	H55	0.332500	0.514100	0.489000
H561	H56	0.360700	0.506600	0.562700
H571	H57	0.701800	0.585600	0.468000
H581	H58	0.772000	0.623300	0.410700
H591	H59	0.615400	0.746700	0.435200
H601	H60	0.554600	0.717900	0.495200
H611	H61	0.787600	0.039100	0.856900
H621	H62	0.736100	0.955900	0.830500
H631	H63	0.897200	0.901900	0.839400
H641	H64	0.292900	0.928600	0.902400
H651	H65	0.384100	0.004200	0.929500
H661	H66	0.254500	0.073600	0.925300
H671	H67	0.222400	0.904400	0.823800
H681	H68	0.259200	0.825000	0.814900
H691	H69	0.042400	0.781700	0.893200
H701	H70	0.998600	0.863500	0.907700
H711	H71	0.721800	0.535900	0.666800
H721	H72	0.728600	0.542800	0.740300
H731	H73	0.568400	0.590800	0.763600
H741	H74	0.250600	0.680600	0.677900
H751	H75	0.205800	0.681800	0.605000
H761	H76	0.336700	0.624200	0.571100
H771	H77	0.508400	0.686400	0.746900
H781	H78	0.429900	0.721500	0.804900
H791	H79	0.169300	0.641100	0.793200
H801	H80	0.238500	0.598100	0.737000
H811	H81	0.347700	0.652300	0.154200
H821	H82	0.250200	0.722300	0.119000
H831	H83	0.275000	0.707200	0.045500
H841	H84	0.531500	0.578500	0.965300
H851	H85	0.667500	0.514100	0.989000
H861	H86	0.639300	0.506600	0.062700
H871	H87	0.298200	0.585600	0.968000
H881	H88	0.228000	0.623300	0.910700
H891	H89	0.384600	0.746700	0.935200
H901	H90	0.445400	0.717900	0.995200
H911	H91	0.712400	0.539100	0.143100
H921	H92	0.763900	0.455900	0.169500
H931	H93	0.602800	0.401900	0.160600
H941	H94	0.207100	0.428600	0.097600
H951	H95	0.115900	0.504200	0.070500
H961	H96	0.245500	0.573600	0.074700
H971	H97	0.277600	0.404400	0.176200
H981	H98	0.240800	0.325000	0.185100
H991	H99	0.457600	0.281700	0.106800
H1001	H100	0.501400	0.363500	0.092300
H1011	H101	0.778200	0.035900	0.333200
H1021	H102	0.771400	0.042800	0.259700
H1031	H103	0.931600	0.090800	0.236400
H1041	H104	0.249400	0.180600	0.322100
H1051	H105	0.294200	0.181800	0.395000
H1061	H106	0.163300	0.124200	0.428900
H1071	H107	0.991600	0.186400	0.253100
H1081	H108	0.070100	0.221500	0.195100
H1091	H109	0.330700	0.141100	0.206800
H1101	H110	0.261500	0.098100	0.263000
H1111	H111	0.152300	0.152300	0.845800
H1121	H112	0.249800	0.222300	0.881000
H1131	H113	0.225000	0.207200	0.954500
H1141	H114	0.968500	0.078500	0.034700
H1151	H115	0.832500	0.014100	0.011000
H1161	H116	0.860700	0.006600	0.937300
H1171	H117	0.201800	0.085600	0.032000
H1181	H118	0.272000	0.123300	0.089300
H1191	H119	0.115400	0.246700	0.064800
H1201	H120	0.054600	0.217900	0.004800
C11	C1	0.334300	0.511000	0.643800
C21	C2	0.304200	0.465100	0.658400
C31	C3	0.392500	0.436100	0.653600
C41	C4	0.472600	0.463200	0.637300
C51	C5	0.578100	0.448100	0.625800
C61	C6	0.655900	0.476100	0.608300
C71	C7	0.762800	0.461000	0.595800
C81	C8	0.812400	0.502300	0.580800
C91	C9	0.739500	0.540800	0.583600
C101	C10	0.607100	0.394400	0.633300
C111	C11	0.685400	0.380200	0.660600
C121	C12	0.707800	0.333100	0.664900
C131	C13	0.582100	0.307700	0.619200
C141	C14	0.553000	0.355900	0.611500
C151	C15	0.167500	0.051700	0.817500
C161	C16	0.172500	0.055800	0.776200
C171	C17	0.084400	0.081200	0.763100
C181	C18	0.019200	0.090800	0.798900
C191	C19	0.926500	0.117000	0.801800
C201	C20	0.874600	0.128300	0.837600
C211	C21	0.785800	0.162200	0.842700
C221	C22	0.761600	0.163200	0.882400
C231	C23	0.835500	0.131200	0.901000
C241	C24	0.878100	0.140200	0.764600
C251	C25	0.938800	0.176100	0.744000
C261	C26	0.890900	0.196300	0.709000
C271	C27	0.740400	0.148800	0.715900
C281	C28	0.778300	0.124000	0.750400
C291	C29	0.846200	0.157200	0.373900
C301	C30	0.789900	0.196100	0.393200
C311	C31	0.804900	0.188100	0.433300
C321	C32	0.873000	0.146200	0.437400
C331	C33	0.913100	0.126900	0.471900
C341	C34	0.993600	0.085800	0.474400
C351	C35	0.044000	0.068200	0.507800
C361	C36	0.117300	0.032300	0.495100
C371	C37	0.100900	0.028900	0.454300
C381	C38	0.881400	0.147000	0.510800
C391	C39	0.814700	0.119400	0.537500
C401	C40	0.773300	0.142200	0.572100
C411	C41	0.863400	0.214200	0.556800
C421	C42	0.903500	0.197000	0.521700
C431	C43	0.165700	0.011000	0.356200
C441	C44	0.195800	0.965100	0.341600
C451	C45	0.107500	0.936100	0.346400
C461	C46	0.027400	0.963200	0.362700
C471	C47	0.921900	0.948100	0.374200
C481	C48	0.844100	0.976100	0.391700
C491	C49	0.737200	0.961000	0.404200
C501	C50	0.687600	0.002300	0.419200
C511	C51	0.760500	0.040800	0.416400
C521	C52	0.892900	0.894400	0.366700
C531	C53	0.814600	0.880200	0.339400
C541	C54	0.792200	0.833100	0.335100
C551	C55	0.917900	0.807700	0.380800
C561	C56	0.947000	0.855900	0.388500
C571	C57	0.332500	0.551700	0.182500
C581	C58	0.327500	0.555800	0.223800
C591	C59	0.415600	0.581200	0.236900
C601	C60	0.480800	0.590800	0.201100
C611	C61	0.573500	0.617000	0.198200
C621	C62	0.625400	0.628300	0.162400
C631	C63	0.714200	0.662200	0.157300
C641	C64	0.738400	0.663200	0.117600
C651	C65	0.664500	0.631200	0.099000
C661	C66	0.621900	0.640200	0.235400
C671	C67	0.561200	0.676100	0.256000
C681	C68	0.609100	0.696300	0.291000
C691	C69	0.759600	0.648800	0.284100
C701	C70	0.721700	0.624000	0.249600
C711	C71	0.653800	0.657200	0.626100
C721	C72	0.710100	0.696100	0.606800
C731	C73	0.695100	0.688100	0.566700
C741	C74	0.627000	0.646200	0.562600
C751	C75	0.586900	0.626900	0.528100
C761	C76	0.506400	0.585800	0.525600
C771	C77	0.456000	0.568200	0.492200
C781	C78	0.382700	0.532300	0.504900
C791	C79	0.399100	0.528900	0.545700
C801	C80	0.618600	0.647000	0.489200
C811	C81	0.685300	0.619400	0.462500
C821	C82	0.726700	0.642200	0.427900
C831	C83	0.636600	0.714200	0.443200
C841	C84	0.596500	0.697000	0.478300
C851	C85	0.834300	0.011000	0.856200
C861	C86	0.804200	0.965100	0.841600
C871	C87	0.892500	0.936100	0.846400
C881	C88	0.972600	0.963200	0.862700
C891	C89	0.078100	0.948100	0.874200
C901	C90	0.155900	0.976100	0.891700
C911	C91	0.262800	0.961000	0.904200
C921	C92	0.312400	0.002300	0.919200
C931	C93	0.239500	0.040800	0.916400
C941	C94	0.107100	0.894400	0.866700
C951	C95	0.185400	0.880200	0.839400
C961	C96	0.207800	0.833100	0.835100
C971	C97	0.082100	0.807700	0.880800
C981	C98	0.053000	0.855900	0.888500
C991	C99	0.667500	0.551700	0.682500
C1001	C100	0.672500	0.555800	0.723800
C1011	C101	0.584400	0.581200	0.736900
C1021	C102	0.519200	0.590800	0.701100
C1031	C103	0.426500	0.617000	0.698200
C1041	C104	0.374600	0.628300	0.662400
C1051	C105	0.285800	0.662200	0.657300
C1061	C106	0.261600	0.663200	0.617600
C1071	C107	0.335500	0.631200	0.599000
C1081	C108	0.378100	0.640200	0.735400
C1091	C109	0.438800	0.676100	0.756000
C1101	C110	0.390900	0.696300	0.791000
C1111	C111	0.240400	0.648800	0.784100
C1121	C112	0.278300	0.624000	0.749600
C1131	C113	0.346200	0.657200	0.126100
C1141	C114	0.289900	0.696100	0.106800
C1151	C115	0.304900	0.688100	0.066700
C1161	C116	0.373000	0.646200	0.062600
C1171	C117	0.413100	0.626900	0.028100
C1181	C118	0.493600	0.585800	0.025600
C1191	C119	0.544000	0.568200	0.992200
C1201	C120	0.617300	0.532300	0.004900
C1211	C121	0.600900	0.528900	0.045700
C1221	C122	0.381400	0.647000	0.989200
C1231	C123	0.314700	0.619400	0.962500
C1241	C124	0.273300	0.642200	0.927900
C1251	C125	0.363400	0.714200	0.943200
C1261	C126	0.403500	0.697000	0.978300
C1271	C127	0.665700	0.511000	0.143800
C1281	C128	0.695800	0.465100	0.158400
C1291	C129	0.607500	0.436100	0.153600
C1301	C130	0.527400	0.463200	0.137300
C1311	C131	0.421900	0.448100	0.125800
C1321	C132	0.344100	0.476100	0.108300
C1331	C133	0.237200	0.461000	0.095800
C1341	C134	0.187600	0.502300	0.080800
C1351	C135	0.260500	0.540800	0.083600
C1361	C136	0.392900	0.394400	0.133300
C1371	C137	0.314600	0.380200	0.160600
C1381	C138	0.292200	0.333100	0.164900
C1391	C139	0.417900	0.307700	0.119200
C1401	C140	0.447000	0.355900	0.111500
C1411	C141	0.832500	0.051700	0.317500
C1421	C142	0.827500	0.055800	0.276200
C1431	C143	0.915600	0.081200	0.263100
C1441	C144	0.980800	0.090800	0.298900
C1451	C145	0.073500	0.117000	0.301800
C1461	C146	0.125400	0.128300	0.337600
C1471	C147	0.214200	0.162200	0.342700
C1481	C148	0.238400	0.163200	0.382400
C1491	C149	0.164500	0.131200	0.401000
C1501	C150	0.121900	0.140200	0.264600
C1511	C151	0.061200	0.176100	0.244000
C1521	C152	0.109100	0.196300	0.209000
C1531	C153	0.259600	0.148800	0.215900
C1541	C154	0.221700	0.124000	0.250400
C1551	C155	0.153800	0.157200	0.873900
C1561	C156	0.210100	0.196100	0.893200
C1571	C157	0.195100	0.188100	0.933300
C1581	C158	0.127000	0.146200	0.937400
C1591	C159	0.086900	0.126900	0.971900
C1601	C160	0.006400	0.085800	0.974400
C1611	C161	0.956000	0.068200	0.007800
C1621	C162	0.882700	0.032300	0.995100
C1631	C163	0.899100	0.028900	0.954300
C1641	C164	0.118600	0.147000	0.010800
C1651	C165	0.185300	0.119400	0.037500
C1661	C166	0.226700	0.142200	0.072100
C1671	C167	0.136600	0.214200	0.056800
C1681	C168	0.096500	0.197000	0.021700
N11	N1	0.436800	0.511500	0.630700
N21	N2	0.642600	0.526800	0.600600
N31	N3	0.667300	0.295600	0.644400
N41	N4	0.082200	0.071300	0.832100
N51	N5	0.903100	0.112100	0.874800
N61	N6	0.797600	0.183000	0.694500
N71	N7	0.896400	0.128400	0.400200
N81	N8	0.024200	0.060900	0.441000
N91	N9	0.794200	0.188600	0.581800
N101	N10	0.063200	0.011500	0.369300
N111	N11	0.857400	0.026800	0.399400
N121	N12	0.832700	0.795600	0.355600
N131	N13	0.417800	0.571300	0.167900
N141	N14	0.596900	0.612100	0.125200
N151	N15	0.702400	0.683000	0.305500
N161	N16	0.603600	0.628400	0.599800
N171	N17	0.475800	0.560900	0.559000
N181	N18	0.705800	0.688600	0.418200
N191	N19	0.936800	0.011500	0.869300
N201	N20	0.142600	0.026800	0.899400
N211	N21	0.167300	0.795600	0.855600
N221	N22	0.582200	0.571300	0.667900
N231	N23	0.403100	0.612100	0.625200
N241	N24	0.297600	0.683000	0.805500
N251	N25	0.396400	0.628400	0.099800
N261	N26	0.524200	0.560900	0.059000
N271	N27	0.294200	0.688600	0.918200
N281	N28	0.563200	0.511500	0.130700
N291	N29	0.357400	0.526800	0.100600
N301	N30	0.332700	0.295600	0.144400
N311	N31	0.917800	0.071300	0.332100
N321	N32	0.096900	0.112100	0.374800
N331	N33	0.202400	0.183000	0.194500
N341	N34	0.103600	0.128400	0.900200
N351	N35	0.975800	0.060900	0.941000
N361	N36	0.205800	0.188600	0.081800
Co51	Co5	0.976640	0.931420	0.113670
Co61	Co6	0.523360	0.431420	0.886330
Co71	Co7	0.476640	0.431420	0.386330
Co81	Co8	0.023360	0.931420	0.613670
Ag51	Ag5	0.760800	0.278810	0.140010
Ag61	Ag6	0.739200	0.778810	0.859990
Ag71	Ag7	0.260800	0.778810	0.359990
Ag81	Ag8	0.239200	0.278810	0.640010
H1211	H121	0.212400	0.960900	0.143100
H1221	H122	0.263900	0.044100	0.169500
H1231	H123	0.102800	0.098100	0.160600
H1241	H124	0.707100	0.071400	0.097600
H1251	H125	0.615900	0.995800	0.070500
H1261	H126	0.745500	0.926400	0.074700
H1271	H127	0.777600	0.095600	0.176200
H1281	H128	0.740800	0.175000	0.185100
H1291	H129	0.957600	0.218300	0.106800
H1301	H130	0.001400	0.136500	0.092300
H1311	H131	0.278200	0.464100	0.333200
H1321	H132	0.271400	0.457200	0.259700
H1331	H133	0.431600	0.409200	0.236400
H1341	H134	0.749400	0.319400	0.322100
H1351	H135	0.794200	0.318200	0.395000
H1361	H136	0.663300	0.375800	0.428900
H1371	H137	0.491600	0.313600	0.253100
H1381	H138	0.570100	0.278500	0.195100
H1391	H139	0.830700	0.358900	0.206800
H1401	H140	0.761500	0.401900	0.263000
H1411	H141	0.652300	0.347700	0.845800
H1421	H142	0.749800	0.277700	0.881000
H1431	H143	0.725000	0.292800	0.954500
H1441	H144	0.468500	0.421500	0.034700
H1451	H145	0.332500	0.485900	0.011000
H1461	H146	0.360700	0.493400	0.937300
H1471	H147	0.701800	0.414400	0.032000
H1481	H148	0.772000	0.376700	0.089300
H1491	H149	0.615400	0.253300	0.064800
H1501	H150	0.554600	0.282100	0.004800
H1511	H151	0.287600	0.460900	0.856900
H1521	H152	0.236100	0.544100	0.830500
H1531	H153	0.397200	0.598100	0.839400
H1541	H154	0.792900	0.571400	0.902400
H1551	H155	0.884100	0.495800	0.929500
H1561	H156	0.754500	0.426400	0.925300
H1571	H157	0.722400	0.595600	0.823800
H1581	H158	0.759200	0.675000	0.814900
H1591	H159	0.542400	0.718300	0.893200
H1601	H160	0.498600	0.636500	0.907700
H1611	H161	0.221800	0.964100	0.666800
H1621	H162	0.228600	0.957200	0.740300
H1631	H163	0.068400	0.909200	0.763600
H1641	H164	0.750600	0.819400	0.677900
H1651	H165	0.705800	0.818200	0.605000
H1661	H166	0.836700	0.875800	0.571100
H1671	H167	0.008400	0.813600	0.746900
H1681	H168	0.929900	0.778500	0.804900
H1691	H169	0.669300	0.858900	0.793200
H1701	H170	0.738500	0.901900	0.737000
H1711	H171	0.847700	0.847700	0.154200
H1721	H172	0.750200	0.777700	0.119000
H1731	H173	0.775000	0.792800	0.045500
H1741	H174	0.031500	0.921500	0.965300
H1751	H175	0.167500	0.985900	0.989000
H1761	H176	0.139300	0.993400	0.062700
H1771	H177	0.798200	0.914400	0.968000
H1781	H178	0.728000	0.876700	0.910700
H1791	H179	0.884600	0.753300	0.935200
H1801	H180	0.945400	0.782100	0.995200
H1811	H181	0.712400	0.460900	0.356900
H1821	H182	0.763900	0.544100	0.330500
H1831	H183	0.602800	0.598100	0.339400
H1841	H184	0.207100	0.571400	0.402400
H1851	H185	0.115900	0.495800	0.429500
H1861	H186	0.245500	0.426400	0.425300
H1871	H187	0.277600	0.595600	0.323800
H1881	H188	0.240800	0.675000	0.314900
H1891	H189	0.457600	0.718300	0.393200
H1901	H190	0.501400	0.636500	0.407700
H1911	H191	0.778200	0.964100	0.166800
H1921	H192	0.771400	0.957200	0.240300
H1931	H193	0.931600	0.909200	0.263600
H1941	H194	0.249400	0.819400	0.177900
H1951	H195	0.294200	0.818200	0.105000
H1961	H196	0.163300	0.875800	0.071100
H1971	H197	0.991600	0.813600	0.246900
H1981	H198	0.070100	0.778500	0.304900
H1991	H199	0.330700	0.858900	0.293200
H2001	H200	0.261500	0.901900	0.237000
H2011	H201	0.152300	0.847700	0.654200
H2021	H202	0.249800	0.777700	0.619000
H2031	H203	0.225000	0.792800	0.545500
H2041	H204	0.968500	0.921500	0.465300
H2051	H205	0.832500	0.985900	0.489000
H2061	H206	0.860700	0.993400	0.562700
H2071	H207	0.201800	0.914400	0.468000
H2081	H208	0.272000	0.876700	0.410700
H2091	H209	0.115400	0.753300	0.435200
H2101	H210	0.054600	0.782100	0.495200
H2111	H211	0.787600	0.960900	0.643100
H2121	H212	0.736100	0.044100	0.669500
H2131	H213	0.897200	0.098100	0.660600
H2141	H214	0.292900	0.071400	0.597600
H2151	H215	0.384100	0.995800	0.570500
H2161	H216	0.254500	0.926400	0.574700
H2171	H217	0.222400	0.095600	0.676200
H2181	H218	0.259200	0.175000	0.685100
H2191	H219	0.042400	0.218300	0.606800
H2201	H220	0.998600	0.136500	0.592300
H2211	H221	0.721800	0.464100	0.833200
H2221	H222	0.728600	0.457200	0.759700
H2231	H223	0.568400	0.409200	0.736400
H2241	H224	0.250600	0.319400	0.822100
H2251	H225	0.205800	0.318200	0.895000
H2261	H226	0.336700	0.375800	0.928900
H2271	H227	0.508400	0.313600	0.753100
H2281	H228	0.429900	0.278500	0.695100
H2291	H229	0.169300	0.358900	0.706800
H2301	H230	0.238500	0.401900	0.763000
H2311	H231	0.347700	0.347700	0.345800
H2321	H232	0.250200	0.277700	0.381000
H2331	H233	0.275000	0.292800	0.454500
H2341	H234	0.531500	0.421500	0.534700
H2351	H235	0.667500	0.485900	0.511000
H2361	H236	0.639300	0.493400	0.437300
H2371	H237	0.298200	0.414400	0.532000
H2381	H238	0.228000	0.376700	0.589300
H2391	H239	0.384600	0.253300	0.564800
H2401	H240	0.445400	0.282100	0.504800
C1691	C169	0.165700	0.989000	0.143800
C1701	C170	0.195800	0.034900	0.158400
C1711	C171	0.107500	0.063900	0.153600
C1721	C172	0.027400	0.036800	0.137300
C1731	C173	0.921900	0.051900	0.125800
C1741	C174	0.844100	0.023900	0.108300
C1751	C175	0.737200	0.039000	0.095800
C1761	C176	0.687600	0.997700	0.080800
C1771	C177	0.760500	0.959200	0.083600
C1781	C178	0.892900	0.105600	0.133300
C1791	C179	0.814600	0.119800	0.160600
C1801	C180	0.792200	0.166900	0.164900
C1811	C181	0.917900	0.192300	0.119200
C1821	C182	0.947000	0.144100	0.111500
C1831	C183	0.332500	0.448300	0.317500
C1841	C184	0.327500	0.444200	0.276200
C1851	C185	0.415600	0.418800	0.263100
C1861	C186	0.480800	0.409200	0.298900
C1871	C187	0.573500	0.383000	0.301800
C1881	C188	0.625400	0.371700	0.337600
C1891	C189	0.714200	0.337800	0.342700
C1901	C190	0.738400	0.336800	0.382400
C1911	C191	0.664500	0.368800	0.401000
C1921	C192	0.621900	0.359800	0.264600
C1931	C193	0.561200	0.323900	0.244000
C1941	C194	0.609100	0.303700	0.209000
C1951	C195	0.759600	0.351200	0.215900
C1961	C196	0.721700	0.376000	0.250400
C1971	C197	0.653800	0.342800	0.873900
C1981	C198	0.710100	0.303900	0.893200
C1991	C199	0.695100	0.311900	0.933300
C2001	C200	0.627000	0.353800	0.937400
C2011	C201	0.586900	0.373100	0.971900
C2021	C202	0.506400	0.414200	0.974400
C2031	C203	0.456000	0.431800	0.007800
C2041	C204	0.382700	0.467700	0.995100
C2051	C205	0.399100	0.471100	0.954300
C2061	C206	0.618600	0.353000	0.010800
C2071	C207	0.685300	0.380600	0.037500
C2081	C208	0.726700	0.357800	0.072100
C2091	C209	0.636600	0.285800	0.056800
C2101	C210	0.596500	0.303000	0.021700
C2111	C211	0.334300	0.489000	0.856200
C2121	C212	0.304200	0.534900	0.841600
C2131	C213	0.392500	0.563900	0.846400
C2141	C214	0.472600	0.536800	0.862700
C2151	C215	0.578100	0.551900	0.874200
C2161	C216	0.655900	0.523900	0.891700
C2171	C217	0.762800	0.539000	0.904200
C2181	C218	0.812400	0.497700	0.919200
C2191	C219	0.739500	0.459200	0.916400
C2201	C220	0.607100	0.605600	0.866700
C2211	C221	0.685400	0.619800	0.839400
C2221	C222	0.707800	0.666900	0.835100
C2231	C223	0.582100	0.692300	0.880800
C2241	C224	0.553000	0.644100	0.888500
C2251	C225	0.167500	0.948300	0.682500
C2261	C226	0.172500	0.944200	0.723800
C2271	C227	0.084400	0.918800	0.736900
C2281	C228	0.019200	0.909200	0.701100
C2291	C229	0.926500	0.883000	0.698200
C2301	C230	0.874600	0.871700	0.662400
C2311	C231	0.785800	0.837800	0.657300
C2321	C232	0.761600	0.836800	0.617600
C2331	C233	0.835500	0.868800	0.599000
C2341	C234	0.878100	0.859800	0.735400
C2351	C235	0.938800	0.823900	0.756000
C2361	C236	0.890900	0.803700	0.791000
C2371	C237	0.740400	0.851200	0.784100
C2381	C238	0.778300	0.876000	0.749600
C2391	C239	0.846200	0.842800	0.126100
C2401	C240	0.789900	0.803900	0.106800
C2411	C241	0.804900	0.811900	0.066700
C2421	C242	0.873000	0.853800	0.062600
C2431	C243	0.913100	0.873100	0.028100
C2441	C244	0.993600	0.914200	0.025600
C2451	C245	0.044000	0.931800	0.992200
C2461	C246	0.117300	0.967700	0.004900
C2471	C247	0.100900	0.971100	0.045700
C2481	C248	0.881400	0.853000	0.989200
C2491	C249	0.814700	0.880600	0.962500
C2501	C250	0.773300	0.857800	0.927900
C2511	C251	0.863400	0.785800	0.943200
C2521	C252	0.903500	0.803000	0.978300
C2531	C253	0.665700	0.489000	0.356200
C2541	C254	0.695800	0.534900	0.341600
C2551	C255	0.607500	0.563900	0.346400
C2561	C256	0.527400	0.536800	0.362700
C2571	C257	0.421900	0.551900	0.374200
C2581	C258	0.344100	0.523900	0.391700
C2591	C259	0.237200	0.539000	0.404200
C2601	C260	0.187600	0.497700	0.419200
C2611	C261	0.260500	0.459200	0.416400
C2621	C262	0.392900	0.605600	0.366700
C2631	C263	0.314600	0.619800	0.339400
C2641	C264	0.292200	0.666900	0.335100
C2651	C265	0.417900	0.692300	0.380800
C2661	C266	0.447000	0.644100	0.388500
C2671	C267	0.832500	0.948300	0.182500
C2681	C268	0.827500	0.944200	0.223800
C2691	C269	0.915600	0.918800	0.236900
C2701	C270	0.980800	0.909200	0.201100
C2711	C271	0.073500	0.883000	0.198200
C2721	C272	0.125400	0.871700	0.162400
C2731	C273	0.214200	0.837800	0.157300
C2741	C274	0.238400	0.836800	0.117600
C2751	C275	0.164500	0.868800	0.099000
C2761	C276	0.121900	0.859800	0.235400
C2771	C277	0.061200	0.823900	0.256000
C2781	C278	0.109100	0.803700	0.291000
C2791	C279	0.259600	0.851200	0.284100
C2801	C280	0.221700	0.876000	0.249600
C2811	C281	0.153800	0.842800	0.626100
C2821	C282	0.210100	0.803900	0.606800
C2831	C283	0.195100	0.811900	0.566700
C2841	C284	0.127000	0.853800	0.562600
C2851	C285	0.086900	0.873100	0.528100
C2861	C286	0.006400	0.914200	0.525600
C2871	C287	0.956000	0.931800	0.492200
C2881	C288	0.882700	0.967700	0.504900
C2891	C289	0.899100	0.971100	0.545700
C2901	C290	0.118600	0.853000	0.489200
C2911	C291	0.185300	0.880600	0.462500
C2921	C292	0.226700	0.857800	0.427900
C2931	C293	0.136600	0.785800	0.443200
C2941	C294	0.096500	0.803000	0.478300
C2951	C295	0.834300	0.989000	0.643800
C2961	C296	0.804200	0.034900	0.658400
C2971	C297	0.892500	0.063900	0.653600
C2981	C298	0.972600	0.036800	0.637300
C2991	C299	0.078100	0.051900	0.625800
C3001	C300	0.155900	0.023900	0.608300
C3011	C301	0.262800	0.039000	0.595800
C3021	C302	0.312400	0.997700	0.580800
C3031	C303	0.239500	0.959200	0.583600
C3041	C304	0.107100	0.105600	0.633300
C3051	C305	0.185400	0.119800	0.660600
C3061	C306	0.207800	0.166900	0.664900
C3071	C307	0.082100	0.192300	0.619200
C3081	C308	0.053000	0.144100	0.611500
C3091	C309	0.667500	0.448300	0.817500
C3101	C310	0.672500	0.444200	0.776200
C3111	C311	0.584400	0.418800	0.763100
C3121	C312	0.519200	0.409200	0.798900
C3131	C313	0.426500	0.383000	0.801800
C3141	C314	0.374600	0.371700	0.837600
C3151	C315	0.285800	0.337800	0.842700
C3161	C316	0.261600	0.336800	0.882400
C3171	C317	0.335500	0.368800	0.901000
C3181	C318	0.378100	0.359800	0.764600
C3191	C319	0.438800	0.323900	0.744000
C3201	C320	0.390900	0.303700	0.709000
C3211	C321	0.240400	0.351200	0.715900
C3221	C322	0.278300	0.376000	0.750400
C3231	C323	0.346200	0.342800	0.373900
C3241	C324	0.289900	0.303900	0.393200
C3251	C325	0.304900	0.311900	0.433300
C3261	C326	0.373000	0.353800	0.437400
C3271	C327	0.413100	0.373100	0.471900
C3281	C328	0.493600	0.414200	0.474400
C3291	C329	0.544000	0.431800	0.507800
C3301	C330	0.617300	0.467700	0.495100
C3311	C331	0.600900	0.471100	0.454300
C3321	C332	0.381400	0.353000	0.510800
C3331	C333	0.314700	0.380600	0.537500
C3341	C334	0.273300	0.357800	0.572100
C3351	C335	0.363400	0.285800	0.556800
C3361	C336	0.403500	0.303000	0.521700
N371	N37	0.063200	0.988500	0.130700
N381	N38	0.857400	0.973200	0.100600
N391	N39	0.832700	0.204400	0.144400
N401	N40	0.417800	0.428700	0.332100
N411	N41	0.596900	0.387900	0.374800
N421	N42	0.702400	0.317000	0.194500
N431	N43	0.603600	0.371600	0.900200
N441	N44	0.475800	0.439100	0.941000
N451	N45	0.705800	0.311400	0.081800
N461	N46	0.436800	0.488500	0.869300
N471	N47	0.642600	0.473200	0.899400
N481	N48	0.667300	0.704400	0.855600
N491	N49	0.082200	0.928700	0.667900
N501	N50	0.903100	0.887900	0.625200
N511	N51	0.797600	0.817000	0.805500
N521	N52	0.896400	0.871600	0.099800
N531	N53	0.024200	0.939100	0.059000
N541	N54	0.794200	0.811400	0.918200
N551	N55	0.563200	0.488500	0.369300
N561	N56	0.357400	0.473200	0.399400
N571	N57	0.332700	0.704400	0.355600
N581	N58	0.917800	0.928700	0.167900
N591	N59	0.096900	0.887900	0.125200
N601	N60	0.202400	0.817000	0.305500
N611	N61	0.103600	0.871600	0.599800
N621	N62	0.975800	0.939100	0.559000
N631	N63	0.205800	0.811400	0.418200
N641	N64	0.936800	0.988500	0.630700
N651	N65	0.142600	0.973200	0.600600
N661	N66	0.167300	0.204400	0.644400
N671	N67	0.582200	0.428700	0.832100
N681	N68	0.403100	0.387900	0.874800
N691	N69	0.297600	0.317000	0.694500
N701	N70	0.396400	0.371600	0.400200
N711	N71	0.524200	0.439100	0.441000
N721	N72	0.294200	0.311400	0.581800
B11	B1	0.486000	0.166100	0.630200
F11	F1	0.446900	0.210200	0.647200
F21	F2	0.584600	0.152000	0.631700
F31	F3	0.400500	0.153600	0.606400
F41	F4	0.449800	0.134900	0.669100
B21	B2	0.014000	0.333900	0.130200
F51	F5	0.053100	0.289800	0.147200
F61	F6	0.915400	0.348000	0.131700
F71	F7	0.099500	0.346400	0.106400
F81	F8	0.050200	0.365100	0.169100
B31	B3	0.486000	0.833900	0.869800
F91	F9	0.446900	0.789800	0.852800
F101	F10	0.584600	0.848000	0.868300
F111	F11	0.400500	0.846400	0.893600
F121	F12	0.449800	0.865100	0.830900
B41	B4	0.014000	0.666100	0.369800
F131	F13	0.053100	0.710200	0.352800
F141	F14	0.915400	0.652000	0.368300
F151	F15	0.099500	0.653600	0.393600
F161	F16	0.050200	0.634900	0.330900
B51	B5	0.514000	0.833900	0.369800
F171	F17	0.553100	0.789800	0.352800
F181	F18	0.415400	0.848000	0.368300
F191	F19	0.599500	0.846400	0.393600
F201	F20	0.550200	0.865100	0.330900
B61	B6	0.986000	0.666100	0.869800
F211	F21	0.946900	0.710200	0.852800
F221	F22	0.084600	0.652000	0.868300
F231	F23	0.900500	0.653600	0.893600
F241	F24	0.949800	0.634900	0.830900
B71	B7	0.514000	0.166100	0.130200
F251	F25	0.553100	0.210200	0.147200
F261	F26	0.415400	0.152000	0.131700
F271	F27	0.599500	0.153600	0.106400
F281	F28	0.550200	0.134900	0.169100
B81	B8	0.986000	0.333900	0.630200
F291	F29	0.946900	0.289800	0.647200
F301	F30	0.084600	0.348000	0.631700
F311	F31	0.900500	0.346400	0.606400
F321	F32	0.949800	0.365100	0.669100
