data_CEZNAY_clean_PM
_symmetry_space_group_name_H-M	'P1'
_cell_length_a	7.971400
_cell_length_b	9.740300
_cell_length_c	21.312000
_cell_angle_alpha	90.000000
_cell_angle_beta	90.000000
_cell_angle_gamma	114.154000
_symmetry_Int_Tables_number 1

loop_
_symmetry_equiv_pos_as_xyz
'x,y,z'

loop_
_atom_site_label
_atom_site_type_symbol
_atom_site_fract_x
_atom_site_fract_y
_atom_site_fract_z
Na11	Na1	0.889900	0.000000	0.500000
Na21	Na2	0.110100	0.000000	0.000000
U11	U1	0.459050	0.856800	0.618080
U21	U2	0.540950	0.143200	0.118080
U31	U3	0.397750	0.856800	0.881920
U41	U4	0.602250	0.143200	0.381920
H11	H1	0.984500	0.663600	0.543000
H21	H2	0.982900	0.399200	0.546900
H31	H3	0.855100	0.445000	0.720000
H41	H4	0.015500	0.336400	0.043000
H51	H5	0.017100	0.600800	0.046900
H61	H6	0.144900	0.555000	0.220000
H71	H7	0.679100	0.663600	0.957000
H81	H8	0.416300	0.399200	0.953100
H91	H9	0.589900	0.445000	0.780000
H101	H10	0.320900	0.336400	0.457000
H111	H11	0.583700	0.600800	0.453100
H121	H12	0.410100	0.555000	0.280000
C11	C1	0.628200	0.659000	0.586300
C21	C2	0.719900	0.556000	0.574600
C31	C3	0.953400	0.673000	0.722300
C41	C4	0.724100	0.334200	0.577800
C51	C5	0.635500	0.173000	0.589000
C61	C6	0.888200	0.574600	0.555300
C71	C7	0.886600	0.425200	0.557700
C81	C8	0.123000	0.740400	0.687100
C91	C9	0.838900	0.529800	0.733100
C101	C10	0.371800	0.341000	0.086300
C111	C11	0.280100	0.444000	0.074600
C121	C12	0.046600	0.327000	0.222300
C131	C13	0.275900	0.665800	0.077800
C141	C14	0.364500	0.827000	0.089000
C151	C15	0.111800	0.425400	0.055300
C161	C16	0.113400	0.574800	0.057700
C171	C17	0.877000	0.259600	0.187100
C181	C18	0.161100	0.470200	0.233100
C191	C19	0.030800	0.659000	0.913700
C201	C20	0.836100	0.556000	0.925400
C211	C21	0.719600	0.673000	0.777700
C221	C22	0.610100	0.334200	0.922200
C231	C23	0.537500	0.173000	0.911000
C241	C24	0.686400	0.574600	0.944700
C251	C25	0.538600	0.425200	0.942300
C261	C26	0.617400	0.740400	0.812900
C271	C27	0.690900	0.529800	0.766900
C281	C28	0.969200	0.341000	0.413700
C291	C29	0.163900	0.444000	0.425400
C301	C30	0.280400	0.327000	0.277700
C311	C31	0.389900	0.665800	0.422200
C321	C32	0.462500	0.827000	0.411000
C331	C33	0.313600	0.425400	0.444700
C341	C34	0.461400	0.574800	0.442300
C351	C35	0.382600	0.259600	0.312900
C361	C36	0.309100	0.470200	0.266900
O11	O1	0.477900	0.614000	0.610900
O21	O2	0.710900	0.799800	0.570000
O31	O3	0.480200	0.113800	0.616700
O41	O4	0.192900	0.878800	0.671700
O51	O5	0.716200	0.088800	0.574500
O61	O6	0.200700	0.655600	0.669000
O71	O7	0.614200	0.409800	0.589800
O81	O8	0.522100	0.386000	0.110900
O91	O9	0.289100	0.200200	0.070000
O101	O10	0.519800	0.886200	0.116700
O111	O11	0.807100	0.121200	0.171700
O121	O12	0.283800	0.911200	0.074500
O131	O13	0.799300	0.344400	0.169000
O141	O14	0.385800	0.590200	0.089800
O151	O15	0.136100	0.614000	0.889100
O161	O16	0.088900	0.799800	0.930000
O171	O17	0.633600	0.113800	0.883300
O181	O18	0.685900	0.878800	0.828300
O191	O19	0.372600	0.088800	0.925500
O201	O20	0.454900	0.655600	0.831000
O211	O21	0.795600	0.409800	0.910200
O221	O22	0.863900	0.386000	0.389100
O231	O23	0.911100	0.200200	0.430000
O241	O24	0.366400	0.886200	0.383300
O251	O25	0.314100	0.121200	0.328300
O261	O26	0.627400	0.911200	0.425500
O271	O27	0.545100	0.344400	0.331000
O281	O28	0.204400	0.590200	0.410200
O291	O29	0.883900	0.767800	0.750000
O301	O30	0.116100	0.232200	0.250000
