data_cg100226u_si_003_clean_PM
_symmetry_space_group_name_H-M	'P1'
_cell_length_a	27.130100
_cell_length_b	27.129800
_cell_length_c	27.129800
_cell_angle_alpha	109.471000
_cell_angle_beta	109.471000
_cell_angle_gamma	109.471000
_symmetry_Int_Tables_number 1

loop_
_symmetry_equiv_pos_as_xyz
'x,y,z'

loop_
_atom_site_label
_atom_site_type_symbol
_atom_site_fract_x
_atom_site_fract_y
_atom_site_fract_z
Zn11	Zn1	0.250000	0.375000	0.125000
Zn21	Zn2	0.625000	0.375000	0.250000
Zn31	Zn3	0.875000	0.125000	0.750000
Zn41	Zn4	0.375000	0.625000	0.750000
Zn51	Zn5	0.625000	0.250000	0.875000
Zn61	Zn6	0.125000	0.875000	0.250000
Zn71	Zn7	0.875000	0.750000	0.625000
Zn81	Zn8	0.750000	0.625000	0.875000
Zn91	Zn9	0.375000	0.750000	0.125000
Zn101	Zn10	0.125000	0.250000	0.375000
Zn111	Zn11	0.250000	0.875000	0.625000
Zn121	Zn12	0.750000	0.125000	0.375000
H11	H1	0.205600	0.206600	0.108600
H21	H2	0.798400	0.767500	0.337100
H31	H3	0.001000	0.098000	0.206600
H41	H4	0.582800	0.231700	0.354700
H51	H5	0.463200	0.162100	0.215500
H61	H6	0.629800	0.903400	0.519000
H71	H7	0.030900	0.461300	0.298400
H81	H8	0.536800	0.837900	0.784500
H91	H9	0.598000	0.097000	0.391400
H101	H10	0.728100	0.851100	0.582800
H111	H11	0.268900	0.632700	0.563800
H121	H12	0.550700	0.782100	0.415000
H131	H13	0.082800	0.728100	0.351100
H141	H14	0.784500	0.337900	0.536800
H151	H15	0.877900	0.144700	0.457400
H161	H16	0.644700	0.266800	0.187300
H171	H17	0.085000	0.635700	0.867100
H181	H18	0.148900	0.917200	0.771900
H191	H19	0.728100	0.877000	0.645300
H201	H20	0.597000	0.499000	0.205600
H211	H21	0.228100	0.582800	0.851100
H221	H22	0.550700	0.768600	0.635700
H231	H23	0.370200	0.096600	0.481000
H241	H24	0.863800	0.632700	0.068900
H251	H25	0.215500	0.553400	0.252300
H261	H26	0.812700	0.579500	0.957400
H271	H27	0.145300	0.728100	0.377000
H281	H28	0.415000	0.132900	0.364300
H291	H29	0.469100	0.701600	0.538700
H301	H30	0.662100	0.963200	0.715500
H311	H31	0.050700	0.635700	0.768600
H321	H32	0.436200	0.867300	0.731100
H331	H33	0.771900	0.354700	0.123000
H341	H34	0.391400	0.597000	0.598000
H351	H35	0.715500	0.252300	0.553400
H361	H36	0.867300	0.636200	0.431100
H371	H37	0.903400	0.884400	0.273600
H381	H38	0.355300	0.622100	0.042600
H391	H39	0.903400	0.019000	0.129800
H401	H40	0.268600	0.050700	0.135700
H411	H41	0.298400	0.337100	0.767500
H421	H42	0.837100	0.038700	0.069600
H431	H43	0.449300	0.231400	0.364300
H441	H44	0.632700	0.568900	0.363800
H451	H45	0.585000	0.717900	0.449300
H461	H46	0.705100	0.436200	0.068900
H471	H47	0.538700	0.337100	0.569600
H481	H48	0.284500	0.747700	0.446600
H491	H49	0.198900	0.036800	0.752300
H501	H50	0.122100	0.855300	0.542600
H511	H51	0.231100	0.794900	0.363800
H521	H52	0.108600	0.402000	0.403000
H531	H53	0.232500	0.069600	0.030900
H541	H54	0.698900	0.752300	0.036800
H551	H55	0.644700	0.377900	0.957400
H561	H56	0.747700	0.801100	0.463200
H571	H57	0.889200	0.519000	0.615600
H581	H58	0.217900	0.085000	0.949300
H591	H59	0.282100	0.231400	0.867100
H601	H60	0.930400	0.461300	0.162900
H611	H61	0.768300	0.623000	0.351100
H621	H62	0.768900	0.205100	0.636200
H631	H63	0.622100	0.079500	0.266800
H641	H64	0.019000	0.389200	0.115600
H651	H65	0.446600	0.198900	0.662100
H661	H66	0.123000	0.854700	0.771900
H671	H67	0.969100	0.538700	0.701600
H681	H68	0.636200	0.931100	0.367300
H691	H69	0.144700	0.187300	0.266800
H701	H70	0.268300	0.917200	0.145300
H711	H71	0.351100	0.228100	0.082800
H721	H72	0.205100	0.136200	0.268900
H731	H73	0.726400	0.110800	0.129800
H741	H74	0.773600	0.870200	0.889200
H751	H75	0.136200	0.768900	0.705100
H761	H76	0.069600	0.538700	0.837100
H771	H77	0.870200	0.389200	0.273600
H781	H78	0.132700	0.768900	0.063800
H791	H79	0.293400	0.999000	0.402000
H801	H80	0.615600	0.596600	0.226400
H811	H81	0.867300	0.231100	0.936200
H821	H82	0.798400	0.030900	0.961300
H831	H83	0.226400	0.129800	0.110800
H841	H84	0.501000	0.206600	0.098000
H851	H85	0.430400	0.162900	0.461300
H861	H86	0.226400	0.096600	0.615600
H871	H87	0.747700	0.946600	0.784500
H881	H88	0.877000	0.731700	0.148900
H891	H89	0.949300	0.585000	0.217900
H901	H90	0.870200	0.481000	0.096600
H911	H91	0.079500	0.766800	0.122100
H921	H92	0.001000	0.903000	0.294400
H931	H93	0.132900	0.864300	0.915000
H941	H94	0.629800	0.726400	0.610800
H951	H95	0.579500	0.122100	0.766800
H961	H96	0.050700	0.415000	0.782100
H971	H97	0.457400	0.812700	0.079500
H981	H98	0.036800	0.784500	0.837900
H991	H99	0.530900	0.298400	0.461300
H1001	H100	0.645300	0.377000	0.728100
H1011	H101	0.623000	0.851100	0.268300
H1021	H102	0.267500	0.298400	0.837100
H1031	H103	0.855300	0.812700	0.733200
H1041	H104	0.266800	0.579500	0.622100
H1051	H105	0.247700	0.784500	0.946600
H1061	H106	0.294900	0.731100	0.863800
H1071	H107	0.499000	0.793400	0.902000
H1081	H108	0.794400	0.793400	0.891400
H1091	H109	0.267500	0.969100	0.930400
H1101	H110	0.268300	0.351100	0.623000
H1111	H111	0.268900	0.636200	0.205100
H1121	H112	0.794900	0.931100	0.563800
H1131	H113	0.851100	0.082800	0.228100
H1141	H114	0.231400	0.367100	0.782100
H1151	H115	0.915000	0.364300	0.132900
H1161	H116	0.891400	0.293400	0.794400
H1171	H117	0.231100	0.436200	0.367300
H1181	H118	0.963200	0.747700	0.301100
H1191	H119	0.301100	0.053400	0.837900
H1201	H120	0.030900	0.569600	0.232500
H1211	H121	0.082800	0.354700	0.231700
H1221	H122	0.068900	0.132700	0.863800
H1231	H123	0.273600	0.384400	0.903400
H1241	H124	0.884400	0.773600	0.403400
H1251	H125	0.053400	0.715500	0.752300
H1261	H126	0.301100	0.247700	0.963200
H1271	H127	0.981000	0.610800	0.884400
H1281	H128	0.232500	0.162900	0.701600
H1291	H129	0.608600	0.403000	0.402000
H1301	H130	0.233200	0.855300	0.312700
H1311	H131	0.384400	0.981000	0.110800
H1321	H132	0.553400	0.801100	0.337900
H1331	H133	0.732500	0.030900	0.069600
H1341	H134	0.752300	0.215500	0.053400
H1351	H135	0.915000	0.550700	0.282100
H1361	H136	0.793400	0.402000	0.999000
H1371	H137	0.596600	0.726400	0.115600
H1381	H138	0.162100	0.715500	0.963200
H1391	H139	0.367300	0.936200	0.231100
H1401	H140	0.417200	0.768300	0.645300
H1411	H141	0.585000	0.867100	0.635700
H1421	H142	0.354700	0.731700	0.582800
H1431	H143	0.377900	0.457400	0.144700
H1441	H144	0.784500	0.446600	0.747700
H1451	H145	0.635700	0.367100	0.585000
H1461	H146	0.252300	0.053400	0.215500
H1471	H147	0.837900	0.553400	0.301100
H1481	H148	0.936200	0.731100	0.867300
H1491	H149	0.717900	0.768600	0.132900
H1501	H150	0.499000	0.705600	0.097000
H1511	H151	0.469100	0.767500	0.430400
H1521	H152	0.312700	0.957400	0.579500
H1531	H153	0.902000	0.608600	0.903000
H1541	H154	0.635700	0.268600	0.550700
H1551	H155	0.698900	0.946600	0.162100
H1561	H156	0.377900	0.920500	0.733200
H1571	H157	0.731400	0.949300	0.864300
H1581	H158	0.461300	0.798400	0.530900
H1591	H159	0.403000	0.501000	0.794400
H1601	H160	0.705100	0.268900	0.136200
H1611	H161	0.403400	0.129800	0.019000
H1621	H162	0.768300	0.145300	0.917200
H1631	H163	0.782100	0.915000	0.050700
H1641	H164	0.123000	0.268300	0.851100
H1651	H165	0.936200	0.205100	0.568900
H1661	H166	0.706600	0.001000	0.598000
H1671	H167	0.364300	0.632900	0.415000
H1681	H168	0.715500	0.463200	0.662100
H1691	H169	0.132700	0.363800	0.568900
H1701	H170	0.687300	0.644700	0.766800
H1711	H171	0.108600	0.706600	0.205600
H1721	H172	0.201600	0.232500	0.662900
H1731	H173	0.068900	0.936200	0.705100
H1741	H174	0.733200	0.420500	0.377900
H1751	H175	0.999000	0.902000	0.793400
H1761	H176	0.446600	0.247700	0.284500
H1771	H177	0.877900	0.733200	0.920500
H1781	H178	0.436200	0.568900	0.205100
H1791	H179	0.946600	0.284500	0.247700
H1801	H180	0.420500	0.542600	0.687300
H1811	H181	0.867100	0.731400	0.282100
H1821	H182	0.687300	0.042600	0.420500
H1831	H183	0.038700	0.569600	0.337100
H1841	H184	0.312700	0.355300	0.233200
H1851	H185	0.110800	0.481000	0.384400
H1861	H186	0.135700	0.550700	0.268600
H1871	H187	0.767500	0.837100	0.298400
H1881	H188	0.812700	0.233200	0.355300
H1891	H189	0.389200	0.615600	0.519000
H1901	H190	0.596600	0.870200	0.981000
H1911	H191	0.187300	0.420500	0.042600
H1921	H192	0.337900	0.036800	0.284500
H1931	H193	0.403000	0.902000	0.108600
H1941	H194	0.096600	0.115600	0.726400
H1951	H195	0.294400	0.403000	0.001000
H1961	H196	0.733200	0.312700	0.855300
H1971	H197	0.854700	0.582800	0.731700
H1981	H198	0.851100	0.768300	0.123000
H1991	H199	0.920500	0.687300	0.542600
H2001	H200	0.268600	0.217900	0.632900
H2011	H201	0.889200	0.370200	0.773600
H2021	H202	0.731700	0.648900	0.377000
H2031	H203	0.201600	0.969100	0.038700
H2041	H204	0.463200	0.301100	0.747700
H2051	H205	0.481000	0.884400	0.610800
H2061	H206	0.420500	0.877900	0.233200
H2071	H207	0.519000	0.403400	0.629800
H2081	H208	0.481000	0.596600	0.370200
H2091	H209	0.042600	0.122100	0.355300
H2101	H210	0.632700	0.063800	0.768900
H2111	H211	0.863800	0.231100	0.294900
H2121	H212	0.217900	0.132900	0.768600
H2131	H213	0.247700	0.463200	0.801100
H2141	H214	0.931100	0.867300	0.136200
H2151	H215	0.598000	0.501000	0.706600
H2161	H216	0.999000	0.097000	0.705600
H2171	H217	0.701600	0.038700	0.969100
H2181	H218	0.273600	0.889200	0.870200
H2191	H219	0.864300	0.415000	0.632900
H2201	H220	0.957400	0.079500	0.812700
H2211	H221	0.069600	0.530900	0.732500
H2221	H222	0.623000	0.771900	0.854700
H2231	H223	0.946600	0.662100	0.198900
H2241	H224	0.115600	0.226400	0.596600
H2251	H225	0.731100	0.367300	0.436200
H2261	H226	0.402000	0.903000	0.608600
H2271	H227	0.294900	0.563800	0.931100
H2281	H228	0.355300	0.733200	0.812700
H2291	H229	0.271900	0.148900	0.417200
H2301	H230	0.519000	0.115600	0.389200
H2311	H231	0.648900	0.877000	0.231700
H2321	H232	0.337100	0.267500	0.798400
H2331	H233	0.282100	0.050700	0.915000
H2341	H234	0.530900	0.232500	0.569600
H2351	H235	0.370200	0.273600	0.389200
H2361	H236	0.542600	0.187300	0.920500
H2371	H237	0.206600	0.608600	0.705600
H2381	H238	0.864300	0.449300	0.731400
H2391	H239	0.961300	0.530900	0.798400
H2401	H240	0.403400	0.273600	0.884400
H2411	H241	0.538700	0.201600	0.469100
H2421	H242	0.768900	0.563800	0.632700
H2431	H243	0.766800	0.144700	0.687300
H2441	H244	0.036800	0.252300	0.698900
H2451	H245	0.920500	0.233200	0.877900
H2461	H246	0.198900	0.162100	0.946600
H2471	H247	0.252300	0.198900	0.536800
H2481	H248	0.231400	0.864300	0.949300
H2491	H249	0.430400	0.267500	0.469100
H2501	H250	0.449300	0.217900	0.585000
H2511	H251	0.205600	0.999000	0.597000
H2521	H252	0.417200	0.648900	0.271900
H2531	H253	0.949300	0.364300	0.231400
H2541	H254	0.431100	0.136200	0.867300
H2551	H255	0.801100	0.963200	0.247700
H2561	H256	0.867100	0.135700	0.085000
H2571	H257	0.284500	0.536800	0.337900
H2581	H258	0.569600	0.732500	0.530900
H2591	H259	0.957400	0.877900	0.644700
H2601	H260	0.903000	0.794400	0.501000
H2611	H261	0.645300	0.268300	0.417200
H2621	H262	0.162900	0.201600	0.732500
H2631	H263	0.097000	0.205600	0.499000
H2641	H264	0.731400	0.782100	0.367100
H2651	H265	0.110800	0.629800	0.226400
H2661	H266	0.615600	0.019000	0.889200
H2671	H267	0.726400	0.615600	0.096600
H2681	H268	0.837900	0.284500	0.036800
H2691	H269	0.079500	0.312700	0.457400
H2701	H270	0.367100	0.085000	0.135700
H2711	H271	0.648900	0.771900	0.917200
H2721	H272	0.903000	0.108600	0.902000
H2731	H273	0.294400	0.891400	0.793400
H2741	H274	0.266800	0.687300	0.144700
H2751	H275	0.884400	0.110800	0.981000
H2761	H276	0.662100	0.698900	0.446600
H2771	H277	0.766800	0.622100	0.579500
H2781	H278	0.771900	0.417200	0.148900
H2791	H279	0.501000	0.294400	0.903000
H2801	H280	0.569600	0.837100	0.538700
H2811	H281	0.969100	0.430400	0.767500
H2821	H282	0.610800	0.226400	0.629800
H2831	H283	0.461300	0.662900	0.430400
H2841	H284	0.097000	0.891400	0.098000
H2851	H285	0.233200	0.377900	0.420500
H2861	H286	0.981000	0.370200	0.596600
H2871	H287	0.917200	0.271900	0.648900
H2881	H288	0.096600	0.981000	0.870200
H2891	H289	0.608600	0.205600	0.706600
H2901	H290	0.917200	0.645300	0.768300
H2911	H291	0.144700	0.957400	0.377900
H2921	H292	0.098000	0.391400	0.097000
H2931	H293	0.731100	0.363800	0.794900
H2941	H294	0.782100	0.867100	0.231400
H2951	H295	0.389200	0.773600	0.370200
H2961	H296	0.132900	0.268600	0.717900
H2971	H297	0.773600	0.903400	0.384400
H2981	H298	0.837100	0.798400	0.267500
H2991	H299	0.363800	0.068900	0.632700
H3001	H300	0.377000	0.148900	0.731700
H3011	H301	0.231700	0.377000	0.648900
H3021	H302	0.902000	0.293400	0.499000
H3031	H303	0.855300	0.042600	0.622100
H3041	H304	0.122100	0.266800	0.079500
H3051	H305	0.768600	0.135700	0.050700
H3061	H306	0.293400	0.294400	0.391400
H3071	H307	0.148900	0.231700	0.877000
H3081	H308	0.768600	0.632900	0.217900
H3091	H309	0.162900	0.961300	0.930400
H3101	H310	0.019000	0.629800	0.403400
H3111	H311	0.363800	0.294900	0.231100
H3121	H312	0.271900	0.123000	0.354700
H3131	H313	0.298400	0.961300	0.030900
H3141	H314	0.732500	0.701600	0.162900
H3151	H315	0.963200	0.215500	0.162100
H3161	H316	0.563800	0.132700	0.268900
H3171	H317	0.367300	0.431100	0.636200
H3181	H318	0.563800	0.431100	0.794900
H3191	H319	0.706600	0.705600	0.608600
H3201	H320	0.767500	0.930400	0.969100
H3211	H321	0.877000	0.145300	0.228100
H3221	H322	0.402000	0.499000	0.293400
H3231	H323	0.752300	0.536800	0.198900
H3241	H324	0.205100	0.068900	0.436200
H3251	H325	0.215500	0.662100	0.463200
H3261	H326	0.187300	0.766800	0.644700
H3271	H327	0.228100	0.645300	0.877000
H3281	H328	0.568900	0.705100	0.936200
H3291	H329	0.701600	0.662900	0.232500
H3301	H330	0.364300	0.731400	0.449300
H3311	H331	0.063800	0.794900	0.431100
H3321	H332	0.136200	0.367300	0.931100
H3331	H333	0.162100	0.446600	0.698900
H3341	H334	0.542600	0.355300	0.122100
H3351	H335	0.632900	0.915000	0.864300
H3361	H336	0.367100	0.282100	0.731400
H3371	H337	0.793400	0.391400	0.294400
H3381	H338	0.415000	0.282100	0.550700
H3391	H339	0.582800	0.351100	0.728100
H3401	H340	0.457400	0.644700	0.877900
H3411	H341	0.801100	0.837900	0.053400
H3421	H342	0.597000	0.098000	0.891400
H3431	H343	0.705600	0.108600	0.206600
H3441	H344	0.354700	0.623000	0.271900
H3451	H345	0.145300	0.417200	0.268300
H3461	H346	0.391400	0.794400	0.293400
H3471	H347	0.854700	0.271900	0.623000
H3481	H348	0.536800	0.698900	0.252300
H3491	H349	0.731700	0.082800	0.854700
H3501	H350	0.931100	0.063800	0.294900
H3511	H351	0.794400	0.001000	0.403000
H3521	H352	0.717900	0.949300	0.085000
H3531	H353	0.053400	0.337900	0.801100
H3541	H354	0.705600	0.597000	0.999000
H3551	H355	0.085000	0.449300	0.717900
H3561	H356	0.351100	0.123000	0.768300
H3571	H357	0.384400	0.403400	0.773600
H3581	H358	0.622100	0.542600	0.855300
H3591	H359	0.042600	0.920500	0.187300
H3601	H360	0.662900	0.930400	0.961300
H3611	H361	0.135700	0.585000	0.367100
H3621	H362	0.337900	0.301100	0.553400
H3631	H363	0.662900	0.732500	0.201600
H3641	H364	0.553400	0.752300	0.715500
H3651	H365	0.632900	0.717900	0.268600
H3661	H366	0.115600	0.889200	0.019000
H3671	H367	0.206600	0.598000	0.001000
H3681	H368	0.129800	0.610800	0.726400
H3691	H369	0.098000	0.706600	0.501000
H3701	H370	0.930400	0.469100	0.267500
H3711	H371	0.231700	0.854700	0.082800
H3721	H372	0.129800	0.519000	0.903400
H3731	H373	0.337100	0.069600	0.038700
H3741	H374	0.568900	0.863800	0.132700
H3751	H375	0.891400	0.598000	0.597000
H3761	H376	0.610800	0.384400	0.481000
H3771	H377	0.794900	0.863800	0.731100
H3781	H378	0.431100	0.294900	0.063800
H3791	H379	0.961300	0.430400	0.662900
H3801	H380	0.579500	0.457400	0.312700
H3811	H381	0.063800	0.268900	0.132700
H3821	H382	0.377000	0.228100	0.145300
H3831	H383	0.038700	0.469100	0.201600
H3841	H384	0.636200	0.705100	0.768900
C11	C1	0.793650	0.122170	0.804740
C21	C2	0.720480	0.077500	0.136400
C31	C3	0.799930	0.991080	0.327430
C41	C4	0.805860	0.956300	0.604120
C51	C5	0.376600	0.100730	0.070650
C61	C6	0.357020	0.415920	0.779520
C71	C7	0.715690	0.733990	0.105660
C81	C8	0.473730	0.181980	0.105650
C91	C9	0.339210	0.636600	0.017510
C101	C10	0.110030	0.481700	0.715690
C111	C11	0.208250	0.026270	0.631920
C121	C12	0.150440	0.352180	0.956300
C131	C13	0.708250	0.631920	0.026270
C141	C14	0.671480	0.988910	0.293650
C151	C15	0.824430	0.479760	0.775670
C161	C16	0.297390	0.678300	0.160790
C171	C17	0.543700	0.849560	0.147820
C181	C18	0.775670	0.795910	0.451240
C191	C19	0.298260	0.647820	0.604120
C201	C20	0.779520	0.863600	0.922500
C211	C21	0.304740	0.511090	0.182570
C221	C22	0.423670	0.791750	0.318020
C231	C23	0.791750	0.818020	0.923670
C241	C24	0.895880	0.194140	0.543700
C251	C25	0.469920	0.694050	0.570650
C261	C26	0.479760	0.204090	0.655330
C271	C27	0.889970	0.518300	0.284310
C281	C28	0.191150	0.527500	0.700070
C291	C29	0.600730	0.876600	0.570650
C301	C30	0.415920	0.136400	0.058900
C311	C31	0.327430	0.491080	0.799930
C321	C32	0.293650	0.488910	0.671480
C331	C33	0.058900	0.636400	0.415920
C341	C34	0.105660	0.871670	0.889970
C351	C35	0.389970	0.105660	0.371670
C361	C36	0.336350	0.508920	0.308850
C371	C37	0.349560	0.305860	0.201740
C381	C38	0.415920	0.279520	0.857020
C391	C39	0.275870	0.969920	0.899270
C401	C40	0.844670	0.520240	0.295910
C411	C41	0.363400	0.880910	0.702610
C421	C42	0.215690	0.110030	0.981700
C431	C43	0.923670	0.318020	0.791750
C441	C44	0.220480	0.136400	0.077500
C451	C45	0.605650	0.473730	0.681980
C461	C46	0.818020	0.423670	0.291750
C471	C47	0.548760	0.844670	0.824430
C481	C48	0.672570	0.163650	0.972500
C491	C49	0.880910	0.202610	0.863400
C501	C50	0.724330	0.548760	0.204090
C511	C51	0.456300	0.305860	0.104120
C521	C52	0.695260	0.488910	0.817430
C531	C53	0.150440	0.798260	0.694140
C541	C54	0.250000	0.872800	0.127200
C551	C55	0.100730	0.530080	0.724130
C561	C56	0.795910	0.844670	0.020240
C571	C57	0.982490	0.863400	0.660790
C581	C58	0.889970	0.371670	0.105660
C591	C59	0.508920	0.808850	0.836350
C601	C60	0.798260	0.194140	0.650440
C611	C61	0.479760	0.275670	0.324430
C621	C62	0.610030	0.715690	0.481700
C631	C63	0.863400	0.702610	0.880910
C641	C64	0.766010	0.784310	0.394340
C651	C65	0.160790	0.982490	0.363400
C661	C66	0.877200	0.127200	0.254400
C671	C67	0.972500	0.663650	0.672570
C681	C68	0.324430	0.548760	0.344670
C691	C69	0.682570	0.377830	0.171480
C701	C70	0.048760	0.824430	0.844670
C711	C71	0.429350	0.623400	0.399270
C721	C72	0.584080	0.720480	0.142980
C731	C73	0.131920	0.208250	0.526270
C741	C74	0.175570	0.520240	0.224330
C751	C75	0.527500	0.327430	0.336350
C761	C76	0.208250	0.181980	0.076330
C771	C77	0.894340	0.128330	0.110030
C781	C78	0.899270	0.469920	0.275870
C791	C79	0.491080	0.191150	0.163650
C801	C80	0.026270	0.131920	0.708250
C811	C81	0.020240	0.675570	0.724330
C821	C82	0.299930	0.972500	0.808850
C831	C83	0.482490	0.821700	0.119090
C841	C84	0.254400	0.627200	0.877200
C851	C85	0.295910	0.275670	0.951240
C861	C86	0.394350	0.868080	0.576330
C871	C87	0.027500	0.691150	0.200070
C881	C88	0.701740	0.349560	0.805860
C891	C89	0.808850	0.336350	0.008920
C901	C90	0.481700	0.266010	0.371670
C911	C91	0.357020	0.941100	0.077500
C921	C92	0.530080	0.305950	0.429350
C931	C93	0.622800	0.877200	0.250000
C941	C94	0.206350	0.877830	0.195260
C951	C95	0.619090	0.136600	0.797390
C961	C96	0.076330	0.394350	0.368080
C971	C97	0.799930	0.808850	0.972500
C981	C98	0.017510	0.880910	0.178300
C991	C99	0.929350	0.399270	0.623400
C1001	C100	0.922500	0.558900	0.642980
C1011	C101	0.131920	0.923670	0.105650
C1021	C102	0.245600	0.122800	0.372800
C1031	C103	0.979760	0.324430	0.275670
C1041	C104	0.750000	0.622800	0.377200
C1051	C105	0.577500	0.357020	0.441100
C1061	C106	0.250000	0.377200	0.622800
C1071	C107	0.043700	0.895880	0.694140
C1081	C108	0.852180	0.650440	0.456300
C1091	C109	0.839210	0.821700	0.702610
C1101	C110	0.647820	0.543700	0.349560
C1111	C111	0.352180	0.456300	0.650440
C1121	C112	0.233990	0.018300	0.128330
C1131	C113	0.694050	0.623400	0.224130
C1141	C114	0.628330	0.394340	0.610030
C1151	C115	0.702610	0.380910	0.363400
C1161	C116	0.923670	0.605650	0.631920
C1171	C117	0.899270	0.429350	0.123400
C1181	C118	0.395880	0.543700	0.194140
C1191	C119	0.817430	0.988910	0.695260
C1201	C120	0.691150	0.991080	0.663650
C1211	C121	0.202610	0.839210	0.321700
C1221	C122	0.623400	0.724130	0.194050
C1231	C123	0.136600	0.297390	0.119090
C1241	C124	0.070650	0.469920	0.194050
C1251	C125	0.058900	0.422500	0.142980
C1261	C126	0.766010	0.981700	0.871670
C1271	C127	0.297390	0.619090	0.636600
C1281	C128	0.371670	0.605660	0.389970
C1291	C129	0.469920	0.775870	0.399270
C1301	C130	0.973730	0.105650	0.181980
C1311	C131	0.704090	0.979760	0.155330
C1321	C132	0.194050	0.224130	0.623400
C1331	C133	0.077500	0.441100	0.357020
C1341	C134	0.805950	0.030080	0.929350
C1351	C135	0.682570	0.304740	0.011090
C1361	C136	0.127200	0.372800	0.250000
C1371	C137	0.775870	0.876600	0.305950
C1381	C138	0.155330	0.675570	0.951240
C1391	C139	0.105660	0.233990	0.715690
C1401	C140	0.844670	0.324430	0.048760
C1411	C141	0.663650	0.172570	0.472500
C1421	C142	0.872800	0.627200	0.750000
C1431	C143	0.363400	0.482490	0.160790
C1441	C144	0.836350	0.527500	0.827430
C1451	C145	0.147820	0.798260	0.104120
C1461	C146	0.929350	0.530080	0.805950
C1471	C147	0.182570	0.011090	0.304740
C1481	C148	0.570650	0.194050	0.469920
C1491	C149	0.894350	0.318020	0.526270
C1501	C150	0.852180	0.201740	0.895880
C1511	C151	0.488910	0.317430	0.195260
C1521	C152	0.577500	0.220480	0.636400
C1531	C153	0.339210	0.702610	0.821700
C1541	C154	0.172570	0.972500	0.163650
C1551	C155	0.451240	0.295910	0.775670
C1561	C156	0.472500	0.672570	0.663650
C1571	C157	0.518300	0.784310	0.389970
C1581	C158	0.172570	0.200070	0.508920
C1591	C159	0.622170	0.293650	0.304740
C1601	C160	0.988910	0.195260	0.317430
C1611	C161	0.700070	0.027500	0.191150
C1621	C162	0.817430	0.828520	0.622170
C1631	C163	0.104120	0.805860	0.456300
C1641	C164	0.110030	0.628330	0.894340
C1651	C165	0.526270	0.818020	0.894350
C1661	C166	0.631920	0.526270	0.208250
C1671	C167	0.576330	0.368080	0.394350
C1681	C168	0.344670	0.295910	0.520240
C1691	C169	0.631920	0.105650	0.923670
C1701	C170	0.871670	0.389970	0.605660
C1711	C171	0.171480	0.293650	0.988910
C1721	C172	0.517510	0.178300	0.880910
C1731	C173	0.642980	0.584080	0.220480
C1741	C174	0.706350	0.195260	0.877830
C1751	C175	0.526270	0.708250	0.131920
C1761	C176	0.123400	0.929350	0.899270
C1771	C177	0.694140	0.298260	0.150440
C1781	C178	0.956300	0.104120	0.305860
C1791	C179	0.394350	0.526270	0.318020
C1801	C180	0.084080	0.941100	0.863600
C1811	C181	0.636400	0.915920	0.558900
C1821	C182	0.691150	0.700070	0.527500
C1831	C183	0.863600	0.441100	0.084080
C1841	C184	0.655330	0.951240	0.675570
C1851	C185	0.017510	0.136600	0.339210
C1861	C186	0.849560	0.201740	0.305860
C1871	C187	0.070650	0.600730	0.376600
C1881	C188	0.119090	0.797390	0.136600
C1891	C189	0.200070	0.008920	0.672570
C1901	C190	0.076330	0.681980	0.208250
C1911	C191	0.194140	0.150440	0.298260
C1921	C192	0.951240	0.175570	0.155330
C1931	C193	0.991080	0.827430	0.299930
C1941	C194	0.922500	0.363600	0.779520
C1951	C195	0.627200	0.377200	0.754400
C1961	C196	0.804740	0.622170	0.793650
C1971	C197	0.284310	0.266010	0.894340
C1981	C198	0.828520	0.706350	0.011090
C1991	C199	0.636600	0.517510	0.839210
C2001	C200	0.750000	0.127200	0.872800
C2011	C201	0.147820	0.349560	0.543700
C2021	C202	0.876600	0.805950	0.275870
C2031	C203	0.517510	0.339210	0.136600
C2041	C204	0.376600	0.275870	0.805950
C2051	C205	0.380910	0.517510	0.678300
C2061	C206	0.377830	0.671480	0.182570
C2071	C207	0.941100	0.577500	0.857020
C2081	C208	0.894350	0.576330	0.868080
C2091	C209	0.724330	0.175570	0.020240
C2101	C210	0.368080	0.473730	0.791750
C2111	C211	0.681980	0.973730	0.605650
C2121	C212	0.558900	0.142980	0.422500
C2131	C213	0.178300	0.380910	0.017510
C2141	C214	0.308850	0.299930	0.472500
C2151	C215	0.204090	0.155330	0.979760
C2161	C216	0.868080	0.791750	0.473730
C2171	C217	0.451240	0.155330	0.175570
C2181	C218	0.363600	0.084080	0.441100
C2191	C219	0.202610	0.363400	0.380910
C2201	C220	0.527500	0.200070	0.691150
C2211	C221	0.317430	0.622170	0.828520
C2221	C222	0.422500	0.779520	0.363600
C2231	C223	0.720480	0.642980	0.084080
C2241	C224	0.576330	0.208250	0.681980
C2251	C225	0.295910	0.020240	0.844670
C2261	C226	0.793650	0.671480	0.488910
C2271	C227	0.048760	0.224330	0.704090
C2281	C228	0.321700	0.339210	0.202610
C2291	C229	0.745600	0.372800	0.122800
C2301	C230	0.871670	0.481700	0.766010
C2311	C231	0.422500	0.642980	0.558900
C2321	C232	0.797390	0.636600	0.619090
C2331	C233	0.399270	0.123400	0.429350
C2341	C234	0.941100	0.363600	0.584080
C2351	C235	0.795910	0.951240	0.275670
C2361	C236	0.305860	0.604120	0.956300
C2371	C237	0.026270	0.894350	0.818020
C2381	C238	0.305950	0.929350	0.030080
C2391	C239	0.380910	0.863400	0.202610
C2401	C240	0.877200	0.750000	0.122800
C2411	C241	0.084080	0.142980	0.720480
C2421	C242	0.488910	0.171480	0.793650
C2431	C243	0.328520	0.317430	0.122170
C2441	C244	0.600730	0.724130	0.530080
C2451	C245	0.836350	0.308850	0.508920
C2461	C246	0.827430	0.799930	0.491080
C2471	C247	0.011090	0.804740	0.682570
C2481	C248	0.570650	0.376600	0.600730
C2491	C249	0.619090	0.482490	0.321700
C2501	C250	0.797390	0.160790	0.678300
C2511	C251	0.195260	0.817430	0.488910
C2521	C252	0.880910	0.678300	0.517510
C2531	C253	0.868080	0.076330	0.894350
C2541	C254	0.558900	0.415920	0.636400
C2551	C255	0.702610	0.321700	0.839210
C2561	C256	0.798260	0.604120	0.647820
C2571	C257	0.979760	0.655330	0.204090
C2581	C258	0.352180	0.895880	0.201740
C2591	C259	0.163650	0.691150	0.491080
C2601	C260	0.849560	0.647820	0.043700
C2611	C261	0.894340	0.766010	0.284310
C2621	C262	0.804740	0.182570	0.511090
C2631	C263	0.647820	0.104120	0.798260
C2641	C264	0.956300	0.852180	0.150440
C2651	C265	0.011090	0.206350	0.828520
C2661	C266	0.275670	0.824430	0.979760
C2671	C267	0.655330	0.704090	0.479760
C2681	C268	0.200070	0.191150	0.027500
C2691	C269	0.695260	0.206350	0.377830
C2701	C270	0.305950	0.376600	0.775870
C2711	C271	0.328520	0.011090	0.706350
C2721	C272	0.368080	0.894350	0.076330
C2731	C273	0.857020	0.779520	0.415920
C2741	C274	0.543700	0.694140	0.895880
C2751	C275	0.136600	0.839210	0.517510
C2761	C276	0.604120	0.456300	0.805860
C2771	C277	0.824430	0.344670	0.548760
C2781	C278	0.951240	0.775670	0.295910
C2791	C279	0.018300	0.628330	0.733990
C2801	C280	0.733990	0.605660	0.215690
C2811	C281	0.318020	0.026270	0.394350
C2821	C282	0.441100	0.584080	0.363600
C2831	C283	0.675570	0.224330	0.520240
C2841	C284	0.136400	0.577500	0.720480
C2851	C285	0.299930	0.327430	0.991080
C2861	C286	0.895880	0.701740	0.852180
C2871	C287	0.308850	0.008920	0.336350
C2881	C288	0.171480	0.877830	0.682570
C2891	C289	0.275870	0.305950	0.876600
C2901	C290	0.660790	0.297390	0.178300
C2911	C291	0.827430	0.027500	0.836350
C2921	C292	0.220480	0.084080	0.642980
C2931	C293	0.105650	0.423670	0.131920
C2941	C294	0.423670	0.631920	0.605650
C2951	C295	0.372800	0.750000	0.627200
C2961	C296	0.201740	0.395880	0.352180
C2971	C297	0.969920	0.570650	0.694050
C2981	C298	0.671480	0.682570	0.877830
C2991	C299	0.224130	0.100730	0.030080
C3001	C300	0.636400	0.720480	0.577500
C3011	C301	0.030080	0.429350	0.305950
C3021	C302	0.394340	0.110030	0.128330
C3031	C303	0.077500	0.636400	0.220480
C3041	C304	0.104120	0.298260	0.147820
C3051	C305	0.142980	0.220480	0.584080
C3061	C306	0.128330	0.518300	0.233990
C3071	C307	0.122800	0.872800	0.745600
C3081	C308	0.863400	0.160790	0.482490
C3091	C309	0.872800	0.245600	0.622800
C3101	C310	0.784310	0.894340	0.266010
C3111	C311	0.715690	0.981700	0.110030
C3121	C312	0.122170	0.304740	0.293650
C3131	C313	0.828520	0.122170	0.317430
C3141	C314	0.821700	0.619090	0.982490
C3151	C315	0.518300	0.733990	0.628330
C3161	C316	0.982490	0.119090	0.821700
C3171	C317	0.672570	0.508920	0.200070
C3181	C318	0.650440	0.694140	0.798260
C3191	C319	0.304740	0.793650	0.622170
C3201	C320	0.877830	0.182570	0.671480
C3211	C321	0.194140	0.043700	0.395880
C3221	C322	0.394340	0.284310	0.766010
C3231	C323	0.821700	0.202610	0.339210
C3241	C324	0.482490	0.660790	0.863400
C3251	C325	0.973730	0.868080	0.291750
C3261	C326	0.660790	0.363400	0.982490
C3271	C327	0.784310	0.889970	0.018300
C3281	C328	0.123400	0.194050	0.724130
C3291	C329	0.604120	0.147820	0.298260
C3301	C330	0.779520	0.915920	0.357020
C3311	C331	0.622800	0.745600	0.872800
C3321	C332	0.127200	0.754400	0.377200
C3331	C333	0.511090	0.682570	0.804740
C3341	C334	0.678300	0.660790	0.797390
C3351	C335	0.317430	0.695260	0.988910
C3361	C336	0.363600	0.279520	0.422500
C3371	C337	0.915920	0.857020	0.279520
C3381	C338	0.043700	0.147820	0.849560
C3391	C339	0.293650	0.804740	0.122170
C3401	C340	0.584080	0.863600	0.941100
C3411	C341	0.224130	0.123400	0.694050
C3421	C342	0.204090	0.048760	0.724330
C3431	C343	0.182570	0.171480	0.377830
C3441	C344	0.623400	0.899270	0.929350
C3451	C345	0.650440	0.956300	0.352180
C3461	C346	0.724130	0.030080	0.100730
C3471	C347	0.195260	0.377830	0.206350
C3481	C348	0.605650	0.131920	0.423670
C3491	C349	0.349560	0.043700	0.647820
C3501	C350	0.754400	0.877200	0.627200
C3511	C351	0.395880	0.852180	0.701740
C3521	C352	0.018300	0.389970	0.784310
C3531	C353	0.377200	0.122800	0.750000
C3541	C354	0.284310	0.018300	0.889970
C3551	C355	0.008920	0.836350	0.808850
C3561	C356	0.344670	0.048760	0.324430
C3571	C357	0.704090	0.724330	0.048760
C3581	C358	0.119090	0.321700	0.482490
C3591	C359	0.857020	0.077500	0.941100
C3601	C360	0.206350	0.328520	0.511090
C3611	C361	0.201740	0.805860	0.349560
C3621	C362	0.178300	0.797390	0.660790
C3631	C363	0.818020	0.394350	0.026270
C3641	C364	0.215690	0.105660	0.733990
C3651	C365	0.275670	0.451240	0.795910
C3661	C366	0.100730	0.570650	0.876600
C3671	C367	0.700070	0.672570	0.008920
C3681	C368	0.681980	0.708250	0.576330
C3691	C369	0.266010	0.871670	0.981700
C3701	C370	0.175570	0.655330	0.451240
C3711	C371	0.305860	0.701740	0.849560
C3721	C372	0.429350	0.805950	0.530080
C3731	C373	0.194050	0.969920	0.070650
C3741	C374	0.020240	0.344670	0.795910
C3751	C375	0.805860	0.849560	0.701740
C3761	C376	0.027500	0.336350	0.327430
C3771	C377	0.128330	0.610030	0.394340
C3781	C378	0.628330	0.233990	0.518300
C3791	C379	0.181980	0.576330	0.708250
C3801	C380	0.508920	0.700070	0.172570
C3811	C381	0.324430	0.775670	0.479760
C3821	C382	0.389970	0.284310	0.518300
C3831	C383	0.122170	0.817430	0.328520
C3841	C384	0.724130	0.694050	0.123400
C3851	C385	0.511090	0.828520	0.206350
C3861	C386	0.266010	0.394340	0.784310
C3871	C387	0.456300	0.150440	0.852180
C3881	C388	0.972500	0.308850	0.799930
C3891	C389	0.491080	0.299930	0.827430
C3901	C390	0.136400	0.558900	0.915920
C3911	C391	0.877830	0.695260	0.706350
C3921	C392	0.399270	0.275870	0.469920
C3931	C393	0.142980	0.922500	0.058900
C3941	C394	0.839210	0.017510	0.636600
C3951	C395	0.520240	0.724330	0.675570
C3961	C396	0.863600	0.422500	0.279520
C3971	C397	0.191150	0.663650	0.991080
C3981	C398	0.371670	0.766010	0.481700
C3991	C399	0.706350	0.511090	0.328520
C4001	C400	0.605660	0.715690	0.233990
C4011	C401	0.163650	0.472500	0.172570
C4021	C402	0.642980	0.058900	0.922500
C4031	C403	0.969920	0.399270	0.775870
C4041	C404	0.318020	0.291750	0.423670
C4051	C405	0.605660	0.889970	0.871670
C4061	C406	0.981700	0.610030	0.215690
C4071	C407	0.224330	0.020240	0.175570
C4081	C408	0.441100	0.857020	0.577500
C4091	C409	0.988910	0.793650	0.171480
C4101	C410	0.224330	0.204090	0.548760
C4111	C411	0.622170	0.328520	0.817430
C4121	C412	0.481700	0.215690	0.610030
C4131	C413	0.694140	0.395880	0.043700
C4141	C414	0.291750	0.368080	0.973730
C4151	C415	0.233990	0.215690	0.605660
C4161	C416	0.122800	0.250000	0.877200
C4171	C417	0.530080	0.224130	0.600730
C4181	C418	0.472500	0.799930	0.308850
C4191	C419	0.105650	0.681980	0.473730
C4201	C420	0.008920	0.172570	0.700070
C4211	C421	0.708250	0.076330	0.181980
C4221	C422	0.610030	0.894340	0.628330
C4231	C423	0.694050	0.070650	0.969920
C4241	C424	0.627200	0.250000	0.372800
C4251	C425	0.160790	0.178300	0.297390
C4261	C426	0.791750	0.973730	0.368080
C4271	C427	0.473730	0.291750	0.868080
C4281	C428	0.775670	0.979760	0.824430
C4291	C429	0.876600	0.070650	0.100730
C4301	C430	0.981700	0.371670	0.266010
C4311	C431	0.701740	0.352180	0.395880
C4321	C432	0.991080	0.163650	0.191150
C4331	C433	0.377200	0.254400	0.127200
C4341	C434	0.279520	0.922500	0.863600
C4351	C435	0.372800	0.622800	0.245600
C4361	C436	0.678300	0.017510	0.380910
C4371	C437	0.181980	0.605650	0.973730
C4381	C438	0.805950	0.775870	0.376600
C4391	C439	0.336350	0.827430	0.527500
C4401	C440	0.663650	0.491080	0.691150
C4411	C441	0.636600	0.119090	0.297390
C4421	C442	0.733990	0.128330	0.018300
C4431	C443	0.520240	0.795910	0.344670
C4441	C444	0.291750	0.923670	0.818020
C4451	C445	0.675570	0.451240	0.655330
C4461	C446	0.155330	0.479760	0.704090
C4471	C447	0.808850	0.472500	0.299930
C4481	C448	0.915920	0.058900	0.136400
C4491	C449	0.377830	0.706350	0.695260
C4501	C450	0.775870	0.899270	0.969920
C4511	C451	0.321700	0.982490	0.619090
C4521	C452	0.327430	0.836350	0.027500
C4531	C453	0.548760	0.704090	0.224330
C4541	C454	0.298260	0.650440	0.194140
C4551	C455	0.279520	0.357020	0.915920
C4561	C456	0.030080	0.600730	0.224130
N11	N1	0.808500	0.655500	0.962140
N21	N2	0.846360	0.037860	0.693360
N31	N3	0.258020	0.325440	0.517360
N41	N4	0.796660	0.646990	0.438230
N51	N5	0.344500	0.806640	0.153000
N61	N6	0.847000	0.693360	0.655500
N71	N7	0.462140	0.808500	0.155500
N81	N8	0.790510	0.259130	0.450340
N91	N9	0.432580	0.674560	0.191920
N101	N10	0.646990	0.938230	0.296660
N111	N11	0.259130	0.308790	0.468620
N121	N12	0.561770	0.708760	0.858430
N131	N13	0.149670	0.791240	0.353010
N141	N14	0.517360	0.825440	0.258020
N151	N15	0.193360	0.846360	0.537860
N161	N16	0.703340	0.561770	0.353010
N171	N17	0.858430	0.649670	0.796660
N181	N18	0.259340	0.741980	0.567420
N191	N19	0.844500	0.691500	0.537860
N201	N20	0.191210	0.950340	0.659830
N211	N21	0.653640	0.306640	0.962140
N221	N22	0.740660	0.482640	0.808080
N231	N23	0.296660	0.438230	0.646990
N241	N24	0.061770	0.203340	0.853010
N251	N25	0.709490	0.549660	0.740870
N261	N26	0.208760	0.146990	0.350330
N271	N27	0.017360	0.258020	0.825440
N281	N28	0.208760	0.061770	0.358430
N291	N29	0.308080	0.740660	0.982640
N301	N30	0.674560	0.691920	0.932580
N311	N31	0.641570	0.203340	0.350330
N321	N32	0.840170	0.808790	0.549660
N331	N33	0.291240	0.649670	0.853010
N341	N34	0.191920	0.174560	0.432580
N351	N35	0.759130	0.290510	0.950340
N361	N36	0.759340	0.191920	0.517360
N371	N37	0.141570	0.791240	0.438230
N381	N38	0.549660	0.240870	0.209490
N391	N39	0.741980	0.674560	0.482640
N401	N40	0.808790	0.759130	0.968620
N411	N41	0.308500	0.346360	0.153000
N421	N42	0.306640	0.844500	0.653000
N431	N43	0.174560	0.241980	0.982640
N441	N44	0.740660	0.258020	0.432580
N451	N45	0.153640	0.962140	0.306640
N461	N46	0.241980	0.759340	0.067420
N471	N47	0.340170	0.790510	0.031380
N481	N48	0.709490	0.159830	0.468620
N491	N49	0.308500	0.962140	0.655500
N501	N50	0.659830	0.209490	0.968620
N511	N51	0.982640	0.741980	0.174560
N521	N52	0.049660	0.840170	0.308790
N531	N53	0.149670	0.358430	0.296660
N541	N54	0.932580	0.740660	0.758020
N551	N55	0.850330	0.641570	0.703340
N561	N56	0.308080	0.567420	0.825440
N571	N57	0.791240	0.853010	0.649670
N581	N58	0.806640	0.653000	0.844500
N591	N59	0.358430	0.796660	0.649670
N601	N60	0.655500	0.193360	0.847000
N611	N61	0.344500	0.537860	0.691500
N621	N62	0.708760	0.350330	0.146990
N631	N63	0.808790	0.049660	0.340170
N641	N64	0.325440	0.308080	0.067420
N651	N65	0.691210	0.031380	0.240870
N661	N66	0.641570	0.438230	0.791240
N671	N67	0.193360	0.347000	0.155500
N681	N68	0.691920	0.432580	0.174560
N691	N69	0.691920	0.259340	0.017360
N701	N70	0.191210	0.240870	0.031380
N711	N71	0.462140	0.653640	0.806640
N721	N72	0.468620	0.808790	0.259130
N731	N73	0.796660	0.149670	0.858430
N741	N74	0.159830	0.191210	0.450340
N751	N75	0.790510	0.531380	0.840170
N761	N76	0.146990	0.296660	0.938230
N771	N77	0.850330	0.208760	0.646990
N781	N78	0.517360	0.691920	0.759340
N791	N79	0.482640	0.174560	0.741980
N801	N80	0.347000	0.655500	0.693360
N811	N81	0.350330	0.703340	0.641570
N821	N82	0.740870	0.049660	0.709490
N831	N83	0.290510	0.840170	0.531380
N841	N84	0.693360	0.155500	0.347000
N851	N85	0.325440	0.017360	0.758020
N861	N86	0.791240	0.938230	0.641570
N871	N87	0.146990	0.850330	0.708760
N881	N88	0.240660	0.808080	0.482640
N891	N89	0.808080	0.825440	0.567420
N901	N90	0.358430	0.561770	0.208760
N911	N91	0.691500	0.653640	0.847000
N921	N92	0.938230	0.796660	0.146990
N931	N93	0.155500	0.847000	0.193360
N941	N94	0.153000	0.306640	0.344500
N951	N95	0.740870	0.691210	0.531380
N961	N96	0.296660	0.858430	0.149670
N971	N97	0.708760	0.358430	0.061770
N981	N98	0.653640	0.347000	0.191500
N991	N99	0.347000	0.691500	0.153640
N1001	N100	0.950340	0.159830	0.691210
N1011	N101	0.209490	0.468620	0.159830
N1021	N102	0.203340	0.353010	0.561770
N1031	N103	0.847000	0.153640	0.691500
N1041	N104	0.031380	0.290510	0.340170
N1051	N105	0.346360	0.693360	0.037860
N1061	N106	0.759340	0.567420	0.741980
N1071	N107	0.537860	0.191500	0.844500
N1081	N108	0.531380	0.340170	0.290510
N1091	N109	0.691500	0.037860	0.344500
N1101	N110	0.844500	0.153000	0.806640
N1111	N111	0.549660	0.308790	0.840170
N1121	N112	0.438230	0.291240	0.141570
N1131	N113	0.482640	0.308080	0.240660
N1141	N114	0.241980	0.482640	0.674560
N1151	N115	0.240660	0.432580	0.258020
N1161	N116	0.962140	0.806640	0.653640
N1171	N117	0.968620	0.259130	0.808790
N1181	N118	0.450340	0.759130	0.790510
N1191	N119	0.691210	0.659830	0.950340
N1201	N120	0.808080	0.982640	0.740660
N1211	N121	0.290510	0.450340	0.259130
N1221	N122	0.438230	0.146990	0.796660
N1231	N123	0.649670	0.353010	0.791240
N1241	N124	0.468620	0.659830	0.709490
N1251	N125	0.846360	0.808500	0.653000
N1261	N126	0.153640	0.191500	0.347000
N1271	N127	0.067420	0.259340	0.241980
N1281	N128	0.037860	0.844500	0.191500
N1291	N129	0.649670	0.296660	0.358430
N1301	N130	0.853010	0.703340	0.061770
N1311	N131	0.968620	0.709490	0.659830
N1321	N132	0.031380	0.740870	0.191210
N1331	N133	0.017360	0.759340	0.691920
N1341	N134	0.353010	0.291240	0.149670
N1351	N135	0.258020	0.932580	0.240660
N1361	N136	0.155500	0.308500	0.462140
N1371	N137	0.840170	0.031380	0.790510
N1381	N138	0.209490	0.740870	0.549660
N1391	N139	0.159830	0.968620	0.209490
N1401	N140	0.537860	0.346360	0.193360
N1411	N141	0.340170	0.549660	0.808790
N1421	N142	0.191500	0.344500	0.037860
N1431	N143	0.962140	0.155500	0.808500
N1441	N144	0.806640	0.153640	0.462140
N1451	N145	0.938230	0.141570	0.291240
N1461	N146	0.174560	0.932580	0.691920
N1471	N147	0.561770	0.853010	0.203340
N1481	N148	0.153000	0.846360	0.308500
N1491	N149	0.308790	0.340170	0.049660
N1501	N150	0.659830	0.450340	0.191210
N1511	N151	0.950340	0.790510	0.759130
N1521	N152	0.758020	0.240660	0.932580
N1531	N153	0.141570	0.350330	0.203340
N1541	N154	0.037860	0.193360	0.346360
N1551	N155	0.703340	0.141570	0.850330
N1561	N156	0.932580	0.191920	0.674560
N1571	N157	0.808500	0.153000	0.346360
N1581	N158	0.191920	0.017360	0.259340
N1591	N159	0.061770	0.858430	0.708760
N1601	N160	0.291240	0.641570	0.938230
N1611	N161	0.353010	0.061770	0.703340
N1621	N162	0.067420	0.808080	0.325440
N1631	N163	0.567420	0.325440	0.808080
N1641	N164	0.982640	0.240660	0.308080
N1651	N165	0.531380	0.191210	0.740870
N1661	N166	0.191500	0.847000	0.653640
N1671	N167	0.240870	0.531380	0.691210
N1681	N168	0.259340	0.517360	0.191920
N1691	N169	0.653000	0.308500	0.846360
N1701	N170	0.432580	0.758020	0.740660
N1711	N171	0.825440	0.758020	0.017360
N1721	N172	0.741980	0.067420	0.759340
N1731	N173	0.825440	0.067420	0.308080
N1741	N174	0.346360	0.653000	0.808500
N1751	N175	0.567420	0.241980	0.259340
N1761	N176	0.693360	0.537860	0.846360
N1771	N177	0.259130	0.950340	0.290510
N1781	N178	0.655500	0.462140	0.308500
N1791	N179	0.646990	0.708760	0.850330
N1801	N180	0.308790	0.968620	0.759130
N1811	N181	0.758020	0.517360	0.325440
N1821	N182	0.203340	0.850330	0.141570
N1831	N183	0.858430	0.208760	0.561770
N1841	N184	0.674560	0.982640	0.241980
N1851	N185	0.853010	0.149670	0.291240
N1861	N186	0.450340	0.691210	0.159830
N1871	N187	0.653000	0.344500	0.306640
N1881	N188	0.759130	0.468620	0.308790
N1891	N189	0.049660	0.209490	0.240870
N1901	N190	0.350330	0.646990	0.208760
N1911	N191	0.240870	0.709490	0.049660
N1921	N192	0.306640	0.462140	0.153640
