data_cg100226u_si_004_clean_PM
_symmetry_space_group_name_H-M	'P1'
_cell_length_a	27.289500
_cell_length_b	27.289200
_cell_length_c	27.289200
_cell_angle_alpha	109.471000
_cell_angle_beta	109.471000
_cell_angle_gamma	109.471000
_symmetry_Int_Tables_number 1

loop_
_symmetry_equiv_pos_as_xyz
'x,y,z'

loop_
_atom_site_label
_atom_site_type_symbol
_atom_site_fract_x
_atom_site_fract_y
_atom_site_fract_z
Zn11	Zn1	0.250000	0.375000	0.125000
Zn21	Zn2	0.375000	0.625000	0.750000
Zn31	Zn3	0.750000	0.125000	0.375000
Zn41	Zn4	0.625000	0.375000	0.250000
Zn51	Zn5	0.125000	0.875000	0.250000
Zn61	Zn6	0.875000	0.125000	0.750000
Zn71	Zn7	0.375000	0.750000	0.125000
Zn81	Zn8	0.625000	0.250000	0.875000
Zn91	Zn9	0.125000	0.250000	0.375000
Zn101	Zn10	0.250000	0.875000	0.625000
Zn111	Zn11	0.875000	0.750000	0.625000
Zn121	Zn12	0.750000	0.625000	0.875000
H11	H1	0.856200	0.813700	0.732500
H21	H2	0.220300	0.087700	0.951400
H31	H3	0.108300	0.706900	0.205800
H41	H4	0.912300	0.548600	0.279700
H51	H5	0.614400	0.594900	0.224500
H61	H6	0.186300	0.767500	0.643800
H71	H7	0.480500	0.885600	0.610100
H81	H8	0.957500	0.081200	0.813700
H91	H9	0.129600	0.519500	0.905100
H101	H10	0.268600	0.916000	0.146000
H111	H11	0.339000	0.070000	0.038400
H121	H12	0.901400	0.293100	0.498900
H131	H13	0.963200	0.215100	0.163700
H141	H14	0.186300	0.418800	0.042500
H151	H15	0.108300	0.401400	0.402500
H161	H16	0.370400	0.094900	0.480500
H171	H17	0.163700	0.448600	0.700500
H181	H18	0.724500	0.110100	0.129600
H191	H19	0.889900	0.519500	0.614400
H201	H20	0.661000	0.731000	0.199400
H211	H21	0.731000	0.699400	0.161000
H221	H22	0.769700	0.203900	0.635600
H231	H23	0.313700	0.356200	0.232500
H241	H24	0.391700	0.794200	0.293100
H251	H25	0.231000	0.070000	0.031600
H261	H26	0.339000	0.269000	0.800600
H271	H27	0.934200	0.730300	0.865900
H281	H28	0.775500	0.905100	0.385600
H291	H29	0.769000	0.930000	0.968400
H301	H30	0.206900	0.608300	0.705800
H311	H31	0.364400	0.068300	0.634100
H321	H32	0.918800	0.686300	0.542500
H331	H33	0.498900	0.705800	0.097500
H341	H34	0.703900	0.269700	0.135600
H351	H35	0.199400	0.231000	0.661000
H361	H36	0.336300	0.036800	0.284900
H371	H37	0.905100	0.019500	0.129600
H381	H38	0.632600	0.720300	0.268900
H391	H39	0.430000	0.161000	0.461600
H401	H40	0.587700	0.720300	0.451400
H411	H41	0.732500	0.313700	0.856200
H421	H42	0.402500	0.901400	0.108300
H431	H43	0.581200	0.123700	0.767500
H441	H44	0.365900	0.934200	0.230300
H451	H45	0.536800	0.836300	0.784900
H461	H46	0.203900	0.068300	0.434200
H471	H47	0.779700	0.912300	0.048600
H481	H48	0.870400	0.480500	0.094900
H491	H49	0.293100	0.294200	0.391700
H501	H50	0.865900	0.635600	0.431700
H511	H51	0.813700	0.581200	0.957500
H521	H52	0.205800	0.206900	0.108300
H531	H53	0.048600	0.412300	0.779700
H541	H54	0.370400	0.275500	0.389900
H551	H55	0.705800	0.108300	0.206900
H561	H56	0.269000	0.300600	0.839000
H571	H57	0.836300	0.551400	0.299500
H581	H58	0.587700	0.867400	0.636300
H591	H59	0.354000	0.731400	0.584000
H601	H60	0.451400	0.231100	0.363700
H611	H61	0.299500	0.248100	0.963200
H621	H62	0.731400	0.084000	0.854000
H631	H63	0.418800	0.876300	0.232500
H641	H64	0.800600	0.769000	0.339000
H651	H65	0.300600	0.339000	0.769000
H661	H66	0.623700	0.542500	0.856200
H671	H67	0.767500	0.143800	0.686300
H681	H68	0.931700	0.065800	0.296100
H691	H69	0.377400	0.147400	0.731400
H701	H70	0.715100	0.463200	0.663700
H711	H71	0.376300	0.918800	0.732500
H721	H72	0.538400	0.339000	0.570000
H731	H73	0.294200	0.891700	0.793100
H741	H74	0.232500	0.376300	0.418800
H751	H75	0.961600	0.531600	0.800600
H761	H76	0.839000	0.800600	0.269000
H771	H77	0.551400	0.751900	0.715100
H781	H78	0.902500	0.108300	0.901400
H791	H79	0.129600	0.610100	0.724500
H801	H80	0.538400	0.199400	0.468400
H811	H81	0.800600	0.031600	0.961600
H821	H82	0.401400	0.902500	0.608300
H831	H83	0.376300	0.457500	0.143800
H841	H84	0.098600	0.706900	0.501100
H851	H85	0.036800	0.784900	0.836300
H861	H86	0.405100	0.129600	0.019500
H871	H87	0.231100	0.863700	0.951400
H881	H88	0.269000	0.968400	0.930000
H891	H89	0.448600	0.248100	0.284900
H901	H90	0.031600	0.461600	0.300600
H911	H91	0.048600	0.636300	0.768900
H921	H92	0.146000	0.416000	0.268600
H931	H93	0.251900	0.051400	0.215100
H941	H94	0.623700	0.081200	0.267500
H951	H95	0.968400	0.538400	0.699400
H961	H96	0.770000	0.416000	0.147400
H971	H97	0.794200	0.001100	0.402500
H981	H98	0.463200	0.163700	0.215100
H991	H99	0.751900	0.215100	0.051400
H1001	H100	0.715100	0.251900	0.551400
H1011	H101	0.854000	0.270000	0.622600
H1021	H102	0.402500	0.501100	0.794200
H1031	H103	0.770000	0.354000	0.122600
H1041	H104	0.568300	0.703900	0.934200
H1051	H105	0.232500	0.856200	0.313700
H1061	H106	0.731000	0.031600	0.070000
H1071	H107	0.363700	0.731100	0.451400
H1081	H108	0.608300	0.402500	0.401400
H1091	H109	0.097500	0.205800	0.498900
H1101	H110	0.768600	0.146000	0.916000
H1111	H111	0.720300	0.768900	0.132600
H1121	H112	0.143800	0.186300	0.267500
H1131	H113	0.215100	0.663700	0.463200
H1141	H114	0.230300	0.796100	0.364400
H1151	H115	0.779700	0.867400	0.231100
H1161	H116	0.636300	0.367400	0.587700
H1171	H117	0.703900	0.434200	0.068300
H1181	H118	0.748100	0.948600	0.784900
H1191	H119	0.084000	0.730000	0.352600
H1201	H120	0.434200	0.568300	0.203900
H1211	H121	0.377400	0.230000	0.146000
H1221	H122	0.412300	0.132600	0.363700
H1231	H123	0.865900	0.230300	0.934200
H1241	H124	0.123700	0.267500	0.081200
H1251	H125	0.267500	0.686300	0.143800
H1261	H126	0.784900	0.336300	0.536800
H1271	H127	0.769700	0.565800	0.634100
H1281	H128	0.267500	0.581200	0.623700
H1291	H129	0.356200	0.623700	0.042500
H1301	H130	0.948600	0.663700	0.200500
H1311	H131	0.110100	0.629600	0.224500
H1321	H132	0.751900	0.536800	0.200500
H1331	H133	0.706900	0.001100	0.598600
H1341	H134	0.769000	0.839000	0.300600
H1351	H135	0.385600	0.405100	0.775500
H1361	H136	0.610100	0.385600	0.480500
H1371	H137	0.730000	0.852600	0.584000
H1381	H138	0.206900	0.598600	0.001100
H1391	H139	0.251900	0.200500	0.536800
H1401	H140	0.594900	0.724500	0.114400
H1411	H141	0.632600	0.912300	0.863700
H1421	H142	0.385600	0.980500	0.110100
H1431	H143	0.205800	0.998900	0.597500
H1441	H144	0.918800	0.232500	0.876300
H1451	H145	0.634100	0.065800	0.769700
H1461	H146	0.147400	0.231400	0.877400
H1471	H147	0.230300	0.434200	0.365900
H1481	H148	0.877400	0.731400	0.147400
H1491	H149	0.136300	0.587700	0.367400
H1501	H150	0.836300	0.284900	0.036800
H1511	H151	0.215100	0.551400	0.251900
H1521	H152	0.300600	0.961600	0.031600
H1531	H153	0.336300	0.299500	0.551400
H1541	H154	0.998900	0.901400	0.793100
H1551	H155	0.891700	0.598600	0.597500
H1561	H156	0.963200	0.748100	0.299500
H1571	H157	0.199400	0.968400	0.038400
H1581	H158	0.268900	0.048600	0.136300
H1591	H159	0.794200	0.793100	0.891700
H1601	H160	0.663700	0.963200	0.715100
H1611	H161	0.876300	0.732500	0.918800
H1621	H162	0.661000	0.930000	0.961600
H1631	H163	0.097500	0.891700	0.098600
H1641	H164	0.036800	0.251900	0.700500
H1651	H165	0.412300	0.279700	0.548600
H1661	H166	0.686300	0.042500	0.418800
H1671	H167	0.980500	0.610100	0.885600
H1681	H168	0.720300	0.951400	0.087700
H1691	H169	0.635600	0.703900	0.769700
H1701	H170	0.784900	0.448600	0.748100
H1711	H171	0.279700	0.048600	0.912300
H1721	H172	0.084000	0.354000	0.231400
H1731	H173	0.389900	0.614400	0.519500
H1741	H174	0.891700	0.293100	0.794200
H1751	H175	0.461600	0.800600	0.531600
H1761	H176	0.296100	0.565800	0.931700
H1771	H177	0.629600	0.905100	0.519500
H1781	H178	0.038400	0.570000	0.339000
H1791	H179	0.643800	0.267500	0.186300
H1801	H180	0.270000	0.147400	0.416000
H1811	H181	0.136300	0.548600	0.268900
H1821	H182	0.864400	0.634100	0.068300
H1831	H183	0.608300	0.205800	0.706900
H1841	H184	0.293100	0.998900	0.401400
H1851	H185	0.799500	0.836300	0.051400
H1861	H186	0.231400	0.854000	0.084000
H1871	H187	0.581200	0.457500	0.313700
H1881	H188	0.275500	0.889900	0.870400
H1891	H189	0.646000	0.377400	0.730000
H1901	H190	0.354000	0.622600	0.270000
H1911	H191	0.094900	0.114400	0.724500
H1921	H192	0.732500	0.418800	0.376300
H1931	H193	0.019500	0.389900	0.114400
H1941	H194	0.796100	0.931700	0.565800
H1951	H195	0.634100	0.568300	0.364400
H1961	H196	0.796100	0.864400	0.730300
H1971	H197	0.065800	0.269700	0.134100
H1981	H198	0.870400	0.389900	0.275500
H1991	H199	0.793100	0.401400	0.998900
H2001	H200	0.646000	0.268600	0.416000
H2011	H201	0.161000	0.961600	0.930000
H2021	H202	0.536800	0.700500	0.251900
H2031	H203	0.584000	0.352600	0.730000
H2041	H204	0.885600	0.775500	0.405100
H2051	H205	0.498900	0.793100	0.901400
H2061	H206	0.864400	0.230300	0.296100
H2071	H207	0.957500	0.876300	0.643800
H2081	H208	0.570000	0.731000	0.531600
H2091	H209	0.901400	0.608300	0.902500
H2101	H210	0.501100	0.294200	0.902500
H2111	H211	0.299500	0.051400	0.836300
H2121	H212	0.296100	0.730300	0.864400
H2131	H213	0.270000	0.122600	0.354000
H2141	H214	0.548600	0.768900	0.636300
H2151	H215	0.070000	0.531600	0.731000
H2161	H216	0.132600	0.268900	0.720300
H2171	H217	0.663700	0.700500	0.448600
H2181	H218	0.731400	0.647400	0.377400
H2191	H219	0.877400	0.146000	0.230000
H2201	H220	0.597500	0.498900	0.205800
H2211	H221	0.248100	0.463200	0.799500
H2221	H222	0.284900	0.748100	0.448600
H2231	H223	0.867400	0.136300	0.087700
H2241	H224	0.042500	0.123700	0.356200
H2251	H225	0.542500	0.186300	0.918800
H2261	H226	0.730300	0.364400	0.796100
H2271	H227	0.610100	0.224500	0.629600
H2281	H228	0.231400	0.377400	0.647400
H2291	H229	0.042500	0.918800	0.186300
H2301	H230	0.568300	0.864400	0.134100
H2311	H231	0.364400	0.296100	0.230300
H2321	H232	0.230000	0.584000	0.852600
H2331	H233	0.405100	0.275500	0.885600
H2341	H234	0.647400	0.770000	0.916000
H2351	H235	0.087700	0.636300	0.867400
H2361	H236	0.143800	0.957500	0.376300
H2371	H237	0.768900	0.136300	0.048600
H2381	H238	0.594900	0.870400	0.980500
H2391	H239	0.731100	0.951400	0.863700
H2401	H240	0.930000	0.461600	0.161000
H2411	H241	0.885600	0.110100	0.980500
H2421	H242	0.098600	0.391700	0.097500
H2431	H243	0.905100	0.885600	0.275500
H2441	H244	0.268600	0.352600	0.622600
H2451	H245	0.268900	0.220300	0.632600
H2461	H246	0.418800	0.542500	0.686300
H2471	H247	0.852600	0.084000	0.230000
H2481	H248	0.699400	0.038400	0.968400
H2491	H249	0.352600	0.122600	0.768600
H2501	H250	0.531600	0.231000	0.570000
H2511	H251	0.147400	0.916000	0.770000
H2521	H252	0.876300	0.143800	0.457500
H2531	H253	0.070000	0.538400	0.839000
H2541	H254	0.146000	0.730000	0.377400
H2551	H255	0.706900	0.705800	0.608300
H2561	H256	0.135600	0.769700	0.703900
H2571	H257	0.132600	0.863700	0.912300
H2581	H258	0.001100	0.902500	0.294200
H2591	H259	0.367400	0.087700	0.136300
H2601	H260	0.275500	0.385600	0.905100
H2611	H261	0.856200	0.042500	0.623700
H2621	H262	0.224500	0.094900	0.614400
H2631	H263	0.647400	0.877400	0.231400
H2641	H264	0.431700	0.135600	0.865900
H2651	H265	0.768600	0.622600	0.352600
H2661	H266	0.775500	0.870400	0.889900
H2671	H267	0.730300	0.365900	0.434200
H2681	H268	0.231000	0.161000	0.699400
H2691	H269	0.961600	0.430000	0.661000
H2701	H270	0.463200	0.299500	0.748100
H2711	H271	0.163700	0.715100	0.963200
H2721	H272	0.542500	0.356200	0.123700
H2731	H273	0.224500	0.129600	0.110100
H2741	H274	0.230000	0.646000	0.877400
H2751	H275	0.200500	0.163700	0.948600
H2761	H276	0.531600	0.300600	0.461600
H2771	H277	0.951400	0.587700	0.220300
H2781	H278	0.457500	0.643800	0.876300
H2791	H279	0.200500	0.036800	0.751900
H2801	H280	0.565800	0.431700	0.796100
H2811	H281	0.068300	0.934200	0.703900
H2821	H282	0.570000	0.839000	0.538400
H2831	H283	0.519500	0.405100	0.629600
H2841	H284	0.352600	0.230000	0.084000
H2851	H285	0.068300	0.134100	0.864400
H2861	H286	0.468400	0.769000	0.430000
H2871	H287	0.114400	0.224500	0.594900
H2881	H288	0.614400	0.019500	0.889900
H2891	H289	0.001100	0.098600	0.206900
H2901	H290	0.863700	0.451400	0.731100
H2911	H291	0.389900	0.775500	0.370400
H2921	H292	0.700500	0.751900	0.036800
H2931	H293	0.813700	0.232500	0.356200
H2941	H294	0.365900	0.431700	0.635600
H2951	H295	0.863700	0.412300	0.632600
H2961	H296	0.731100	0.779700	0.367400
H2971	H297	0.565800	0.134100	0.269700
H2981	H298	0.220300	0.132600	0.768900
H2991	H299	0.468400	0.699400	0.538400
H3001	H300	0.122600	0.268600	0.852600
H3011	H301	0.356200	0.732500	0.813700
H3021	H302	0.622600	0.770000	0.854000
H3031	H303	0.584000	0.231400	0.354000
H3041	H304	0.094900	0.980500	0.870400
H3051	H305	0.448600	0.200500	0.663700
H3061	H306	0.916000	0.270000	0.647400
H3071	H307	0.912300	0.363700	0.132600
H3081	H308	0.768900	0.632600	0.220300
H3091	H309	0.705800	0.597500	0.998900
H3101	H310	0.135600	0.365900	0.931700
H3111	H311	0.686300	0.643800	0.767500
H3121	H312	0.854000	0.584000	0.731400
H3131	H313	0.501100	0.206900	0.098600
H3141	H314	0.643800	0.376300	0.957500
H3151	H315	0.629600	0.724500	0.610100
H3161	H316	0.081200	0.313700	0.457500
H3171	H317	0.081200	0.767500	0.123700
H3181	H318	0.598600	0.501100	0.706900
H3191	H319	0.038400	0.468400	0.199400
H3201	H320	0.597500	0.098600	0.891700
H3211	H321	0.930000	0.468400	0.269000
H3221	H322	0.401400	0.498900	0.293100
H3231	H323	0.799500	0.963200	0.248100
H3241	H324	0.519500	0.114400	0.389900
H3251	H325	0.434200	0.865900	0.730300
H3261	H326	0.313700	0.957500	0.581200
H3271	H327	0.065800	0.796100	0.431700
H3281	H328	0.430000	0.269000	0.468400
H3291	H329	0.391700	0.597500	0.598600
H3301	H330	0.480500	0.594900	0.370400
H3311	H331	0.902500	0.794200	0.501100
H3321	H332	0.931700	0.865900	0.135600
H3331	H333	0.161000	0.199400	0.731000
H3341	H334	0.087700	0.451400	0.720300
H3351	H335	0.767500	0.623700	0.581200
H3361	H336	0.457500	0.813700	0.081200
H3371	H337	0.123700	0.856200	0.542500
H3381	H338	0.231100	0.367400	0.779700
H3391	H339	0.916000	0.646000	0.768600
H3401	H340	0.019500	0.629600	0.405100
H3411	H341	0.363700	0.632600	0.412300
H3421	H342	0.294200	0.402500	0.001100
H3431	H343	0.839000	0.038400	0.070000
H3441	H344	0.635600	0.931700	0.365900
H3451	H345	0.248100	0.784900	0.948600
H3461	H346	0.548600	0.779700	0.412300
H3471	H347	0.622600	0.852600	0.268600
H3481	H348	0.269700	0.635600	0.203900
H3491	H349	0.051400	0.715100	0.751900
H3501	H350	0.051400	0.336300	0.799500
H3511	H351	0.699400	0.661000	0.231000
H3521	H352	0.114400	0.889900	0.019500
H3531	H353	0.461600	0.661000	0.430000
H3541	H354	0.998900	0.097500	0.705800
H3551	H355	0.122600	0.854000	0.770000
H3561	H356	0.948600	0.284900	0.248100
H3571	H357	0.134100	0.769700	0.065800
H3581	H358	0.968400	0.430000	0.769000
H3591	H359	0.416000	0.768600	0.646000
H3601	H360	0.980500	0.370400	0.594900
H3611	H361	0.700500	0.948600	0.163700
H3621	H362	0.431700	0.296100	0.065800
H3631	H363	0.951400	0.363700	0.231100
H3641	H364	0.284900	0.536800	0.336300
H3651	H365	0.867400	0.731100	0.279700
H3661	H366	0.416000	0.647400	0.270000
H3671	H367	0.203900	0.135600	0.269700
H3681	H368	0.134100	0.364400	0.568300
H3691	H369	0.793100	0.391700	0.294200
H3701	H370	0.110100	0.480500	0.385600
H3711	H371	0.031600	0.570000	0.231000
H3721	H372	0.730000	0.877400	0.646000
H3731	H373	0.451400	0.220300	0.587700
H3741	H374	0.636300	0.268900	0.548600
H3751	H375	0.852600	0.768600	0.122600
H3761	H376	0.279700	0.231100	0.867400
H3771	H377	0.367400	0.279700	0.731100
H3781	H378	0.934200	0.203900	0.568300
H3791	H379	0.889900	0.370400	0.775500
H3801	H380	0.748100	0.799500	0.463200
H3811	H381	0.724500	0.614400	0.094900
H3821	H382	0.598600	0.097500	0.391700
H3831	H383	0.551400	0.799500	0.336300
H3841	H384	0.269700	0.634100	0.565800
C11	C1	0.172950	0.972020	0.163810
C21	C2	0.628030	0.250000	0.371970
C31	C3	0.548610	0.705370	0.224040
C41	C4	0.622130	0.723630	0.192600
C51	C5	0.839790	0.822210	0.701820
C61	C6	0.137970	0.298180	0.120390
C71	C7	0.429530	0.807400	0.531030
C81	C8	0.327050	0.490860	0.799070
C91	C9	0.206770	0.328760	0.510990
C101	C10	0.637970	0.120390	0.298180
C111	C11	0.862030	0.701820	0.879610
C121	C12	0.132120	0.208370	0.526070
C131	C13	0.733890	0.128790	0.017020
C141	C14	0.531030	0.307400	0.429530
C151	C15	0.990860	0.163810	0.191790
C161	C16	0.224040	0.205370	0.548610
C171	C17	0.377870	0.101500	0.070470
C181	C18	0.894150	0.193020	0.543170
C191	C19	0.863400	0.440790	0.083010
C201	C20	0.605100	0.716870	0.233890
C211	C21	0.527980	0.200930	0.691790
C221	C22	0.677790	0.017580	0.379610
C231	C23	0.693020	0.298870	0.149850
C241	C24	0.606050	0.473930	0.682300
C251	C25	0.233890	0.216870	0.605100
C261	C26	0.791630	0.817700	0.923750
C271	C27	0.675430	0.451390	0.656760
C281	C28	0.121990	0.304220	0.293230
C291	C29	0.893950	0.317700	0.526070
C301	C30	0.350150	0.306980	0.201130
C311	C31	0.307400	0.377870	0.776370
C321	C32	0.322210	0.982420	0.620390
C331	C33	0.701130	0.350150	0.806980
C341	C34	0.195780	0.817770	0.489010
C351	C35	0.388230	0.105100	0.371210
C361	C36	0.871970	0.243940	0.621970
C371	C37	0.982420	0.862030	0.660210
C381	C38	0.518670	0.724040	0.675430
C391	C39	0.649020	0.543170	0.350150
C401	C40	0.423750	0.632120	0.606050
C411	C41	0.808210	0.336190	0.009140
C421	C42	0.973930	0.106050	0.182300
C431	C43	0.611770	0.716870	0.482980
C441	C44	0.863400	0.422610	0.280390
C451	C45	0.280390	0.922610	0.863400
C461	C46	0.017580	0.879610	0.177790
C471	C47	0.416990	0.136600	0.059210
C481	C48	0.700930	0.672950	0.009140
C491	C49	0.628030	0.378030	0.756060
C501	C50	0.628790	0.233890	0.517020
C511	C51	0.304220	0.793230	0.621990
C521	C52	0.692600	0.070470	0.968970
C531	C53	0.451390	0.156760	0.175430
C541	C54	0.070470	0.468970	0.192600
C551	C55	0.804220	0.182230	0.510990
C561	C56	0.705370	0.724040	0.048610
C571	C57	0.989010	0.195780	0.317770
C581	C58	0.201820	0.839790	0.322210
C591	C59	0.708370	0.632120	0.026070
C601	C60	0.822210	0.201820	0.339790
C611	C61	0.205370	0.048610	0.724040
C621	C62	0.791630	0.973930	0.367880
C631	C63	0.724040	0.548610	0.205370
C641	C64	0.620390	0.137970	0.798180
C651	C65	0.473930	0.291630	0.867880
C661	C66	0.059210	0.422610	0.142220
C671	C67	0.827050	0.799070	0.490860
C681	C68	0.621990	0.328760	0.817770
C691	C69	0.621970	0.878030	0.250000
C701	C70	0.422610	0.642220	0.559210
C711	C71	0.775960	0.981330	0.824570
C721	C72	0.776370	0.898500	0.968970
C731	C73	0.700930	0.027980	0.191790
C741	C74	0.807400	0.031030	0.929530
C751	C75	0.106050	0.682300	0.473930
C761	C76	0.233890	0.017020	0.128790
C771	C77	0.622130	0.898500	0.929530
C781	C78	0.756060	0.878030	0.628030
C791	C79	0.177790	0.798180	0.660210
C801	C80	0.871970	0.628030	0.750000
C811	C81	0.324570	0.548610	0.343240
C821	C82	0.871210	0.482980	0.766110
C831	C83	0.076250	0.393950	0.367880
C841	C84	0.723630	0.692600	0.122130
C851	C85	0.216870	0.105100	0.733890
C861	C86	0.807400	0.776370	0.377870
C871	C87	0.128790	0.611770	0.394900
C881	C88	0.120390	0.322210	0.482420
C891	C89	0.077390	0.636600	0.219610
C901	C90	0.017020	0.388230	0.783130
C911	C91	0.601500	0.877870	0.570470
C921	C92	0.077390	0.440790	0.357780
C931	C93	0.343240	0.294630	0.518670
C941	C94	0.923750	0.606050	0.632120
C951	C95	0.149850	0.798870	0.693020
C961	C96	0.750000	0.621970	0.378030
C971	C97	0.672950	0.163810	0.972020
C981	C98	0.219610	0.083010	0.642220
C991	C99	0.076250	0.682300	0.208370
C1001	C100	0.122130	0.192600	0.723630
C1011	C101	0.105850	0.298870	0.149020
C1021	C102	0.371970	0.750000	0.628030
C1031	C103	0.378010	0.706770	0.695780
C1041	C104	0.570470	0.192600	0.468970
C1051	C105	0.706770	0.195780	0.878010
C1061	C106	0.724040	0.175430	0.018670
C1071	C107	0.482980	0.216870	0.611770
C1081	C108	0.378010	0.671240	0.182230
C1091	C109	0.878030	0.750000	0.121970
C1101	C110	0.682300	0.973930	0.606050
C1111	C111	0.105100	0.233890	0.716870
C1121	C112	0.951390	0.175430	0.156760
C1131	C113	0.649850	0.956830	0.350980
C1141	C114	0.982980	0.611770	0.216870
C1151	C115	0.378030	0.256060	0.128030
C1161	C116	0.893950	0.576250	0.867880
C1171	C117	0.879610	0.677790	0.517580
C1181	C118	0.328760	0.317770	0.121990
C1191	C119	0.559210	0.416990	0.636600
C1201	C120	0.940790	0.363400	0.583010
C1211	C121	0.981330	0.324570	0.275960
C1221	C122	0.636600	0.719610	0.577390
C1231	C123	0.798180	0.637970	0.620390
C1241	C124	0.663810	0.172950	0.472020
C1251	C125	0.577390	0.357780	0.440790
C1261	C126	0.293230	0.804220	0.121990
C1271	C127	0.632120	0.106050	0.923750
C1281	C128	0.671240	0.682230	0.878010
C1291	C129	0.121970	0.250000	0.878030
C1301	C130	0.440790	0.583010	0.363400
C1311	C131	0.128030	0.371970	0.250000
C1321	C132	0.783130	0.894900	0.266110
C1331	C133	0.649020	0.105850	0.798870
C1341	C134	0.468970	0.776370	0.398500
C1351	C135	0.317700	0.291630	0.423750
C1361	C136	0.362030	0.482420	0.160210
C1371	C137	0.367880	0.473930	0.791630
C1381	C138	0.371210	0.766110	0.482980
C1391	C139	0.009140	0.836190	0.808210
C1401	C140	0.208370	0.026070	0.632120
C1411	C141	0.017580	0.137970	0.339790
C1421	C142	0.621970	0.743940	0.871970
C1431	C143	0.317770	0.621990	0.828760
C1441	C144	0.743940	0.371970	0.121970
C1451	C145	0.898500	0.429530	0.122130
C1461	C146	0.160210	0.982420	0.362030
C1471	C147	0.339790	0.637970	0.017580
C1481	C148	0.780390	0.916990	0.357780
C1491	C149	0.149020	0.798870	0.105850
C1501	C150	0.283130	0.017020	0.888230
C1511	C151	0.083010	0.940790	0.863400
C1521	C152	0.877870	0.070470	0.101500
C1531	C153	0.111770	0.482980	0.716870
C1541	C154	0.828760	0.121990	0.317770
C1551	C155	0.394150	0.543170	0.193020
C1561	C156	0.322210	0.339790	0.201820
C1571	C157	0.043170	0.894150	0.693020
C1581	C158	0.026070	0.893950	0.817700
C1591	C159	0.672950	0.509140	0.200930
C1601	C160	0.968970	0.398500	0.776370
C1611	C161	0.929530	0.398500	0.622130
C1621	C162	0.275960	0.451390	0.794630
C1631	C163	0.111770	0.628790	0.894900
C1641	C164	0.250000	0.871970	0.128030
C1651	C165	0.775960	0.794630	0.451390
C1661	C166	0.200930	0.009140	0.672950
C1671	C167	0.357780	0.416990	0.780390
C1681	C168	0.440790	0.857780	0.577390
C1691	C169	0.219610	0.136600	0.077390
C1701	C170	0.293230	0.489010	0.671240
C1711	C171	0.922610	0.363400	0.780390
C1721	C172	0.637970	0.517580	0.839790
C1731	C173	0.175430	0.656760	0.451390
C1741	C174	0.799070	0.990860	0.327050
C1751	C175	0.350980	0.456830	0.649850
C1761	C176	0.706770	0.510990	0.328760
C1771	C177	0.223630	0.122130	0.692600
C1781	C178	0.398500	0.122130	0.429530
C1791	C179	0.456830	0.149850	0.850980
C1801	C180	0.489010	0.171240	0.793230
C1811	C181	0.888230	0.517020	0.283130
C1821	C182	0.636600	0.916990	0.559210
C1831	C183	0.336190	0.827050	0.527980
C1841	C184	0.576250	0.208370	0.682300
C1851	C185	0.517020	0.733890	0.628790
C1861	C186	0.628790	0.394900	0.611770
C1871	C187	0.509140	0.808210	0.836190
C1881	C188	0.798180	0.160210	0.677790
C1891	C189	0.468970	0.692600	0.570470
C1901	C190	0.701130	0.350980	0.394150
C1911	C191	0.898500	0.468970	0.276370
C1921	C192	0.191790	0.663810	0.990860
C1931	C193	0.827050	0.027980	0.836190
C1941	C194	0.182230	0.171240	0.378010
C1951	C195	0.182300	0.576250	0.708370
C1961	C196	0.378030	0.121970	0.750000
C1971	C197	0.379610	0.862030	0.201820
C1981	C198	0.922610	0.559210	0.642220
C1991	C199	0.193020	0.043170	0.394150
C2001	C200	0.867880	0.791630	0.473930
C2011	C201	0.482420	0.822210	0.120390
C2021	C202	0.843240	0.324570	0.048610
C2031	C203	0.299070	0.972020	0.808210
C2041	C204	0.195780	0.378010	0.206770
C2051	C205	0.304220	0.510990	0.182230
C2061	C206	0.048610	0.824570	0.843240
C2071	C207	0.526070	0.708370	0.132120
C2081	C208	0.923750	0.317700	0.791630
C2091	C209	0.509140	0.700930	0.172950
C2101	C210	0.473930	0.182300	0.106050
C2111	C211	0.824570	0.343240	0.548610
C2121	C212	0.294630	0.018670	0.843240
C2131	C213	0.423750	0.791630	0.317700
C2141	C214	0.606050	0.132120	0.423750
C2151	C215	0.043170	0.149020	0.850150
C2161	C216	0.719610	0.077390	0.136600
C2171	C217	0.701820	0.322210	0.839790
C2181	C218	0.611770	0.894900	0.628790
C2191	C219	0.857780	0.077390	0.940790
C2201	C220	0.106050	0.423750	0.132120
C2211	C221	0.733890	0.605100	0.216870
C2221	C222	0.517020	0.783130	0.388230
C2231	C223	0.780390	0.863400	0.922610
C2241	C224	0.324570	0.775960	0.481330
C2251	C225	0.981330	0.656760	0.205370
C2261	C226	0.793230	0.671240	0.489010
C2271	C227	0.682300	0.708370	0.576250
C2281	C228	0.472020	0.799070	0.308210
C2291	C229	0.142220	0.922610	0.059210
C2301	C230	0.128790	0.517020	0.233890
C2311	C231	0.916990	0.857780	0.280390
C2321	C232	0.276370	0.968970	0.898500
C2331	C233	0.982420	0.120390	0.822210
C2341	C234	0.822210	0.620390	0.982420
C2351	C235	0.951390	0.775960	0.294630
C2361	C236	0.836190	0.308210	0.509140
C2371	C237	0.705370	0.981330	0.156760
C2381	C238	0.250000	0.378030	0.621970
C2391	C239	0.850150	0.649020	0.043170
C2401	C240	0.456830	0.306980	0.105850
C2411	C241	0.394150	0.850980	0.701130
C2421	C242	0.177790	0.379610	0.017580
C2431	C243	0.804220	0.621990	0.793230
C2441	C244	0.343240	0.048610	0.324570
C2451	C245	0.010990	0.804220	0.682230
C2461	C246	0.192600	0.223630	0.622130
C2471	C247	0.973930	0.867880	0.291630
C2481	C248	0.956830	0.850980	0.149850
C2491	C249	0.206770	0.878010	0.195780
C2501	C250	0.489010	0.317770	0.195780
C2511	C251	0.798870	0.193020	0.649850
C2521	C252	0.798870	0.605850	0.649020
C2531	C253	0.857780	0.780390	0.416990
C2541	C254	0.656760	0.705370	0.481330
C2551	C255	0.682230	0.304220	0.010990
C2561	C256	0.817770	0.989010	0.695780
C2571	C257	0.308210	0.299070	0.472020
C2581	C258	0.481330	0.205370	0.656760
C2591	C259	0.121990	0.817770	0.328760
C2601	C260	0.548610	0.843240	0.824570
C2611	C261	0.808210	0.472020	0.299070
C2621	C262	0.517580	0.339790	0.137970
C2631	C263	0.719610	0.642220	0.083010
C2641	C264	0.105850	0.806980	0.456830
C2651	C265	0.794630	0.951390	0.275960
C2661	C266	0.723630	0.031030	0.101500
C2671	C267	0.393950	0.526070	0.317700
C2681	C268	0.693020	0.394150	0.043170
C2691	C269	0.656760	0.951390	0.675430
C2701	C270	0.201130	0.806980	0.350150
C2711	C271	0.172950	0.200930	0.509140
C2721	C272	0.266110	0.394900	0.783130
C2731	C273	0.691790	0.990860	0.663810
C2741	C274	0.817770	0.828760	0.621990
C2751	C275	0.888230	0.371210	0.105100
C2761	C276	0.306980	0.701130	0.850150
C2771	C277	0.894900	0.766110	0.283130
C2781	C278	0.490860	0.299070	0.827050
C2791	C279	0.956830	0.105850	0.306980
C2801	C280	0.531030	0.223630	0.601500
C2811	C281	0.605100	0.888230	0.871210
C2821	C282	0.839790	0.017580	0.637970
C2831	C283	0.339790	0.701820	0.822210
C2841	C284	0.806980	0.850150	0.701130
C2851	C285	0.583010	0.719610	0.142220
C2861	C286	0.175430	0.518670	0.224040
C2871	C287	0.817700	0.393950	0.026070
C2881	C288	0.660210	0.362030	0.982420
C2891	C289	0.583010	0.863400	0.940790
C2901	C290	0.208370	0.182300	0.076250
C2911	C291	0.806980	0.956830	0.605850
C2921	C292	0.518670	0.794630	0.343240
C2931	C293	0.894900	0.128790	0.111770
C2941	C294	0.142220	0.219610	0.583010
C2951	C295	0.121970	0.871970	0.743940
C2961	C296	0.120390	0.798180	0.137970
C2971	C297	0.570470	0.377870	0.601500
C2981	C298	0.363400	0.280390	0.422610
C2991	C299	0.871210	0.388230	0.605100
C3001	C300	0.362030	0.879610	0.701820
C3011	C301	0.576250	0.367880	0.393950
C3021	C302	0.149020	0.350150	0.543170
C3031	C303	0.128030	0.756060	0.378030
C3041	C304	0.708370	0.076250	0.182300
C3051	C305	0.577390	0.219610	0.636600
C3061	C306	0.182300	0.606050	0.973930
C3071	C307	0.716870	0.733890	0.105100
C3081	C308	0.156760	0.481330	0.705370
C3091	C309	0.105100	0.871210	0.888230
C3101	C310	0.377870	0.276370	0.807400
C3111	C311	0.367880	0.893950	0.076250
C3121	C312	0.526070	0.817700	0.893950
C3131	C313	0.182230	0.010990	0.304220
C3141	C314	0.010990	0.206770	0.828760
C3151	C315	0.317770	0.695780	0.989010
C3161	C316	0.018670	0.675430	0.724040
C3171	C317	0.216870	0.111770	0.982980
C3181	C318	0.294630	0.275960	0.951390
C3191	C319	0.750000	0.128030	0.871970
C3201	C320	0.894150	0.701130	0.850980
C3211	C321	0.682230	0.378010	0.171240
C3221	C322	0.989010	0.793230	0.171240
C3231	C323	0.276370	0.307400	0.877870
C3241	C324	0.307400	0.929530	0.031030
C3251	C325	0.675430	0.224040	0.518670
C3261	C326	0.972020	0.308210	0.799070
C3271	C327	0.201820	0.362030	0.379610
C3281	C328	0.205370	0.156760	0.981330
C3291	C329	0.327050	0.836190	0.027980
C3301	C330	0.363400	0.083010	0.440790
C3311	C331	0.357780	0.940790	0.077390
C3321	C332	0.701820	0.379610	0.362030
C3331	C333	0.828760	0.706770	0.010990
C3341	C334	0.275960	0.824570	0.981330
C3351	C335	0.298180	0.620390	0.637970
C3361	C336	0.695780	0.206770	0.378010
C3371	C337	0.510990	0.682230	0.804220
C3381	C338	0.059210	0.636600	0.416990
C3391	C339	0.101500	0.531030	0.723630
C3401	C340	0.660210	0.298180	0.177790
C3411	C341	0.559210	0.142220	0.422610
C3421	C342	0.160210	0.177790	0.298180
C3431	C343	0.878010	0.182230	0.671240
C3441	C344	0.620390	0.482420	0.322210
C3451	C345	0.862030	0.160210	0.482420
C3461	C346	0.632120	0.526070	0.208370
C3471	C347	0.929530	0.531030	0.807400
C3481	C348	0.716870	0.982980	0.111770
C3491	C349	0.794630	0.843240	0.018670
C3501	C350	0.224040	0.018670	0.175430
C3511	C351	0.793230	0.121990	0.804220
C3521	C352	0.877870	0.807400	0.276370
C3531	C353	0.394900	0.111770	0.128790
C3541	C354	0.843240	0.518670	0.294630
C3551	C355	0.256060	0.628030	0.878030
C3561	C356	0.416990	0.280390	0.857780
C3571	C357	0.192600	0.968970	0.070470
C3581	C358	0.543170	0.850150	0.149020
C3591	C359	0.191790	0.527980	0.700930
C3601	C360	0.429530	0.622130	0.398500
C3611	C361	0.878010	0.695780	0.706770
C3621	C362	0.398500	0.276370	0.468970
C3631	C363	0.298870	0.649850	0.193020
C3641	C364	0.163810	0.691790	0.490860
C3651	C365	0.031030	0.429530	0.307400
C3661	C366	0.799070	0.808210	0.972020
C3671	C367	0.163810	0.472020	0.172950
C3681	C368	0.878030	0.128030	0.256060
C3691	C369	0.083010	0.142220	0.719610
C3701	C370	0.132120	0.923750	0.106050
C3711	C371	0.336190	0.509140	0.308210
C3721	C372	0.916990	0.059210	0.136600
C3731	C373	0.972020	0.663810	0.672950
C3741	C374	0.328760	0.010990	0.706770
C3751	C375	0.472020	0.672950	0.663810
C3761	C376	0.283130	0.266110	0.894900
C3771	C377	0.824570	0.481330	0.775960
C3781	C378	0.850980	0.649850	0.456830
C3791	C379	0.027980	0.336190	0.327050
C3801	C380	0.171240	0.293230	0.989010
C3811	C381	0.393950	0.867880	0.576250
C3821	C382	0.101500	0.570470	0.877870
C3831	C383	0.306980	0.605850	0.956830
C3841	C384	0.193020	0.149850	0.298870
C3851	C385	0.695780	0.489010	0.817770
C3861	C386	0.149850	0.350980	0.956830
C3871	C387	0.422610	0.780390	0.363400
C3881	C388	0.663810	0.490860	0.691790
C3891	C389	0.243940	0.121970	0.371970
C3901	C390	0.070470	0.601500	0.377870
C3911	C391	0.517580	0.177790	0.879610
C3921	C392	0.388230	0.283130	0.517020
C3931	C393	0.940790	0.577390	0.857780
C3941	C394	0.156760	0.675430	0.951390
C3951	C395	0.850150	0.201130	0.306980
C3961	C396	0.048610	0.224040	0.705370
C3971	C397	0.671240	0.989010	0.293230
C3981	C398	0.766110	0.783130	0.394900
C3991	C399	0.136600	0.577390	0.719610
C4001	C400	0.371210	0.605100	0.388230
C4011	C401	0.291630	0.923750	0.817700
C4021	C402	0.026070	0.132120	0.708370
C4031	C403	0.836190	0.527980	0.827050
C4041	C404	0.017020	0.628790	0.733890
C4051	C405	0.136600	0.559210	0.916990
C4061	C406	0.482980	0.266110	0.371210
C4071	C407	0.642220	0.583010	0.219610
C4081	C408	0.867880	0.076250	0.893950
C4091	C409	0.266110	0.871210	0.982980
C4101	C410	0.200930	0.191790	0.027980
C4111	C411	0.490860	0.191790	0.163810
C4121	C412	0.298870	0.649020	0.605850
C4131	C413	0.605850	0.456830	0.806980
C4141	C414	0.451390	0.294630	0.775960
C4151	C415	0.379610	0.517580	0.677790
C4161	C416	0.482420	0.660210	0.862030
C4171	C417	0.968970	0.570470	0.692600
C4181	C418	0.850980	0.201130	0.894150
C4191	C419	0.350980	0.894150	0.201130
C4201	C420	0.018670	0.343240	0.794630
C4211	C421	0.031030	0.601500	0.223630
C4221	C422	0.137970	0.839790	0.517580
C4231	C423	0.817700	0.423750	0.291630
C4241	C424	0.543170	0.693020	0.894150
C4251	C425	0.783130	0.888230	0.017020
C4261	C426	0.317700	0.026070	0.393950
C4271	C427	0.527980	0.327050	0.336190
C4281	C428	0.982980	0.371210	0.266110
C4291	C429	0.299070	0.327050	0.990860
C4301	C430	0.766110	0.982980	0.871210
C4311	C431	0.371970	0.621970	0.243940
C4321	C432	0.308210	0.009140	0.336190
C4331	C433	0.677790	0.660210	0.798180
C4341	C434	0.298180	0.677790	0.160210
C4351	C435	0.601500	0.723630	0.531030
C4361	C436	0.605850	0.149020	0.298870
C4371	C437	0.350150	0.043170	0.649020
C4381	C438	0.394900	0.283130	0.766110
C4391	C439	0.649850	0.693020	0.798870
C4401	C440	0.692600	0.622130	0.223630
C4411	C441	0.510990	0.828760	0.206770
C4421	C442	0.223630	0.101500	0.031030
C4431	C443	0.642220	0.059210	0.922610
C4441	C444	0.280390	0.357780	0.916990
C4451	C445	0.621990	0.293230	0.304220
C4461	C446	0.201130	0.394150	0.350980
C4471	C447	0.481330	0.275960	0.324570
C4481	C448	0.122130	0.929530	0.898500
C4491	C449	0.879610	0.201820	0.862030
C4501	C450	0.691790	0.700930	0.527980
C4511	C451	0.009140	0.172950	0.700930
C4521	C452	0.171240	0.878010	0.682230
C4531	C453	0.291630	0.367880	0.973930
C4541	C454	0.990860	0.827050	0.299070
C4551	C455	0.027980	0.691790	0.200930
C4561	C456	0.776370	0.877870	0.307400
N11	N1	0.468340	0.808560	0.259220
N21	N2	0.290880	0.840220	0.531660
N31	N3	0.646320	0.938940	0.295940
N41	N4	0.659780	0.450660	0.191440
N51	N5	0.307990	0.346010	0.151900
N61	N6	0.350380	0.704060	0.643000
N71	N7	0.659780	0.209120	0.968340
N81	N8	0.350380	0.646320	0.207380
N91	N9	0.850380	0.643000	0.704060
N101	N10	0.759220	0.468340	0.308560
N111	N11	0.353680	0.292620	0.149620
N121	N12	0.204060	0.353680	0.561060
N131	N13	0.740840	0.482880	0.807780
N141	N14	0.643000	0.438940	0.792620
N151	N15	0.759220	0.290880	0.950660
N161	N16	0.143000	0.792620	0.438940
N171	N17	0.807990	0.151900	0.346010
N181	N18	0.066940	0.807780	0.324900
N191	N19	0.843910	0.151900	0.805890
N201	N20	0.146320	0.850380	0.707380
N211	N21	0.531660	0.191440	0.740780
N221	N22	0.549340	0.308560	0.840220
N231	N23	0.017120	0.759160	0.692220
N241	N24	0.968340	0.259220	0.808560
N251	N25	0.482880	0.307780	0.240840
N261	N26	0.656090	0.461980	0.307990
N271	N27	0.968340	0.709120	0.659780
N281	N28	0.742040	0.675100	0.482880
N291	N29	0.649620	0.353680	0.792620
N301	N30	0.257960	0.324900	0.517120
N311	N31	0.242040	0.759160	0.066940
N321	N32	0.259160	0.517120	0.192220
N331	N33	0.468340	0.659780	0.709120
N341	N34	0.853680	0.149620	0.292620
N351	N35	0.538020	0.192010	0.843910
N361	N36	0.242040	0.482880	0.675100
N371	N37	0.066940	0.259160	0.242040
N381	N38	0.857000	0.207380	0.561060
N391	N39	0.343910	0.805890	0.151900
N401	N40	0.240840	0.433060	0.257960
N411	N41	0.348100	0.656090	0.694110
N421	N42	0.740780	0.049340	0.709120
N431	N43	0.295940	0.438940	0.646320
N441	N44	0.207380	0.146320	0.350380
N451	N45	0.692010	0.038020	0.343910
N461	N46	0.049340	0.840220	0.308560
N471	N47	0.348100	0.692010	0.153990
N481	N48	0.292620	0.649620	0.853680
N491	N49	0.295940	0.857000	0.149620
N501	N50	0.566940	0.242040	0.259160
N511	N51	0.438940	0.146320	0.795940
N521	N52	0.240780	0.531660	0.691440
N531	N53	0.151900	0.305890	0.343910
N541	N54	0.848100	0.153990	0.692010
N551	N55	0.146320	0.295940	0.938940
N561	N56	0.704060	0.561060	0.353680
N571	N57	0.646320	0.707380	0.850380
N581	N58	0.805890	0.153990	0.461980
N591	N59	0.257960	0.933060	0.240840
N601	N60	0.566940	0.324900	0.807780
N611	N61	0.808560	0.759220	0.968340
N621	N62	0.840220	0.808560	0.549340
N631	N63	0.740840	0.257960	0.433060
N641	N64	0.307780	0.566940	0.824900
N651	N65	0.194110	0.348100	0.156090
N661	N66	0.209120	0.740780	0.549340
N671	N67	0.653990	0.348100	0.192010
N681	N68	0.450660	0.691440	0.159780
N691	N69	0.675100	0.982880	0.242040
N701	N70	0.292620	0.643000	0.938940
N711	N71	0.194110	0.846010	0.538020
N721	N72	0.153990	0.961980	0.305890
N731	N73	0.846010	0.038020	0.694110
N741	N74	0.290880	0.450660	0.259220
N751	N75	0.159780	0.191440	0.450660
N761	N76	0.759160	0.192220	0.517120
N771	N77	0.938940	0.143000	0.292620
N781	N78	0.143000	0.350380	0.204060
N791	N79	0.149620	0.357000	0.295940
N801	N80	0.151900	0.846010	0.307990
N811	N81	0.192010	0.848100	0.653990
N821	N82	0.643000	0.204060	0.350380
N831	N83	0.795940	0.646320	0.438940
N841	N84	0.207380	0.061060	0.357000
N851	N85	0.938940	0.795940	0.146320
N861	N86	0.950660	0.159780	0.691440
N871	N87	0.807780	0.982880	0.740840
N881	N88	0.656090	0.194110	0.848100
N891	N89	0.175100	0.242040	0.982880
N901	N90	0.651900	0.307990	0.846010
N911	N91	0.204060	0.850380	0.143000
N921	N92	0.153990	0.192010	0.348100
N931	N93	0.692010	0.653990	0.848100
N941	N94	0.757960	0.240840	0.933060
N951	N95	0.061060	0.857000	0.707380
N961	N96	0.209120	0.468340	0.159780
N971	N97	0.808560	0.049340	0.340220
N981	N98	0.438940	0.292620	0.143000
N991	N99	0.961980	0.805890	0.653990
N1001	N100	0.305890	0.461980	0.153990
N1011	N101	0.982880	0.742040	0.175100
N1021	N102	0.192220	0.175100	0.433060
N1031	N103	0.531660	0.340220	0.290880
N1041	N104	0.843910	0.692010	0.538020
N1051	N105	0.517120	0.692220	0.759160
N1061	N106	0.707380	0.350380	0.146320
N1071	N107	0.324900	0.307780	0.066940
N1081	N108	0.692220	0.433060	0.175100
N1091	N109	0.191440	0.240780	0.031660
N1101	N110	0.450660	0.759220	0.790880
N1111	N111	0.709120	0.159780	0.468340
N1121	N112	0.517120	0.824900	0.257960
N1131	N113	0.305890	0.843910	0.651900
N1141	N114	0.538020	0.346010	0.194110
N1151	N115	0.742040	0.066940	0.759160
N1161	N116	0.049340	0.209120	0.240780
N1171	N117	0.807990	0.656090	0.961980
N1181	N118	0.709120	0.549340	0.740780
N1191	N119	0.950660	0.790880	0.759220
N1201	N120	0.675100	0.692220	0.933060
N1211	N121	0.308560	0.340220	0.049340
N1221	N122	0.259220	0.950660	0.290880
N1231	N123	0.707380	0.357000	0.061060
N1241	N124	0.307990	0.961980	0.656090
N1251	N125	0.175100	0.933060	0.692220
N1261	N126	0.343910	0.538020	0.692010
N1271	N127	0.694110	0.538020	0.846010
N1281	N128	0.848100	0.694110	0.656090
N1291	N129	0.857000	0.649620	0.795940
N1301	N130	0.792620	0.938940	0.643000
N1311	N131	0.192010	0.343910	0.038020
N1321	N132	0.692220	0.259160	0.017120
N1331	N133	0.846010	0.807990	0.651900
N1341	N134	0.790880	0.259220	0.450660
N1351	N135	0.461980	0.807990	0.156090
N1361	N136	0.156090	0.848100	0.194110
N1371	N137	0.740780	0.691440	0.531660
N1381	N138	0.038020	0.843910	0.192010
N1391	N139	0.433060	0.757960	0.740840
N1401	N140	0.757960	0.517120	0.324900
N1411	N141	0.031660	0.740780	0.191440
N1421	N142	0.340220	0.790880	0.031660
N1431	N143	0.840220	0.031660	0.790880
N1441	N144	0.694110	0.156090	0.348100
N1451	N145	0.192220	0.017120	0.259160
N1461	N146	0.324900	0.017120	0.757960
N1471	N147	0.691440	0.659780	0.950660
N1481	N148	0.853680	0.704060	0.061060
N1491	N149	0.259160	0.742040	0.566940
N1501	N150	0.933060	0.192220	0.675100
N1511	N151	0.805890	0.651900	0.843910
N1521	N152	0.061060	0.204060	0.853680
N1531	N153	0.824900	0.757960	0.017120
N1541	N154	0.982880	0.240840	0.307780
N1551	N155	0.561060	0.853680	0.204060
N1561	N156	0.308560	0.968340	0.759220
N1571	N157	0.961980	0.156090	0.807990
N1581	N158	0.353680	0.061060	0.704060
N1591	N159	0.156090	0.307990	0.461980
N1601	N160	0.651900	0.343910	0.305890
N1611	N161	0.031660	0.290880	0.340220
N1621	N162	0.259220	0.308560	0.468340
N1631	N163	0.346010	0.651900	0.807990
N1641	N164	0.850380	0.207380	0.646320
N1651	N165	0.307780	0.740840	0.982880
N1661	N166	0.346010	0.694110	0.038020
N1671	N167	0.759160	0.566940	0.742040
N1681	N168	0.038020	0.194110	0.346010
N1691	N169	0.933060	0.740840	0.757960
N1701	N170	0.790880	0.531660	0.840220
N1711	N171	0.824900	0.066940	0.307780
N1721	N172	0.017120	0.257960	0.824900
N1731	N173	0.792620	0.853680	0.649620
N1741	N174	0.649620	0.295940	0.357000
N1751	N175	0.159780	0.968340	0.209120
N1761	N176	0.149620	0.792620	0.353680
N1771	N177	0.795940	0.149620	0.857000
N1781	N178	0.357000	0.795940	0.649620
N1791	N179	0.482880	0.175100	0.742040
N1801	N180	0.461980	0.653990	0.805890
N1811	N181	0.653990	0.305890	0.961980
N1821	N182	0.340220	0.549340	0.808560
N1831	N183	0.240780	0.709120	0.049340
N1841	N184	0.704060	0.143000	0.850380
N1851	N185	0.561060	0.707380	0.857000
N1861	N186	0.807780	0.824900	0.566940
N1871	N187	0.549340	0.240780	0.209120
N1881	N188	0.357000	0.561060	0.207380
N1891	N189	0.691440	0.031660	0.240780
N1901	N190	0.433060	0.675100	0.192220
N1911	N191	0.240840	0.807780	0.482880
N1921	N192	0.191440	0.950660	0.659780
