data_cg301725z_si_004_clean_PM
_symmetry_space_group_name_H-M	'P1'
_cell_length_a	12.635800
_cell_length_b	15.289700
_cell_length_c	16.418300
_cell_angle_alpha	90.000000
_cell_angle_beta	90.000000
_cell_angle_gamma	90.000000
_symmetry_Int_Tables_number 1

loop_
_symmetry_equiv_pos_as_xyz
'x,y,z'

loop_
_atom_site_label
_atom_site_type_symbol
_atom_site_fract_x
_atom_site_fract_y
_atom_site_fract_z
Mn11	Mn1	0.992090	0.910740	0.601350
Mn21	Mn2	0.007910	0.089260	0.398650
Mn31	Mn3	0.507910	0.410740	0.601350
Mn41	Mn4	0.507910	0.089260	0.101350
Mn51	Mn5	0.492090	0.589260	0.398650
Mn61	Mn6	0.007910	0.410740	0.898650
Mn71	Mn7	0.992090	0.589260	0.101350
Mn81	Mn8	0.492090	0.910740	0.898650
H11	H1	0.746500	0.201400	0.552600
H21	H2	0.522900	0.139900	0.723500
H31	H3	0.246500	0.298600	0.447400
H41	H4	0.746500	0.028100	0.164000
H51	H5	0.753500	0.798600	0.052600
H61	H6	0.746500	0.298600	0.052600
H71	H7	0.022900	0.360100	0.276500
H81	H8	0.253500	0.971900	0.836000
H91	H9	0.977100	0.860100	0.223500
H101	H10	0.746500	0.471900	0.664000
H111	H11	0.253500	0.528100	0.336000
H121	H12	0.253500	0.701400	0.947400
H131	H13	0.022900	0.139900	0.776500
H141	H14	0.477100	0.860100	0.276500
H151	H15	0.246500	0.471900	0.836000
H161	H16	0.253500	0.798600	0.447400
H171	H17	0.522900	0.360100	0.223500
H181	H18	0.977100	0.639900	0.723500
H191	H19	0.246500	0.201400	0.947400
H201	H20	0.477100	0.639900	0.776500
H211	H21	0.246500	0.028100	0.336000
H221	H22	0.753500	0.701400	0.552600
H231	H23	0.753500	0.528100	0.164000
H241	H24	0.753500	0.971900	0.664000
C11	C1	0.369200	0.952100	0.295900
C21	C2	0.858100	0.060800	0.541600
C31	C3	0.084500	0.375700	0.306200
C41	C4	0.720900	0.027300	0.656300
C51	C5	0.719100	0.160100	0.590300
C61	C6	0.235600	0.583900	0.901600
C71	C7	0.415500	0.875700	0.306200
C81	C8	0.141900	0.560800	0.958400
C91	C9	0.735600	0.916100	0.098400
C101	C10	0.584500	0.375700	0.193800
C111	C11	0.219100	0.160100	0.909700
C121	C12	0.084500	0.124300	0.806200
C131	C13	0.917400	0.764900	0.628600
C141	C14	0.370200	0.818900	0.362600
C151	C15	0.641900	0.560800	0.541600
C161	C16	0.264400	0.416100	0.401600
C171	C17	0.915900	0.009700	0.270700
C181	C18	0.280900	0.660100	0.909700
C191	C19	0.870200	0.681100	0.637400
C201	C20	0.279100	0.527300	0.843700
C211	C21	0.084100	0.509700	0.229300
C221	C22	0.780900	0.839900	0.090300
C231	C23	0.415500	0.624300	0.806200
C241	C24	0.582600	0.235100	0.128600
C251	C25	0.280900	0.839900	0.409700
C261	C26	0.082600	0.235100	0.371400
C271	C27	0.915900	0.490300	0.770700
C281	C28	0.779100	0.527300	0.656300
C291	C29	0.582600	0.264900	0.628600
C301	C30	0.417400	0.735100	0.371400
C311	C31	0.584100	0.990300	0.770700
C321	C32	0.780900	0.660100	0.590300
C331	C33	0.641900	0.939200	0.041600
C341	C34	0.870200	0.818900	0.137400
C351	C35	0.917400	0.735100	0.128600
C361	C36	0.130800	0.452100	0.295900
C371	C37	0.584100	0.509700	0.270700
C381	C38	0.764400	0.416100	0.098400
C391	C39	0.630800	0.452100	0.204100
C401	C40	0.129800	0.181100	0.862600
C411	C41	0.358100	0.439200	0.458400
C421	C42	0.869200	0.547900	0.704100
C431	C43	0.235600	0.916100	0.401600
C441	C44	0.720900	0.472700	0.156300
C451	C45	0.858100	0.439200	0.041600
C461	C46	0.915500	0.875700	0.193800
C471	C47	0.084100	0.990300	0.729300
C481	C48	0.417400	0.764900	0.871400
C491	C49	0.129800	0.318900	0.362600
C501	C50	0.279100	0.972700	0.343700
C511	C51	0.220900	0.027300	0.843700
C521	C52	0.130800	0.047900	0.795900
C531	C53	0.219100	0.339900	0.409700
C541	C54	0.719100	0.339900	0.090300
C551	C55	0.764400	0.083900	0.598400
C561	C56	0.370200	0.681100	0.862600
C571	C57	0.584500	0.124300	0.693800
C581	C58	0.082600	0.264900	0.871400
C591	C59	0.141900	0.939200	0.458400
C601	C60	0.220900	0.472700	0.343700
C611	C61	0.358100	0.060800	0.958400
C621	C62	0.369200	0.547900	0.795900
C631	C63	0.869200	0.952100	0.204100
C641	C64	0.915500	0.624300	0.693800
C651	C65	0.735600	0.583900	0.598400
C661	C66	0.415900	0.009700	0.229300
C671	C67	0.629800	0.318900	0.137400
C681	C68	0.264400	0.083900	0.901600
C691	C69	0.415900	0.490300	0.729300
C701	C70	0.629800	0.181100	0.637400
C711	C71	0.779100	0.972700	0.156300
C721	C72	0.630800	0.047900	0.704100
O11	O1	0.132500	0.181300	0.411500
O21	O2	0.990700	0.499800	0.205200
O31	O3	0.867500	0.818700	0.588500
O41	O4	0.490700	0.499800	0.294800
O51	O5	0.118300	0.013200	0.467000
O61	O6	0.639600	0.936100	0.803600
O71	O7	0.493300	0.220700	0.161900
O81	O8	0.618300	0.013200	0.033000
O91	O9	0.139600	0.563900	0.196400
O101	O10	0.881700	0.986800	0.533000
O111	O11	0.139600	0.936100	0.696400
O121	O12	0.118300	0.486800	0.967000
O131	O13	0.381700	0.986800	0.967000
O141	O14	0.867500	0.681300	0.088500
O151	O15	0.906100	0.118800	0.503900
O161	O16	0.593900	0.881200	0.003900
O171	O17	0.132500	0.318700	0.911500
O181	O18	0.881700	0.513200	0.033000
O191	O19	0.093900	0.881200	0.496100
O201	O20	0.993300	0.220700	0.338100
O211	O21	0.632500	0.181300	0.088500
O221	O22	0.360400	0.063900	0.196400
O231	O23	0.506700	0.720700	0.338100
O241	O24	0.993300	0.279300	0.838100
O251	O25	0.009300	0.999800	0.294800
O261	O26	0.506700	0.779300	0.838100
O271	O27	0.493300	0.279300	0.661900
O281	O28	0.367500	0.818700	0.911500
O291	O29	0.093900	0.618800	0.996100
O301	O30	0.632500	0.318700	0.588500
O311	O31	0.406100	0.381200	0.496100
O321	O32	0.406100	0.118800	0.996100
O331	O33	0.381700	0.513200	0.467000
O341	O34	0.490700	0.000200	0.794800
O351	O35	0.593900	0.618800	0.503900
O361	O36	0.860400	0.063900	0.303600
O371	O37	0.509300	0.500200	0.705200
O381	O38	0.618300	0.486800	0.533000
O391	O39	0.367500	0.681300	0.411500
O401	O40	0.860400	0.436100	0.803600
O411	O41	0.006700	0.720700	0.161900
O421	O42	0.509300	0.999800	0.205200
O431	O43	0.990700	0.000200	0.705200
O441	O44	0.906100	0.381200	0.003900
O451	O45	0.009300	0.500200	0.794800
O461	O46	0.006700	0.779300	0.661900
O471	O47	0.360400	0.436100	0.696400
O481	O48	0.639600	0.563900	0.303600
