data_cg300827e_si_003_clean_PM
_symmetry_space_group_name_H-M	'P1'
_cell_length_a	20.347400
_cell_length_b	26.600100
_cell_length_c	26.600100
_cell_angle_alpha	80.059000
_cell_angle_beta	90.000000
_cell_angle_gamma	90.000000
_symmetry_Int_Tables_number 1

loop_
_symmetry_equiv_pos_as_xyz
'x,y,z'

loop_
_atom_site_label
_atom_site_type_symbol
_atom_site_fract_x
_atom_site_fract_y
_atom_site_fract_z
Cd11	Cd1	0.385140	0.541040	0.541040
Cd21	Cd2	0.316670	0.217930	0.217930
Cd31	Cd3	0.043870	0.419890	0.915250
Cd41	Cd4	0.543870	0.580110	0.084750
Cd51	Cd5	0.362350	0.120050	0.120050
Cd61	Cd6	0.681850	0.334350	0.830750
Cd71	Cd7	0.043870	0.915250	0.419890
Cd81	Cd8	0.410160	0.021900	0.021900
Cd91	Cd9	0.863080	0.865070	0.381120
Cd101	Cd10	0.543870	0.084750	0.580110
Cd111	Cd11	0.816670	0.782070	0.782070
Cd121	Cd12	0.863080	0.381120	0.865070
Cd131	Cd13	0.867570	0.361710	0.361710
Cd141	Cd14	0.681850	0.830750	0.334350
Cd151	Cd15	0.885140	0.458960	0.458960
Cd161	Cd16	0.363080	0.618880	0.134930
Cd171	Cd17	0.367570	0.638290	0.638290
Cd181	Cd18	0.315650	0.736090	0.736090
Cd191	Cd19	0.815650	0.263910	0.263910
Cd201	Cd20	0.181850	0.665650	0.169250
Cd211	Cd21	0.910160	0.978100	0.978100
Cd221	Cd22	0.181850	0.169250	0.665650
Cd231	Cd23	0.363080	0.134930	0.618880
Cd241	Cd24	0.862350	0.879950	0.879950
H11	H1	0.085100	0.531400	0.883800
H21	H2	0.081700	0.072600	0.072600
H31	H3	0.061800	0.548000	0.046200
H41	H4	0.143700	0.777400	0.128000
H51	H5	0.662000	0.091200	0.673000
H61	H6	0.416300	0.345400	0.560800
H71	H7	0.224500	0.961800	0.268000
H81	H8	0.631500	0.721700	0.376300
H91	H9	0.967100	0.933200	0.086400
H101	H10	0.067800	0.568900	0.332500
H111	H11	0.179600	0.957900	0.449100
H121	H12	0.510900	0.501100	0.005300
H131	H13	0.790600	0.849800	0.586600
H141	H14	0.631500	0.376300	0.721700
H151	H15	0.468400	0.710600	0.897800
H161	H16	0.993300	0.751200	0.253800
H171	H17	0.717600	0.747200	0.257800
H181	H18	0.565500	0.923800	0.334600
H191	H19	0.937000	0.571200	0.469000
H201	H20	0.258200	0.843300	0.688300
H211	H21	0.648200	0.408200	0.167600
H221	H22	0.916300	0.439200	0.654600
H231	H23	0.493300	0.746200	0.248800
H241	H24	0.937500	0.266300	0.183300
H251	H25	0.584400	0.624300	0.973700
H261	H26	0.732900	0.502500	0.993900
H271	H27	0.259100	0.858700	0.049500
H281	H28	0.164500	0.826200	0.422200
H291	H29	0.679600	0.042100	0.550900
H301	H30	0.291000	0.012700	0.937900
H311	H31	0.759100	0.141300	0.950500
H321	H32	0.759100	0.950500	0.141300
H331	H33	0.937000	0.469000	0.571200
H341	H34	0.724500	0.732000	0.038200
H351	H35	0.470300	0.206200	0.383600
H361	H36	0.504900	0.487500	0.789100
H371	H37	0.584400	0.973700	0.624300
H381	H38	0.148500	0.081400	0.318000
H391	H39	0.585100	0.116200	0.468600
H401	H40	0.084400	0.375700	0.026300
H411	H41	0.664500	0.173800	0.577800
H421	H42	0.968400	0.102200	0.289400
H431	H43	0.085100	0.883800	0.531400
H441	H44	0.968400	0.289400	0.102200
H451	H45	0.468400	0.897800	0.710600
H461	H46	0.061800	0.046200	0.548000
H471	H47	0.767900	0.537500	0.414100
H481	H48	0.504900	0.789100	0.487500
H491	H49	0.585100	0.468600	0.116200
H501	H50	0.261400	0.331600	0.176800
H511	H51	0.231800	0.775400	0.479000
H521	H52	0.267900	0.462500	0.585900
H531	H53	0.437500	0.816700	0.733700
H541	H54	0.939000	0.779300	0.701300
H551	H55	0.065500	0.665400	0.076200
H561	H56	0.290600	0.413400	0.150200
H571	H57	0.970300	0.793800	0.616400
H581	H58	0.437000	0.531000	0.428800
H591	H59	0.561600	0.255900	0.255900
H601	H60	0.148200	0.591800	0.832400
H611	H61	0.999800	0.720100	0.020700
H621	H62	0.231800	0.479000	0.775400
H631	H63	0.743600	0.395600	0.621600
H641	H64	0.131500	0.623700	0.278300
H651	H65	0.440300	0.829600	0.101000
H661	H66	0.167500	0.198700	0.198700
H671	H67	0.243600	0.378400	0.604400
H681	H68	0.546100	0.297800	0.798000
H691	H69	0.940300	0.899000	0.170400
H701	H70	0.162000	0.327000	0.908800
H711	H71	0.245600	0.288800	0.288800
H721	H72	0.067800	0.332500	0.568900
H731	H73	0.167300	0.985300	0.985300
H741	H74	0.664500	0.577800	0.173800
H751	H75	0.648500	0.918600	0.682000
H761	H76	0.573500	0.429900	0.838900
H771	H77	0.724500	0.038200	0.732000
H781	H78	0.667300	0.014700	0.014700
H791	H79	0.078700	0.835100	0.078500
H801	H80	0.510900	0.005300	0.501100
H811	H81	0.261400	0.176800	0.331600
H821	H82	0.078700	0.078500	0.835100
H831	H83	0.164500	0.422200	0.826200
H841	H84	0.499800	0.279900	0.979300
H851	H85	0.484300	0.951800	0.951800
H861	H86	0.745600	0.711200	0.711200
H871	H87	0.644800	0.168800	0.168800
H881	H88	0.679600	0.550900	0.042100
H891	H89	0.790600	0.586600	0.849800
H901	H90	0.993300	0.253800	0.751200
H911	H91	0.168900	0.304700	0.789700
H921	H92	0.758200	0.156700	0.311700
H931	H93	0.144800	0.831200	0.831200
H941	H94	0.232900	0.006100	0.497500
H951	H95	0.643700	0.872000	0.222600
H961	H96	0.758200	0.311700	0.156700
H971	H97	0.004900	0.210900	0.512500
H981	H98	0.065500	0.076200	0.665400
H991	H99	0.141000	0.316200	0.316200
H1001	H100	0.745200	0.192900	0.192900
H1011	H101	0.641000	0.683800	0.683800
H1021	H102	0.217600	0.252800	0.742200
H1031	H103	0.731800	0.521000	0.224600
H1041	H104	0.731800	0.224600	0.521000
H1051	H105	0.416300	0.560800	0.345400
H1061	H106	0.767900	0.414100	0.537500
H1071	H107	0.224500	0.268000	0.961800
H1081	H108	0.667500	0.801300	0.801300
H1091	H109	0.743600	0.621600	0.395600
H1101	H110	0.217600	0.742200	0.252800
H1111	H111	0.010900	0.498900	0.994700
H1121	H112	0.046100	0.202000	0.702200
H1131	H113	0.967100	0.086400	0.933200
H1141	H114	0.143700	0.128000	0.777400
H1151	H115	0.287500	0.651300	0.925100
H1161	H116	0.267900	0.585900	0.462500
H1171	H117	0.787500	0.348700	0.074900
H1181	H118	0.258200	0.688300	0.843300
H1191	H119	0.148200	0.832400	0.591800
H1201	H120	0.984300	0.048200	0.048200
H1211	H121	0.561800	0.452000	0.953800
H1221	H122	0.668900	0.695300	0.210300
H1231	H123	0.162000	0.908800	0.327000
H1241	H124	0.970300	0.616400	0.793800
H1251	H125	0.162700	0.721400	0.721400
H1261	H126	0.437000	0.428800	0.531000
H1271	H127	0.573500	0.838900	0.429900
H1281	H128	0.578700	0.164900	0.921500
H1291	H129	0.439000	0.298700	0.220700
H1301	H130	0.717600	0.257800	0.747200
H1311	H131	0.148500	0.318000	0.081400
H1321	H132	0.084400	0.026300	0.375700
H1331	H133	0.561500	0.037900	0.037900
H1341	H134	0.290600	0.150200	0.413400
H1351	H135	0.061600	0.744100	0.744100
H1361	H136	0.179600	0.449100	0.957900
H1371	H137	0.787500	0.074900	0.348700
H1381	H138	0.010900	0.994700	0.498900
H1391	H139	0.437500	0.733700	0.816700
H1401	H140	0.467100	0.913600	0.066800
H1411	H141	0.581700	0.927400	0.927400
H1421	H142	0.073500	0.161100	0.570100
H1431	H143	0.245200	0.807100	0.807100
H1441	H144	0.940300	0.170400	0.899000
H1451	H145	0.567800	0.667500	0.431100
H1461	H146	0.259100	0.049500	0.858700
H1471	H147	0.470300	0.383600	0.206200
H1481	H148	0.243600	0.604400	0.378400
H1491	H149	0.131500	0.278300	0.623700
H1501	H150	0.567800	0.431100	0.667500
H1511	H151	0.761400	0.823200	0.668400
H1521	H152	0.004900	0.512500	0.210900
H1531	H153	0.791000	0.062100	0.987300
H1541	H154	0.578700	0.921500	0.164900
H1551	H155	0.499800	0.979300	0.279900
H1561	H156	0.061500	0.962100	0.962100
H1571	H157	0.493300	0.248800	0.746200
H1581	H158	0.467100	0.066800	0.913600
H1591	H159	0.732900	0.993900	0.502500
H1601	H160	0.937500	0.183300	0.266300
H1611	H161	0.073500	0.570100	0.161100
H1621	H162	0.046100	0.702200	0.202000
H1631	H163	0.668900	0.210300	0.695300
H1641	H164	0.916300	0.654600	0.439200
H1651	H165	0.999800	0.020700	0.720100
H1661	H166	0.546100	0.798000	0.297800
H1671	H167	0.791000	0.987300	0.062100
H1681	H168	0.662000	0.673000	0.091200
H1691	H169	0.562900	0.775800	0.775800
H1701	H170	0.648500	0.682000	0.918600
H1711	H171	0.291000	0.937900	0.012700
H1721	H172	0.561800	0.953800	0.452000
H1731	H173	0.232900	0.497500	0.006100
H1741	H174	0.565500	0.334600	0.923800
H1751	H175	0.440300	0.101000	0.829600
H1761	H176	0.439000	0.220700	0.298700
H1771	H177	0.643700	0.222600	0.872000
H1781	H178	0.662700	0.278600	0.278600
H1791	H179	0.939000	0.701300	0.779300
H1801	H180	0.062900	0.224200	0.224200
H1811	H181	0.761400	0.668400	0.823200
H1821	H182	0.287500	0.925100	0.651300
H1831	H183	0.168900	0.789700	0.304700
H1841	H184	0.648200	0.167600	0.408200
C11	C1	0.600100	0.762500	0.762500
C21	C2	0.825100	0.217900	0.898700
C31	C3	0.207900	0.793900	0.793900
C41	C4	0.556500	0.502100	0.002900
C51	C5	0.589800	0.207200	0.207200
C61	C6	0.883800	0.630800	0.435800
C71	C7	0.528400	0.465600	0.721400
C81	C8	0.908300	0.915400	0.148400
C91	C9	0.162200	0.221400	0.221400
C101	C10	0.321700	0.165400	0.390000
C111	C11	0.397600	0.547700	0.419300
C121	C12	0.325900	0.584700	0.351900
C131	C13	0.145000	0.293400	0.293400
C141	C14	0.087600	0.528300	0.028100
C151	C15	0.697000	0.024200	0.710200
C161	C16	0.197000	0.975800	0.289800
C171	C17	0.067100	0.568100	0.297700
C181	C18	0.653000	0.442600	0.169200
C191	C19	0.568400	0.923600	0.299800
C201	C20	0.907300	0.792400	0.677400
C211	C21	0.885800	0.827700	0.593900
C221	C22	0.653000	0.169200	0.442600
C231	C23	0.201800	0.797100	0.490900
C241	C24	0.039000	0.254300	0.749300
C251	C25	0.701800	0.202900	0.509100
C261	C26	0.312400	0.297000	0.599200
C271	C27	0.924200	0.097700	0.936500
C281	C28	0.071100	0.719500	0.222700
C291	C29	0.598400	0.242400	0.242400
C301	C30	0.902500	0.347100	0.027900
C311	C31	0.203100	0.045600	0.045600
C321	C32	0.698200	0.458400	0.201600
C331	C33	0.383800	0.369200	0.564200
C341	C34	0.154900	0.469500	0.975900
C351	C35	0.573100	0.225200	0.714800
C361	C36	0.198200	0.798400	0.541600
C371	C37	0.660900	0.172200	0.543200
C381	C38	0.490600	0.177600	0.988600
C391	C39	0.567100	0.702300	0.431900
C401	C40	0.187300	0.498300	0.004500
C411	C41	0.074900	0.076400	0.800600
C421	C42	0.408300	0.084600	0.851600
C431	C43	0.317800	0.670600	0.903800
C441	C44	0.605100	0.735700	0.398900
C451	C45	0.201800	0.490900	0.797100
C461	C46	0.845300	0.919200	0.165200
C471	C47	0.425800	0.704200	0.887800
C481	C48	0.236800	0.064100	0.253500
C491	C49	0.736800	0.935900	0.746500
C501	C50	0.637000	0.967300	0.967300
C511	C51	0.907300	0.677400	0.792400
C521	C52	0.643600	0.227800	0.715600
C531	C53	0.490600	0.988600	0.177600
C541	C54	0.302300	0.868800	0.053600
C551	C55	0.612700	0.986900	0.646100
C561	C56	0.105100	0.601100	0.264300
C571	C57	0.571300	0.430000	0.804000
C581	C58	0.800800	0.307700	0.145300
C591	C59	0.486400	0.689000	0.501400
C601	C60	0.986400	0.498600	0.311000
C611	C61	0.382200	0.678100	0.921100
C621	C62	0.071300	0.570000	0.196000
C631	C63	0.073100	0.774800	0.285200
C641	C64	0.071300	0.196000	0.570000
C651	C65	0.302300	0.053600	0.868800
C661	C66	0.925800	0.112200	0.295800
C671	C67	0.571300	0.804000	0.430000
C681	C68	0.137000	0.032700	0.032700
C691	C69	0.798400	0.561200	0.421600
C701	C70	0.100100	0.237500	0.237500
C711	C71	0.065900	0.984800	0.984800
C721	C72	0.239400	0.767600	0.580600
C731	C73	0.703100	0.954400	0.954400
C741	C74	0.613200	0.893200	0.234600
C751	C75	0.405200	0.720400	0.840000
C761	C76	0.651300	0.469900	0.967300
C771	C77	0.067100	0.297700	0.568100
C781	C78	0.405200	0.840000	0.720400
C791	C79	0.195100	0.287100	0.026900
C801	C80	0.812400	0.703000	0.400800
C811	C81	0.736800	0.746500	0.935900
C821	C82	0.030400	0.225600	0.535000
C831	C83	0.239400	0.580600	0.767600
C841	C84	0.686300	0.438900	0.933500
C851	C85	0.317800	0.903800	0.670600
C861	C86	0.698200	0.201600	0.458400
C871	C87	0.087600	0.028100	0.528300
C881	C88	0.113200	0.106800	0.765400
C891	C89	0.568400	0.299800	0.923600
C901	C90	0.651700	0.953700	0.680700
C911	C91	0.651300	0.967300	0.469900
C921	C92	0.284800	0.590800	0.388000
C931	C93	0.187300	0.004500	0.498300
C941	C94	0.056500	0.997100	0.497900
C951	C95	0.424200	0.063500	0.902300
C961	C96	0.143600	0.772200	0.284400
C971	C97	0.687300	0.995500	0.501700
C981	C98	0.556500	0.002900	0.502100
C991	C99	0.530400	0.774400	0.465000
C1001	C100	0.590400	0.728700	0.728700
C1011	C101	0.883800	0.435800	0.630800
C1021	C102	0.522400	0.194500	0.194500
C1031	C103	0.990600	0.011400	0.822400
C1041	C104	0.905200	0.279600	0.160000
C1051	C105	0.032000	0.785700	0.043700
C1061	C106	0.298400	0.438800	0.578400
C1071	C107	0.908300	0.148400	0.915400
C1081	C108	0.654900	0.024100	0.530500
C1091	C109	0.028400	0.278600	0.534400
C1101	C110	0.532000	0.214300	0.956300
C1111	C111	0.707900	0.206100	0.206100
C1121	C112	0.905600	0.541400	0.846200
C1131	C113	0.905600	0.846200	0.541400
C1141	C114	0.825100	0.898700	0.217900
C1151	C115	0.739400	0.419400	0.232400
C1161	C116	0.032000	0.043700	0.785700
C1171	C117	0.195100	0.026900	0.287100
C1181	C118	0.068400	0.076400	0.700200
C1191	C119	0.080100	0.049800	0.049800
C1201	C120	0.817800	0.329400	0.096200
C1211	C121	0.320800	0.916600	0.032600
C1221	C122	0.089800	0.792800	0.792800
C1231	C123	0.074900	0.800600	0.076400
C1241	C124	0.812400	0.400800	0.703000
C1251	C125	0.686300	0.933500	0.438900
C1261	C126	0.687300	0.501700	0.995500
C1271	C127	0.158200	0.324900	0.943900
C1281	C128	0.382200	0.921100	0.678100
C1291	C129	0.345300	0.080800	0.834800
C1301	C130	0.882200	0.321900	0.078900
C1311	C131	0.321700	0.390000	0.165400
C1321	C132	0.021400	0.034900	0.034900
C1331	C133	0.539000	0.250700	0.745700
C1341	C134	0.402500	0.972100	0.652900
C1351	C135	0.407300	0.322600	0.207600
C1361	C136	0.028400	0.534400	0.278600
C1371	C137	0.171900	0.743600	0.253400
C1381	C138	0.151700	0.319300	0.046300
C1391	C139	0.160900	0.827800	0.456800
C1401	C140	0.521400	0.965100	0.965100
C1411	C141	0.112700	0.013100	0.353900
C1421	C142	0.817800	0.096200	0.329400
C1431	C143	0.428900	0.373600	0.196800
C1441	C144	0.612700	0.646100	0.986900
C1451	C145	0.802300	0.946400	0.131200
C1461	C146	0.614500	0.479300	0.138900
C1471	C147	0.630400	0.001300	0.001300
C1481	C148	0.325100	0.101300	0.782100
C1491	C149	0.143600	0.284400	0.772200
C1501	C150	0.658600	0.255900	0.255900
C1511	C151	0.646300	0.191700	0.191700
C1521	C152	0.573100	0.714800	0.225200
C1531	C153	0.587600	0.471700	0.971900
C1541	C154	0.486400	0.501400	0.689000
C1551	C155	0.565900	0.015200	0.015200
C1561	C156	0.528200	0.957200	0.267200
C1571	C157	0.928900	0.803200	0.626400
C1581	C158	0.068400	0.700200	0.076400
C1591	C159	0.098400	0.757600	0.757600
C1601	C160	0.198200	0.541600	0.798400
C1611	C161	0.325900	0.351900	0.584700
C1621	C162	0.153000	0.830800	0.557400
C1631	C163	0.040700	0.805100	0.316100
C1641	C164	0.197000	0.289800	0.975800
C1651	C165	0.925800	0.295800	0.112200
C1661	C166	0.028200	0.732800	0.042800
C1671	C167	0.402500	0.652900	0.972100
C1681	C168	0.304900	0.340900	0.180700
C1691	C169	0.428900	0.196800	0.373600
C1701	C170	0.574900	0.923600	0.199400
C1711	C171	0.821700	0.610000	0.834600
C1721	C172	0.040700	0.316100	0.805100
C1731	C173	0.885800	0.593900	0.827700
C1741	C174	0.114500	0.520700	0.861100
C1751	C175	0.990600	0.822400	0.011400
C1761	C176	0.571100	0.777300	0.280500
C1771	C177	0.105100	0.264300	0.601100
C1781	C178	0.528400	0.721400	0.465600
C1791	C179	0.567100	0.431900	0.702300
C1801	C180	0.802300	0.131200	0.946400
C1811	C181	0.905200	0.160000	0.279600
C1821	C182	0.408300	0.851600	0.084600
C1831	C183	0.385800	0.406100	0.172300
C1841	C184	0.924200	0.936500	0.097700
C1851	C185	0.798400	0.421600	0.561200
C1861	C186	0.071100	0.222700	0.719500
C1871	C187	0.385800	0.172300	0.406100
C1881	C188	0.651700	0.680700	0.953700
C1891	C189	0.690100	0.412600	0.412600
C1901	C190	0.643600	0.715600	0.227800
C1911	C191	0.695100	0.712900	0.973100
C1921	C192	0.325100	0.782100	0.101300
C1931	C193	0.130400	0.998700	0.998700
C1941	C194	0.532000	0.956300	0.214300
C1951	C195	0.671900	0.746600	0.256400
C1961	C196	0.186300	0.066500	0.561100
C1971	C197	0.114500	0.861100	0.520700
C1981	C198	0.113200	0.765400	0.106800
C1991	C199	0.151300	0.032700	0.530100
C2001	C200	0.112700	0.353900	0.013100
C2011	C201	0.658200	0.675100	0.056100
C2021	C202	0.695100	0.973100	0.712900
C2031	C203	0.171900	0.253400	0.743600
C2041	C204	0.030400	0.535000	0.225600
C2051	C205	0.160900	0.456800	0.827800
C2061	C206	0.153000	0.557400	0.830800
C2071	C207	0.405600	0.458600	0.153800
C2081	C208	0.845300	0.165200	0.919200
C2091	C209	0.151700	0.046300	0.319300
C2101	C210	0.928900	0.626400	0.803200
C2111	C211	0.154900	0.975900	0.469500
C2121	C212	0.320800	0.032600	0.916600
C2131	C213	0.345300	0.834800	0.080800
C2141	C214	0.539000	0.745700	0.250700
C2151	C215	0.158600	0.744100	0.744100
C2161	C216	0.825900	0.648100	0.415300
C2171	C217	0.660900	0.543200	0.172200
C2181	C218	0.407300	0.207600	0.322600
C2191	C219	0.707400	0.723700	0.723700
C2201	C220	0.580100	0.950200	0.950200
C2211	C221	0.820800	0.083400	0.967400
C2221	C222	0.073100	0.285200	0.774800
C2231	C223	0.028200	0.042800	0.732800
C2241	C224	0.300800	0.854700	0.692300
C2251	C225	0.383800	0.564200	0.369200
C2261	C226	0.671900	0.256400	0.746600
C2271	C227	0.882200	0.078900	0.321900
C2281	C228	0.039000	0.749300	0.254300
C2291	C229	0.186300	0.561100	0.066500
C2301	C230	0.284800	0.388000	0.590800
C2311	C231	0.304900	0.180700	0.340900
C2321	C232	0.056500	0.497900	0.997100
C2331	C233	0.146300	0.808300	0.808300
C2341	C234	0.528200	0.267200	0.957200
C2351	C235	0.397600	0.419300	0.547700
C2361	C236	0.530400	0.465000	0.774400
C2371	C237	0.654900	0.530500	0.024100
C2381	C238	0.825900	0.415300	0.648100
C2391	C239	0.897600	0.580700	0.452300
C2401	C240	0.540700	0.683900	0.194900
C2411	C241	0.540700	0.194900	0.683900
C2421	C242	0.820800	0.967400	0.083400
C2431	C243	0.658200	0.056100	0.675100
C2441	C244	0.701800	0.509100	0.202900
C2451	C245	0.158200	0.943900	0.324900
C2461	C246	0.784800	0.612000	0.409200
C2471	C247	0.587600	0.971900	0.471700
C2481	C248	0.605100	0.398900	0.735700
C2491	C249	0.897600	0.452300	0.580700
C2501	C250	0.312400	0.599200	0.297000
C2511	C251	0.151300	0.530100	0.032700
C2521	C252	0.236800	0.253500	0.064100
C2531	C253	0.425800	0.887800	0.704200
C2541	C254	0.662200	0.778600	0.778600
C2551	C255	0.574900	0.199400	0.923600
C2561	C256	0.821700	0.834600	0.610000
C2571	C257	0.298400	0.578400	0.438800
C2581	C258	0.405600	0.153800	0.458600
C2591	C259	0.800800	0.145300	0.307700
C2601	C260	0.986400	0.311000	0.498600
C2611	C261	0.090400	0.271300	0.271300
C2621	C262	0.300800	0.692300	0.854700
C2631	C263	0.784800	0.409200	0.612000
C2641	C264	0.804900	0.659100	0.819300
C2651	C265	0.207400	0.276300	0.276300
C2661	C266	0.645000	0.706600	0.706600
C2671	C267	0.614500	0.138900	0.479300
C2681	C268	0.571100	0.280500	0.777300
C2691	C269	0.024400	0.286700	0.286700
C2701	C270	0.190100	0.587400	0.587400
C2711	C271	0.804900	0.819300	0.659100
C2721	C272	0.902500	0.027900	0.347100
C2731	C273	0.524400	0.713300	0.713300
C2741	C274	0.697000	0.710200	0.024200
C2751	C275	0.613200	0.234600	0.893200
C2761	C276	0.424200	0.902300	0.063500
C2771	C277	0.739400	0.232400	0.419400
C2781	C278	0.022400	0.805500	0.805500
N11	N1	0.771200	0.786200	0.945800
N21	N2	0.213800	0.763000	0.763000
N31	N3	0.805400	0.285500	0.382900
N41	N4	0.241800	0.628600	0.776800
N51	N5	0.458500	0.543500	0.698700
N61	N6	0.443000	0.016800	0.107400
N71	N7	0.459200	0.523700	0.123100
N81	N8	0.757600	0.376300	0.721500
N91	N9	0.454400	0.029000	0.186200
N101	N10	0.744100	0.738700	0.888300
N111	N11	0.943000	0.983200	0.892600
N121	N12	0.940800	0.837500	0.837500
N131	N13	0.458200	0.618400	0.033400
N141	N14	0.764800	0.230200	0.880000
N151	N15	0.241800	0.776800	0.628600
N161	N16	0.969200	0.358300	0.508500
N171	N17	0.943000	0.892600	0.983200
N181	N18	0.925300	0.858300	0.954500
N191	N19	0.443000	0.107400	0.016800
N201	N20	0.348400	0.304000	0.201600
N211	N21	0.485200	0.130100	0.981100
N221	N22	0.783700	0.429500	0.429500
N231	N23	0.269000	0.719700	0.134700
N241	N24	0.421800	0.712200	0.712200
N251	N25	0.157600	0.090800	0.590400
N261	N26	0.960000	0.016200	0.368000
N271	N27	0.471100	0.733200	0.733200
N281	N28	0.458500	0.698700	0.543500
N291	N29	0.867500	0.840300	0.502100
N301	N30	0.251300	0.070000	0.560000
N311	N31	0.136800	0.715500	0.221700
N321	N32	0.367500	0.497900	0.159700
N331	N33	0.975000	0.323400	0.808200
N341	N34	0.741800	0.223200	0.371400
N351	N35	0.458200	0.033400	0.618400
N361	N36	0.881400	0.960200	0.066000
N371	N37	0.657600	0.409600	0.909200
N381	N38	0.828800	0.876600	0.296000
N391	N39	0.429900	0.531000	0.622800
N401	N40	0.783600	0.349700	0.257500
N411	N41	0.424600	0.561700	0.656900
N421	N42	0.283700	0.570500	0.570500
N431	N43	0.071900	0.834800	0.347200
N441	N44	0.107800	0.603700	0.215700
N451	N45	0.467200	0.161000	0.646400
N461	N46	0.507500	0.683800	0.683800
N471	N47	0.425300	0.141700	0.045500
N481	N48	0.354200	0.555900	0.455100
N491	N49	0.475000	0.191800	0.676600
N501	N50	0.424600	0.656900	0.561700
N511	N51	0.299400	0.195400	0.098400
N521	N52	0.954400	0.813800	0.971000
N531	N53	0.283500	0.224400	0.132200
N541	N54	0.404200	0.141400	0.538400
N551	N55	0.007500	0.316200	0.316200
N561	N56	0.571900	0.652800	0.165200
N571	N57	0.262500	0.593400	0.103400
N581	N58	0.460000	0.983800	0.632000
N591	N59	0.854200	0.444100	0.544900
N601	N60	0.975000	0.808200	0.323400
N611	N61	0.828800	0.296000	0.876600
N621	N62	0.420700	0.193600	0.193600
N631	N63	0.985200	0.869900	0.018900
N641	N64	0.280000	0.602200	0.602200
N651	N65	0.512000	0.996700	0.996700
N661	N66	0.851900	0.740200	0.409800
N671	N67	0.522700	0.632500	0.145100
N681	N68	0.615800	0.038000	0.644400
N691	N69	0.400800	0.051000	0.630600
N701	N70	0.785300	0.924700	0.924700
N711	N71	0.657600	0.909200	0.409600
N721	N72	0.351900	0.259800	0.590200
N731	N73	0.764400	0.369600	0.770800
N741	N74	0.924600	0.343100	0.438300
N751	N75	0.219900	0.614200	0.614200
N761	N76	0.971100	0.786900	0.786900
N771	N77	0.440800	0.162500	0.162500
N781	N78	0.459200	0.123100	0.523700
N791	N79	0.306200	0.046900	0.046900
N801	N80	0.588600	0.531500	0.028700
N811	N81	0.779300	0.427400	0.270000
N821	N82	0.958500	0.456500	0.301300
N831	N83	0.244100	0.111700	0.261300
N841	N84	0.305400	0.714500	0.617100
N851	N85	0.229000	0.553800	0.553800
N861	N86	0.279300	0.730000	0.572600
N871	N87	0.958200	0.381600	0.966600
N881	N88	0.755900	0.973500	0.973500
N891	N89	0.929900	0.469000	0.377200
N901	N90	0.264800	0.120000	0.769800
N911	N91	0.321400	0.610200	0.217200
N921	N92	0.863200	0.987800	0.348400
N931	N93	0.115800	0.962000	0.355600
N941	N94	0.244100	0.261300	0.111700
N951	N95	0.864500	0.895600	0.258600
N961	N96	0.967200	0.353600	0.839000
N971	N97	0.219500	0.077500	0.077500
N981	N98	0.203700	0.612600	0.116400
N991	N99	0.783600	0.257500	0.349700
N1001	N100	0.615800	0.644400	0.038000
N1011	N101	0.921800	0.287800	0.287800
N1021	N102	0.771200	0.945800	0.786200
N1031	N103	0.769000	0.280300	0.865300
N1041	N104	0.328800	0.123400	0.704000
N1051	N105	0.969200	0.508500	0.358300
N1061	N106	0.283500	0.132200	0.224400
N1071	N107	0.299400	0.098400	0.195400
N1081	N108	0.283600	0.742500	0.650300
N1091	N109	0.279300	0.572600	0.730000
N1101	N110	0.264400	0.229200	0.630400
N1111	N111	0.157600	0.590400	0.090800
N1121	N112	0.115800	0.355600	0.962000
N1131	N113	0.764800	0.880000	0.230200
N1141	N114	0.719500	0.922500	0.922500
N1151	N115	0.636800	0.284500	0.778300
N1161	N116	0.022700	0.367500	0.854900
N1171	N117	0.461700	0.472300	0.131900
N1181	N118	0.751300	0.930000	0.440000
N1191	N119	0.958200	0.966600	0.381600
N1201	N120	0.729000	0.446200	0.446200
N1211	N121	0.607800	0.396300	0.784300
N1221	N122	0.269000	0.134700	0.719700
N1231	N123	0.805400	0.382900	0.285500
N1241	N124	0.821400	0.782800	0.389800
N1251	N125	0.485200	0.981100	0.130100
N1261	N126	0.925300	0.954500	0.858300
N1271	N127	0.109900	0.716000	0.108000
N1281	N128	0.381400	0.039800	0.934000
N1291	N129	0.571900	0.165200	0.652800
N1301	N130	0.522700	0.145100	0.632500
N1311	N131	0.769000	0.865300	0.280300
N1321	N132	0.283600	0.650300	0.742500
N1331	N133	0.904200	0.461600	0.858600
N1341	N134	0.264400	0.630400	0.229200
N1351	N135	0.741800	0.371400	0.223200
N1361	N136	0.251300	0.560000	0.070000
N1371	N137	0.607800	0.784300	0.396300
N1381	N138	0.467200	0.646400	0.161000
N1391	N139	0.363200	0.012200	0.651600
N1401	N140	0.487500	0.515100	0.515100
N1411	N141	0.506300	0.162400	0.162400
N1421	N142	0.851900	0.409800	0.740200
N1431	N143	0.071900	0.347200	0.834800
N1441	N144	0.364500	0.104400	0.741400
N1451	N145	0.703700	0.883600	0.387400
N1461	N146	0.367500	0.159700	0.497900
N1471	N147	0.351900	0.590200	0.259800
N1481	N148	0.848400	0.696000	0.798400
N1491	N149	0.475000	0.676600	0.191800
N1501	N150	0.262500	0.103400	0.593400
N1511	N151	0.779300	0.270000	0.427400
N1521	N152	0.821400	0.389800	0.782800
N1531	N153	0.136800	0.221700	0.715500
N1541	N154	0.924600	0.438300	0.343100
N1551	N155	0.900800	0.949000	0.369400
N1561	N156	0.442500	0.682200	0.682200
N1571	N157	0.257600	0.278500	0.623700
N1581	N158	0.881400	0.066000	0.960200
N1591	N159	0.636800	0.778300	0.284500
N1601	N160	0.757600	0.721500	0.376300
N1611	N161	0.846300	0.178000	0.280000
N1621	N162	0.363200	0.651600	0.012200
N1631	N163	0.863200	0.348400	0.987800
N1641	N164	0.961700	0.527700	0.868100
N1651	N165	0.255900	0.026500	0.026500
N1661	N166	0.469200	0.641700	0.491500
N1671	N167	0.022700	0.854900	0.367500
N1681	N168	0.617800	0.529100	0.141100
N1691	N169	0.213700	0.243500	0.243500
N1701	N170	0.764400	0.770800	0.369600
N1711	N171	0.703700	0.387400	0.883600
N1721	N172	0.783500	0.867800	0.775600
N1731	N173	0.305400	0.617100	0.714500
N1741	N174	0.864500	0.258600	0.895600
N1751	N175	0.348400	0.201600	0.304000
N1761	N176	0.264800	0.769800	0.120000
N1771	N177	0.271200	0.054200	0.213800
N1781	N178	0.203700	0.116400	0.612600
N1791	N179	0.751300	0.440000	0.930000
N1801	N180	0.783500	0.775600	0.867800
N1811	N181	0.959200	0.476300	0.876900
N1821	N182	0.117800	0.858900	0.470900
N1831	N183	0.958500	0.301300	0.456500
N1841	N184	0.088600	0.468500	0.971300
N1851	N185	0.354200	0.455100	0.555900
N1861	N186	0.364500	0.741400	0.104400
N1871	N187	0.799400	0.901600	0.804600
N1881	N188	0.713800	0.237000	0.237000
N1891	N189	0.617800	0.141100	0.529100
N1901	N190	0.846300	0.280000	0.178000
N1911	N191	0.900800	0.369400	0.949000
N1921	N192	0.961700	0.868100	0.527700
N1931	N193	0.404200	0.538400	0.141400
N1941	N194	0.942500	0.317800	0.317800
N1951	N195	0.806200	0.953100	0.953100
N1961	N196	0.762500	0.406600	0.896600
N1971	N197	0.461700	0.131900	0.472300
N1981	N198	0.425300	0.045500	0.141700
N1991	N199	0.588600	0.028700	0.531500
N2001	N200	0.854200	0.544900	0.444100
N2011	N201	0.471100	0.213100	0.213100
N2021	N202	0.321400	0.217200	0.610200
N2031	N203	0.460000	0.632000	0.983800
N2041	N204	0.967200	0.839000	0.353600
N2051	N205	0.381400	0.934000	0.039800
N2061	N206	0.971100	0.266800	0.266800
N2071	N207	0.609900	0.284000	0.892000
N2081	N208	0.719900	0.385800	0.385800
N2091	N209	0.867500	0.502100	0.840300
N2101	N210	0.346300	0.720000	0.822000
N2111	N211	0.920700	0.806400	0.806400
N2121	N212	0.328800	0.704000	0.123400
N2131	N213	0.469200	0.491500	0.641700
N2141	N214	0.012000	0.003300	0.003300
N2151	N215	0.799400	0.804600	0.901600
N2161	N216	0.929900	0.377200	0.469000
N2171	N217	0.904200	0.858600	0.461600
N2181	N218	0.985200	0.018900	0.869900
N2191	N219	0.088600	0.971300	0.468500
N2201	N220	0.257600	0.623700	0.278500
N2211	N221	0.780000	0.397800	0.397800
N2221	N222	0.271200	0.213800	0.054200
N2231	N223	0.109900	0.108000	0.716000
N2241	N224	0.429900	0.622800	0.531000
N2251	N225	0.107800	0.215700	0.603700
N2261	N226	0.744100	0.888300	0.738700
N2271	N227	0.954400	0.971000	0.813800
N2281	N228	0.609900	0.892000	0.284000
N2291	N229	0.762500	0.896600	0.406600
N2301	N230	0.960000	0.368000	0.016200
N2311	N231	0.400800	0.630600	0.051000
N2321	N232	0.117800	0.470900	0.858900
N2331	N233	0.713700	0.756500	0.756500
N2341	N234	0.006300	0.837600	0.837600
N2351	N235	0.848400	0.798400	0.696000
N2361	N236	0.346300	0.822000	0.720000
N2371	N237	0.285300	0.075300	0.075300
N2381	N238	0.987500	0.484900	0.484900
N2391	N239	0.454400	0.186200	0.029000
N2401	N240	0.959200	0.876900	0.476300
