data_cg400449c_si_001_clean_PM
_symmetry_space_group_name_H-M	'P1'
_cell_length_a	25.291300
_cell_length_b	33.509000
_cell_length_c	18.681000
_cell_angle_alpha	90.000000
_cell_angle_beta	90.000000
_cell_angle_gamma	90.000000
_symmetry_Int_Tables_number 1

loop_
_symmetry_equiv_pos_as_xyz
'x,y,z'

loop_
_atom_site_label
_atom_site_type_symbol
_atom_site_fract_x
_atom_site_fract_y
_atom_site_fract_z
C11	C1	0.881560	0.604970	0.105930
C21	C2	0.861220	0.641850	0.085240
H11	H1	0.877400	0.665300	0.100500
C31	C3	0.817750	0.643530	0.042750
C41	C4	0.793110	0.608920	0.019290
H21	H2	0.763600	0.610400	0.989700
C51	C5	0.813040	0.571740	0.040500
C61	C6	0.857270	0.570070	0.084460
H31	H3	0.870500	0.545500	0.099400
C71	C7	0.927830	0.603660	0.156670
C81	C8	0.793790	0.682960	0.022360
C91	C9	0.786040	0.534010	0.019730
C101	C10	0.731530	0.533560	0.019760
H41	H4	0.713000	0.556300	0.033400
C111	C11	0.173470	0.232520	0.185650
C121	C12	0.124580	0.213650	0.185530
H51	H5	0.108100	0.207000	0.142700
C131	C13	0.201420	0.240740	0.115660
Cu11	Cu1	0.211210	0.231940	0.964840
O11	O1	0.944970	0.570760	0.176480
O21	O2	0.945270	0.636450	0.177110
O31	O3	0.751950	0.683590	0.987680
O41	O4	0.816630	0.713990	0.047480
O51	O5	0.178920	0.228750	0.060850
O61	O6	0.244350	0.258580	0.118940
C141	C14	0.381560	0.104970	0.105930
C151	C15	0.361220	0.141850	0.085240
H61	H6	0.377400	0.165300	0.100500
C161	C16	0.317750	0.143530	0.042750
C171	C17	0.293110	0.108920	0.019290
H71	H7	0.263600	0.110400	0.989700
C181	C18	0.313040	0.071740	0.040500
C191	C19	0.357270	0.070070	0.084460
H81	H8	0.370500	0.045500	0.099400
C201	C20	0.427830	0.103660	0.156670
C211	C21	0.293790	0.182960	0.022360
C221	C22	0.286040	0.034010	0.019730
C231	C23	0.231530	0.033560	0.019760
H91	H9	0.213000	0.056300	0.033400
C241	C24	0.673470	0.732520	0.185650
C251	C25	0.624580	0.713650	0.185530
H101	H10	0.608100	0.707000	0.142700
C261	C26	0.701420	0.740740	0.115660
Cu21	Cu2	0.711210	0.731940	0.964840
O71	O7	0.444970	0.070760	0.176480
O81	O8	0.445270	0.136450	0.177110
O91	O9	0.251950	0.183590	0.987680
O101	O10	0.316630	0.213990	0.047480
O111	O11	0.678920	0.728750	0.060850
O121	O12	0.744350	0.758580	0.118940
C271	C27	0.118440	0.395030	0.605930
C281	C28	0.138780	0.358150	0.585240
H111	H11	0.122600	0.334700	0.600500
C291	C29	0.182250	0.356470	0.542750
C301	C30	0.206890	0.391080	0.519290
H121	H12	0.236400	0.389600	0.489700
C311	C31	0.186960	0.428260	0.540500
C321	C32	0.142730	0.429930	0.584460
H131	H13	0.129500	0.454500	0.599400
C331	C33	0.072170	0.396340	0.656670
C341	C34	0.206210	0.317040	0.522360
C351	C35	0.213960	0.465990	0.519730
C361	C36	0.268470	0.466440	0.519760
H141	H14	0.287000	0.443700	0.533400
C371	C37	0.826530	0.767480	0.685650
C381	C38	0.875420	0.786350	0.685530
H151	H15	0.891900	0.793000	0.642700
C391	C39	0.798580	0.759260	0.615660
Cu31	Cu3	0.788790	0.768060	0.464840
O131	O13	0.055030	0.429240	0.676480
O141	O14	0.054730	0.363550	0.677110
O151	O15	0.248050	0.316410	0.487680
O161	O16	0.183370	0.286010	0.547480
O171	O17	0.821080	0.771250	0.560850
O181	O18	0.755650	0.741420	0.618940
C401	C40	0.618440	0.895030	0.605930
C411	C41	0.638780	0.858150	0.585240
H161	H16	0.622600	0.834700	0.600500
C421	C42	0.682250	0.856470	0.542750
C431	C43	0.706890	0.891080	0.519290
H171	H17	0.736400	0.889600	0.489700
C441	C44	0.686960	0.928260	0.540500
C451	C45	0.642730	0.929930	0.584460
H181	H18	0.629500	0.954500	0.599400
C461	C46	0.572170	0.896340	0.656670
C471	C47	0.706210	0.817040	0.522360
C481	C48	0.713960	0.965990	0.519730
C491	C49	0.768470	0.966440	0.519760
H191	H19	0.787000	0.943700	0.533400
C501	C50	0.326530	0.267480	0.685650
C511	C51	0.375420	0.286350	0.685530
H201	H20	0.391900	0.293000	0.642700
C521	C52	0.298580	0.259260	0.615660
Cu41	Cu4	0.288790	0.268060	0.464840
O191	O19	0.555030	0.929240	0.676480
O201	O20	0.554730	0.863550	0.677110
O211	O21	0.748050	0.816410	0.487680
O221	O22	0.683370	0.786010	0.547480
O231	O23	0.321080	0.271250	0.560850
O241	O24	0.255650	0.241420	0.618940
C531	C53	0.118440	0.604970	0.394070
C541	C54	0.138780	0.641850	0.414760
H211	H21	0.122600	0.665300	0.399500
C551	C55	0.182250	0.643530	0.457250
C561	C56	0.206890	0.608920	0.480710
H221	H22	0.236400	0.610400	0.510300
C571	C57	0.186960	0.571740	0.459500
C581	C58	0.142730	0.570070	0.415540
H231	H23	0.129500	0.545500	0.400600
C591	C59	0.072170	0.603660	0.343330
C601	C60	0.206210	0.682960	0.477640
C611	C61	0.213960	0.534010	0.480270
C621	C62	0.268470	0.533560	0.480240
H241	H24	0.287000	0.556300	0.466600
C631	C63	0.826530	0.232520	0.314350
C641	C64	0.875420	0.213650	0.314470
H251	H25	0.891900	0.207000	0.357300
C651	C65	0.798580	0.240740	0.384340
Cu51	Cu5	0.788790	0.231940	0.535160
O251	O25	0.055030	0.570760	0.323520
O261	O26	0.054730	0.636450	0.322890
O271	O27	0.248050	0.683590	0.512320
O281	O28	0.183370	0.713990	0.452520
O291	O29	0.821080	0.228750	0.439150
O301	O30	0.755650	0.258580	0.381060
C661	C66	0.618440	0.104970	0.394070
C671	C67	0.638780	0.141850	0.414760
H261	H26	0.622600	0.165300	0.399500
C681	C68	0.682250	0.143530	0.457250
C691	C69	0.706890	0.108920	0.480710
H271	H27	0.736400	0.110400	0.510300
C701	C70	0.686960	0.071740	0.459500
C711	C71	0.642730	0.070070	0.415540
H281	H28	0.629500	0.045500	0.400600
C721	C72	0.572170	0.103660	0.343330
C731	C73	0.706210	0.182960	0.477640
C741	C74	0.713960	0.034010	0.480270
C751	C75	0.768470	0.033560	0.480240
H291	H29	0.787000	0.056300	0.466600
C761	C76	0.326530	0.732520	0.314350
C771	C77	0.375420	0.713650	0.314470
H301	H30	0.391900	0.707000	0.357300
C781	C78	0.298580	0.740740	0.384340
Cu61	Cu6	0.288790	0.731940	0.535160
O311	O31	0.555030	0.070760	0.323520
O321	O32	0.554730	0.136450	0.322890
O331	O33	0.748050	0.183590	0.512320
O341	O34	0.683370	0.213990	0.452520
O351	O35	0.321080	0.728750	0.439150
O361	O36	0.255650	0.758580	0.381060
C791	C79	0.881560	0.395030	0.894070
C801	C80	0.861220	0.358150	0.914760
H311	H31	0.877400	0.334700	0.899500
C811	C81	0.817750	0.356470	0.957250
C821	C82	0.793110	0.391080	0.980710
H321	H32	0.763600	0.389600	0.010300
C831	C83	0.813040	0.428260	0.959500
C841	C84	0.857270	0.429930	0.915540
H331	H33	0.870500	0.454500	0.900600
C851	C85	0.927830	0.396340	0.843330
C861	C86	0.793790	0.317040	0.977640
C871	C87	0.786040	0.465990	0.980270
C881	C88	0.731530	0.466440	0.980240
H341	H34	0.713000	0.443700	0.966600
C891	C89	0.173470	0.767480	0.814350
C901	C90	0.124580	0.786350	0.814470
H351	H35	0.108100	0.793000	0.857300
C911	C91	0.201420	0.759260	0.884340
Cu71	Cu7	0.211210	0.768060	0.035160
O371	O37	0.944970	0.429240	0.823520
O381	O38	0.945270	0.363550	0.822890
O391	O39	0.751950	0.316410	0.012320
O401	O40	0.816630	0.286010	0.952520
O411	O41	0.178920	0.771250	0.939150
O421	O42	0.244350	0.741420	0.881060
C921	C92	0.381560	0.895030	0.894070
C931	C93	0.361220	0.858150	0.914760
H361	H36	0.377400	0.834700	0.899500
C941	C94	0.317750	0.856470	0.957250
C951	C95	0.293110	0.891080	0.980710
H371	H37	0.263600	0.889600	0.010300
C961	C96	0.313040	0.928260	0.959500
C971	C97	0.357270	0.929930	0.915540
H381	H38	0.370500	0.954500	0.900600
C981	C98	0.427830	0.896340	0.843330
C991	C99	0.293790	0.817040	0.977640
C1001	C100	0.286040	0.965990	0.980270
C1011	C101	0.231530	0.966440	0.980240
H391	H39	0.213000	0.943700	0.966600
C1021	C102	0.673470	0.267480	0.814350
C1031	C103	0.624580	0.286350	0.814470
H401	H40	0.608100	0.293000	0.857300
C1041	C104	0.701420	0.259260	0.884340
Cu81	Cu8	0.711210	0.268060	0.035160
O431	O43	0.444970	0.929240	0.823520
O441	O44	0.445270	0.863550	0.822890
O451	O45	0.251950	0.816410	0.012320
O461	O46	0.316630	0.786010	0.952520
O471	O47	0.678920	0.271250	0.939150
O481	O48	0.744350	0.241420	0.881060
C1051	C105	0.118440	0.395030	0.894070
C1061	C106	0.138780	0.358150	0.914760
H411	H41	0.122600	0.334700	0.899500
C1071	C107	0.182250	0.356470	0.957250
C1081	C108	0.206890	0.391080	0.980710
H421	H42	0.236400	0.389600	0.010300
C1091	C109	0.186960	0.428260	0.959500
C1101	C110	0.142730	0.429930	0.915540
H431	H43	0.129500	0.454500	0.900600
C1111	C111	0.072170	0.396340	0.843330
C1121	C112	0.206210	0.317040	0.977640
C1131	C113	0.213960	0.465990	0.980270
C1141	C114	0.268470	0.466440	0.980240
H441	H44	0.287000	0.443700	0.966600
C1151	C115	0.826530	0.767480	0.814350
C1161	C116	0.875420	0.786350	0.814470
H451	H45	0.891900	0.793000	0.857300
C1171	C117	0.798580	0.759260	0.884340
Cu91	Cu9	0.788790	0.768060	0.035160
O491	O49	0.055030	0.429240	0.823520
O501	O50	0.054730	0.363550	0.822890
O511	O51	0.248050	0.316410	0.012320
O521	O52	0.183370	0.286010	0.952520
O531	O53	0.821080	0.771250	0.939150
O541	O54	0.755650	0.741420	0.881060
C1181	C118	0.618440	0.895030	0.894070
C1191	C119	0.638780	0.858150	0.914760
H461	H46	0.622600	0.834700	0.899500
C1201	C120	0.682250	0.856470	0.957250
C1211	C121	0.706890	0.891080	0.980710
H471	H47	0.736400	0.889600	0.010300
C1221	C122	0.686960	0.928260	0.959500
C1231	C123	0.642730	0.929930	0.915540
H481	H48	0.629500	0.954500	0.900600
C1241	C124	0.572170	0.896340	0.843330
C1251	C125	0.706210	0.817040	0.977640
C1261	C126	0.713960	0.965990	0.980270
C1271	C127	0.768470	0.966440	0.980240
H491	H49	0.787000	0.943700	0.966600
C1281	C128	0.326530	0.267480	0.814350
C1291	C129	0.375420	0.286350	0.814470
H501	H50	0.391900	0.293000	0.857300
C1301	C130	0.298580	0.259260	0.884340
Cu101	Cu10	0.288790	0.268060	0.035160
O551	O55	0.555030	0.929240	0.823520
O561	O56	0.554730	0.863550	0.822890
O571	O57	0.748050	0.816410	0.012320
O581	O58	0.683370	0.786010	0.952520
O591	O59	0.321080	0.271250	0.939150
O601	O60	0.255650	0.241420	0.881060
C1311	C131	0.881560	0.604970	0.394070
C1321	C132	0.861220	0.641850	0.414760
H511	H51	0.877400	0.665300	0.399500
C1331	C133	0.817750	0.643530	0.457250
C1341	C134	0.793110	0.608920	0.480710
H521	H52	0.763600	0.610400	0.510300
C1351	C135	0.813040	0.571740	0.459500
C1361	C136	0.857270	0.570070	0.415540
H531	H53	0.870500	0.545500	0.400600
C1371	C137	0.927830	0.603660	0.343330
C1381	C138	0.793790	0.682960	0.477640
C1391	C139	0.786040	0.534010	0.480270
C1401	C140	0.731530	0.533560	0.480240
H541	H54	0.713000	0.556300	0.466600
C1411	C141	0.173470	0.232520	0.314350
C1421	C142	0.124580	0.213650	0.314470
H551	H55	0.108100	0.207000	0.357300
C1431	C143	0.201420	0.240740	0.384340
Cu111	Cu11	0.211210	0.231940	0.535160
O611	O61	0.944970	0.570760	0.323520
O621	O62	0.945270	0.636450	0.322890
O631	O63	0.751950	0.683590	0.512320
O641	O64	0.816630	0.713990	0.452520
O651	O65	0.178920	0.228750	0.439150
O661	O66	0.244350	0.258580	0.381060
C1441	C144	0.381560	0.104970	0.394070
C1451	C145	0.361220	0.141850	0.414760
H561	H56	0.377400	0.165300	0.399500
C1461	C146	0.317750	0.143530	0.457250
C1471	C147	0.293110	0.108920	0.480710
H571	H57	0.263600	0.110400	0.510300
C1481	C148	0.313040	0.071740	0.459500
C1491	C149	0.357270	0.070070	0.415540
H581	H58	0.370500	0.045500	0.400600
C1501	C150	0.427830	0.103660	0.343330
C1511	C151	0.293790	0.182960	0.477640
C1521	C152	0.286040	0.034010	0.480270
C1531	C153	0.231530	0.033560	0.480240
H591	H59	0.213000	0.056300	0.466600
C1541	C154	0.673470	0.732520	0.314350
C1551	C155	0.624580	0.713650	0.314470
H601	H60	0.608100	0.707000	0.357300
C1561	C156	0.701420	0.740740	0.384340
Cu121	Cu12	0.711210	0.731940	0.535160
O671	O67	0.444970	0.070760	0.323520
O681	O68	0.445270	0.136450	0.322890
O691	O69	0.251950	0.183590	0.512320
O701	O70	0.316630	0.213990	0.452520
O711	O71	0.678920	0.728750	0.439150
O721	O72	0.744350	0.758580	0.381060
C1571	C157	0.881560	0.395030	0.605930
C1581	C158	0.861220	0.358150	0.585240
H611	H61	0.877400	0.334700	0.600500
C1591	C159	0.817750	0.356470	0.542750
C1601	C160	0.793110	0.391080	0.519290
H621	H62	0.763600	0.389600	0.489700
C1611	C161	0.813040	0.428260	0.540500
C1621	C162	0.857270	0.429930	0.584460
H631	H63	0.870500	0.454500	0.599400
C1631	C163	0.927830	0.396340	0.656670
C1641	C164	0.793790	0.317040	0.522360
C1651	C165	0.786040	0.465990	0.519730
C1661	C166	0.731530	0.466440	0.519760
H641	H64	0.713000	0.443700	0.533400
C1671	C167	0.173470	0.767480	0.685650
C1681	C168	0.124580	0.786350	0.685530
H651	H65	0.108100	0.793000	0.642700
C1691	C169	0.201420	0.759260	0.615660
Cu131	Cu13	0.211210	0.768060	0.464840
O731	O73	0.944970	0.429240	0.676480
O741	O74	0.945270	0.363550	0.677110
O751	O75	0.751950	0.316410	0.487680
O761	O76	0.816630	0.286010	0.547480
O771	O77	0.178920	0.771250	0.560850
O781	O78	0.244350	0.741420	0.618940
C1701	C170	0.381560	0.895030	0.605930
C1711	C171	0.361220	0.858150	0.585240
H661	H66	0.377400	0.834700	0.600500
C1721	C172	0.317750	0.856470	0.542750
C1731	C173	0.293110	0.891080	0.519290
H671	H67	0.263600	0.889600	0.489700
C1741	C174	0.313040	0.928260	0.540500
C1751	C175	0.357270	0.929930	0.584460
H681	H68	0.370500	0.954500	0.599400
C1761	C176	0.427830	0.896340	0.656670
C1771	C177	0.293790	0.817040	0.522360
C1781	C178	0.286040	0.965990	0.519730
C1791	C179	0.231530	0.966440	0.519760
H691	H69	0.213000	0.943700	0.533400
C1801	C180	0.673470	0.267480	0.685650
C1811	C181	0.624580	0.286350	0.685530
H701	H70	0.608100	0.293000	0.642700
C1821	C182	0.701420	0.259260	0.615660
Cu141	Cu14	0.711210	0.268060	0.464840
O791	O79	0.444970	0.929240	0.676480
O801	O80	0.445270	0.863550	0.677110
O811	O81	0.251950	0.816410	0.487680
O821	O82	0.316630	0.786010	0.547480
O831	O83	0.678920	0.271250	0.560850
O841	O84	0.744350	0.241420	0.618940
C1831	C183	0.118440	0.604970	0.105930
C1841	C184	0.138780	0.641850	0.085240
H711	H71	0.122600	0.665300	0.100500
C1851	C185	0.182250	0.643530	0.042750
C1861	C186	0.206890	0.608920	0.019290
H721	H72	0.236400	0.610400	0.989700
C1871	C187	0.186960	0.571740	0.040500
C1881	C188	0.142730	0.570070	0.084460
H731	H73	0.129500	0.545500	0.099400
C1891	C189	0.072170	0.603660	0.156670
C1901	C190	0.206210	0.682960	0.022360
C1911	C191	0.213960	0.534010	0.019730
C1921	C192	0.268470	0.533560	0.019760
H741	H74	0.287000	0.556300	0.033400
C1931	C193	0.826530	0.232520	0.185650
C1941	C194	0.875420	0.213650	0.185530
H751	H75	0.891900	0.207000	0.142700
C1951	C195	0.798580	0.240740	0.115660
Cu151	Cu15	0.788790	0.231940	0.964840
O851	O85	0.055030	0.570760	0.176480
O861	O86	0.054730	0.636450	0.177110
O871	O87	0.248050	0.683590	0.987680
O881	O88	0.183370	0.713990	0.047480
O891	O89	0.821080	0.228750	0.060850
O901	O90	0.755650	0.258580	0.118940
C1961	C196	0.618440	0.104970	0.105930
C1971	C197	0.638780	0.141850	0.085240
H761	H76	0.622600	0.165300	0.100500
C1981	C198	0.682250	0.143530	0.042750
C1991	C199	0.706890	0.108920	0.019290
H771	H77	0.736400	0.110400	0.989700
C2001	C200	0.686960	0.071740	0.040500
C2011	C201	0.642730	0.070070	0.084460
H781	H78	0.629500	0.045500	0.099400
C2021	C202	0.572170	0.103660	0.156670
C2031	C203	0.706210	0.182960	0.022360
C2041	C204	0.713960	0.034010	0.019730
C2051	C205	0.768470	0.033560	0.019760
H791	H79	0.787000	0.056300	0.033400
C2061	C206	0.326530	0.732520	0.185650
C2071	C207	0.375420	0.713650	0.185530
H801	H80	0.391900	0.707000	0.142700
C2081	C208	0.298580	0.740740	0.115660
Cu161	Cu16	0.288790	0.731940	0.964840
O911	O91	0.555030	0.070760	0.176480
O921	O92	0.554730	0.136450	0.177110
O931	O93	0.748050	0.183590	0.987680
O941	O94	0.683370	0.213990	0.047480
O951	O95	0.321080	0.728750	0.060850
O961	O96	0.255650	0.758580	0.118940
C2091	C209	0.813560	0.500000	0.000000
H811	H81	0.850300	0.500000	0.000000
N11	N1	0.704370	0.500000	0.000000
C2101	C210	0.313560	0.000000	0.000000
H821	H82	0.350300	0.000000	0.000000
N21	N2	0.204370	0.000000	0.000000
C2111	C211	0.186440	0.500000	0.500000
H831	H83	0.149700	0.500000	0.500000
N31	N3	0.295630	0.500000	0.500000
C2121	C212	0.686440	0.000000	0.500000
H841	H84	0.649700	0.000000	0.500000
N41	N4	0.795630	0.000000	0.500000
C2131	C213	0.186440	0.500000	0.000000
H851	H85	0.149700	0.500000	0.000000
N51	N5	0.295630	0.500000	0.000000
C2141	C214	0.686440	0.000000	0.000000
H861	H86	0.649700	0.000000	0.000000
N61	N6	0.795630	0.000000	0.000000
C2151	C215	0.813560	0.500000	0.500000
H871	H87	0.850300	0.500000	0.500000
N71	N7	0.704370	0.500000	0.500000
C2161	C216	0.313560	0.000000	0.500000
H881	H88	0.350300	0.000000	0.500000
N81	N8	0.204370	0.000000	0.500000
C2171	C217	0.196970	0.242330	0.250000
H891	H89	0.229200	0.255800	0.250000
C2181	C218	0.100980	0.205010	0.250000
C2191	C219	0.049400	0.181640	0.250000
C2201	C220	0.049550	0.140270	0.250000
H901	H90	0.081500	0.126500	0.250000
C2211	C221	0.696970	0.742330	0.250000
H911	H91	0.729200	0.755800	0.250000
C2221	C222	0.600980	0.705010	0.250000
C2231	C223	0.549400	0.681640	0.250000
C2241	C224	0.549550	0.640270	0.250000
H921	H92	0.581500	0.626500	0.250000
C2251	C225	0.803030	0.757670	0.750000
H931	H93	0.770800	0.744200	0.750000
C2261	C226	0.899020	0.794990	0.750000
C2271	C227	0.950600	0.818360	0.750000
C2281	C228	0.950450	0.859730	0.750000
H941	H94	0.918500	0.873500	0.750000
C2291	C229	0.303030	0.257670	0.750000
H951	H95	0.270800	0.244200	0.750000
C2301	C230	0.399020	0.294990	0.750000
C2311	C231	0.450600	0.318360	0.750000
C2321	C232	0.450450	0.359730	0.750000
H961	H96	0.418500	0.373500	0.750000
C2331	C233	0.803030	0.242330	0.250000
H971	H97	0.770800	0.255800	0.250000
C2341	C234	0.899020	0.205010	0.250000
C2351	C235	0.950600	0.181640	0.250000
C2361	C236	0.950450	0.140270	0.250000
H981	H98	0.918500	0.126500	0.250000
C2371	C237	0.303030	0.742330	0.250000
H991	H99	0.270800	0.755800	0.250000
C2381	C238	0.399020	0.705010	0.250000
C2391	C239	0.450600	0.681640	0.250000
C2401	C240	0.450450	0.640270	0.250000
H1001	H100	0.418500	0.626500	0.250000
C2411	C241	0.196970	0.757670	0.750000
H1011	H101	0.229200	0.744200	0.750000
C2421	C242	0.100980	0.794990	0.750000
C2431	C243	0.049400	0.818360	0.750000
C2441	C244	0.049550	0.859730	0.750000
H1021	H102	0.081500	0.873500	0.750000
C2451	C245	0.696970	0.257670	0.750000
H1031	H103	0.729200	0.244200	0.750000
C2461	C246	0.600980	0.294990	0.750000
C2471	C247	0.549400	0.318360	0.750000
C2481	C248	0.549550	0.359730	0.750000
H1041	H104	0.581500	0.373500	0.750000
C2491	C249	0.000000	0.201160	0.250000
H1051	H105	0.000000	0.228900	0.250000
N91	N9	0.000000	0.118350	0.250000
Cu171	Cu17	0.000000	0.564070	0.250000
Cu181	Cu18	0.000000	0.643200	0.250000
C2501	C250	0.500000	0.701160	0.250000
H1061	H106	0.500000	0.728900	0.250000
N101	N10	0.500000	0.618350	0.250000
Cu191	Cu19	0.500000	0.064070	0.250000
Cu201	Cu20	0.500000	0.143200	0.250000
C2511	C251	0.000000	0.798840	0.750000
H1071	H107	0.000000	0.771100	0.750000
N111	N11	0.000000	0.881650	0.750000
Cu211	Cu21	0.000000	0.435930	0.750000
Cu221	Cu22	0.000000	0.356800	0.750000
C2521	C252	0.500000	0.298840	0.750000
H1081	H108	0.500000	0.271100	0.750000
N121	N12	0.500000	0.381650	0.750000
Cu231	Cu23	0.500000	0.935930	0.750000
Cu241	Cu24	0.500000	0.856800	0.750000
