data_cg500975j_si_002_clean_PM
_symmetry_space_group_name_H-M	'P1'
_cell_length_a	8.857000
_cell_length_b	16.097000
_cell_length_c	31.574000
_cell_angle_alpha	90.000000
_cell_angle_beta	90.000000
_cell_angle_gamma	92.152000
_symmetry_Int_Tables_number 1

loop_
_symmetry_equiv_pos_as_xyz
'x,y,z'

loop_
_atom_site_label
_atom_site_type_symbol
_atom_site_fract_x
_atom_site_fract_y
_atom_site_fract_z
Ni11	Ni1	0.324230	0.017470	0.333930
Ni21	Ni2	0.824230	0.517470	0.166070
Ni31	Ni3	0.675770	0.982530	0.666070
Ni41	Ni4	0.175770	0.482530	0.833930
H11	H1	0.490800	0.217200	0.463500
H21	H2	0.017900	0.625100	0.445100
H31	H3	0.292800	0.935000	0.867300
H41	H4	0.703700	0.008100	0.345700
H51	H5	0.844700	0.092700	0.055100
H61	H6	0.513500	0.946600	0.203700
H71	H7	0.533600	0.765900	0.293200
H81	H8	0.081800	0.887500	0.176700
H91	H9	0.647700	0.381600	0.883500
H101	H10	0.043500	0.026600	0.662300
H111	H11	0.831300	0.533000	0.454200
H121	H12	0.418200	0.612500	0.676700
H131	H13	0.279600	0.151400	0.933500
H141	H14	0.210700	0.032000	0.725000
H151	H15	0.509200	0.782800	0.536500
H161	H16	0.996700	0.883700	0.106600
H171	H17	0.037400	0.002400	0.540900
H181	H18	0.982100	0.374900	0.554900
H191	H19	0.204600	0.235700	0.471800
H201	H20	0.475300	0.661800	0.496500
H211	H21	0.268000	0.640900	0.888900
H221	H22	0.127400	0.744700	0.414900
H231	H23	0.852300	0.118400	0.383500
H241	H24	0.003300	0.116300	0.893400
H251	H25	0.543500	0.526600	0.837700
H261	H26	0.289300	0.468000	0.225000
H271	H27	0.352300	0.618400	0.116500
H281	H28	0.100000	0.600100	0.564400
H291	H29	0.295400	0.264300	0.971800
H301	H30	0.486500	0.053400	0.796300
H311	H31	0.986500	0.553400	0.703700
H321	H32	0.796300	0.491900	0.845700
H331	H33	0.135500	0.720200	0.605300
H341	H34	0.711900	0.433600	0.703100
H351	H35	0.872600	0.255300	0.585100
H361	H36	0.655300	0.407300	0.555100
H371	H37	0.864500	0.279800	0.394700
H381	H38	0.768000	0.140900	0.611100
H391	H39	0.364500	0.779800	0.105300
H401	H40	0.024700	0.838200	0.996500
H411	H41	0.456500	0.473400	0.162300
H421	H42	0.627400	0.244700	0.085100
H431	H43	0.218400	0.989200	0.236800
H441	H44	0.344700	0.592700	0.444900
H451	H45	0.788100	0.066400	0.203100
H461	H46	0.629500	0.675500	0.242500
H471	H47	0.462600	0.497600	0.040900
H481	H48	0.211900	0.933600	0.796900
H491	H49	0.707200	0.065000	0.132700
H501	H50	0.537400	0.502400	0.959100
H511	H51	0.033600	0.265900	0.206800
H521	H52	0.113600	0.089700	0.411200
H531	H53	0.918200	0.112500	0.823300
H541	H54	0.013500	0.446600	0.296300
H551	H55	0.482100	0.874900	0.945100
H561	H56	0.207200	0.565000	0.367300
H571	H57	0.581800	0.387500	0.323300
H581	H58	0.386400	0.410300	0.911200
H591	H59	0.466400	0.234100	0.706800
H601	H60	0.496700	0.383700	0.393400
H611	H61	0.870500	0.824500	0.742500
H621	H62	0.792800	0.435000	0.632700
H631	H63	0.600000	0.100100	0.935600
H641	H64	0.795400	0.764300	0.528200
H651	H65	0.718400	0.489200	0.263200
H661	H66	0.900000	0.399900	0.435600
H671	H67	0.168700	0.467000	0.545800
H681	H68	0.129500	0.175500	0.257500
H691	H69	0.596400	0.853400	0.152400
H701	H70	0.009200	0.282800	0.963500
H711	H71	0.613600	0.589700	0.088800
H721	H72	0.720400	0.848600	0.066500
H731	H73	0.400000	0.899900	0.064400
H741	H74	0.732000	0.359100	0.111100
H751	H75	0.203700	0.508100	0.154300
H761	H76	0.779600	0.651400	0.566500
H771	H77	0.588400	0.839300	0.604100
H781	H78	0.886400	0.910300	0.588800
H791	H79	0.403600	0.146600	0.847600
H801	H80	0.147700	0.881600	0.616500
H811	H81	0.288100	0.566400	0.296900
H821	H82	0.281600	0.510800	0.736800
H831	H83	0.100100	0.115800	0.502800
H841	H84	0.781600	0.010800	0.763200
H851	H85	0.399900	0.384200	0.002800
H861	H86	0.331300	0.033000	0.045800
H871	H87	0.372600	0.755300	0.914900
H881	H88	0.962600	0.997600	0.459100
H891	H89	0.232000	0.859100	0.388900
H901	H90	0.096400	0.353400	0.347600
H911	H91	0.668700	0.967000	0.954200
H921	H92	0.789300	0.968000	0.275000
H931	H93	0.296300	0.991900	0.654300
H941	H94	0.220400	0.348600	0.433500
H951	H95	0.903600	0.646600	0.652400
H961	H96	0.503300	0.616300	0.606600
H971	H97	0.088400	0.339300	0.895900
H981	H98	0.710700	0.532000	0.775000
H991	H99	0.411600	0.160700	0.395900
H1001	H100	0.911600	0.660700	0.104100
H1011	H101	0.635500	0.220200	0.894700
H1021	H102	0.990800	0.717200	0.036500
H1031	H103	0.517900	0.125100	0.054900
H1041	H104	0.155300	0.907300	0.944900
H1051	H105	0.956500	0.973400	0.337700
H1061	H106	0.975300	0.161800	0.003500
H1071	H107	0.899900	0.884200	0.497200
H1081	H108	0.600100	0.615800	0.997200
H1091	H109	0.704600	0.735700	0.028200
H1101	H110	0.524700	0.338200	0.503500
H1111	H111	0.966400	0.734100	0.793200
H1121	H112	0.370500	0.324500	0.757500
C11	C1	0.709400	0.528720	0.567500
C21	C2	0.923300	0.831330	0.486130
C31	C3	0.195200	0.957370	0.957220
C41	C4	0.519300	0.326360	0.048000
C51	C5	0.462600	0.925620	0.286250
C61	C6	0.105000	0.230290	0.265450
C71	C7	0.390100	0.181950	0.011140
C81	C8	0.179900	0.395530	0.492320
C91	C9	0.594000	0.326730	0.481500
C101	C10	0.489100	0.475200	0.190950
C111	C11	0.076700	0.168670	0.513870
C121	C12	0.510900	0.524800	0.809050
C131	C13	0.576700	0.668670	0.986130
C141	C14	0.330400	0.529210	0.316580
C151	C15	0.412800	0.163800	0.818890
C161	C16	0.427000	0.745060	0.542510
C171	C17	0.440500	0.476140	0.303680
C181	C18	0.537400	0.074380	0.713750
C191	C19	0.698900	0.968170	0.983050
C201	C20	0.663000	0.053330	0.360740
C211	C21	0.830400	0.029210	0.183420
C221	C22	0.618300	0.530850	0.087440
C231	C23	0.820100	0.604470	0.507680
C241	C24	0.008100	0.322040	0.544320
C251	C25	0.784200	0.117750	0.973650
C261	C26	0.828600	0.261940	0.924790
C271	C27	0.815800	0.363150	0.441110
C281	C28	0.536200	0.891480	0.211580
C291	C29	0.896600	0.972200	0.274840
C301	C30	0.963800	0.608520	0.711580
C311	C31	0.491900	0.177960	0.044320
C321	C32	0.657400	0.527220	0.612560
C331	C33	0.463800	0.108520	0.788420
C341	C34	0.282000	0.528060	0.358340
C351	C35	0.003200	0.635950	0.111960
C361	C36	0.518500	0.866100	0.253570
C371	C37	0.782000	0.028060	0.141660
C381	C38	0.535600	0.480670	0.060840
C391	C39	0.671400	0.238060	0.424790
C401	C40	0.868200	0.016510	0.745540
C411	C41	0.049800	0.284410	0.235060
C421	C42	0.450200	0.215590	0.735060
C431	C43	0.209400	0.028720	0.932500
C441	C44	0.695200	0.457370	0.542780
C451	C45	0.245300	0.613370	0.118460
C461	C46	0.605000	0.730290	0.234550
C471	C47	0.728900	0.897590	0.049750
C481	C48	0.669600	0.470790	0.683420
C491	C49	0.124400	0.256200	0.307420
C501	C50	0.812300	0.803020	0.659920
C511	C51	0.163000	0.553330	0.139260
C521	C52	0.046100	0.078940	0.873910
C531	C53	0.316800	0.594480	0.900450
C541	C54	0.406000	0.673270	0.518500
C551	C55	0.503200	0.135950	0.388040
C561	C56	0.059500	0.023860	0.803680
C571	C57	0.187700	0.196980	0.340080
C581	C58	0.443000	0.750770	0.937430
C591	C59	0.508100	0.822040	0.955680
C601	C60	0.395000	0.269710	0.765450
C611	C61	0.103400	0.027800	0.725160
C621	C62	0.989100	0.975200	0.309050
C631	C63	0.004200	0.922780	0.167860
C641	C64	0.035600	0.980670	0.439160
C651	C65	0.171400	0.738060	0.075210
C661	C66	0.037400	0.574380	0.786250
C671	C67	0.464400	0.519330	0.939160
C681	C68	0.704800	0.208210	0.916630
C691	C69	0.738600	0.457860	0.500180
C701	C70	0.895000	0.769710	0.734550
C711	C71	0.254700	0.886630	0.618460
C721	C72	0.842600	0.972780	0.112560
C731	C73	0.573000	0.254940	0.457490
C741	C74	0.890100	0.681950	0.488860
C751	C75	0.381700	0.469150	0.912560
C761	C76	0.639700	0.740340	0.004460
C771	C77	0.019300	0.826360	0.452000
C781	C78	0.018500	0.366100	0.246430
C791	C79	0.261400	0.542140	0.499820
C801	C80	0.996800	0.364050	0.888040
C811	C81	0.761400	0.042140	0.000180
C821	C82	0.624400	0.756200	0.192580
C831	C83	0.238600	0.957860	0.999820
C841	C84	0.801100	0.531830	0.483050
C851	C85	0.271100	0.102410	0.950250
C861	C86	0.718000	0.471940	0.641660
C871	C87	0.183200	0.905520	0.400450
C881	C88	0.795200	0.291790	0.416630
C891	C89	0.603400	0.527800	0.774840
C901	C90	0.480700	0.673640	0.952000
C911	C91	0.940500	0.976140	0.196320
C921	C92	0.687700	0.696980	0.159920
C931	C93	0.557000	0.249230	0.062570
C941	C94	0.981500	0.633900	0.753570
C951	C95	0.950200	0.715590	0.764940
C961	C96	0.423300	0.331330	0.013870
C971	C97	0.504200	0.422780	0.332140
C981	C98	0.204800	0.708210	0.583370
C991	C99	0.320100	0.104470	0.992320
C1001	C100	0.546100	0.578940	0.626090
C1011	C101	0.337000	0.946670	0.639260
C1021	C102	0.559500	0.523860	0.696320
C1031	C103	0.609900	0.818050	0.988860
C1041	C104	0.036200	0.391480	0.288420
C1051	C105	0.368200	0.516510	0.754460
C1061	C106	0.587200	0.836200	0.181110
C1071	C107	0.684200	0.136850	0.941110
C1081	C108	0.157400	0.027220	0.887440
C1091	C109	0.745300	0.113370	0.381540
C1101	C110	0.906000	0.173270	0.981500
C1111	C111	0.109900	0.318050	0.511140
C1121	C112	0.218000	0.971940	0.858340
C1131	C113	0.057000	0.749230	0.437430
C1141	C114	0.087200	0.336200	0.318890
C1151	C115	0.631800	0.483490	0.245540
C1161	C116	0.169600	0.970790	0.816580
C1171	C117	0.943000	0.250770	0.562570
C1181	C118	0.295200	0.791790	0.083370
C1191	C119	0.953900	0.921060	0.126090
C1201	C120	0.328600	0.761940	0.575210
C1211	C121	0.995800	0.077220	0.832140
C1221	C122	0.290600	0.471280	0.432500
C1231	C123	0.301100	0.031830	0.016950
C1241	C124	0.228900	0.397590	0.450250
C1251	C125	0.396600	0.472200	0.225160
C1261	C126	0.964400	0.019330	0.560840
C1271	C127	0.312300	0.303020	0.840080
C1281	C128	0.495800	0.577220	0.667860
C1291	C129	0.481500	0.133900	0.746430
C1301	C130	0.837000	0.446670	0.860740
C1311	C131	0.754700	0.386630	0.881540
C1321	C132	0.073000	0.754940	0.042510
C1331	C133	0.980700	0.173640	0.548000
C1341	C134	0.804800	0.042630	0.042780
C1351	C135	0.715800	0.382250	0.473650
C1361	C136	0.315800	0.863150	0.058890
C1371	C137	0.860300	0.759660	0.504460
C1381	C138	0.991900	0.677960	0.455680
C1391	C139	0.683200	0.405520	0.099550
C1401	C140	0.875600	0.743800	0.692580
C1411	C141	0.304800	0.542630	0.457220
C1421	C142	0.453900	0.421060	0.373910
C1431	C143	0.790600	0.971280	0.067500
C1441	C144	0.118300	0.030850	0.412560
C1451	C145	0.215800	0.882250	0.026350
C1461	C146	0.549800	0.784410	0.264940
C1471	C147	0.198900	0.468170	0.516950
C1481	C148	0.184200	0.636850	0.558890
C1491	C149	0.375600	0.243800	0.807420
C1501	C150	0.927000	0.245060	0.957490
C1511	C151	0.912800	0.663800	0.681110
C1521	C152	0.360300	0.259660	0.995540
C1531	C153	0.010900	0.024800	0.690950
C1541	C154	0.496800	0.864050	0.611960
C1551	C155	0.284200	0.617750	0.526350
C1561	C156	0.962600	0.425620	0.213750
C1571	C157	0.131800	0.983490	0.254460
C1581	C158	0.679900	0.895530	0.007680
C1591	C159	0.881700	0.969150	0.587440
C1601	C160	0.094000	0.826730	0.018500
C1611	C161	0.139700	0.240340	0.495540
C1621	C162	0.771100	0.602410	0.549750
C1631	C163	0.816800	0.094480	0.599550
C1641	C164	0.342600	0.472780	0.387440
N11	N1	0.857140	0.334230	0.899360
N21	N2	0.989090	0.431940	0.864710
N31	N3	0.011430	0.023580	0.760180
N41	N4	0.511430	0.523580	0.739820
N51	N5	0.510910	0.068060	0.364710
N61	N6	0.577880	0.400680	0.068350
N71	N7	0.077880	0.900680	0.431650
N81	N8	0.642860	0.165770	0.399360
N91	N9	0.922120	0.099320	0.568350
N101	N10	0.209060	0.983620	0.388160
N111	N11	0.142860	0.665770	0.100640
N121	N12	0.988570	0.976420	0.239820
N131	N13	0.489090	0.931940	0.635290
N141	N14	0.010910	0.568060	0.135290
N151	N15	0.290940	0.516380	0.888160
N161	N16	0.363060	0.518550	0.796100
N171	N17	0.790940	0.016380	0.611840
N181	N18	0.488570	0.476420	0.260180
N191	N19	0.863060	0.018550	0.703900
N201	N20	0.709060	0.483620	0.111840
N211	N21	0.136940	0.981450	0.296100
N221	N22	0.636940	0.481450	0.203900
N231	N23	0.422120	0.599320	0.931650
N241	N24	0.357140	0.834230	0.600640
O11	O1	0.921060	0.399300	0.177630
O21	O2	0.248790	0.134060	0.324290
O31	O3	0.078940	0.600700	0.822370
O41	O4	0.751210	0.865940	0.675710
O51	O5	0.421060	0.899300	0.322370
O61	O6	0.748790	0.634060	0.175710
O71	O7	0.251210	0.365940	0.824290
O81	O8	0.325320	0.285750	0.878510
O91	O9	0.955090	0.501790	0.223490
O101	O10	0.825320	0.785750	0.621490
O111	O11	0.578940	0.100700	0.677630
O121	O12	0.674680	0.714250	0.121490
O131	O13	0.174680	0.214250	0.378510
O141	O14	0.455090	0.001790	0.276510
O151	O15	0.544910	0.998210	0.723490
O161	O16	0.044910	0.498210	0.776510
