data_cg500149s_si_002_clean_PM
_symmetry_space_group_name_H-M	'P1'
_cell_length_a	13.485500
_cell_length_b	14.566300
_cell_length_c	15.352300
_cell_angle_alpha	114.087000
_cell_angle_beta	116.053000
_cell_angle_gamma	90.000000
_symmetry_Int_Tables_number 1

loop_
_symmetry_equiv_pos_as_xyz
'x,y,z'

loop_
_atom_site_label
_atom_site_type_symbol
_atom_site_fract_x
_atom_site_fract_y
_atom_site_fract_z
Cu11	Cu1	0.454290	0.848600	0.388600
Cu21	Cu2	0.545710	0.151400	0.611400
Cu31	Cu3	0.934310	0.348600	0.388600
Cu41	Cu4	0.065690	0.651400	0.611400
H11	H1	0.216300	0.123000	0.533600
H21	H2	0.225300	0.608600	0.951600
H31	H3	0.938200	0.652100	0.256000
H41	H4	0.743900	0.654200	0.126400
H51	H5	0.166900	0.344000	0.271400
H61	H6	0.682200	0.847900	0.744000
H71	H7	0.682700	0.377000	0.466400
H81	H8	0.579100	0.390800	0.934800
H91	H9	0.564300	0.555900	0.397600
H101	H10	0.104500	0.844000	0.271400
H111	H11	0.517600	0.437800	0.307400
H121	H12	0.650600	0.168200	0.342200
H131	H13	0.349400	0.831800	0.657800
H141	H14	0.699900	0.040300	0.224200
H151	H15	0.598400	0.865400	0.148800
H161	H16	0.256100	0.345800	0.873600
H171	H17	0.783700	0.877000	0.466400
H181	H18	0.312300	0.356500	0.230600
H191	H19	0.833300	0.055900	0.397600
H201	H20	0.937500	0.345300	0.579800
H211	H21	0.691600	0.668200	0.342200
H221	H22	0.605100	0.511400	0.824800
H231	H23	0.694200	0.355400	0.296200
H241	H24	0.317300	0.623000	0.533600
H251	H25	0.210200	0.062200	0.692600
H261	H26	0.357700	0.154700	0.420200
H271	H27	0.318600	0.829700	0.495600
H281	H28	0.085400	0.621800	0.801400
H291	H29	0.774700	0.391400	0.048400
H301	H30	0.449600	0.634600	0.851200
H311	H31	0.789800	0.937800	0.307400
H321	H32	0.833100	0.656000	0.728600
H331	H33	0.475700	0.459700	0.775800
H341	H34	0.687700	0.643500	0.769400
H351	H35	0.308400	0.331800	0.657800
H361	H36	0.780300	0.988600	0.175200
H371	H37	0.550400	0.365400	0.148800
H381	H38	0.166700	0.944100	0.602400
H391	H39	0.617500	0.845800	0.873600
H401	H40	0.420900	0.609200	0.065200
H411	H41	0.968400	0.865600	0.504800
H421	H42	0.398000	0.144600	0.703800
H431	H43	0.061800	0.347900	0.744000
H441	H44	0.355700	0.890800	0.934800
H451	H45	0.524300	0.540300	0.224200
H461	H46	0.273700	0.891400	0.048400
H471	H47	0.317800	0.152100	0.256000
H481	H48	0.642300	0.845300	0.579800
H491	H49	0.482400	0.562200	0.692600
H501	H50	0.394900	0.488600	0.175200
H511	H51	0.726300	0.108600	0.951600
H521	H52	0.536400	0.365600	0.504800
H531	H53	0.463600	0.634400	0.495200
H541	H54	0.918300	0.856500	0.230600
H551	H55	0.219700	0.011400	0.824800
H561	H56	0.914600	0.378200	0.198600
H571	H57	0.177000	0.329700	0.495600
H581	H58	0.895500	0.156000	0.728600
H591	H59	0.382500	0.154200	0.126400
H601	H60	0.284000	0.878200	0.198600
H611	H61	0.716000	0.121800	0.801400
H621	H62	0.062500	0.654700	0.420200
H631	H63	0.300100	0.959700	0.775800
H641	H64	0.644300	0.109200	0.065200
H651	H65	0.031600	0.134400	0.495200
H661	H66	0.681400	0.170300	0.504400
H671	H67	0.602000	0.855400	0.296200
H681	H68	0.081700	0.143500	0.769400
H691	H69	0.305800	0.644600	0.703800
H701	H70	0.401600	0.134600	0.851200
H711	H71	0.823000	0.670300	0.504400
H721	H72	0.435700	0.444100	0.602400
C11	C1	0.866510	0.523410	0.566220
C21	C2	0.045790	0.075290	0.448980
C31	C3	0.165430	0.994630	0.668660
C41	C4	0.403190	0.575290	0.448980
C51	C5	0.683980	0.431680	0.528160
C61	C6	0.558450	0.380350	0.982300
C71	C7	0.316020	0.568320	0.471840
C81	C8	0.289380	0.637880	0.755360
C91	C9	0.375340	0.631540	0.842680
C101	C10	0.624660	0.368460	0.157320
C111	C11	0.912360	0.654160	0.305120
C121	C12	0.454780	0.148880	0.173160
C131	C13	0.348680	0.875680	0.188360
C141	C14	0.718380	0.648880	0.173160
C151	C15	0.657810	0.116510	0.901820
C161	C16	0.160320	0.624320	0.811640
C171	C17	0.845700	0.665000	0.452400
C181	C18	0.520890	0.844490	0.720780
C191	C19	0.465980	0.137880	0.755360
C201	C20	0.755990	0.383490	0.098180
C211	C21	0.503230	0.494630	0.668660
C221	C22	0.014140	0.344140	0.596880
C231	C23	0.087640	0.345840	0.694880
C241	C24	0.834570	0.005370	0.331340
C251	C25	0.954210	0.924710	0.551020
C261	C26	0.417260	0.155860	0.403120
C271	C27	0.564920	0.356320	0.724840
C281	C28	0.565730	0.120430	0.918860
C291	C29	0.766880	0.663680	0.355960
C301	C30	0.089850	0.903550	0.316700
C311	C31	0.576150	0.119650	0.017700
C321	C32	0.410920	0.836320	0.644040
C331	C33	0.800110	0.655510	0.279220
C341	C34	0.281620	0.351120	0.826840
C351	C35	0.651320	0.124320	0.811640
C361	C36	0.582740	0.844140	0.596880
C371	C37	0.021120	0.089220	0.707240
C381	C38	0.403380	0.496780	0.358960
C391	C39	0.839680	0.375680	0.188360
C401	C40	0.342190	0.883490	0.098180
C411	C41	0.462030	0.539230	0.241660
C421	C42	0.840080	0.143680	0.275160
C431	C43	0.393300	0.835000	0.547600
C441	C44	0.434270	0.879570	0.081140
C451	C45	0.300290	0.976590	0.433780
C461	C46	0.589080	0.163680	0.355960
C471	C47	0.699710	0.023410	0.566220
C481	C48	0.220370	0.960770	0.758340
C491	C49	0.441550	0.619650	0.017700
C501	C50	0.537970	0.460770	0.758340
C511	C51	0.985860	0.655860	0.403120
C521	C52	0.226790	0.482890	0.406380
C531	C53	0.534020	0.862120	0.244640
C541	C54	0.773150	0.596450	0.683300
C551	C55	0.392760	0.154160	0.305120
C561	C56	0.710620	0.362120	0.244640
C571	C57	0.545220	0.851120	0.826840
C581	C58	0.044420	0.003220	0.641040
C591	C59	0.646870	0.379570	0.081140
C601	C60	0.496770	0.505370	0.331340
C611	C61	0.607240	0.845840	0.694880
C621	C62	0.978880	0.910780	0.292760
C631	C63	0.179590	0.982890	0.406380
C641	C64	0.244010	0.616510	0.901820
C651	C65	0.844180	0.931680	0.528160
C661	C66	0.820410	0.017110	0.593620
C671	C67	0.353130	0.620430	0.918860
C681	C68	0.779630	0.039230	0.241660
C691	C69	0.155820	0.068320	0.471840
C701	C70	0.233120	0.336320	0.644040
C711	C71	0.467340	0.131540	0.842680
C721	C72	0.606700	0.165000	0.452400
C731	C73	0.423850	0.880350	0.982300
C741	C74	0.596620	0.503220	0.641040
C751	C75	0.686120	0.589220	0.707240
C761	C76	0.479110	0.155510	0.279220
C771	C77	0.226850	0.403550	0.316700
C781	C78	0.199890	0.344490	0.720780
C791	C79	0.154300	0.335000	0.547600
C801	C80	0.159920	0.856320	0.724840
C811	C81	0.313880	0.410780	0.292760
C821	C82	0.133490	0.476590	0.433780
C831	C83	0.435080	0.643680	0.275160
C841	C84	0.773210	0.517110	0.593620
C851	C85	0.532660	0.868460	0.157320
C861	C86	0.955580	0.996780	0.358960
C871	C87	0.596810	0.424710	0.551020
C881	C88	0.910150	0.096450	0.683300
N11	N1	0.386760	0.364260	0.855520
N21	N2	0.531240	0.135740	0.144480
N31	N3	0.454610	0.367310	0.958420
N41	N4	0.545390	0.632690	0.041580
N51	N5	0.468760	0.864260	0.855520
N61	N6	0.046460	0.340980	0.524720
N71	N7	0.953540	0.659020	0.475280
N81	N8	0.496190	0.132690	0.041580
N91	N9	0.613240	0.635740	0.144480
N101	N10	0.478260	0.840980	0.524720
N111	N11	0.556700	0.135100	0.739800
N121	N12	0.443300	0.864900	0.260200
N131	N13	0.183100	0.635100	0.739800
N141	N14	0.816900	0.364900	0.260200
N151	N15	0.503810	0.867310	0.958420
N161	N16	0.521740	0.159020	0.475280
O11	O1	0.376990	0.047590	0.519420
O21	O2	0.623010	0.952410	0.480580
O31	O3	0.165890	0.779820	0.649800
O41	O4	0.834110	0.220180	0.350200
O51	O5	0.945730	0.601960	0.631420
O61	O6	0.335930	0.653830	0.230460
O71	O7	0.142430	0.547590	0.519420
O81	O8	0.894530	0.153830	0.230460
O91	O9	0.054270	0.398040	0.368580
O101	O10	0.685690	0.101960	0.631420
O111	O11	0.105470	0.846170	0.769540
O121	O12	0.664070	0.346170	0.769540
O131	O13	0.857570	0.452410	0.480580
O141	O14	0.516090	0.720180	0.350200
O151	O15	0.483910	0.279820	0.649800
O161	O16	0.314310	0.898040	0.368580
