data_cg500033b_si_003_clean_PM
_symmetry_space_group_name_H-M	'P1'
_cell_length_a	8.192300
_cell_length_b	14.015900
_cell_length_c	23.302500
_cell_angle_alpha	98.562000
_cell_angle_beta	90.000000
_cell_angle_gamma	106.993000
_symmetry_Int_Tables_number 1

loop_
_symmetry_equiv_pos_as_xyz
'x,y,z'

loop_
_atom_site_label
_atom_site_type_symbol
_atom_site_fract_x
_atom_site_fract_y
_atom_site_fract_z
Zn11	Zn1	0.662070	0.080880	0.501600
Zn21	Zn2	0.581190	0.919120	0.998400
Zn31	Zn3	0.418810	0.080880	0.001600
Zn41	Zn4	0.337930	0.919120	0.498400
H11	H1	0.446800	0.284200	0.969200
H21	H2	0.067600	0.126200	0.744500
H31	H3	0.699000	0.598600	0.023500
H41	H4	0.231500	0.681200	0.948200
H51	H5	0.259900	0.230000	0.577600
H61	H6	0.788800	0.279600	0.896400
H71	H7	0.550300	0.318800	0.551800
H81	H8	0.058600	0.126200	0.244500
H91	H9	0.098100	0.852400	0.640500
H101	H10	0.301000	0.401400	0.976500
H111	H11	0.864100	0.954600	0.341200
H121	H12	0.497900	0.384600	0.606900
H131	H13	0.113300	0.615400	0.893100
H141	H14	0.245700	0.147600	0.859500
H151	H15	0.502100	0.615400	0.393100
H161	H16	0.970900	0.930600	0.085600
H171	H17	0.959700	0.930600	0.585600
H181	H18	0.162600	0.715800	0.530800
H191	H19	0.740100	0.770000	0.422400
H201	H20	0.901900	0.147600	0.359500
H211	H21	0.653100	0.647200	0.662500
H221	H22	0.400100	0.749400	0.332400
H231	H23	0.040300	0.069400	0.414400
H241	H24	0.005900	0.352800	0.837500
H251	H25	0.932400	0.873800	0.255500
H261	H26	0.535600	0.335000	0.752900
H271	H27	0.899600	0.598600	0.523500
H281	H28	0.909500	0.045400	0.158800
H291	H29	0.128900	0.121400	0.068700
H301	H30	0.196800	0.561400	0.935900
H311	H31	0.992500	0.121400	0.568700
H321	H32	0.509200	0.720400	0.603600
H331	H33	0.200600	0.665000	0.747100
H341	H34	0.349300	0.749400	0.832400
H351	H35	0.346900	0.352800	0.337500
H361	H36	0.886700	0.384600	0.106900
H371	H37	0.871100	0.878600	0.931300
H381	H38	0.211200	0.720400	0.103600
H391	H39	0.553200	0.715800	0.030800
H401	H40	0.449700	0.681200	0.448200
H411	H41	0.100400	0.401400	0.476500
H421	H42	0.768500	0.318800	0.051800
H431	H43	0.635400	0.438600	0.564100
H441	H44	0.464400	0.665000	0.247100
H451	H45	0.007500	0.878600	0.431300
H461	H46	0.803200	0.438600	0.064100
H471	H47	0.754300	0.852400	0.140500
H481	H48	0.029900	0.770000	0.922400
H491	H49	0.364600	0.561400	0.435900
H501	H50	0.490800	0.279600	0.396400
H511	H51	0.029100	0.069400	0.914400
H521	H52	0.970100	0.230000	0.077600
H531	H53	0.135900	0.045400	0.658800
H541	H54	0.650700	0.250600	0.167600
H551	H55	0.599900	0.250600	0.667600
H561	H56	0.799400	0.335000	0.252900
H571	H57	0.837400	0.284200	0.469200
H581	H58	0.994100	0.647200	0.162500
H591	H59	0.090500	0.954600	0.841200
H601	H60	0.941400	0.873800	0.755500
C11	C1	0.146900	0.616400	0.933600
C21	C2	0.023400	0.847800	0.771400
C31	C3	0.371400	0.250600	0.388300
C41	C4	0.454000	0.276000	0.733500
C51	C5	0.738200	0.656200	0.004600
C61	C6	0.918000	0.656200	0.504600
C71	C7	0.880300	0.748000	0.659700
C81	C8	0.148700	0.171200	0.865600
C91	C9	0.373700	0.135600	0.653900
C101	C10	0.608100	0.603400	0.469300
C111	C11	0.337000	0.921000	0.901700
C121	C12	0.104300	0.127600	0.399100
C131	C13	0.880900	0.166000	0.912300
C141	C14	0.469500	0.616400	0.433600
C151	C15	0.285100	0.166000	0.412300
C161	C16	0.530500	0.383600	0.566400
C171	C17	0.073500	0.726000	0.508600
C181	C18	0.976700	0.872400	0.100900
C191	C19	0.286400	0.293800	0.352800
C201	C20	0.416000	0.079000	0.598300
C211	C21	0.706200	0.760000	0.243800
C221	C22	0.546000	0.724000	0.266500
C231	C23	0.984100	0.821600	0.451000
C241	C24	0.266400	0.774800	0.816600
C251	C25	0.120800	0.749400	0.111700
C261	C26	0.218500	0.104200	0.678200
C271	C27	0.023300	0.127600	0.899100
C281	C28	0.992600	0.706200	0.147200
C291	C29	0.584000	0.921000	0.401700
C301	C30	0.238100	0.864400	0.846100
C311	C31	0.626300	0.864400	0.346100
C321	C32	0.217200	0.329800	0.528100
C331	C33	0.663000	0.079000	0.098300
C341	C34	0.822000	0.276000	0.233500
C351	C35	0.293800	0.240000	0.756200
C361	C36	0.508400	0.774800	0.316600
C371	C37	0.977500	0.828800	0.634400
C381	C38	0.162500	0.178400	0.049000
C391	C39	0.022500	0.171200	0.365600
C401	C40	0.853100	0.383600	0.066400
C411	C41	0.391900	0.396600	0.530700
C421	C42	0.004700	0.396600	0.030700
C431	C43	0.132300	0.252000	0.840300
C441	C44	0.867700	0.748000	0.159700
C451	C45	0.261800	0.343800	0.995400
C461	C46	0.628600	0.749400	0.611700
C471	C47	0.879200	0.250600	0.888300
C481	C48	0.082000	0.343800	0.495400
C491	C49	0.119100	0.834000	0.087700
C501	C50	0.632900	0.889200	0.552700
C511	C51	0.652500	0.726000	0.008600
C521	C52	0.946200	0.240000	0.256200
C531	C53	0.367100	0.110800	0.447300
C541	C54	0.256300	0.889200	0.052700
C551	C55	0.976600	0.152200	0.228600
C561	C56	0.114300	0.895800	0.821800
C571	C57	0.851300	0.828800	0.134400
C581	C58	0.175000	0.243200	0.554900
C591	C59	0.112600	0.329800	0.028100
C601	C60	0.931800	0.756800	0.945100
C611	C61	0.068200	0.243200	0.054900
C621	C62	0.782800	0.670200	0.471900
C631	C63	0.824400	0.847800	0.271400
C641	C64	0.053800	0.760000	0.743800
C651	C65	0.885700	0.104200	0.178200
C661	C66	0.713600	0.706200	0.647200
C671	C67	0.175600	0.152200	0.728600
C681	C68	0.895700	0.872400	0.600900
C691	C69	0.825000	0.756800	0.445100
C701	C70	0.491600	0.225200	0.683400
C711	C71	0.347500	0.274000	0.991400
C721	C72	0.837500	0.821600	0.951000
C731	C73	0.781500	0.895800	0.321800
C741	C74	0.995300	0.603400	0.969300
C751	C75	0.015900	0.178400	0.549000
C761	C76	0.887400	0.670200	0.971900
C771	C77	0.761900	0.135600	0.153900
C781	C78	0.733600	0.225200	0.183400
C791	C79	0.119700	0.252000	0.340300
C801	C80	0.743700	0.110800	0.947300
C811	C81	0.714900	0.834000	0.587700
C821	C82	0.007400	0.293800	0.852800
C831	C83	0.926500	0.274000	0.491400
C841	C84	0.178000	0.724000	0.766500
N11	N1	0.052300	0.469200	0.999900
N21	N2	0.701500	0.810600	0.982300
N31	N3	0.890900	0.189400	0.517700
N41	N4	0.298500	0.189400	0.017700
N51	N5	0.109100	0.810600	0.482300
N61	N6	0.583100	0.530800	0.500100
N71	N7	0.416900	0.469200	0.499900
N81	N8	0.947700	0.530800	0.000100
O11	O1	0.746700	0.028800	0.959500
O21	O2	0.037500	0.299000	0.306300
O31	O3	0.691400	0.002400	0.424000
O41	O4	0.962500	0.701000	0.693700
O51	O5	0.282100	0.028800	0.459500
O61	O6	0.738500	0.701000	0.193700
O71	O7	0.308600	0.997600	0.576000
O81	O8	0.253300	0.971200	0.040500
O91	O9	0.311000	0.002400	0.924000
O101	O10	0.625900	0.152600	0.958800
O111	O11	0.526700	0.152600	0.458800
O121	O12	0.444100	0.876800	0.423300
O131	O13	0.374100	0.847400	0.041200
O141	O14	0.717900	0.971200	0.540500
O151	O15	0.432700	0.876800	0.923300
O161	O16	0.473300	0.847400	0.541200
O171	O17	0.567300	0.123200	0.076700
O181	O18	0.689000	0.997600	0.076000
O191	O19	0.261500	0.299000	0.806300
O201	O20	0.555900	0.123200	0.576700
