data_cg500175k_si_001_auto_PM
_symmetry_space_group_name_H-M	'P1'
_cell_length_a	36.478900
_cell_length_b	36.478900
_cell_length_c	36.478900
_cell_angle_alpha	90.000000
_cell_angle_beta	90.000000
_cell_angle_gamma	90.000000
_symmetry_Int_Tables_number 1

loop_
_symmetry_equiv_pos_as_xyz
'x,y,z'

loop_
_atom_site_label
_atom_site_type_symbol
_atom_site_fract_x
_atom_site_fract_y
_atom_site_fract_z
C11	C1	0.370950	0.316830	0.338710
C21	C2	0.367710	0.345320	0.313520
C31	C3	0.400230	0.293900	0.330640
C41	C4	0.418940	0.305370	0.299310
S51	S5	0.400490	0.344500	0.279800
H61	H6	0.407300	0.269710	0.346300
O71	O7	0.247470	0.035980	0.298160
O81	O8	0.295260	0.037220	0.244500
C91	C9	0.218110	0.049680	0.285400
C101	C10	0.370950	0.816830	0.838710
C111	C11	0.367710	0.845320	0.813520
C121	C12	0.400230	0.793900	0.830640
C131	C13	0.418940	0.805370	0.799310
S141	S14	0.400490	0.844500	0.779800
H151	H15	0.407300	0.769710	0.846300
O161	O16	0.247470	0.535980	0.798160
O171	O17	0.295260	0.537220	0.744500
C181	C18	0.218110	0.549680	0.785400
C191	C19	0.870950	0.316830	0.838710
C201	C20	0.867710	0.345320	0.813520
C211	C21	0.900230	0.293900	0.830640
C221	C22	0.918940	0.305370	0.799310
S231	S23	0.900490	0.344500	0.779800
H241	H24	0.907300	0.269710	0.846300
O251	O25	0.747470	0.035980	0.798160
O261	O26	0.795260	0.037220	0.744500
C271	C27	0.718110	0.049680	0.785400
C281	C28	0.870950	0.816830	0.338710
C291	C29	0.867710	0.845320	0.313520
C301	C30	0.900230	0.793900	0.330640
C311	C31	0.918940	0.805370	0.299310
S321	S32	0.900490	0.844500	0.279800
H331	H33	0.907300	0.769710	0.346300
O341	O34	0.747470	0.535980	0.298160
O351	O35	0.795260	0.537220	0.244500
C361	C36	0.718110	0.549680	0.285400
C371	C37	0.629050	0.683170	0.338710
C381	C38	0.632290	0.654680	0.313520
C391	C39	0.599770	0.706100	0.330640
C401	C40	0.581060	0.694630	0.299310
S411	S41	0.599510	0.655500	0.279800
H421	H42	0.592700	0.730290	0.346300
O431	O43	0.752530	0.964020	0.298160
O441	O44	0.704740	0.962780	0.244500
C451	C45	0.781890	0.950320	0.285400
C461	C46	0.629050	0.183170	0.838710
C471	C47	0.632290	0.154680	0.813520
C481	C48	0.599770	0.206100	0.830640
C491	C49	0.581060	0.194630	0.799310
S501	S50	0.599510	0.155500	0.779800
H511	H51	0.592700	0.230290	0.846300
O521	O52	0.752530	0.464020	0.798160
O531	O53	0.704740	0.462780	0.744500
C541	C54	0.781890	0.450320	0.785400
C551	C55	0.129050	0.683170	0.838710
C561	C56	0.132290	0.654680	0.813520
C571	C57	0.099770	0.706100	0.830640
C581	C58	0.081060	0.694630	0.799310
S591	S59	0.099510	0.655500	0.779800
H601	H60	0.092700	0.730290	0.846300
O611	O61	0.252530	0.964020	0.798160
O621	O62	0.204740	0.962780	0.744500
C631	C63	0.281890	0.950320	0.785400
C641	C64	0.129050	0.183170	0.338710
C651	C65	0.132290	0.154680	0.313520
C661	C66	0.099770	0.206100	0.330640
C671	C67	0.081060	0.194630	0.299310
S681	S68	0.099510	0.155500	0.279800
H691	H69	0.092700	0.230290	0.346300
O701	O70	0.252530	0.464020	0.298160
O711	O71	0.204740	0.462780	0.244500
C721	C72	0.281890	0.450320	0.285400
C731	C73	0.629050	0.316830	0.661290
C741	C74	0.632290	0.345320	0.686480
C751	C75	0.599770	0.293900	0.669360
C761	C76	0.581060	0.305370	0.700690
S771	S77	0.599510	0.344500	0.720200
H781	H78	0.592700	0.269710	0.653700
O791	O79	0.752530	0.035980	0.701840
O801	O80	0.704740	0.037220	0.755500
C811	C81	0.781890	0.049680	0.714600
C821	C82	0.629050	0.816830	0.161290
C831	C83	0.632290	0.845320	0.186480
C841	C84	0.599770	0.793900	0.169360
C851	C85	0.581060	0.805370	0.200690
S861	S86	0.599510	0.844500	0.220200
H871	H87	0.592700	0.769710	0.153700
O881	O88	0.752530	0.535980	0.201840
O891	O89	0.704740	0.537220	0.255500
C901	C90	0.781890	0.549680	0.214600
C911	C91	0.129050	0.316830	0.161290
C921	C92	0.132290	0.345320	0.186480
C931	C93	0.099770	0.293900	0.169360
C941	C94	0.081060	0.305370	0.200690
S951	S95	0.099510	0.344500	0.220200
H961	H96	0.092700	0.269710	0.153700
O971	O97	0.252530	0.035980	0.201840
O981	O98	0.204740	0.037220	0.255500
C991	C99	0.281890	0.049680	0.214600
C1001	C100	0.129050	0.816830	0.661290
C1011	C101	0.132290	0.845320	0.686480
C1021	C102	0.099770	0.793900	0.669360
C1031	C103	0.081060	0.805370	0.700690
S1041	S104	0.099510	0.844500	0.720200
H1051	H105	0.092700	0.769710	0.653700
O1061	O106	0.252530	0.535980	0.701840
O1071	O107	0.204740	0.537220	0.755500
C1081	C108	0.281890	0.549680	0.714600
C1091	C109	0.370950	0.683170	0.661290
C1101	C110	0.367710	0.654680	0.686480
C1111	C111	0.400230	0.706100	0.669360
C1121	C112	0.418940	0.694630	0.700690
S1131	S113	0.400490	0.655500	0.720200
H1141	H114	0.407300	0.730290	0.653700
O1151	O115	0.247470	0.964020	0.701840
O1161	O116	0.295260	0.962780	0.755500
C1171	C117	0.218110	0.950320	0.714600
C1181	C118	0.370950	0.183170	0.161290
C1191	C119	0.367710	0.154680	0.186480
C1201	C120	0.400230	0.206100	0.169360
C1211	C121	0.418940	0.194630	0.200690
S1221	S122	0.400490	0.155500	0.220200
H1231	H123	0.407300	0.230290	0.153700
O1241	O124	0.247470	0.464020	0.201840
O1251	O125	0.295260	0.462780	0.255500
C1261	C126	0.218110	0.450320	0.214600
C1271	C127	0.870950	0.683170	0.161290
C1281	C128	0.867710	0.654680	0.186480
C1291	C129	0.900230	0.706100	0.169360
C1301	C130	0.918940	0.694630	0.200690
S1311	S131	0.900490	0.655500	0.220200
H1321	H132	0.907300	0.730290	0.153700
O1331	O133	0.747470	0.964020	0.201840
O1341	O134	0.795260	0.962780	0.255500
C1351	C135	0.718110	0.950320	0.214600
C1361	C136	0.870950	0.183170	0.661290
C1371	C137	0.867710	0.154680	0.686480
C1381	C138	0.900230	0.206100	0.669360
C1391	C139	0.918940	0.194630	0.700690
S1401	S140	0.900490	0.155500	0.720200
H1411	H141	0.907300	0.230290	0.653700
O1421	O142	0.747470	0.464020	0.701840
O1431	O143	0.795260	0.462780	0.755500
C1441	C144	0.718110	0.450320	0.714600
C1451	C145	0.338710	0.370950	0.316830
C1461	C146	0.313520	0.367710	0.345320
C1471	C147	0.330640	0.400230	0.293900
C1481	C148	0.299310	0.418940	0.305370
S1491	S149	0.279800	0.400490	0.344500
H1501	H150	0.346300	0.407300	0.269710
O1511	O151	0.298160	0.247470	0.035980
O1521	O152	0.244500	0.295260	0.037220
C1531	C153	0.285400	0.218110	0.049680
C1541	C154	0.338710	0.870950	0.816830
C1551	C155	0.313520	0.867710	0.845320
C1561	C156	0.330640	0.900230	0.793900
C1571	C157	0.299310	0.918940	0.805370
S1581	S158	0.279800	0.900490	0.844500
H1591	H159	0.346300	0.907300	0.769710
O1601	O160	0.298160	0.747470	0.535980
O1611	O161	0.244500	0.795260	0.537220
C1621	C162	0.285400	0.718110	0.549680
C1631	C163	0.838710	0.370950	0.816830
C1641	C164	0.813520	0.367710	0.845320
C1651	C165	0.830640	0.400230	0.793900
C1661	C166	0.799310	0.418940	0.805370
S1671	S167	0.779800	0.400490	0.844500
H1681	H168	0.846300	0.407300	0.769710
O1691	O169	0.798160	0.247470	0.535980
O1701	O170	0.744500	0.295260	0.537220
C1711	C171	0.785400	0.218110	0.549680
C1721	C172	0.838710	0.870950	0.316830
C1731	C173	0.813520	0.867710	0.345320
C1741	C174	0.830640	0.900230	0.293900
C1751	C175	0.799310	0.918940	0.305370
S1761	S176	0.779800	0.900490	0.344500
H1771	H177	0.846300	0.907300	0.269710
O1781	O178	0.798160	0.747470	0.035980
O1791	O179	0.744500	0.795260	0.037220
C1801	C180	0.785400	0.718110	0.049680
C1811	C181	0.338710	0.629050	0.683170
C1821	C182	0.313520	0.632290	0.654680
C1831	C183	0.330640	0.599770	0.706100
C1841	C184	0.299310	0.581060	0.694630
S1851	S185	0.279800	0.599510	0.655500
H1861	H186	0.346300	0.592700	0.730290
O1871	O187	0.298160	0.752530	0.964020
O1881	O188	0.244500	0.704740	0.962780
C1891	C189	0.285400	0.781890	0.950320
C1901	C190	0.338710	0.129050	0.183170
C1911	C191	0.313520	0.132290	0.154680
C1921	C192	0.330640	0.099770	0.206100
C1931	C193	0.299310	0.081060	0.194630
S1941	S194	0.279800	0.099510	0.155500
H1951	H195	0.346300	0.092700	0.230290
O1961	O196	0.298160	0.252530	0.464020
O1971	O197	0.244500	0.204740	0.462780
C1981	C198	0.285400	0.281890	0.450320
C1991	C199	0.838710	0.629050	0.183170
C2001	C200	0.813520	0.632290	0.154680
C2011	C201	0.830640	0.599770	0.206100
C2021	C202	0.799310	0.581060	0.194630
S2031	S203	0.779800	0.599510	0.155500
H2041	H204	0.846300	0.592700	0.230290
O2051	O205	0.798160	0.752530	0.464020
O2061	O206	0.744500	0.704740	0.462780
C2071	C207	0.785400	0.781890	0.450320
C2081	C208	0.838710	0.129050	0.683170
C2091	C209	0.813520	0.132290	0.654680
C2101	C210	0.830640	0.099770	0.706100
C2111	C211	0.799310	0.081060	0.694630
S2121	S212	0.779800	0.099510	0.655500
H2131	H213	0.846300	0.092700	0.730290
O2141	O214	0.798160	0.252530	0.964020
O2151	O215	0.744500	0.204740	0.962780
C2161	C216	0.785400	0.281890	0.950320
C2171	C217	0.661290	0.629050	0.316830
C2181	C218	0.686480	0.632290	0.345320
C2191	C219	0.669360	0.599770	0.293900
C2201	C220	0.700690	0.581060	0.305370
S2211	S221	0.720200	0.599510	0.344500
H2221	H222	0.653700	0.592700	0.269710
O2231	O223	0.701840	0.752530	0.035980
O2241	O224	0.755500	0.704740	0.037220
C2251	C225	0.714600	0.781890	0.049680
C2261	C226	0.661290	0.129050	0.816830
C2271	C227	0.686480	0.132290	0.845320
C2281	C228	0.669360	0.099770	0.793900
C2291	C229	0.700690	0.081060	0.805370
S2301	S230	0.720200	0.099510	0.844500
H2311	H231	0.653700	0.092700	0.769710
O2321	O232	0.701840	0.252530	0.535980
O2331	O233	0.755500	0.204740	0.537220
C2341	C234	0.714600	0.281890	0.549680
C2351	C235	0.161290	0.629050	0.816830
C2361	C236	0.186480	0.632290	0.845320
C2371	C237	0.169360	0.599770	0.793900
C2381	C238	0.200690	0.581060	0.805370
S2391	S239	0.220200	0.599510	0.844500
H2401	H240	0.153700	0.592700	0.769710
O2411	O241	0.201840	0.752530	0.535980
O2421	O242	0.255500	0.704740	0.537220
C2431	C243	0.214600	0.781890	0.549680
C2441	C244	0.161290	0.129050	0.316830
C2451	C245	0.186480	0.132290	0.345320
C2461	C246	0.169360	0.099770	0.293900
C2471	C247	0.200690	0.081060	0.305370
S2481	S248	0.220200	0.099510	0.344500
H2491	H249	0.153700	0.092700	0.269710
O2501	O250	0.201840	0.252530	0.035980
O2511	O251	0.255500	0.204740	0.037220
C2521	C252	0.214600	0.281890	0.049680
C2531	C253	0.661290	0.370950	0.683170
C2541	C254	0.686480	0.367710	0.654680
C2551	C255	0.669360	0.400230	0.706100
C2561	C256	0.700690	0.418940	0.694630
S2571	S257	0.720200	0.400490	0.655500
H2581	H258	0.653700	0.407300	0.730290
O2591	O259	0.701840	0.247470	0.964020
O2601	O260	0.755500	0.295260	0.962780
C2611	C261	0.714600	0.218110	0.950320
C2621	C262	0.661290	0.870950	0.183170
C2631	C263	0.686480	0.867710	0.154680
C2641	C264	0.669360	0.900230	0.206100
C2651	C265	0.700690	0.918940	0.194630
S2661	S266	0.720200	0.900490	0.155500
H2671	H267	0.653700	0.907300	0.230290
O2681	O268	0.701840	0.747470	0.464020
O2691	O269	0.755500	0.795260	0.462780
C2701	C270	0.714600	0.718110	0.450320
C2711	C271	0.161290	0.370950	0.183170
C2721	C272	0.186480	0.367710	0.154680
C2731	C273	0.169360	0.400230	0.206100
C2741	C274	0.200690	0.418940	0.194630
S2751	S275	0.220200	0.400490	0.155500
H2761	H276	0.153700	0.407300	0.230290
O2771	O277	0.201840	0.247470	0.464020
O2781	O278	0.255500	0.295260	0.462780
C2791	C279	0.214600	0.218110	0.450320
C2801	C280	0.161290	0.870950	0.683170
C2811	C281	0.186480	0.867710	0.654680
C2821	C282	0.169360	0.900230	0.706100
C2831	C283	0.200690	0.918940	0.694630
S2841	S284	0.220200	0.900490	0.655500
H2851	H285	0.153700	0.907300	0.730290
O2861	O286	0.201840	0.747470	0.964020
O2871	O287	0.255500	0.795260	0.962780
C2881	C288	0.214600	0.718110	0.950320
C2891	C289	0.316830	0.338710	0.370950
C2901	C290	0.345320	0.313520	0.367710
C2911	C291	0.293900	0.330640	0.400230
C2921	C292	0.305370	0.299310	0.418940
S2931	S293	0.344500	0.279800	0.400490
H2941	H294	0.269710	0.346300	0.407300
O2951	O295	0.035980	0.298160	0.247470
O2961	O296	0.037220	0.244500	0.295260
C2971	C297	0.049680	0.285400	0.218110
C2981	C298	0.316830	0.838710	0.870950
C2991	C299	0.345320	0.813520	0.867710
C3001	C300	0.293900	0.830640	0.900230
C3011	C301	0.305370	0.799310	0.918940
S3021	S302	0.344500	0.779800	0.900490
H3031	H303	0.269710	0.846300	0.907300
O3041	O304	0.035980	0.798160	0.747470
O3051	O305	0.037220	0.744500	0.795260
C3061	C306	0.049680	0.785400	0.718110
C3071	C307	0.816830	0.338710	0.870950
C3081	C308	0.845320	0.313520	0.867710
C3091	C309	0.793900	0.330640	0.900230
C3101	C310	0.805370	0.299310	0.918940
S3111	S311	0.844500	0.279800	0.900490
H3121	H312	0.769710	0.346300	0.907300
O3131	O313	0.535980	0.298160	0.747470
O3141	O314	0.537220	0.244500	0.795260
C3151	C315	0.549680	0.285400	0.718110
C3161	C316	0.816830	0.838710	0.370950
C3171	C317	0.845320	0.813520	0.367710
C3181	C318	0.793900	0.830640	0.400230
C3191	C319	0.805370	0.799310	0.418940
S3201	S320	0.844500	0.779800	0.400490
H3211	H321	0.769710	0.846300	0.407300
O3221	O322	0.535980	0.798160	0.247470
O3231	O323	0.537220	0.744500	0.295260
C3241	C324	0.549680	0.785400	0.218110
C3251	C325	0.683170	0.338710	0.629050
C3261	C326	0.654680	0.313520	0.632290
C3271	C327	0.706100	0.330640	0.599770
C3281	C328	0.694630	0.299310	0.581060
S3291	S329	0.655500	0.279800	0.599510
H3301	H330	0.730290	0.346300	0.592700
O3311	O331	0.964020	0.298160	0.752530
O3321	O332	0.962780	0.244500	0.704740
C3331	C333	0.950320	0.285400	0.781890
C3341	C334	0.683170	0.838710	0.129050
C3351	C335	0.654680	0.813520	0.132290
C3361	C336	0.706100	0.830640	0.099770
C3371	C337	0.694630	0.799310	0.081060
S3381	S338	0.655500	0.779800	0.099510
H3391	H339	0.730290	0.846300	0.092700
O3401	O340	0.964020	0.798160	0.252530
O3411	O341	0.962780	0.744500	0.204740
C3421	C342	0.950320	0.785400	0.281890
C3431	C343	0.183170	0.338710	0.129050
C3441	C344	0.154680	0.313520	0.132290
C3451	C345	0.206100	0.330640	0.099770
C3461	C346	0.194630	0.299310	0.081060
S3471	S347	0.155500	0.279800	0.099510
H3481	H348	0.230290	0.346300	0.092700
O3491	O349	0.464020	0.298160	0.252530
O3501	O350	0.462780	0.244500	0.204740
C3511	C351	0.450320	0.285400	0.281890
C3521	C352	0.183170	0.838710	0.629050
C3531	C353	0.154680	0.813520	0.632290
C3541	C354	0.206100	0.830640	0.599770
C3551	C355	0.194630	0.799310	0.581060
S3561	S356	0.155500	0.779800	0.599510
H3571	H357	0.230290	0.846300	0.592700
O3581	O358	0.464020	0.798160	0.752530
O3591	O359	0.462780	0.744500	0.704740
C3601	C360	0.450320	0.785400	0.781890
C3611	C361	0.316830	0.661290	0.629050
C3621	C362	0.345320	0.686480	0.632290
C3631	C363	0.293900	0.669360	0.599770
C3641	C364	0.305370	0.700690	0.581060
S3651	S365	0.344500	0.720200	0.599510
H3661	H366	0.269710	0.653700	0.592700
O3671	O367	0.035980	0.701840	0.752530
O3681	O368	0.037220	0.755500	0.704740
C3691	C369	0.049680	0.714600	0.781890
C3701	C370	0.316830	0.161290	0.129050
C3711	C371	0.345320	0.186480	0.132290
C3721	C372	0.293900	0.169360	0.099770
C3731	C373	0.305370	0.200690	0.081060
S3741	S374	0.344500	0.220200	0.099510
H3751	H375	0.269710	0.153700	0.092700
O3761	O376	0.035980	0.201840	0.252530
O3771	O377	0.037220	0.255500	0.204740
C3781	C378	0.049680	0.214600	0.281890
C3791	C379	0.816830	0.661290	0.129050
C3801	C380	0.845320	0.686480	0.132290
C3811	C381	0.793900	0.669360	0.099770
C3821	C382	0.805370	0.700690	0.081060
S3831	S383	0.844500	0.720200	0.099510
H3841	H384	0.769710	0.653700	0.092700
O3851	O385	0.535980	0.701840	0.252530
O3861	O386	0.537220	0.755500	0.204740
C3871	C387	0.549680	0.714600	0.281890
C3881	C388	0.816830	0.161290	0.629050
C3891	C389	0.845320	0.186480	0.632290
C3901	C390	0.793900	0.169360	0.599770
C3911	C391	0.805370	0.200690	0.581060
S3921	S392	0.844500	0.220200	0.599510
H3931	H393	0.769710	0.153700	0.592700
O3941	O394	0.535980	0.201840	0.752530
O3951	O395	0.537220	0.255500	0.704740
C3961	C396	0.549680	0.214600	0.781890
C3971	C397	0.683170	0.661290	0.370950
C3981	C398	0.654680	0.686480	0.367710
C3991	C399	0.706100	0.669360	0.400230
C4001	C400	0.694630	0.700690	0.418940
S4011	S401	0.655500	0.720200	0.400490
H4021	H402	0.730290	0.653700	0.407300
O4031	O403	0.964020	0.701840	0.247470
O4041	O404	0.962780	0.755500	0.295260
C4051	C405	0.950320	0.714600	0.218110
C4061	C406	0.683170	0.161290	0.870950
C4071	C407	0.654680	0.186480	0.867710
C4081	C408	0.706100	0.169360	0.900230
C4091	C409	0.694630	0.200690	0.918940
S4101	S410	0.655500	0.220200	0.900490
H4111	H411	0.730290	0.153700	0.907300
O4121	O412	0.964020	0.201840	0.747470
O4131	O413	0.962780	0.255500	0.795260
C4141	C414	0.950320	0.214600	0.718110
C4151	C415	0.183170	0.661290	0.870950
C4161	C416	0.154680	0.686480	0.867710
C4171	C417	0.206100	0.669360	0.900230
C4181	C418	0.194630	0.700690	0.918940
S4191	S419	0.155500	0.720200	0.900490
H4201	H420	0.230290	0.653700	0.907300
O4211	O421	0.464020	0.701840	0.747470
O4221	O422	0.462780	0.755500	0.795260
C4231	C423	0.450320	0.714600	0.718110
C4241	C424	0.183170	0.161290	0.370950
C4251	C425	0.154680	0.186480	0.367710
C4261	C426	0.206100	0.169360	0.400230
C4271	C427	0.194630	0.200690	0.418940
S4281	S428	0.155500	0.220200	0.400490
H4291	H429	0.230290	0.153700	0.407300
O4301	O430	0.464020	0.201840	0.247470
O4311	O431	0.462780	0.255500	0.295260
C4321	C432	0.450320	0.214600	0.218110
C4331	C433	0.316830	0.370950	0.661290
C4341	C434	0.345320	0.367710	0.686480
C4351	C435	0.293900	0.400230	0.669360
C4361	C436	0.305370	0.418940	0.700690
S4371	S437	0.344500	0.400490	0.720200
H4381	H438	0.269710	0.407300	0.653700
O4391	O439	0.035980	0.247470	0.701840
O4401	O440	0.037220	0.295260	0.755500
C4411	C441	0.049680	0.218110	0.714600
C4421	C442	0.316830	0.870950	0.161290
C4431	C443	0.345320	0.867710	0.186480
C4441	C444	0.293900	0.900230	0.169360
C4451	C445	0.305370	0.918940	0.200690
S4461	S446	0.344500	0.900490	0.220200
H4471	H447	0.269710	0.907300	0.153700
O4481	O448	0.035980	0.747470	0.201840
O4491	O449	0.037220	0.795260	0.255500
C4501	C450	0.049680	0.718110	0.214600
C4511	C451	0.816830	0.370950	0.161290
C4521	C452	0.845320	0.367710	0.186480
C4531	C453	0.793900	0.400230	0.169360
C4541	C454	0.805370	0.418940	0.200690
S4551	S455	0.844500	0.400490	0.220200
H4561	H456	0.769710	0.407300	0.153700
O4571	O457	0.535980	0.247470	0.201840
O4581	O458	0.537220	0.295260	0.255500
C4591	C459	0.549680	0.218110	0.214600
C4601	C460	0.816830	0.870950	0.661290
C4611	C461	0.845320	0.867710	0.686480
C4621	C462	0.793900	0.900230	0.669360
C4631	C463	0.805370	0.918940	0.700690
S4641	S464	0.844500	0.900490	0.720200
H4651	H465	0.769710	0.907300	0.653700
O4661	O466	0.535980	0.747470	0.701840
O4671	O467	0.537220	0.795260	0.755500
C4681	C468	0.549680	0.718110	0.714600
C4691	C469	0.683170	0.629050	0.661290
C4701	C470	0.654680	0.632290	0.686480
C4711	C471	0.706100	0.599770	0.669360
C4721	C472	0.694630	0.581060	0.700690
S4731	S473	0.655500	0.599510	0.720200
H4741	H474	0.730290	0.592700	0.653700
O4751	O475	0.964020	0.752530	0.701840
O4761	O476	0.962780	0.704740	0.755500
C4771	C477	0.950320	0.781890	0.714600
C4781	C478	0.683170	0.129050	0.161290
C4791	C479	0.654680	0.132290	0.186480
C4801	C480	0.706100	0.099770	0.169360
C4811	C481	0.694630	0.081060	0.200690
S4821	S482	0.655500	0.099510	0.220200
H4831	H483	0.730290	0.092700	0.153700
O4841	O484	0.964020	0.252530	0.201840
O4851	O485	0.962780	0.204740	0.255500
C4861	C486	0.950320	0.281890	0.214600
C4871	C487	0.183170	0.629050	0.161290
C4881	C488	0.154680	0.632290	0.186480
C4891	C489	0.206100	0.599770	0.169360
C4901	C490	0.194630	0.581060	0.200690
S4911	S491	0.155500	0.599510	0.220200
H4921	H492	0.230290	0.592700	0.153700
O4931	O493	0.464020	0.752530	0.201840
O4941	O494	0.462780	0.704740	0.255500
C4951	C495	0.450320	0.781890	0.214600
C4961	C496	0.183170	0.129050	0.661290
C4971	C497	0.154680	0.132290	0.686480
C4981	C498	0.206100	0.099770	0.669360
C4991	C499	0.194630	0.081060	0.700690
S5001	S500	0.155500	0.099510	0.720200
H5011	H501	0.230290	0.092700	0.653700
O5021	O502	0.464020	0.252530	0.701840
O5031	O503	0.462780	0.204740	0.755500
C5041	C504	0.450320	0.281890	0.714600
C5051	C505	0.316830	0.629050	0.338710
C5061	C506	0.345320	0.632290	0.313520
C5071	C507	0.293900	0.599770	0.330640
C5081	C508	0.305370	0.581060	0.299310
S5091	S509	0.344500	0.599510	0.279800
H5101	H510	0.269710	0.592700	0.346300
O5111	O511	0.035980	0.752530	0.298160
O5121	O512	0.037220	0.704740	0.244500
C5131	C513	0.049680	0.781890	0.285400
C5141	C514	0.316830	0.129050	0.838710
C5151	C515	0.345320	0.132290	0.813520
C5161	C516	0.293900	0.099770	0.830640
C5171	C517	0.305370	0.081060	0.799310
S5181	S518	0.344500	0.099510	0.779800
H5191	H519	0.269710	0.092700	0.846300
O5201	O520	0.035980	0.252530	0.798160
O5211	O521	0.037220	0.204740	0.744500
C5221	C522	0.049680	0.281890	0.785400
C5231	C523	0.816830	0.629050	0.838710
C5241	C524	0.845320	0.632290	0.813520
C5251	C525	0.793900	0.599770	0.830640
C5261	C526	0.805370	0.581060	0.799310
S5271	S527	0.844500	0.599510	0.779800
H5281	H528	0.769710	0.592700	0.846300
O5291	O529	0.535980	0.752530	0.798160
O5301	O530	0.537220	0.704740	0.744500
C5311	C531	0.549680	0.781890	0.785400
C5321	C532	0.816830	0.129050	0.338710
C5331	C533	0.845320	0.132290	0.313520
C5341	C534	0.793900	0.099770	0.330640
C5351	C535	0.805370	0.081060	0.299310
S5361	S536	0.844500	0.099510	0.279800
H5371	H537	0.769710	0.092700	0.346300
O5381	O538	0.535980	0.252530	0.298160
O5391	O539	0.537220	0.204740	0.244500
C5401	C540	0.549680	0.281890	0.285400
C5411	C541	0.683170	0.370950	0.338710
C5421	C542	0.654680	0.367710	0.313520
C5431	C543	0.706100	0.400230	0.330640
C5441	C544	0.694630	0.418940	0.299310
S5451	S545	0.655500	0.400490	0.279800
H5461	H546	0.730290	0.407300	0.346300
O5471	O547	0.964020	0.247470	0.298160
O5481	O548	0.962780	0.295260	0.244500
C5491	C549	0.950320	0.218110	0.285400
C5501	C550	0.683170	0.870950	0.838710
C5511	C551	0.654680	0.867710	0.813520
C5521	C552	0.706100	0.900230	0.830640
C5531	C553	0.694630	0.918940	0.799310
S5541	S554	0.655500	0.900490	0.779800
H5551	H555	0.730290	0.907300	0.846300
O5561	O556	0.964020	0.747470	0.798160
O5571	O557	0.962780	0.795260	0.744500
C5581	C558	0.950320	0.718110	0.785400
C5591	C559	0.183170	0.370950	0.838710
C5601	C560	0.154680	0.367710	0.813520
C5611	C561	0.206100	0.400230	0.830640
C5621	C562	0.194630	0.418940	0.799310
S5631	S563	0.155500	0.400490	0.779800
H5641	H564	0.230290	0.407300	0.846300
O5651	O565	0.464020	0.247470	0.798160
O5661	O566	0.462780	0.295260	0.744500
C5671	C567	0.450320	0.218110	0.785400
C5681	C568	0.183170	0.870950	0.338710
C5691	C569	0.154680	0.867710	0.313520
C5701	C570	0.206100	0.900230	0.330640
C5711	C571	0.194630	0.918940	0.299310
S5721	S572	0.155500	0.900490	0.279800
H5731	H573	0.230290	0.907300	0.346300
O5741	O574	0.464020	0.747470	0.298160
O5751	O575	0.462780	0.795260	0.244500
C5761	C576	0.450320	0.718110	0.285400
C5771	C577	0.370950	0.338710	0.683170
C5781	C578	0.367710	0.313520	0.654680
C5791	C579	0.400230	0.330640	0.706100
C5801	C580	0.418940	0.299310	0.694630
S5811	S581	0.400490	0.279800	0.655500
H5821	H582	0.407300	0.346300	0.730290
O5831	O583	0.247470	0.298160	0.964020
O5841	O584	0.295260	0.244500	0.962780
C5851	C585	0.218110	0.285400	0.950320
C5861	C586	0.370950	0.838710	0.183170
C5871	C587	0.367710	0.813520	0.154680
C5881	C588	0.400230	0.830640	0.206100
C5891	C589	0.418940	0.799310	0.194630
S5901	S590	0.400490	0.779800	0.155500
H5911	H591	0.407300	0.846300	0.230290
O5921	O592	0.247470	0.798160	0.464020
O5931	O593	0.295260	0.744500	0.462780
C5941	C594	0.218110	0.785400	0.450320
C5951	C595	0.870950	0.338710	0.183170
C5961	C596	0.867710	0.313520	0.154680
C5971	C597	0.900230	0.330640	0.206100
C5981	C598	0.918940	0.299310	0.194630
S5991	S599	0.900490	0.279800	0.155500
H6001	H600	0.907300	0.346300	0.230290
O6011	O601	0.747470	0.298160	0.464020
O6021	O602	0.795260	0.244500	0.462780
C6031	C603	0.718110	0.285400	0.450320
C6041	C604	0.870950	0.838710	0.683170
C6051	C605	0.867710	0.813520	0.654680
C6061	C606	0.900230	0.830640	0.706100
C6071	C607	0.918940	0.799310	0.694630
S6081	S608	0.900490	0.779800	0.655500
H6091	H609	0.907300	0.846300	0.730290
O6101	O610	0.747470	0.798160	0.964020
O6111	O611	0.795260	0.744500	0.962780
C6121	C612	0.718110	0.785400	0.950320
C6131	C613	0.629050	0.338710	0.316830
C6141	C614	0.632290	0.313520	0.345320
C6151	C615	0.599770	0.330640	0.293900
C6161	C616	0.581060	0.299310	0.305370
S6171	S617	0.599510	0.279800	0.344500
H6181	H618	0.592700	0.346300	0.269710
O6191	O619	0.752530	0.298160	0.035980
O6201	O620	0.704740	0.244500	0.037220
C6211	C621	0.781890	0.285400	0.049680
C6221	C622	0.629050	0.838710	0.816830
C6231	C623	0.632290	0.813520	0.845320
C6241	C624	0.599770	0.830640	0.793900
C6251	C625	0.581060	0.799310	0.805370
S6261	S626	0.599510	0.779800	0.844500
H6271	H627	0.592700	0.846300	0.769710
O6281	O628	0.752530	0.798160	0.535980
O6291	O629	0.704740	0.744500	0.537220
C6301	C630	0.781890	0.785400	0.549680
C6311	C631	0.129050	0.338710	0.816830
C6321	C632	0.132290	0.313520	0.845320
C6331	C633	0.099770	0.330640	0.793900
C6341	C634	0.081060	0.299310	0.805370
S6351	S635	0.099510	0.279800	0.844500
H6361	H636	0.092700	0.346300	0.769710
O6371	O637	0.252530	0.298160	0.535980
O6381	O638	0.204740	0.244500	0.537220
C6391	C639	0.281890	0.285400	0.549680
C6401	C640	0.129050	0.838710	0.316830
C6411	C641	0.132290	0.813520	0.345320
C6421	C642	0.099770	0.830640	0.293900
C6431	C643	0.081060	0.799310	0.305370
S6441	S644	0.099510	0.779800	0.344500
H6451	H645	0.092700	0.846300	0.269710
O6461	O646	0.252530	0.798160	0.035980
O6471	O647	0.204740	0.744500	0.037220
C6481	C648	0.281890	0.785400	0.049680
C6491	C649	0.629050	0.661290	0.683170
C6501	C650	0.632290	0.686480	0.654680
C6511	C651	0.599770	0.669360	0.706100
C6521	C652	0.581060	0.700690	0.694630
S6531	S653	0.599510	0.720200	0.655500
H6541	H654	0.592700	0.653700	0.730290
O6551	O655	0.752530	0.701840	0.964020
O6561	O656	0.704740	0.755500	0.962780
C6571	C657	0.781890	0.714600	0.950320
C6581	C658	0.629050	0.161290	0.183170
C6591	C659	0.632290	0.186480	0.154680
C6601	C660	0.599770	0.169360	0.206100
C6611	C661	0.581060	0.200690	0.194630
S6621	S662	0.599510	0.220200	0.155500
H6631	H663	0.592700	0.153700	0.230290
O6641	O664	0.752530	0.201840	0.464020
O6651	O665	0.704740	0.255500	0.462780
C6661	C666	0.781890	0.214600	0.450320
C6671	C667	0.129050	0.661290	0.183170
C6681	C668	0.132290	0.686480	0.154680
C6691	C669	0.099770	0.669360	0.206100
C6701	C670	0.081060	0.700690	0.194630
S6711	S671	0.099510	0.720200	0.155500
H6721	H672	0.092700	0.653700	0.230290
O6731	O673	0.252530	0.701840	0.464020
O6741	O674	0.204740	0.755500	0.462780
C6751	C675	0.281890	0.714600	0.450320
C6761	C676	0.129050	0.161290	0.683170
C6771	C677	0.132290	0.186480	0.654680
C6781	C678	0.099770	0.169360	0.706100
C6791	C679	0.081060	0.200690	0.694630
S6801	S680	0.099510	0.220200	0.655500
H6811	H681	0.092700	0.153700	0.730290
O6821	O682	0.252530	0.201840	0.964020
O6831	O683	0.204740	0.255500	0.962780
C6841	C684	0.281890	0.214600	0.950320
C6851	C685	0.370950	0.661290	0.316830
C6861	C686	0.367710	0.686480	0.345320
C6871	C687	0.400230	0.669360	0.293900
C6881	C688	0.418940	0.700690	0.305370
S6891	S689	0.400490	0.720200	0.344500
H6901	H690	0.407300	0.653700	0.269710
O6911	O691	0.247470	0.701840	0.035980
O6921	O692	0.295260	0.755500	0.037220
C6931	C693	0.218110	0.714600	0.049680
C6941	C694	0.370950	0.161290	0.816830
C6951	C695	0.367710	0.186480	0.845320
C6961	C696	0.400230	0.169360	0.793900
C6971	C697	0.418940	0.200690	0.805370
S6981	S698	0.400490	0.220200	0.844500
H6991	H699	0.407300	0.153700	0.769710
O7001	O700	0.247470	0.201840	0.535980
O7011	O701	0.295260	0.255500	0.537220
C7021	C702	0.218110	0.214600	0.549680
C7031	C703	0.870950	0.661290	0.816830
C7041	C704	0.867710	0.686480	0.845320
C7051	C705	0.900230	0.669360	0.793900
C7061	C706	0.918940	0.700690	0.805370
S7071	S707	0.900490	0.720200	0.844500
H7081	H708	0.907300	0.653700	0.769710
O7091	O709	0.747470	0.701840	0.535980
O7101	O710	0.795260	0.755500	0.537220
C7111	C711	0.718110	0.714600	0.549680
C7121	C712	0.870950	0.161290	0.316830
C7131	C713	0.867710	0.186480	0.345320
C7141	C714	0.900230	0.169360	0.293900
C7151	C715	0.918940	0.200690	0.305370
S7161	S716	0.900490	0.220200	0.344500
H7171	H717	0.907300	0.153700	0.269710
O7181	O718	0.747470	0.201840	0.035980
O7191	O719	0.795260	0.255500	0.037220
C7201	C720	0.718110	0.214600	0.049680
C7211	C721	0.338710	0.316830	0.629050
C7221	C722	0.313520	0.345320	0.632290
C7231	C723	0.330640	0.293900	0.599770
C7241	C724	0.299310	0.305370	0.581060
S7251	S725	0.279800	0.344500	0.599510
H7261	H726	0.346300	0.269710	0.592700
O7271	O727	0.298160	0.035980	0.752530
O7281	O728	0.244500	0.037220	0.704740
C7291	C729	0.285400	0.049680	0.781890
C7301	C730	0.338710	0.816830	0.129050
C7311	C731	0.313520	0.845320	0.132290
C7321	C732	0.330640	0.793900	0.099770
C7331	C733	0.299310	0.805370	0.081060
S7341	S734	0.279800	0.844500	0.099510
H7351	H735	0.346300	0.769710	0.092700
O7361	O736	0.298160	0.535980	0.252530
O7371	O737	0.244500	0.537220	0.204740
C7381	C738	0.285400	0.549680	0.281890
C7391	C739	0.838710	0.316830	0.129050
C7401	C740	0.813520	0.345320	0.132290
C7411	C741	0.830640	0.293900	0.099770
C7421	C742	0.799310	0.305370	0.081060
S7431	S743	0.779800	0.344500	0.099510
H7441	H744	0.846300	0.269710	0.092700
O7451	O745	0.798160	0.035980	0.252530
O7461	O746	0.744500	0.037220	0.204740
C7471	C747	0.785400	0.049680	0.281890
C7481	C748	0.838710	0.816830	0.629050
C7491	C749	0.813520	0.845320	0.632290
C7501	C750	0.830640	0.793900	0.599770
C7511	C751	0.799310	0.805370	0.581060
S7521	S752	0.779800	0.844500	0.599510
H7531	H753	0.846300	0.769710	0.592700
O7541	O754	0.798160	0.535980	0.752530
O7551	O755	0.744500	0.537220	0.704740
C7561	C756	0.785400	0.549680	0.781890
C7571	C757	0.338710	0.683170	0.370950
C7581	C758	0.313520	0.654680	0.367710
C7591	C759	0.330640	0.706100	0.400230
C7601	C760	0.299310	0.694630	0.418940
S7611	S761	0.279800	0.655500	0.400490
H7621	H762	0.346300	0.730290	0.407300
O7631	O763	0.298160	0.964020	0.247470
O7641	O764	0.244500	0.962780	0.295260
C7651	C765	0.285400	0.950320	0.218110
C7661	C766	0.338710	0.183170	0.870950
C7671	C767	0.313520	0.154680	0.867710
C7681	C768	0.330640	0.206100	0.900230
C7691	C769	0.299310	0.194630	0.918940
S7701	S770	0.279800	0.155500	0.900490
H7711	H771	0.346300	0.230290	0.907300
O7721	O772	0.298160	0.464020	0.747470
O7731	O773	0.244500	0.462780	0.795260
C7741	C774	0.285400	0.450320	0.718110
C7751	C775	0.838710	0.683170	0.870950
C7761	C776	0.813520	0.654680	0.867710
C7771	C777	0.830640	0.706100	0.900230
C7781	C778	0.799310	0.694630	0.918940
S7791	S779	0.779800	0.655500	0.900490
H7801	H780	0.846300	0.730290	0.907300
O7811	O781	0.798160	0.964020	0.747470
O7821	O782	0.744500	0.962780	0.795260
C7831	C783	0.785400	0.950320	0.718110
C7841	C784	0.838710	0.183170	0.370950
C7851	C785	0.813520	0.154680	0.367710
C7861	C786	0.830640	0.206100	0.400230
C7871	C787	0.799310	0.194630	0.418940
S7881	S788	0.779800	0.155500	0.400490
H7891	H789	0.846300	0.230290	0.407300
O7901	O790	0.798160	0.464020	0.247470
O7911	O791	0.744500	0.462780	0.295260
C7921	C792	0.785400	0.450320	0.218110
C7931	C793	0.661290	0.316830	0.370950
C7941	C794	0.686480	0.345320	0.367710
C7951	C795	0.669360	0.293900	0.400230
C7961	C796	0.700690	0.305370	0.418940
S7971	S797	0.720200	0.344500	0.400490
H7981	H798	0.653700	0.269710	0.407300
O7991	O799	0.701840	0.035980	0.247470
O8001	O800	0.755500	0.037220	0.295260
C8011	C801	0.714600	0.049680	0.218110
C8021	C802	0.661290	0.816830	0.870950
C8031	C803	0.686480	0.845320	0.867710
C8041	C804	0.669360	0.793900	0.900230
C8051	C805	0.700690	0.805370	0.918940
S8061	S806	0.720200	0.844500	0.900490
H8071	H807	0.653700	0.769710	0.907300
O8081	O808	0.701840	0.535980	0.747470
O8091	O809	0.755500	0.537220	0.795260
C8101	C810	0.714600	0.549680	0.718110
C8111	C811	0.161290	0.316830	0.870950
C8121	C812	0.186480	0.345320	0.867710
C8131	C813	0.169360	0.293900	0.900230
C8141	C814	0.200690	0.305370	0.918940
S8151	S815	0.220200	0.344500	0.900490
H8161	H816	0.153700	0.269710	0.907300
O8171	O817	0.201840	0.035980	0.747470
O8181	O818	0.255500	0.037220	0.795260
C8191	C819	0.214600	0.049680	0.718110
C8201	C820	0.161290	0.816830	0.370950
C8211	C821	0.186480	0.845320	0.367710
C8221	C822	0.169360	0.793900	0.400230
C8231	C823	0.200690	0.805370	0.418940
S8241	S824	0.220200	0.844500	0.400490
H8251	H825	0.153700	0.769710	0.407300
O8261	O826	0.201840	0.535980	0.247470
O8271	O827	0.255500	0.537220	0.295260
C8281	C828	0.214600	0.549680	0.218110
C8291	C829	0.661290	0.683170	0.629050
C8301	C830	0.686480	0.654680	0.632290
C8311	C831	0.669360	0.706100	0.599770
C8321	C832	0.700690	0.694630	0.581060
S8331	S833	0.720200	0.655500	0.599510
H8341	H834	0.653700	0.730290	0.592700
O8351	O835	0.701840	0.964020	0.752530
O8361	O836	0.755500	0.962780	0.704740
C8371	C837	0.714600	0.950320	0.781890
C8381	C838	0.661290	0.183170	0.129050
C8391	C839	0.686480	0.154680	0.132290
C8401	C840	0.669360	0.206100	0.099770
C8411	C841	0.700690	0.194630	0.081060
S8421	S842	0.720200	0.155500	0.099510
H8431	H843	0.653700	0.230290	0.092700
O8441	O844	0.701840	0.464020	0.252530
O8451	O845	0.755500	0.462780	0.204740
C8461	C846	0.714600	0.450320	0.281890
C8471	C847	0.161290	0.683170	0.129050
C8481	C848	0.186480	0.654680	0.132290
C8491	C849	0.169360	0.706100	0.099770
C8501	C850	0.200690	0.694630	0.081060
S8511	S851	0.220200	0.655500	0.099510
H8521	H852	0.153700	0.730290	0.092700
O8531	O853	0.201840	0.964020	0.252530
O8541	O854	0.255500	0.962780	0.204740
C8551	C855	0.214600	0.950320	0.281890
C8561	C856	0.161290	0.183170	0.629050
C8571	C857	0.186480	0.154680	0.632290
C8581	C858	0.169360	0.206100	0.599770
C8591	C859	0.200690	0.194630	0.581060
S8601	S860	0.220200	0.155500	0.599510
H8611	H861	0.153700	0.230290	0.592700
O8621	O862	0.201840	0.464020	0.752530
O8631	O863	0.255500	0.462780	0.704740
C8641	C864	0.214600	0.450320	0.781890
Cu8651	Cu865	0.275370	0.000000	0.275370
Cu8661	Cu866	0.275370	0.500000	0.775370
Cu8671	Cu867	0.775370	0.000000	0.775370
Cu8681	Cu868	0.775370	0.500000	0.275370
Cu8691	Cu869	0.724630	0.000000	0.275370
Cu8701	Cu870	0.724630	0.500000	0.775370
Cu8711	Cu871	0.224630	0.000000	0.775370
Cu8721	Cu872	0.224630	0.500000	0.275370
Cu8731	Cu873	0.724630	0.000000	0.724630
Cu8741	Cu874	0.724630	0.500000	0.224630
Cu8751	Cu875	0.224630	0.000000	0.224630
Cu8761	Cu876	0.224630	0.500000	0.724630
Cu8771	Cu877	0.275370	0.000000	0.724630
Cu8781	Cu878	0.275370	0.500000	0.224630
Cu8791	Cu879	0.775370	0.000000	0.224630
Cu8801	Cu880	0.775370	0.500000	0.724630
Cu8811	Cu881	0.275370	0.275370	0.000000
Cu8821	Cu882	0.275370	0.775370	0.500000
Cu8831	Cu883	0.775370	0.275370	0.500000
Cu8841	Cu884	0.775370	0.775370	0.000000
Cu8851	Cu885	0.275370	0.724630	0.000000
Cu8861	Cu886	0.275370	0.224630	0.500000
Cu8871	Cu887	0.775370	0.724630	0.500000
Cu8881	Cu888	0.775370	0.224630	0.000000
Cu8891	Cu889	0.724630	0.724630	0.000000
Cu8901	Cu890	0.724630	0.224630	0.500000
Cu8911	Cu891	0.224630	0.724630	0.500000
Cu8921	Cu892	0.224630	0.224630	0.000000
Cu8931	Cu893	0.724630	0.275370	0.000000
Cu8941	Cu894	0.724630	0.775370	0.500000
Cu8951	Cu895	0.224630	0.275370	0.500000
Cu8961	Cu896	0.224630	0.775370	0.000000
Cu8971	Cu897	0.000000	0.275370	0.275370
Cu8981	Cu898	0.000000	0.775370	0.775370
Cu8991	Cu899	0.500000	0.275370	0.775370
Cu9001	Cu900	0.500000	0.775370	0.275370
Cu9011	Cu901	0.000000	0.275370	0.724630
Cu9021	Cu902	0.000000	0.775370	0.224630
Cu9031	Cu903	0.500000	0.275370	0.224630
Cu9041	Cu904	0.500000	0.775370	0.724630
Cu9051	Cu905	0.000000	0.724630	0.724630
Cu9061	Cu906	0.000000	0.224630	0.224630
Cu9071	Cu907	0.500000	0.724630	0.224630
Cu9081	Cu908	0.500000	0.224630	0.724630
Cu9091	Cu909	0.000000	0.724630	0.275370
Cu9101	Cu910	0.000000	0.224630	0.775370
Cu9111	Cu911	0.500000	0.724630	0.775370
Cu9121	Cu912	0.500000	0.224630	0.275370
