data_cg501012e_si_002_clean_PM
_symmetry_space_group_name_H-M	'P1'
_cell_length_a	18.503700
_cell_length_b	18.503700
_cell_length_c	18.503700
_cell_angle_alpha	101.739000
_cell_angle_beta	101.739000
_cell_angle_gamma	101.739000
_symmetry_Int_Tables_number 1

loop_
_symmetry_equiv_pos_as_xyz
'x,y,z'

loop_
_atom_site_label
_atom_site_type_symbol
_atom_site_fract_x
_atom_site_fract_y
_atom_site_fract_z
Zn11	Zn1	0.354210	0.146930	0.749190
Zn21	Zn2	0.250810	0.645790	0.853070
Zn31	Zn3	0.645790	0.853070	0.250810
Zn41	Zn4	0.749190	0.354210	0.146930
Zn51	Zn5	0.146930	0.749190	0.354210
Zn61	Zn6	0.853070	0.250810	0.645790
H11	H1	0.974000	0.155900	0.208800
H21	H2	0.320700	0.870700	0.023400
H31	H3	0.590200	0.099500	0.870500
H41	H4	0.278200	0.656200	0.144200
H51	H5	0.120900	0.779800	0.768100
H61	H6	0.007700	0.142800	0.742700
H71	H7	0.906200	0.293900	0.801700
H81	H8	0.656200	0.144200	0.278200
H91	H9	0.879100	0.220200	0.231900
H101	H10	0.129500	0.409800	0.900500
H111	H11	0.064100	0.830600	0.024300
H121	H12	0.855800	0.721800	0.343800
H131	H13	0.093800	0.706100	0.198300
H141	H14	0.129300	0.976600	0.679300
H151	H15	0.169400	0.975700	0.935900
H161	H16	0.140000	0.088100	0.982200
H171	H17	0.099500	0.870500	0.590200
H181	H18	0.155900	0.208800	0.974000
H191	H19	0.870700	0.023400	0.320700
H201	H20	0.706100	0.198300	0.093800
H211	H21	0.231900	0.879100	0.220200
H221	H22	0.791200	0.026000	0.844100
H231	H23	0.900500	0.129500	0.409800
H241	H24	0.257300	0.992300	0.857200
H251	H25	0.860000	0.911900	0.017800
H261	H26	0.721800	0.343800	0.855800
H271	H27	0.857200	0.257300	0.992300
H281	H28	0.844100	0.791200	0.026000
H291	H29	0.992300	0.857200	0.257300
H301	H30	0.975700	0.935900	0.169400
H311	H31	0.208800	0.974000	0.155900
H321	H32	0.982200	0.140000	0.088100
H331	H33	0.024300	0.064100	0.830600
H341	H34	0.409800	0.900500	0.129500
H351	H35	0.768100	0.120900	0.779800
H361	H36	0.321400	0.424200	0.836100
H371	H37	0.220200	0.231900	0.879100
H381	H38	0.976600	0.679300	0.129300
H391	H39	0.742700	0.007700	0.142800
H401	H40	0.026000	0.844100	0.791200
H411	H41	0.836100	0.321400	0.424200
H421	H42	0.198300	0.093800	0.706100
H431	H43	0.424200	0.836100	0.321400
H441	H44	0.830600	0.024300	0.064100
H451	H45	0.779800	0.768100	0.120900
H461	H46	0.343800	0.855800	0.721800
H471	H47	0.679300	0.129300	0.976600
H481	H48	0.144200	0.278200	0.656200
H491	H49	0.935900	0.169400	0.975700
H501	H50	0.017800	0.860000	0.911900
H511	H51	0.870500	0.590200	0.099500
H521	H52	0.023400	0.320700	0.870700
H531	H53	0.801700	0.906200	0.293900
H541	H54	0.911900	0.017800	0.860000
H551	H55	0.575800	0.163900	0.678600
H561	H56	0.088100	0.982200	0.140000
H571	H57	0.142800	0.742700	0.007700
H581	H58	0.163900	0.678600	0.575800
H591	H59	0.293900	0.801700	0.906200
H601	H60	0.678600	0.575800	0.163900
C11	C1	0.271660	0.918700	0.099590
C21	C2	0.358500	0.751100	0.798300
C31	C3	0.029420	0.285560	0.899430
C41	C4	0.164710	0.124860	0.703830
C51	C5	0.285560	0.899430	0.029420
C61	C6	0.139400	0.776000	0.491800
C71	C7	0.218300	0.699090	0.068030
C81	C8	0.249890	0.920610	0.967470
C91	C9	0.953060	0.820330	0.017570
C101	C10	0.612320	0.109810	0.831620
C111	C11	0.111760	0.080740	0.017560
C121	C12	0.919260	0.982440	0.888240
C131	C13	0.811750	0.324430	0.817620
C141	C14	0.282030	0.877200	0.221920
C151	C15	0.051860	0.153930	0.725990
C161	C16	0.248900	0.201700	0.641500
C171	C17	0.931970	0.781700	0.300910
C181	C18	0.099590	0.271660	0.918700
C191	C19	0.022570	0.804500	0.038140
C201	C20	0.776000	0.491800	0.139400
C211	C21	0.717970	0.122800	0.778080
C221	C22	0.080740	0.017560	0.111760
C231	C23	0.750110	0.079390	0.032530
C241	C24	0.603340	0.148760	0.718100
C251	C25	0.387680	0.890190	0.168380
C261	C26	0.860600	0.224000	0.508200
C271	C27	0.920610	0.967470	0.249890
C281	C28	0.875140	0.296170	0.835290
C291	C29	0.661500	0.714700	0.170200
C301	C30	0.890190	0.168380	0.387680
C311	C31	0.960320	0.108370	0.218710
C321	C32	0.967470	0.249890	0.920610
C331	C33	0.817620	0.811750	0.324430
C341	C34	0.012020	0.266280	0.690200
C351	C35	0.728650	0.099970	0.105590
C361	C36	0.081300	0.900410	0.728340
C371	C37	0.674160	0.133290	0.234850
C381	C38	0.201700	0.641500	0.248900
C391	C39	0.719680	0.677630	0.144890
C401	C40	0.685250	0.103100	0.835450
C411	C41	0.266280	0.690200	0.012020
C421	C42	0.851240	0.281900	0.396660
C431	C43	0.972680	0.941100	0.876310
C441	C44	0.122800	0.778080	0.717970
C451	C45	0.765150	0.325840	0.866710
C461	C46	0.896900	0.164550	0.314750
C471	C47	0.109810	0.831620	0.612320
C481	C48	0.058900	0.123690	0.027320
C491	C49	0.641500	0.248900	0.201700
C501	C50	0.108370	0.218710	0.960320
C511	C51	0.314750	0.896900	0.164550
C521	C52	0.773380	0.570390	0.130930
C531	C53	0.725990	0.051860	0.153930
C541	C54	0.891630	0.781290	0.039680
C551	C55	0.338500	0.285300	0.829800
C561	C56	0.195500	0.961860	0.977430
C571	C57	0.168380	0.387680	0.890190
C581	C58	0.846070	0.274010	0.948140
C591	C59	0.164550	0.314750	0.896900
C601	C60	0.224000	0.508200	0.860600
C611	C61	0.124860	0.703830	0.164710
C621	C62	0.153930	0.725990	0.051860
C631	C63	0.677630	0.144890	0.719680
C641	C64	0.105590	0.728650	0.099970
C651	C65	0.148760	0.718100	0.603340
C661	C66	0.831620	0.612320	0.109810
C671	C67	0.508200	0.860600	0.224000
C681	C68	0.300910	0.931970	0.781700
C691	C69	0.699090	0.068030	0.218300
C701	C70	0.027320	0.058900	0.123690
C711	C71	0.982440	0.888240	0.919260
C721	C72	0.835290	0.875140	0.296170
C731	C73	0.144890	0.719680	0.677630
C741	C74	0.046940	0.179670	0.982430
C751	C75	0.869070	0.226620	0.429610
C761	C76	0.982430	0.046940	0.179670
C771	C77	0.285300	0.829800	0.338500
C781	C78	0.820330	0.017570	0.953060
C791	C79	0.829800	0.338500	0.285300
C801	C80	0.888240	0.919260	0.982440
C811	C81	0.133290	0.234850	0.674160
C821	C82	0.221920	0.282030	0.877200
C831	C83	0.977430	0.195500	0.961860
C841	C84	0.296170	0.835290	0.875140
C851	C85	0.941100	0.876310	0.972680
C861	C86	0.429610	0.869070	0.226620
C871	C87	0.491800	0.139400	0.776000
C881	C88	0.100570	0.970580	0.714440
C891	C89	0.271350	0.900030	0.894410
C901	C90	0.894410	0.271350	0.900030
C911	C91	0.570390	0.130930	0.773380
C921	C92	0.714440	0.100570	0.970580
C931	C93	0.182380	0.188250	0.675570
C941	C94	0.987980	0.733720	0.309800
C951	C95	0.835450	0.685250	0.103100
C961	C96	0.038140	0.022570	0.804500
C971	C97	0.718100	0.603340	0.148760
C981	C98	0.068030	0.218300	0.699090
C991	C99	0.032530	0.750110	0.079390
C1001	C100	0.325840	0.866710	0.765150
C1011	C101	0.280320	0.322370	0.855110
C1021	C102	0.188250	0.675570	0.182380
C1031	C103	0.123690	0.027320	0.058900
C1041	C104	0.876310	0.972680	0.941100
C1051	C105	0.099970	0.105590	0.728650
C1061	C106	0.396660	0.851240	0.281900
C1071	C107	0.877200	0.221920	0.282030
C1081	C108	0.324430	0.817620	0.811750
C1091	C109	0.804500	0.038140	0.022570
C1101	C110	0.179670	0.982430	0.046940
C1111	C111	0.103100	0.835450	0.685250
C1121	C112	0.322370	0.855110	0.280320
C1131	C113	0.948140	0.846070	0.274010
C1141	C114	0.218710	0.960320	0.108370
C1151	C115	0.866710	0.765150	0.325840
C1161	C116	0.281900	0.396660	0.851240
C1171	C117	0.918700	0.099590	0.271660
C1181	C118	0.781290	0.039680	0.891630
C1191	C119	0.781700	0.300910	0.931970
C1201	C120	0.079390	0.032530	0.750110
C1211	C121	0.274010	0.948140	0.846070
C1221	C122	0.309800	0.987980	0.733720
C1231	C123	0.798300	0.358500	0.751100
C1241	C124	0.970580	0.714440	0.100570
C1251	C125	0.751100	0.798300	0.358500
C1261	C126	0.017560	0.111760	0.080740
C1271	C127	0.900030	0.894410	0.271350
C1281	C128	0.855110	0.280320	0.322370
C1291	C129	0.226620	0.429610	0.869070
C1301	C130	0.899430	0.029420	0.285560
C1311	C131	0.900410	0.728340	0.081300
C1321	C132	0.690200	0.012020	0.266280
C1331	C133	0.234850	0.674160	0.133290
C1341	C134	0.728340	0.081300	0.900410
C1351	C135	0.778080	0.717970	0.122800
C1361	C136	0.675570	0.182380	0.188250
C1371	C137	0.714700	0.170200	0.661500
C1381	C138	0.961860	0.977430	0.195500
C1391	C139	0.130930	0.773380	0.570390
C1401	C140	0.703830	0.164710	0.124860
C1411	C141	0.039680	0.891630	0.781290
C1421	C142	0.017570	0.953060	0.820330
C1431	C143	0.733720	0.309800	0.987980
C1441	C144	0.170200	0.661500	0.714700
O11	O1	0.322200	0.810510	0.389890
O21	O2	0.169270	0.656720	0.301600
O31	O3	0.810510	0.389890	0.322200
O41	O4	0.761280	0.300740	0.051680
O51	O5	0.451710	0.150230	0.718770
O61	O6	0.343280	0.698400	0.830730
O71	O7	0.330250	0.970880	0.675170
O81	O8	0.970880	0.675170	0.330250
O91	O9	0.169700	0.668750	0.783700
O101	O10	0.869070	0.170050	0.533610
O111	O11	0.216300	0.830300	0.331250
O121	O12	0.656720	0.301600	0.169270
O131	O13	0.548290	0.849770	0.281230
O141	O14	0.331250	0.216300	0.830300
O151	O15	0.718770	0.451710	0.150230
O161	O16	0.675170	0.330250	0.970880
O171	O17	0.300740	0.051680	0.761280
O181	O18	0.597940	0.249080	0.244780
O191	O19	0.699260	0.948320	0.238720
O201	O20	0.755220	0.402060	0.750920
O211	O21	0.150230	0.718770	0.451710
O221	O22	0.668750	0.783700	0.169700
O231	O23	0.533610	0.869070	0.170050
O241	O24	0.029120	0.324830	0.669750
O251	O25	0.249080	0.244780	0.597940
O261	O26	0.829950	0.466390	0.130930
O271	O27	0.238720	0.699260	0.948320
O281	O28	0.051680	0.761280	0.300740
O291	O29	0.301600	0.169270	0.656720
O301	O30	0.948320	0.238720	0.699260
O311	O31	0.170050	0.533610	0.869070
O321	O32	0.244780	0.597940	0.249080
O331	O33	0.783700	0.169700	0.668750
O341	O34	0.281230	0.548290	0.849770
O351	O35	0.389890	0.322200	0.810510
O361	O36	0.610110	0.677800	0.189490
O371	O37	0.849770	0.281230	0.548290
O381	O38	0.830300	0.331250	0.216300
O391	O39	0.677800	0.189490	0.610110
O401	O40	0.189490	0.610110	0.677800
O411	O41	0.324830	0.669750	0.029120
O421	O42	0.750920	0.755220	0.402060
O431	O43	0.669750	0.029120	0.324830
O441	O44	0.466390	0.130930	0.829950
O451	O45	0.830730	0.343280	0.698400
O461	O46	0.402060	0.750920	0.755220
O471	O47	0.130930	0.829950	0.466390
O481	O48	0.698400	0.830730	0.343280
