data_cg5012617_si_002_clean_PM
_symmetry_space_group_name_H-M	'P1'
_cell_length_a	11.299300
_cell_length_b	32.557400
_cell_length_c	32.557500
_cell_angle_alpha	88.274500
_cell_angle_beta	80.007000
_cell_angle_gamma	80.007300
_symmetry_Int_Tables_number 1

loop_
_symmetry_equiv_pos_as_xyz
'x,y,z'

loop_
_atom_site_label
_atom_site_type_symbol
_atom_site_fract_x
_atom_site_fract_y
_atom_site_fract_z
Nd11	Nd1	0.290320	0.669290	0.031750
Nd21	Nd2	0.709680	0.330710	0.968250
Nd31	Nd3	0.174090	0.027630	0.829790
Nd41	Nd4	0.677930	0.031750	0.830710
Nd51	Nd5	0.798280	0.670210	0.027630
Nd61	Nd6	0.508640	0.169290	0.531750
Nd71	Nd7	0.959610	0.531750	0.330710
Nd81	Nd8	0.491360	0.830710	0.468250
Nd91	Nd9	0.201720	0.329790	0.972370
Nd101	Nd10	0.040390	0.468250	0.669290
Nd111	Nd11	0.322070	0.968250	0.169290
Nd121	Nd12	0.468490	0.527630	0.329790
Nd131	Nd13	0.531510	0.472370	0.670210
Nd141	Nd14	0.825910	0.972370	0.170210
Nd151	Nd15	0.003880	0.170210	0.527630
Nd161	Nd16	0.996120	0.829790	0.472370
Cu11	Cu1	0.084220	0.462730	0.130390
Cu21	Cu2	0.546940	0.630400	0.537270
Cu31	Cu3	0.453060	0.369600	0.462730
Cu41	Cu4	0.822660	0.962730	0.630390
Cu51	Cu5	0.785380	0.130400	0.037270
Cu61	Cu6	0.915780	0.537270	0.869610
Cu71	Cu7	0.177340	0.037270	0.369610
Cu81	Cu8	0.214620	0.869600	0.962730
H11	H1	0.763400	0.585700	0.812100
H21	H2	0.793400	0.711400	0.876800
H31	H3	0.575500	0.187900	0.085700
H41	H4	0.384600	0.453400	0.786200
H51	H5	0.831900	0.875700	0.783100
H61	H6	0.575100	0.706100	0.478100
H71	H7	0.752200	0.474300	0.463300
H81	H8	0.006000	0.319800	0.144600
H91	H9	0.101000	0.106200	0.004000
H101	H10	0.707600	0.283100	0.124300
H111	H11	0.823700	0.277300	0.642300
H121	H12	0.424900	0.293900	0.521900
H131	H13	0.448900	0.016500	0.060700
H141	H14	0.168100	0.124300	0.216900
H151	H15	0.315800	0.862900	0.135900
H161	H16	0.784500	0.463300	0.025700
H171	H17	0.090600	0.861900	0.890300
H181	H18	0.247800	0.525700	0.536700
H191	H19	0.661200	0.914300	0.687900
H201	H20	0.629500	0.539400	0.142600
H211	H21	0.375000	0.160800	0.866400
H221	H22	0.740700	0.206100	0.978100
H231	H23	0.548300	0.135900	0.637100
H241	H24	0.170700	0.781100	0.089700
H251	H25	0.520300	0.998200	0.620400
H261	H26	0.236600	0.414300	0.187900
H271	H27	0.509600	0.939300	0.516500
H281	H28	0.260400	0.910300	0.281100
H291	H29	0.423300	0.255000	0.372400
H301	H30	0.118700	0.030900	0.526700
H311	H31	0.615000	0.216900	0.375700
H321	H32	0.534000	0.642300	0.222700
H331	H33	0.645400	0.473300	0.530900
H341	H34	0.081200	0.062300	0.464500
H351	H35	0.781300	0.756300	0.208700
H361	H36	0.010000	0.208700	0.743700
H371	H37	0.570600	0.006800	0.436400
H381	H38	0.756700	0.777300	0.142300
H391	H39	0.162000	0.713800	0.453400
H401	H40	0.970400	0.180200	0.355400
H411	H41	0.599300	0.959300	0.309900
H421	H42	0.479700	0.001800	0.379600
H431	H43	0.338800	0.085700	0.312100
H441	H44	0.525500	0.662800	0.369800
H451	H45	0.454300	0.464500	0.437700
H461	H46	0.902200	0.339200	0.633600
H471	H47	0.814600	0.637100	0.364100
H481	H48	0.534600	0.439300	0.016500
H491	H49	0.849400	0.144600	0.180200
H501	H50	0.422600	0.063600	0.006800
H511	H51	0.097800	0.660800	0.366400
H521	H52	0.772100	0.857400	0.039400
H531	H53	0.168900	0.642600	0.460600
H541	H54	0.551100	0.983500	0.939300
H551	H55	0.711200	0.393800	0.496000
H561	H56	0.150600	0.855400	0.819800
H571	H57	0.342800	0.638100	0.609700
H581	H58	0.424500	0.812100	0.914300
H591	H59	0.497800	0.071100	0.630900
H601	H60	0.466000	0.357700	0.777300
H611	H61	0.577400	0.936400	0.993200
H621	H62	0.349100	0.312100	0.414300
H631	H63	0.206600	0.288600	0.123200
H641	H64	0.048200	0.410300	0.781100
H651	H65	0.185400	0.362900	0.635900
H661	H66	0.227900	0.142600	0.960600
H671	H67	0.441400	0.190100	0.959300
H681	H68	0.292400	0.716900	0.875700
H691	H69	0.550700	0.245000	0.127600
H701	H70	0.952500	0.390300	0.138100
H711	H71	0.143500	0.964500	0.937700
H721	H72	0.990700	0.624300	0.716900
H731	H73	0.513800	0.493200	0.063600
H741	H74	0.281200	0.978100	0.293900
H751	H75	0.941900	0.162800	0.869800
H761	H76	0.474500	0.337200	0.630200
H771	H77	0.246300	0.743700	0.291300
H781	H78	0.451700	0.864100	0.362900
H791	H79	0.568900	0.130900	0.928900
H801	H80	0.361100	0.498200	0.120400
H811	H81	0.176300	0.469100	0.973300
H821	H82	0.029600	0.819800	0.644600
H831	H83	0.458500	0.281100	0.589700
H841	H84	0.699800	0.428900	0.869100
H851	H85	0.631500	0.459300	0.809900
H861	H86	0.321700	0.127600	0.255000
H871	H87	0.670200	0.123200	0.211400
H881	H88	0.909400	0.138100	0.109700
H891	H89	0.188300	0.869800	0.337200
H901	H90	0.207200	0.504000	0.893800
H911	H91	0.918800	0.937700	0.535500
H921	H92	0.429400	0.993200	0.563600
H931	H93	0.218700	0.243700	0.791300
H941	H94	0.058100	0.837200	0.130200
H951	H95	0.329800	0.876800	0.788600
H961	H96	0.795700	0.627600	0.755000
H971	H97	0.875800	0.953400	0.286200
H981	H98	0.838000	0.286200	0.546600
H991	H99	0.899000	0.857700	0.277300
H1001	H100	0.993000	0.436400	0.493200
H1011	H101	0.829200	0.786200	0.046600
H1021	H102	0.502200	0.928900	0.369100
H1031	H103	0.558600	0.809900	0.040700
H1041	H104	0.718800	0.021900	0.706100
H1051	H105	0.176300	0.722700	0.357700
H1061	H106	0.204300	0.372400	0.245000
H1071	H107	0.288800	0.606200	0.504000
H1081	H108	0.104700	0.369800	0.837200
H1091	H109	0.504800	0.376800	0.288600
H1101	H110	0.370500	0.460600	0.857400
H1111	H111	0.464200	0.633600	0.160800
H1121	H112	0.490400	0.060700	0.483500
H1131	H113	0.684200	0.137100	0.864100
H1141	H114	0.811500	0.960600	0.357400
H1151	H115	0.856500	0.035500	0.062300
H1161	H116	0.535800	0.366400	0.839200
H1171	H117	0.850400	0.973300	0.030900
H1181	H118	0.215500	0.536700	0.974300
H1191	H119	0.090800	0.309900	0.540700
H1201	H120	0.810200	0.974300	0.963300
H1211	H121	0.118400	0.211400	0.376800
H1221	H122	0.465400	0.560700	0.983500
H1231	H123	0.481500	0.879600	0.998200
H1241	H124	0.831100	0.357400	0.539400
H1251	H125	0.149600	0.026700	0.969100
H1261	H126	0.792800	0.496000	0.106200
H1271	H127	0.638900	0.501800	0.879600
H1281	H128	0.990000	0.791300	0.256300
H1291	H129	0.385000	0.783100	0.624300
H1301	H130	0.047500	0.609700	0.861900
H1311	H131	0.053200	0.521900	0.206100
H1321	H132	0.007000	0.563600	0.506800
H1331	H133	0.811700	0.130200	0.662800
H1341	H134	0.871300	0.630900	0.428900
H1351	H135	0.105000	0.996000	0.606200
H1361	H136	0.495200	0.623200	0.711400
H1371	H137	0.895000	0.004000	0.393800
H1381	H138	0.259300	0.793900	0.021900
H1391	H139	0.657200	0.361900	0.390300
H1401	H140	0.486200	0.506800	0.936400
H1411	H141	0.101000	0.142300	0.722700
H1421	H142	0.892000	0.562300	0.964500
H1431	H143	0.541500	0.718900	0.410300
H1441	H144	0.128700	0.369100	0.571100
H1451	H145	0.678300	0.872400	0.745000
H1461	H146	0.170800	0.213800	0.953400
H1471	H147	0.821300	0.364100	0.862900
H1481	H148	0.325800	0.644600	0.680200
H1491	H149	0.773500	0.036700	0.474300
H1501	H150	0.615400	0.546600	0.213800
H1511	H151	0.951800	0.589700	0.218900
H1521	H152	0.899000	0.893800	0.996000
H1531	H153	0.674200	0.355400	0.319800
H1541	H154	0.124200	0.046600	0.713800
H1551	H155	0.189800	0.025700	0.036700
H1561	H156	0.431100	0.869100	0.071100
H1571	H157	0.537600	0.708700	0.243700
H1581	H158	0.009300	0.375700	0.283100
H1591	H159	0.243300	0.222700	0.857700
H1601	H160	0.823700	0.530900	0.026700
H1611	H161	0.576700	0.745000	0.627600
H1621	H162	0.994000	0.680200	0.855400
H1631	H163	0.758600	0.866400	0.339200
H1641	H164	0.881300	0.969100	0.473300
H1651	H165	0.753700	0.256300	0.708700
H1661	H166	0.226500	0.963300	0.525700
H1671	H167	0.140700	0.379600	0.498200
H1681	H168	0.241400	0.133600	0.660800
H1691	H169	0.895300	0.630200	0.162800
H1701	H170	0.909200	0.690100	0.459300
H1711	H171	0.881600	0.788600	0.623200
H1721	H172	0.368500	0.540700	0.190100
H1731	H173	0.108000	0.437700	0.035500
H1741	H174	0.400700	0.040700	0.690100
H1751	H175	0.829300	0.218900	0.910300
H1761	H176	0.946800	0.478100	0.793900
H1771	H177	0.973900	0.516500	0.560700
H1781	H178	0.650900	0.687900	0.585700
H1791	H179	0.545700	0.535500	0.562300
H1801	H180	0.019100	0.890300	0.638100
H1811	H181	0.354600	0.526700	0.469100
H1821	H182	0.625000	0.839200	0.133600
H1831	H183	0.188500	0.039400	0.642600
H1841	H184	0.859300	0.620400	0.501800
H1851	H185	0.739600	0.089700	0.718900
H1861	H186	0.300200	0.571100	0.130900
H1871	H187	0.026100	0.483500	0.439300
H1881	H188	0.518500	0.120400	0.001800
H1891	H189	0.980900	0.109700	0.361900
H1901	H190	0.462400	0.291300	0.756300
H1911	H191	0.449300	0.755000	0.872400
H1921	H192	0.178700	0.635900	0.137100
C11	C1	0.721460	0.588430	0.679450
C21	C2	0.415810	0.759800	0.607380
C31	C3	0.926940	0.273080	0.078440
C41	C4	0.615810	0.909780	0.272000
C51	C5	0.905070	0.117820	0.911840
C61	C6	0.683050	0.914610	0.585890
C71	C7	0.197260	0.656440	0.266840
C81	C8	0.901090	0.158190	0.896430
C91	C9	0.994620	0.078440	0.226920
C101	C10	0.841860	0.584520	0.797160
C111	C11	0.333900	0.899550	0.884250
C121	C12	0.485570	0.191140	0.932520
C131	C13	0.687900	0.524120	0.156480
C141	C14	0.856350	0.475020	0.195280
C151	C15	0.765300	0.512710	0.264490
C161	C16	0.883070	0.834870	0.293990
C171	C17	0.384190	0.090220	0.728000
C181	C18	0.966510	0.622070	0.870310
C191	C19	0.792880	0.048590	0.612050
C201	C20	0.972030	0.579290	0.191850
C211	C21	0.112190	0.272000	0.590220
C221	C22	0.848210	0.602530	0.524450
C231	C23	0.676710	0.432520	0.808860
C241	C24	0.584190	0.240200	0.392620
C251	C25	0.683550	0.585390	0.914110
C261	C26	0.782700	0.805480	0.356320
C271	C27	0.437360	0.843690	0.084990
C281	C28	0.948370	0.195280	0.024980
C291	C29	0.462000	0.416650	0.612950
C301	C30	0.731060	0.585890	0.585390
C311	C31	0.482310	0.295050	0.782330
C321	C32	0.218150	0.115750	0.399550
C331	C33	0.723540	0.915480	0.702840
C341	C34	0.448680	0.308150	0.579290
C351	C35	0.966180	0.835800	0.633440
C361	C36	0.388710	0.396360	0.341220
C371	C37	0.819610	0.998790	0.975390
C381	C38	0.524540	0.558850	0.959470
C391	C39	0.094150	0.028080	0.698820
C401	C40	0.582660	0.535360	0.534520
C411	C41	0.803520	0.028280	0.571280
C421	C42	0.300490	0.464280	0.547540
C431	C43	0.118020	0.034520	0.464640
C441	C44	0.965330	0.461130	0.816210
C451	C45	0.973350	0.975020	0.695280
C461	C46	0.374800	0.428720	0.528280
C471	C47	0.207120	0.951410	0.387950
C481	C48	0.059280	0.396430	0.841810
C491	C49	0.517690	0.704950	0.217670
C501	C50	0.822940	0.293990	0.665130
C511	C51	0.599800	0.588590	0.951610
C521	C52	0.545550	0.229250	0.870450
C531	C53	0.611280	0.311030	0.894210
C541	C54	0.175610	0.107380	0.240200
C551	C55	0.927690	0.420070	0.247550
C561	C56	0.527720	0.340070	0.831090
C571	C57	0.454450	0.770750	0.129550
C581	C58	0.925050	0.612950	0.083350
C591	C59	0.514430	0.808860	0.067480
C601	C60	0.573540	0.683790	0.461130
C611	C61	0.781540	0.183790	0.961130
C621	C62	0.620540	0.843560	0.233160
C631	C63	0.180390	0.001210	0.024610
C641	C64	0.448590	0.951610	0.911410
C651	C65	0.787980	0.343520	0.524120
C661	C66	0.878300	0.817270	0.620530
C671	C67	0.183090	0.911840	0.382180
C681	C68	0.605070	0.287240	0.444820
C691	C69	0.426460	0.316210	0.538870
C701	C70	0.588180	0.856320	0.194520
C711	C71	0.347760	0.747550	0.579930
C721	C72	0.630910	0.160510	0.875670
C731	C73	0.096920	0.528280	0.071280
C741	C74	0.475460	0.441150	0.040530
C751	C75	0.666100	0.100450	0.115750
C761	C76	0.316450	0.414610	0.085890
C771	C77	0.721990	0.235510	0.512710
C781	C78	0.400910	0.320550	0.088430
C791	C79	0.167090	0.339490	0.624330
C801	C80	0.818400	0.475390	0.001210
C811	C81	0.890770	0.691140	0.432520
C821	C82	0.878650	0.112950	0.583350
C831	C83	0.455710	0.341810	0.603570
C841	C84	0.831800	0.071280	0.971720
C851	C85	0.163180	0.870310	0.877930
C861	C86	0.799980	0.421560	0.273080
C871	C87	0.457140	0.058850	0.459470
C881	C88	0.143080	0.016150	0.501690
C891	C89	0.797520	0.103570	0.658190
C901	C90	0.504140	0.026650	0.431870
C911	C91	0.376340	0.762920	0.890600
C921	C92	0.623660	0.237080	0.109400
C931	C93	0.495860	0.973350	0.568130
C941	C94	0.511930	0.665130	0.206010
C951	C95	0.257330	0.961130	0.316210
C961	C96	0.139020	0.643680	0.305480
C971	C97	0.916660	0.002800	0.364880
C981	C98	0.416000	0.129550	0.729250
C991	C99	0.683480	0.811030	0.394210
C1001	C100	0.766550	0.615750	0.899550
C1011	C101	0.922550	0.764820	0.428280
C1021	C102	0.510660	0.088430	0.179450
C1031	C103	0.617700	0.600450	0.615750
C1041	C104	0.051630	0.804720	0.975020
C1051	C105	0.073060	0.726920	0.921560
C1061	C106	0.360000	0.088590	0.451610
C1071	C107	0.882820	0.534520	0.964640
C1081	C108	0.551410	0.048390	0.088590
C1091	C109	0.735360	0.782330	0.204950
C1101	C110	0.421140	0.984600	0.878920
C1111	C111	0.005380	0.921560	0.773080
C1121	C112	0.729880	0.280780	0.504060
C1131	C113	0.493420	0.875670	0.339490
C1141	C114	0.470140	0.262920	0.390600
C1151	C115	0.316520	0.188970	0.605790
C1161	C116	0.312100	0.475880	0.843520
C1171	C117	0.489340	0.911570	0.820550
C1181	C118	0.207030	0.698820	0.471920
C1191	C119	0.215340	0.484600	0.378920
C1201	C120	0.152540	0.964640	0.965480
C1211	C121	0.095310	0.079930	0.252450
C1221	C122	0.278010	0.764490	0.487290
C1231	C123	0.358810	0.168910	0.840070
C1241	C124	0.729930	0.658780	0.896360
C1251	C125	0.121350	0.887050	0.416650
C1261	C126	0.151970	0.547540	0.035720
C1271	C127	0.158140	0.415480	0.202840
C1281	C128	0.300060	0.121080	0.484600
C1291	C129	0.976810	0.607380	0.740200
C1301	C130	0.417340	0.464640	0.465480
C1311	C131	0.904690	0.920070	0.747550
C1321	C132	0.200020	0.578440	0.726920
C1331	C133	0.151790	0.397470	0.475550
C1341	C134	0.791420	0.375670	0.839490
C1351	C135	0.957500	0.012710	0.764490
C1361	C136	0.131500	0.024120	0.656480
C1371	C137	0.382300	0.399550	0.384250
C1381	C138	0.083390	0.459470	0.441150
C1391	C139	0.916610	0.540530	0.558850
C1401	C140	0.844380	0.843520	0.024120
C1411	C141	0.860980	0.356320	0.694520
C1421	C142	0.162870	0.787240	0.944820
C1431	C143	0.824390	0.892620	0.759800
C1441	C144	0.462660	0.473350	0.068130
C1451	C145	0.551320	0.691850	0.420710
C1461	C146	0.282990	0.740200	0.892620
C1471	C147	0.816910	0.088160	0.617820
C1481	C148	0.212020	0.656480	0.475880
C1491	C149	0.681390	0.089490	0.537330
C1501	C150	0.555500	0.305480	0.856320
C1511	C151	0.544290	0.658190	0.396430
C1521	C152	0.014720	0.219220	0.995940
C1531	C153	0.158530	0.887950	0.048590
C1541	C154	0.784340	0.497200	0.135120
C1551	C155	0.033490	0.377930	0.129690
C1561	C156	0.950110	0.444820	0.212760
C1571	C157	0.402340	0.914110	0.914610
C1581	C158	0.475190	0.897470	0.975550
C1591	C159	0.525590	0.772000	0.090220
C1601	C160	0.109230	0.308860	0.567480
C1611	C161	0.837130	0.212760	0.055180
C1621	C162	0.049890	0.555180	0.787240
C1631	C163	0.266940	0.109400	0.262920
C1641	C164	0.175240	0.752450	0.920070
C1651	C165	0.802740	0.343560	0.733160
C1661	C166	0.316950	0.085390	0.414110
C1671	C167	0.023190	0.392620	0.259800
C1681	C168	0.530790	0.931870	0.973350
C1691	C169	0.877770	0.801180	0.028080
C1701	C170	0.143650	0.524980	0.804720
C1711	C171	0.506580	0.124330	0.660510
C1721	C172	0.505490	0.105790	0.811030
C1731	C173	0.484010	0.040530	0.058850
C1741	C174	0.469210	0.068130	0.026650
C1751	C175	0.717940	0.793990	0.165130
C1761	C176	0.404930	0.387950	0.548590
C1771	C177	0.281540	0.635120	0.502800
C1781	C178	0.233940	0.495940	0.780780
C1791	C179	0.472280	0.659930	0.168910
C1801	C180	0.214930	0.158780	0.396360
C1811	C181	0.717010	0.259800	0.107380
C1821	C182	0.026650	0.024980	0.304720
C1831	C183	0.312630	0.071720	0.764820
C1841	C184	0.027970	0.420710	0.808150
C1851	C185	0.641190	0.831090	0.159930
C1861	C186	0.781850	0.884250	0.600450
C1871	C187	0.191790	0.589490	0.037330
C1881	C188	0.594260	0.621080	0.984600
C1891	C189	0.434730	0.382180	0.588160
C1901	C190	0.989340	0.995940	0.280780
C1911	C191	0.535900	0.266840	0.843560
C1921	C192	0.801980	0.133440	0.164200
C1931	C193	0.795000	0.024610	0.498790
C1941	C194	0.384350	0.264820	0.928280
C1951	C195	0.565270	0.617820	0.411840
C1961	C196	0.235230	0.952460	0.464280
C1971	C197	0.444500	0.694520	0.143680
C1981	C198	0.847460	0.035360	0.034520
C1991	C199	0.770880	0.037330	0.910510
C2001	C200	0.029790	0.735510	0.012710
C2011	C201	0.146300	0.233160	0.656440
C2021	C202	0.379460	0.156440	0.766840
C2031	C203	0.936010	0.568130	0.526650
C2041	C204	0.293790	0.501210	0.524610
C2051	C205	0.208580	0.624330	0.160510
C2061	C206	0.756830	0.079290	0.691850
C2071	C207	0.218720	0.462670	0.589490
C2081	C208	0.117180	0.465480	0.035360
C2091	C209	0.542860	0.941150	0.540530
C2101	C210	0.595070	0.612050	0.451410
C2111	C211	0.840770	0.998310	0.016150
C2121	C212	0.699510	0.535720	0.452460
C2131	C213	0.217300	0.194520	0.643680
C2141	C214	0.699940	0.878920	0.515400
C2151	C215	0.243170	0.920710	0.308150
C2161	C216	0.063990	0.431870	0.473350
C2171	C217	0.132210	0.668910	0.340070
C2181	C218	0.816100	0.682730	0.879470
C2191	C219	0.668630	0.304720	0.475020
C2201	C220	0.450740	0.024450	0.397470
C2211	C221	0.270120	0.719220	0.495940
C2221	C222	0.202480	0.896430	0.341810
C2231	C223	0.388720	0.688970	0.105790
C2241	C224	0.812310	0.035720	0.952460
C2251	C225	0.474410	0.228000	0.909780
C2261	C226	0.400380	0.633440	0.664200
C2271	C227	0.887810	0.728000	0.409780
C2281	C228	0.640000	0.911410	0.548390
C2291	C229	0.183900	0.317270	0.120530
C2301	C230	0.373710	0.896360	0.841220
C2311	C231	0.718950	0.415010	0.843690
C2321	C232	0.611290	0.603640	0.658780
C2331	C233	0.866040	0.656310	0.415010
C2341	C234	0.919460	0.864880	0.997200
C2351	C235	0.072310	0.579930	0.752450
C2361	C236	0.121700	0.182730	0.379470
C2371	C237	0.868500	0.975880	0.343520
C2381	C238	0.940310	0.795050	0.282330
C2391	C239	0.411420	0.629690	0.622070
C2401	C240	0.297590	0.590220	0.228000
C2411	C241	0.860740	0.609400	0.762920
C2421	C242	0.953520	0.451410	0.887950
C2431	C243	0.278540	0.411570	0.320550
C2441	C244	0.372660	0.475550	0.102530
C2451	C245	0.268940	0.414110	0.414610
C2461	C246	0.774800	0.370450	0.770750
C2471	C247	0.764770	0.047540	0.535720
C2481	C248	0.562640	0.156310	0.915010
C2491	C249	0.098910	0.841810	0.103570
C2501	C250	0.515990	0.959470	0.941150
C2511	C251	0.892310	0.944820	0.712760
C2521	C252	0.080540	0.135120	0.002800
C2531	C253	0.168200	0.928720	0.028280
C2541	C254	0.958890	0.877930	0.629690
C2551	C255	0.139260	0.390600	0.237080
C2561	C256	0.733060	0.890600	0.737080
C2571	C257	0.264640	0.217670	0.795050
C2581	C258	0.839080	0.516150	0.001690
C2591	C259	0.077450	0.235180	0.571720
C2601	C260	0.010660	0.004060	0.719220
C2611	C261	0.498830	0.379470	0.317270
C2621	C262	0.801120	0.840070	0.331090
C2631	C263	0.309890	0.179450	0.411570
C2641	C264	0.233450	0.384250	0.100450
C2651	C265	0.360980	0.797160	0.915480
C2661	C266	0.196480	0.971720	0.428720
C2671	C267	0.282060	0.206010	0.834870
C2681	C268	0.198880	0.159930	0.668910
C2691	C269	0.625200	0.571280	0.471720
C2701	C270	0.501170	0.620530	0.682730
C2711	C271	0.133960	0.343690	0.584990
C2721	C272	0.350830	0.571720	0.264820
C2731	C273	0.464100	0.733160	0.156440
C2741	C274	0.074950	0.387050	0.916650
C2751	C275	0.159230	0.001690	0.983850
C2761	C276	0.022890	0.411840	0.882180
C2771	C277	0.122230	0.198820	0.971920
C2781	C278	0.400200	0.411410	0.048390
C2791	C279	0.418090	0.067480	0.691140
C2801	C280	0.836820	0.129690	0.122070
C2811	C281	0.477650	0.084990	0.656310
C2821	C282	0.922310	0.394210	0.688970
C2831	C283	0.405740	0.378920	0.015400
C2841	C284	0.695570	0.120530	0.182730
C2851	C285	0.841470	0.112050	0.951410
C2861	C286	0.394930	0.712760	0.555180
C2871	C287	0.777360	0.282330	0.704950
C2881	C288	0.644770	0.498310	0.516150
C2891	C289	0.687370	0.928280	0.235180
C2901	C290	0.584000	0.870450	0.270750
C2911	C291	0.785070	0.841220	0.603640
C2921	C292	0.177060	0.706010	0.334870
C2931	C293	0.537340	0.526650	0.931870
C2941	C294	0.792970	0.301180	0.528080
C2951	C295	0.155620	0.156480	0.975880
C2961	C296	0.811610	0.548390	0.588590
C2971	C297	0.321050	0.471920	0.801180
C2981	C298	0.848030	0.452460	0.964280
C2991	C299	0.781280	0.537330	0.410510
C3001	C300	0.181600	0.524610	0.998790
C3011	C301	0.034670	0.538870	0.183790
C3021	C302	0.229120	0.962670	0.089490
C3031	C303	0.270070	0.341220	0.103640
C3041	C304	0.784660	0.515400	0.621080
C3051	C305	0.059690	0.204950	0.717670
C3061	C306	0.903080	0.471720	0.928720
C3071	C307	0.064580	0.335800	0.133440
C3081	C308	0.218460	0.816210	0.038870
C3091	C309	0.369090	0.839490	0.124330
C3101	C310	0.977110	0.588160	0.117820
C3111	C311	0.355230	0.501690	0.483850
C3121	C312	0.766060	0.504060	0.219220
C3131	C313	0.198020	0.866560	0.835800
C3141	C314	0.215660	0.502800	0.864880
C3151	C315	0.529860	0.737080	0.609400
C3161	C316	0.742670	0.038870	0.683790
C3171	C317	0.599620	0.366560	0.335800
C3181	C318	0.853700	0.766840	0.343560
C3191	C319	0.318610	0.910510	0.462670
C3201	C320	0.985280	0.780780	0.004060
C3211	C321	0.626290	0.103640	0.158780
C3221	C322	0.276460	0.084520	0.297160
C3231	C323	0.494510	0.894210	0.188970
C3241	C324	0.856920	0.983850	0.498310
C3251	C325	0.041110	0.122070	0.370310
C3261	C326	0.281050	0.584990	0.156310
C3271	C327	0.549260	0.975550	0.602530
C3281	C328	0.627340	0.524450	0.897470
C3291	C329	0.702410	0.409780	0.772000
C3301	C330	0.522350	0.915010	0.343690
C3311	C331	0.940720	0.603570	0.158190
C3321	C332	0.008400	0.916650	0.112950
C3331	C333	0.205000	0.975390	0.501210
C3341	C334	0.234700	0.487290	0.735510
C3351	C335	0.488070	0.334870	0.793990
C3361	C336	0.854750	0.729250	0.370450
C3371	C337	0.588580	0.370310	0.377930
C3381	C338	0.581910	0.932520	0.308860
C3391	C339	0.304430	0.879470	0.817270
C3401	C340	0.639020	0.202840	0.084520
C3411	C341	0.718460	0.364880	0.497200
C3421	C342	0.083340	0.997200	0.635120
C3431	C343	0.905850	0.971920	0.301180
C3441	C344	0.094930	0.882180	0.088160
C3451	C345	0.832910	0.660510	0.375670
C3461	C346	0.188390	0.451610	0.411410
C3471	C347	0.116930	0.165130	0.706010
C3481	C348	0.678950	0.528080	0.198820
C3491	C349	0.615650	0.735180	0.071720
C3501	C350	0.107690	0.055180	0.287240
C3511	C351	0.690110	0.820550	0.588430
C3521	C352	0.145250	0.270750	0.629550
C3531	C353	0.163880	0.808150	0.079290
C3541	C354	0.867790	0.331090	0.659930
C3551	C355	0.331370	0.695280	0.524980
C3561	C356	0.323290	0.567480	0.191140
C3571	C357	0.033820	0.164200	0.366560
C3581	C358	0.836120	0.191850	0.920710
C3591	C359	0.077690	0.605790	0.311030
C3601	C360	0.649170	0.428280	0.735180
C3611	C361	0.578860	0.015400	0.121080
C3621	C362	0.046480	0.548590	0.112050
C3631	C363	0.160920	0.483850	0.998310
C3641	C364	0.042500	0.987290	0.235510
C3651	C365	0.970210	0.264490	0.987290
C3661	C366	0.222640	0.717670	0.295050
C3671	C367	0.706210	0.498790	0.475390
C3681	C368	0.808210	0.410510	0.962670
C3691	C369	0.881980	0.965480	0.535360
C3701	C370	0.573620	0.702840	0.584520
C3711	C371	0.652240	0.252450	0.420070
C3721	C372	0.225200	0.629550	0.229250
C3731	C373	0.991600	0.083350	0.887050
C3741	C374	0.824760	0.247550	0.079930
C3751	C375	0.597660	0.085890	0.085390
C3761	C376	0.187690	0.964280	0.047540
C3771	C377	0.599090	0.679450	0.911570
C3781	C378	0.524810	0.102530	0.024450
C3791	C379	0.538000	0.583350	0.387050
C3801	C380	0.935420	0.664200	0.866560
C3811	C381	0.426380	0.297160	0.415480
C3821	C382	0.411820	0.143680	0.805480
N11	N1	0.503570	0.261660	0.806200
N21	N2	0.660370	0.346240	0.472420
N31	N3	0.993390	0.027580	0.346240
N41	N4	0.587840	0.111700	0.053220
N51	N5	0.935300	0.558090	0.809710
N61	N6	0.765230	0.306200	0.738340
N71	N7	0.064700	0.441910	0.190290
N81	N8	0.309770	0.193800	0.761660
N91	N9	0.300460	0.446780	0.111700
N101	N10	0.478770	0.146530	0.695730
N111	N11	0.132760	0.097680	0.385800
N121	N12	0.841280	0.071080	0.012960
N131	N13	0.252760	0.388300	0.446780
N141	N14	0.641060	0.946780	0.611700
N151	N15	0.803100	0.941910	0.690290
N161	N16	0.574680	0.571080	0.512960
N171	N17	0.769560	0.114200	0.097680
N181	N18	0.116240	0.402320	0.114200
N191	N19	0.521230	0.853470	0.304270
N201	N20	0.406970	0.355210	0.523450
N211	N21	0.867210	0.472420	0.153760
N221	N22	0.593030	0.644790	0.476550
N231	N23	0.745010	0.190290	0.058090
N241	N24	0.762180	0.023450	0.644790
N251	N25	0.506610	0.690290	0.558090
N261	N26	0.785630	0.144790	0.976550
N271	N27	0.230440	0.885800	0.902320
N281	N28	0.690230	0.806200	0.238340
N291	N29	0.196900	0.058090	0.309710
N301	N30	0.412160	0.888300	0.946780
N311	N31	0.425320	0.428920	0.487040
N321	N32	0.358940	0.053220	0.388300
N331	N33	0.006610	0.972420	0.653760
N341	N34	0.087640	0.487040	0.071080
N351	N35	0.174500	0.304270	0.646530
N361	N36	0.699540	0.553220	0.888300
N371	N37	0.234770	0.693800	0.261660
N381	N38	0.867240	0.902320	0.614200
N391	N39	0.930420	0.476550	0.855210
N401	N40	0.237820	0.976550	0.355210
N411	N41	0.020970	0.846240	0.972420
N421	N42	0.254990	0.809710	0.941910
N431	N43	0.979030	0.153760	0.027580
N441	N44	0.481440	0.385800	0.402320
N451	N45	0.854240	0.987040	0.571080
N461	N46	0.747240	0.611700	0.553220
N471	N47	0.493390	0.309710	0.441910
N481	N48	0.069580	0.523450	0.144790
N491	N49	0.912360	0.512960	0.928920
N501	N50	0.071430	0.238340	0.693800
N511	N51	0.145760	0.012960	0.428920
N521	N52	0.214370	0.855210	0.023450
N531	N53	0.625300	0.195730	0.853470
N541	N54	0.518560	0.614200	0.597680
N551	N55	0.158720	0.928920	0.987040
N561	N56	0.821030	0.353470	0.804270
N571	N57	0.132790	0.527580	0.846240
N581	N58	0.374700	0.804270	0.146530
N591	N59	0.496430	0.738340	0.193800
N601	N60	0.339630	0.653760	0.527580
N611	N61	0.178970	0.646530	0.195730
N621	N62	0.825500	0.695730	0.353470
N631	N63	0.928570	0.761660	0.306200
N641	N64	0.883760	0.597680	0.885800
O11	O1	0.144100	0.724860	0.009140
O21	O2	0.270830	0.212090	0.432450
O31	O3	0.366370	0.041610	0.783650
O41	O4	0.047570	0.287460	0.975800
O51	O5	0.691630	0.458390	0.716350
O61	O6	0.417630	0.098900	0.162840
O71	O7	0.296720	0.432450	0.287910
O81	O8	0.592020	0.716350	0.041610
O91	O9	0.499820	0.447400	0.595960
O101	O10	0.321560	0.718320	0.091560
O111	O11	0.716350	0.118920	0.515780
O121	O12	0.150020	0.216350	0.541610
O131	O13	0.319560	0.987740	0.867740
O141	O14	0.125240	0.507330	0.367590
O151	O15	0.713460	0.725010	0.085470
O161	O16	0.324960	0.487740	0.367740
O171	O17	0.307300	0.367740	0.012260
O181	O18	0.308370	0.541610	0.283650
O191	O19	0.413120	0.908440	0.218320
O201	O20	0.729170	0.787910	0.567550
O211	O21	0.621900	0.224860	0.509140
O221	O22	0.043180	0.052600	0.904040
O231	O23	0.039880	0.591560	0.281680
O241	O24	0.368560	0.218320	0.591560
O251	O25	0.972160	0.924120	0.811960
O261	O26	0.187300	0.132260	0.487740
O271	O27	0.483470	0.337160	0.098900
O281	O28	0.378100	0.775140	0.490860
O291	O29	0.103720	0.688040	0.924120
O301	O30	0.407980	0.283650	0.958390
O311	O31	0.422800	0.907810	0.441590
O321	O32	0.139400	0.847570	0.410630
O331	O33	0.714070	0.420990	0.253470
O341	O34	0.492830	0.632410	0.007330
O351	O35	0.347530	0.152440	0.590500
O361	O36	0.631440	0.781680	0.408440
O371	O37	0.798930	0.914530	0.225010
O381	O38	0.664970	0.524200	0.287460
O391	O39	0.680440	0.012260	0.132260
O401	O40	0.678440	0.281680	0.908440
O411	O41	0.419530	0.162840	0.401100
O421	O42	0.851050	0.381080	0.984220
O431	O43	0.967540	0.746530	0.920990
O441	O44	0.500030	0.909500	0.152440
O451	O45	0.335030	0.475800	0.712540
O461	O46	0.285930	0.579010	0.746530
O471	O47	0.095780	0.404040	0.947400
O481	O48	0.023940	0.774990	0.414530
O491	O49	0.102400	0.347570	0.910630
O501	O50	0.135610	0.441590	0.592190
O511	O51	0.590470	0.347560	0.909500
O521	O52	0.272200	0.592190	0.058410
O531	O53	0.904220	0.595960	0.052600
O541	O54	0.482920	0.932450	0.787910
O551	O55	0.897600	0.652430	0.089370
O561	O56	0.232130	0.484220	0.618920
O571	O57	0.632570	0.867590	0.492670
O581	O58	0.330610	0.941590	0.092190
O591	O59	0.835270	0.015780	0.881080
O601	O60	0.810830	0.212540	0.524200
O611	O61	0.409530	0.652440	0.090500
O621	O62	0.767870	0.515780	0.381080
O631	O63	0.580470	0.837160	0.598900
O641	O64	0.052780	0.904040	0.447400
O651	O65	0.669390	0.058410	0.907810
O661	O66	0.976060	0.225010	0.585470
O671	O67	0.061970	0.590500	0.347560
O681	O68	0.947220	0.095960	0.552600
O691	O69	0.201070	0.085470	0.774990
O701	O70	0.499840	0.007330	0.867590
O711	O71	0.023370	0.024200	0.787460
O721	O72	0.550030	0.589370	0.347570
O731	O73	0.846760	0.009140	0.775140
O741	O74	0.153240	0.990860	0.224860
O751	O75	0.027840	0.075880	0.188040
O761	O76	0.791760	0.424120	0.311960
O771	O77	0.111470	0.920990	0.753470
O781	O78	0.652470	0.847560	0.409500
O791	O79	0.976630	0.975800	0.212540
O801	O80	0.860600	0.152430	0.589370
O811	O81	0.415370	0.287910	0.067550
O821	O82	0.500180	0.552600	0.404040
O831	O83	0.449970	0.410630	0.652430
O841	O84	0.864390	0.558410	0.407810
O851	O85	0.692700	0.632260	0.987740
O861	O86	0.164730	0.984220	0.118920
O871	O87	0.148950	0.618920	0.015780
O881	O88	0.208240	0.575880	0.688040
O891	O89	0.633630	0.958390	0.216350
O901	O90	0.938030	0.409500	0.652440
O911	O91	0.703280	0.567550	0.712090
O921	O92	0.283650	0.881080	0.484220
O931	O93	0.584630	0.712090	0.932450
O941	O94	0.577200	0.092190	0.558410
O951	O95	0.896280	0.311960	0.075880
O961	O96	0.675040	0.512260	0.632260
O971	O97	0.582370	0.901100	0.837160
O981	O98	0.561530	0.414530	0.725010
O991	O99	0.517080	0.067550	0.212090
O1001	O100	0.960120	0.408440	0.718320
O1011	O101	0.500160	0.992670	0.132410
O1021	O102	0.586880	0.091560	0.781680
O1031	O103	0.956820	0.947400	0.095960
O1041	O104	0.868960	0.509140	0.275140
O1051	O105	0.499970	0.090500	0.847560
O1061	O106	0.013030	0.089370	0.847570
O1071	O107	0.032460	0.253470	0.079010
O1081	O108	0.812700	0.867740	0.512260
O1091	O109	0.516530	0.662840	0.901100
O1101	O110	0.874760	0.492670	0.632410
O1111	O111	0.727800	0.407810	0.941590
O1121	O112	0.367430	0.132410	0.507330
O1131	O113	0.131040	0.490860	0.724860
O1141	O114	0.986970	0.910630	0.152430
O1151	O115	0.849980	0.783650	0.458390
O1161	O116	0.189170	0.787460	0.475800
O1171	O117	0.507170	0.367590	0.992670
O1181	O118	0.855900	0.275140	0.990860
O1191	O119	0.286540	0.274990	0.914530
O1201	O120	0.438470	0.585470	0.274990
O1211	O121	0.952430	0.712540	0.024200
O1221	O122	0.888530	0.079010	0.246530
