data_cg8013317_si_003_clean_PM
_symmetry_space_group_name_H-M	'P1'
_cell_length_a	13.517900
_cell_length_b	14.611400
_cell_length_c	16.612600
_cell_angle_alpha	79.152200
_cell_angle_beta	65.992400
_cell_angle_gamma	62.446700
_symmetry_Int_Tables_number 1

loop_
_symmetry_equiv_pos_as_xyz
'x,y,z'

loop_
_atom_site_label
_atom_site_type_symbol
_atom_site_fract_x
_atom_site_fract_y
_atom_site_fract_z
Co11	Co1	0.875000	0.750000	0.750000
Co21	Co2	0.125000	0.250000	0.250000
H11	H1	0.829800	0.275200	0.071000
H21	H2	0.016800	0.140400	0.916600
H31	H3	0.460200	0.400600	0.367400
H41	H4	0.327600	0.900600	0.632600
H51	H5	0.447000	0.130400	0.670800
H61	H6	0.128700	0.468400	0.165200
H71	H7	0.158200	0.010000	0.741800
H81	H8	0.849800	0.245600	0.387800
H91	H9	0.600000	0.490000	0.741800
H101	H10	0.206100	0.031600	0.165200
H111	H11	0.657200	0.859600	0.416600
H121	H12	0.871300	0.531600	0.834800
H131	H13	0.672400	0.099400	0.367400
H141	H14	0.605000	0.724800	0.571000
H151	H15	0.380500	0.418800	0.024800
H161	H16	0.170200	0.724800	0.929000
H171	H17	0.566600	0.359600	0.916600
H181	H18	0.539800	0.599400	0.632600
H191	H19	0.700700	0.418800	0.475200
H201	H20	0.262300	0.031600	0.334800
H211	H21	0.983200	0.859600	0.083400
H221	H22	0.639200	0.400600	0.132600
H231	H23	0.675900	0.918800	0.524800
H241	H24	0.599200	0.224800	0.071000
H251	H25	0.331800	0.010000	0.758200
H261	H26	0.902900	0.468400	0.334800
H271	H27	0.187400	0.893000	0.110600
H281	H28	0.553000	0.869600	0.329200
H291	H29	0.262400	0.254400	0.387800
H301	H30	0.419600	0.893000	0.389400
H311	H31	0.433400	0.640400	0.083400
H321	H32	0.400000	0.510000	0.258200
H331	H33	0.798000	0.393000	0.889400
H341	H34	0.299300	0.581200	0.524800
H351	H35	0.676000	0.224800	0.429000
H361	H36	0.324100	0.081200	0.475200
H371	H37	0.077400	0.869600	0.170800
H381	H38	0.395000	0.275200	0.429000
H391	H39	0.841800	0.990000	0.258200
H401	H40	0.410000	0.490000	0.758200
H411	H41	0.668200	0.990000	0.241800
H421	H42	0.404600	0.245600	0.112200
H431	H43	0.619500	0.581200	0.975200
H441	H44	0.342800	0.140400	0.583400
H451	H45	0.580400	0.107000	0.610600
H461	H46	0.202000	0.607000	0.110600
H471	H47	0.016800	0.745600	0.887800
H481	H48	0.573800	0.359600	0.583400
H491	H49	0.271800	0.900600	0.867400
H501	H50	0.590000	0.510000	0.241800
H511	H51	0.737700	0.968400	0.665200
H521	H52	0.595400	0.754400	0.887800
H531	H53	0.922600	0.130400	0.829200
H541	H54	0.812600	0.107000	0.889400
H551	H55	0.097100	0.531600	0.665200
H561	H56	0.150200	0.754400	0.612200
H571	H57	0.748200	0.369600	0.829200
H581	H58	0.691000	0.607000	0.389400
H591	H59	0.426200	0.640400	0.416600
H601	H60	0.905300	0.918800	0.975200
H611	H61	0.309000	0.393000	0.610600
H621	H62	0.382200	0.369600	0.670800
H631	H63	0.360800	0.599400	0.867400
H641	H64	0.324000	0.775200	0.571000
H651	H65	0.617800	0.630400	0.329200
H661	H66	0.251800	0.630400	0.170800
H671	H67	0.737600	0.745600	0.612200
H681	H68	0.400800	0.775200	0.929000
H691	H69	0.728200	0.099400	0.132600
H701	H70	0.793900	0.968400	0.834800
H711	H71	0.094700	0.081200	0.024800
H721	H72	0.983200	0.254400	0.112200
C11	C1	0.946850	0.054420	0.259800
C21	C2	0.301790	0.606160	0.848460
C31	C3	0.826390	0.551660	0.799240
C41	C4	0.592050	0.606160	0.651540
C51	C5	0.047220	0.964180	0.066580
C61	C6	0.372600	0.459680	0.283880
C71	C7	0.661840	0.576600	0.362160
C81	C8	0.848730	0.195080	0.361860
C91	C9	0.950560	0.130140	0.297380
C101	C10	0.386200	0.535820	0.066580
C111	C11	0.252060	0.369860	0.297380
C121	C12	0.125630	0.051660	0.200760
C131	C13	0.498730	0.054420	0.240200
C141	C14	0.173610	0.448340	0.200760
C151	C15	0.422020	0.464180	0.566580
C161	C16	0.761070	0.445580	0.240200
C171	C17	0.706650	0.554420	0.740200
C181	C18	0.543810	0.804920	0.861860
C191	C19	0.151270	0.804920	0.638140
C201	C20	0.476000	0.923400	0.362160
C211	C21	0.488600	0.964180	0.433420
C221	C22	0.383840	0.959680	0.783880
C231	C23	0.899400	0.076600	0.862160
C241	C24	0.743590	0.106160	0.348460
C251	C25	0.616160	0.040320	0.216120
C261	C26	0.619220	0.451920	0.485020
C271	C27	0.293350	0.445580	0.259800
C281	C28	0.631940	0.681860	0.613860
C291	C29	0.543270	0.416600	0.549940
C301	C30	0.427660	0.818140	0.886140
C311	C31	0.990190	0.916600	0.049940
C321	C32	0.338160	0.423400	0.637840
C331	C33	0.745800	0.181860	0.386140
C341	C34	0.156480	0.959680	0.716120
C351	C35	0.878080	0.369860	0.202620
C361	C36	0.395760	0.048080	0.485020
C371	C37	0.428860	0.451920	0.014980
C381	C38	0.349750	0.893840	0.848460
C391	C39	0.256410	0.893840	0.651540
C401	C40	0.878050	0.448340	0.299240
C411	C41	0.511400	0.035820	0.566580
C421	C42	0.094330	0.695080	0.861860
C431	C43	0.571140	0.548080	0.985020
C441	C44	0.254200	0.818140	0.613860
C451	C45	0.572340	0.181860	0.113860
C461	C46	0.580700	0.869860	0.797380
C471	C47	0.677290	0.948340	0.700760
C481	C48	0.407950	0.393840	0.348460
C491	C49	0.593210	0.916600	0.450060
C501	C50	0.459870	0.583400	0.049940
C511	C51	0.710590	0.695080	0.638140
C521	C52	0.747940	0.630140	0.702620
C531	C53	0.380780	0.548080	0.514980
C541	C54	0.501270	0.945580	0.759800
C551	C55	0.540130	0.416600	0.950060
C561	C56	0.577980	0.535820	0.433420
C571	C57	0.322710	0.051660	0.299240
C581	C58	0.874370	0.948340	0.799240
C591	C59	0.943840	0.951920	0.985020
C601	C60	0.049440	0.869860	0.702620
C611	C61	0.456730	0.583400	0.450060
C621	C62	0.952780	0.035820	0.933420
C631	C63	0.261560	0.576600	0.137840
C641	C64	0.813800	0.318140	0.113860
C651	C65	0.419300	0.130140	0.202620
C661	C66	0.056160	0.048080	0.014980
C671	C67	0.524000	0.076600	0.637840
C681	C68	0.289410	0.304920	0.361860
C691	C69	0.905670	0.304920	0.138140
C701	C70	0.332280	0.540320	0.783880
C711	C71	0.053150	0.945580	0.740200
C721	C72	0.186200	0.681860	0.886140
C731	C73	0.238930	0.554420	0.759800
C741	C74	0.843520	0.040320	0.283880
C751	C75	0.613800	0.464180	0.933420
C761	C76	0.604240	0.951920	0.514980
C771	C77	0.627400	0.540320	0.716120
C781	C78	0.698210	0.393840	0.151540
C791	C79	0.738440	0.423400	0.862160
C801	C80	0.121950	0.551660	0.700760
C811	C81	0.456190	0.195080	0.138140
C821	C82	0.100600	0.923400	0.137840
C831	C83	0.406790	0.083400	0.549940
C841	C84	0.650250	0.106160	0.151540
C851	C85	0.667720	0.459680	0.216120
C861	C86	0.009810	0.083400	0.950060
C871	C87	0.368060	0.318140	0.386140
C881	C88	0.121920	0.630140	0.797380
N11	N1	0.950060	0.372900	0.242980
N21	N2	0.939120	0.995460	0.801880
N31	N3	0.822960	0.627100	0.742980
N41	N4	0.434580	0.004540	0.301880
N51	N5	0.759000	0.504540	0.801880
N61	N6	0.934060	0.872900	0.742980
N71	N7	0.060880	0.004540	0.198120
N81	N8	0.241000	0.495460	0.198120
N91	N9	0.236460	0.504540	0.698120
N101	N10	0.177040	0.372900	0.257020
N111	N11	0.693040	0.872900	0.757020
N121	N12	0.065940	0.127100	0.257020
N131	N13	0.763540	0.495460	0.301880
N141	N14	0.049940	0.627100	0.757020
N151	N15	0.565420	0.995460	0.698120
N161	N16	0.306960	0.127100	0.242980
