data_cg801164f_si_001_clean_PM
_symmetry_space_group_name_H-M	'P1'
_cell_length_a	10.590000
_cell_length_b	22.787000
_cell_length_c	27.675000
_cell_angle_alpha	107.790000
_cell_angle_beta	90.000000
_cell_angle_gamma	90.000000
_symmetry_Int_Tables_number 1

loop_
_symmetry_equiv_pos_as_xyz
'x,y,z'

loop_
_atom_site_label
_atom_site_type_symbol
_atom_site_fract_x
_atom_site_fract_y
_atom_site_fract_z
Co11	Co1	0.803350	0.852060	0.148800
Co21	Co2	0.196650	0.147940	0.851200
Co31	Co3	0.408890	0.222560	0.934380
Co41	Co4	0.660760	0.647470	0.268550
Co51	Co5	0.584750	0.711250	0.832880
Co61	Co6	0.591110	0.777440	0.065620
Co71	Co7	0.696650	0.852060	0.648800
Co81	Co8	0.690440	0.698860	0.141750
Co91	Co9	0.291640	0.219480	0.243430
Co101	Co10	0.208360	0.219480	0.743430
Co111	Co11	0.791640	0.780520	0.256570
Co121	Co12	0.915250	0.711250	0.332880
Co131	Co13	0.839240	0.647470	0.768550
Co141	Co14	0.190440	0.301140	0.358250
Co151	Co15	0.339240	0.352530	0.731450
Co161	Co16	0.908890	0.777440	0.565620
Co171	Co17	0.809560	0.698860	0.641750
Co181	Co18	0.091110	0.222560	0.434380
Co191	Co19	0.309560	0.301140	0.858250
Co201	Co20	0.415250	0.288750	0.167120
Co211	Co21	0.303350	0.147940	0.351200
Co221	Co22	0.708360	0.780520	0.756570
Co231	Co23	0.084750	0.288750	0.667120
Co241	Co24	0.160760	0.352530	0.231450
H11	H1	0.830800	0.410400	0.392400
H21	H2	0.619600	0.058700	0.927300
H31	H3	0.578000	0.470000	0.172400
H41	H4	0.934700	0.467300	0.040400
H51	H5	0.534700	0.887900	0.380900
H61	H6	0.508000	0.068600	0.468200
H71	H7	0.235000	0.018000	0.089600
H81	H8	0.931100	0.057100	0.045100
H91	H9	0.708100	0.265300	0.720500
H101	H10	0.922000	0.470000	0.672400
H111	H11	0.465300	0.112100	0.619100
H121	H12	0.008000	0.931400	0.031800
H131	H13	0.782000	0.915900	0.830300
H141	H14	0.886000	0.802000	0.655300
H151	H15	0.880400	0.058700	0.427300
H161	H16	0.330800	0.589600	0.107600
H171	H17	0.386000	0.198000	0.844700
H181	H18	0.957200	0.372700	0.527100
H191	H19	0.431100	0.942900	0.454900
H201	H20	0.078000	0.530000	0.327600
H211	H21	0.265000	0.018000	0.589600
H221	H22	0.434700	0.532700	0.459600
H231	H23	0.542800	0.372700	0.027100
H241	H24	0.563400	0.585000	0.526700
H251	H25	0.989700	0.153500	0.278900
H261	H26	0.004600	0.000200	0.283700
H271	H27	0.865000	0.677000	0.241300
H281	H28	0.495400	0.000200	0.783700
H291	H29	0.034700	0.112100	0.119100
H301	H30	0.965300	0.887900	0.880900
H311	H31	0.743200	0.804200	0.461600
H321	H32	0.791900	0.265300	0.220500
H331	H33	0.492000	0.931400	0.531800
H341	H34	0.208100	0.734700	0.779500
H351	H35	0.380400	0.941300	0.072700
H361	H36	0.635000	0.677000	0.741300
H371	H37	0.669200	0.410400	0.892400
H381	H38	0.135000	0.323000	0.758700
H391	H39	0.936600	0.585000	0.026700
H401	H40	0.737900	0.669500	0.437700
H411	H41	0.010300	0.846500	0.721100
H421	H42	0.995400	0.999800	0.716300
H431	H43	0.565300	0.467300	0.540400
H441	H44	0.543500	0.449400	0.617800
H451	H45	0.169200	0.589600	0.607600
H461	H46	0.368400	0.556400	0.621100
H471	H47	0.868400	0.443600	0.878900
H481	H48	0.626000	0.122800	0.248000
H491	H49	0.532500	0.624700	0.644500
H501	H50	0.303900	0.760400	0.633200
H511	H51	0.436600	0.415000	0.473300
H521	H52	0.822500	0.545800	0.564600
H531	H53	0.614000	0.802000	0.155300
H541	H54	0.762100	0.669500	0.937700
H551	H55	0.615100	0.455600	0.003500
H561	H56	0.131600	0.556400	0.121100
H571	H57	0.312000	0.902200	0.220600
H581	H58	0.677500	0.545800	0.064600
H591	H59	0.177500	0.454200	0.435400
H601	H60	0.631600	0.443600	0.378900
H611	H61	0.884900	0.455600	0.503500
H621	H62	0.422000	0.530000	0.827600
H631	H63	0.322500	0.454200	0.935400
H641	H64	0.510300	0.153500	0.778900
H651	H65	0.688000	0.097800	0.779400
H661	H66	0.456500	0.550600	0.382200
H671	H67	0.467500	0.375300	0.355500
H681	H68	0.218000	0.084100	0.169700
H691	H69	0.384900	0.544400	0.996500
H701	H70	0.365000	0.323000	0.258700
H711	H71	0.114000	0.198000	0.344700
H721	H72	0.196100	0.760400	0.133200
H731	H73	0.735000	0.982000	0.410400
H741	H74	0.765000	0.982000	0.910400
H751	H75	0.874000	0.122800	0.748000
H761	H76	0.812000	0.097800	0.279400
H771	H77	0.065300	0.532700	0.959600
H781	H78	0.992000	0.068600	0.968200
H791	H79	0.956500	0.449400	0.117800
H801	H80	0.489700	0.846500	0.221100
H811	H81	0.126000	0.877200	0.252000
H821	H82	0.119600	0.941300	0.572700
H831	H83	0.568900	0.057100	0.545100
H841	H84	0.291900	0.734700	0.279500
H851	H85	0.457200	0.627300	0.972900
H861	H86	0.237900	0.330500	0.062300
H871	H87	0.032500	0.375300	0.855500
H881	H88	0.756800	0.804200	0.961600
H891	H89	0.374000	0.877200	0.752000
H901	H90	0.504600	0.999800	0.216300
H911	H91	0.043500	0.550600	0.882200
H921	H92	0.696100	0.239600	0.366800
H931	H93	0.967500	0.624700	0.144500
H941	H94	0.803900	0.239600	0.866800
H951	H95	0.068900	0.942900	0.954900
H961	H96	0.188000	0.902200	0.720600
H971	H97	0.282000	0.084100	0.669700
H981	H98	0.115100	0.544400	0.496500
H991	H99	0.256800	0.195800	0.538400
H1001	H100	0.718000	0.915900	0.330300
H1011	H101	0.063400	0.415000	0.973300
H1021	H102	0.262100	0.330500	0.562300
H1031	H103	0.042800	0.627300	0.472900
H1041	H104	0.243200	0.195800	0.038400
C11	C1	0.204500	0.768600	0.767500
C21	C2	0.167000	0.369400	0.011800
C31	C3	0.785200	0.321700	0.382200
C41	C4	0.426500	0.409100	0.504900
C51	C5	0.446500	0.588900	0.897600
C61	C6	0.678100	0.641600	0.442000
C71	C7	0.355000	0.487300	0.926300
C81	C8	0.158100	0.144400	0.947100
C91	C9	0.057500	0.117100	0.088200
C101	C10	0.566100	0.300700	0.358200
C111	C11	0.926500	0.590900	0.995100
C121	C12	0.543100	0.744500	0.656500
C131	C13	0.933900	0.300700	0.858200
C141	C14	0.355300	0.597800	0.624400
C151	C15	0.442500	0.117100	0.588200
C161	C16	0.160800	0.424500	0.334000
C171	C17	0.653400	0.842700	0.414300
C181	C18	0.846600	0.842700	0.914300
C191	C19	0.586400	0.466600	0.138200
C201	C20	0.127000	0.372000	0.146800
C211	C21	0.302400	0.853300	0.751400
C221	C22	0.009000	0.429300	0.090900
C231	C23	0.566900	0.215700	0.212400
C241	C24	0.875100	0.031100	0.394700
C251	C25	0.697600	0.146700	0.248600
C261	C26	0.855000	0.512700	0.573700
C271	C27	0.406900	0.782400	0.248800
C281	C28	0.518000	0.742900	0.245200
C291	C29	0.546600	0.361800	0.362100
C301	C30	0.339200	0.424500	0.834000
C311	C31	0.664100	0.909100	0.745800
C321	C32	0.178100	0.358400	0.058000
C331	C33	0.770700	0.808000	0.867300
C341	C34	0.746100	0.665900	0.533300
C351	C35	0.491000	0.429300	0.590900
C361	C36	0.933100	0.215700	0.712400
C371	C37	0.956900	0.744500	0.156500
C381	C38	0.817200	0.833400	0.960400
C391	C39	0.667000	0.630600	0.488200
C401	C40	0.942500	0.882900	0.911800
C411	C41	0.753900	0.665900	0.033300
C421	C42	0.129600	0.484300	0.374200
C431	C43	0.495900	0.915800	0.456100
C441	C44	0.504600	0.439900	0.544700
C451	C45	0.446900	0.090900	0.869800
C461	C46	0.046600	0.638200	0.137900
C471	C47	0.221400	0.053100	0.663000
C481	C48	0.456900	0.255500	0.343500
C491	C49	0.482000	0.257100	0.754800
C501	C50	0.164100	0.090900	0.754200
C511	C51	0.735700	0.382500	0.884700
C521	C52	0.018000	0.257100	0.254800
C531	C53	0.995400	0.439900	0.044700
C541	C54	0.802400	0.146700	0.748600
C551	C55	0.050800	0.002900	0.691100
C561	C56	0.729300	0.808000	0.367300
C571	C57	0.007100	0.639900	0.378500
C581	C58	0.714800	0.321700	0.882200
C591	C59	0.182800	0.166600	0.039600
C601	C60	0.553500	0.411100	0.102400
C611	C61	0.109500	0.541100	0.462200
C621	C62	0.531200	0.908200	0.502000
C631	C63	0.870400	0.515700	0.625800
C641	C64	0.873000	0.628000	0.853200
C651	C65	0.839200	0.575500	0.666000
C661	C66	0.684400	0.280700	0.368700
C671	C67	0.764300	0.382500	0.384700
C681	C68	0.053100	0.090900	0.369800
C691	C69	0.346600	0.157300	0.585700
C701	C70	0.835900	0.909100	0.245800
C711	C71	0.246100	0.334100	0.966700
C721	C72	0.946500	0.411100	0.602400
C731	C73	0.550800	0.997100	0.808900
C741	C74	0.809000	0.131500	0.267200
C751	C75	0.992900	0.360100	0.621500
C761	C76	0.658100	0.855600	0.552900
C771	C77	0.433100	0.784300	0.787600
C781	C78	0.235700	0.617500	0.615300
C791	C79	0.004600	0.560100	0.955300
C801	C80	0.449200	0.002900	0.191100
C811	C81	0.376400	0.133300	0.496200
C821	C82	0.413500	0.835100	0.232300
C831	C83	0.144700	0.597800	0.124400
C841	C84	0.995900	0.084200	0.043900
C851	C85	0.043100	0.255500	0.843500
C861	C86	0.434800	0.591300	0.947800
C871	C87	0.573500	0.590900	0.495100
C881	C88	0.004100	0.915800	0.956100
C891	C89	0.691000	0.131500	0.767200
C901	C90	0.053500	0.588900	0.397600
C911	C91	0.086400	0.533400	0.361800
C921	C92	0.624900	0.031100	0.894700
C931	C93	0.645400	0.951100	0.798400
C941	C94	0.609500	0.458900	0.037800
C951	C95	0.073500	0.409100	0.004900
C961	C96	0.855300	0.402200	0.875600
C971	C97	0.682800	0.833400	0.460400
C981	C98	0.468800	0.091800	0.498000
C991	C99	0.270700	0.192000	0.632700
C1001	C100	0.264300	0.617500	0.115300
C1011	C101	0.288000	0.013900	0.115200
C1021	C102	0.295500	0.768600	0.267500
C1031	C103	0.190200	0.802700	0.269300
C1041	C104	0.145000	0.487300	0.426300
C1051	C105	0.398900	0.388500	0.597500
C1061	C106	0.278600	0.053100	0.163000
C1071	C107	0.509000	0.570700	0.409100
C1081	C108	0.991000	0.570700	0.909100
C1091	C109	0.704500	0.231400	0.732500
C1101	C110	0.876400	0.866700	0.003800
C1111	C111	0.913500	0.164900	0.267700
C1121	C112	0.066900	0.784300	0.287600
C1131	C113	0.413600	0.533400	0.861800
C1141	C114	0.123600	0.133300	0.996200
C1151	C115	0.031200	0.091800	0.998000
C1161	C116	0.375100	0.968900	0.105300
C1171	C117	0.093100	0.782400	0.748800
C1181	C118	0.495400	0.560100	0.455300
C1191	C119	0.373000	0.372000	0.646800
C1201	C120	0.593100	0.217600	0.751200
C1211	C121	0.906900	0.217600	0.251200
C1221	C122	0.065200	0.591300	0.447800
C1231	C123	0.309800	0.802700	0.769300
C1241	C124	0.934800	0.408700	0.552200
C1251	C125	0.644700	0.402200	0.375600
C1261	C126	0.957300	0.037500	0.357600
C1271	C127	0.101100	0.388500	0.097500
C1281	C128	0.586500	0.164900	0.767700
C1291	C129	0.557500	0.882900	0.411800
C1301	C130	0.333000	0.369400	0.511800
C1311	C131	0.949200	0.997100	0.308900
C1321	C132	0.354600	0.048900	0.201600
C1331	C133	0.229300	0.192000	0.132700
C1341	C134	0.066100	0.699300	0.141800
C1351	C135	0.042700	0.962500	0.642400
C1361	C136	0.370400	0.484300	0.874200
C1371	C137	0.721400	0.946900	0.837000
C1381	C138	0.821900	0.641600	0.942000
C1391	C139	0.809800	0.197300	0.730700
C1401	C140	0.453400	0.638200	0.637900
C1411	C141	0.184400	0.719300	0.131300
C1421	C142	0.253900	0.334100	0.466700
C1431	C143	0.946900	0.909100	0.630200
C1441	C144	0.214800	0.678300	0.617800
C1451	C145	0.457300	0.962500	0.142400
C1461	C146	0.212000	0.013900	0.615200
C1471	C147	0.627000	0.628000	0.353200
C1481	C148	0.335900	0.090900	0.254200
C1491	C149	0.841900	0.855600	0.052900
C1501	C150	0.788000	0.986100	0.384800
C1511	C151	0.982000	0.742900	0.745200
C1521	C152	0.309000	0.868500	0.232800
C1531	C153	0.542700	0.037500	0.857600
C1541	C154	0.390500	0.541100	0.962200
C1551	C155	0.553100	0.909100	0.130200
C1561	C156	0.913600	0.466600	0.638200
C1571	C157	0.321900	0.358400	0.558000
C1581	C158	0.815600	0.280700	0.868700
C1591	C159	0.124900	0.968900	0.605300
C1601	C160	0.915500	0.300200	0.390900
C1611	C161	0.623600	0.866700	0.503800
C1621	C162	0.086500	0.835100	0.732300
C1631	C163	0.507100	0.360100	0.121500
C1641	C164	0.145400	0.048900	0.701600
C1651	C165	0.601100	0.611500	0.402500
C1661	C166	0.504100	0.084200	0.543900
C1671	C167	0.890500	0.458900	0.537800
C1681	C168	0.898900	0.611500	0.902500
C1691	C169	0.285200	0.678300	0.117800
C1701	C170	0.153400	0.157300	0.085700
C1711	C171	0.660800	0.575500	0.166000
C1721	C172	0.854600	0.951100	0.298400
C1731	C173	0.341900	0.144400	0.447100
C1741	C174	0.197600	0.853300	0.251400
C1751	C175	0.584500	0.300200	0.890900
C1761	C176	0.565200	0.408700	0.052200
C1771	C177	0.415500	0.699800	0.109100
C1781	C178	0.795500	0.231400	0.232500
C1791	C179	0.317200	0.166600	0.539600
C1801	C180	0.690200	0.197300	0.230700
C1811	C181	0.084500	0.699800	0.609100
C1821	C182	0.968800	0.908200	0.002000
C1831	C183	0.833000	0.630600	0.988200
C1841	C184	0.778600	0.946900	0.337000
C1851	C185	0.953400	0.361800	0.862100
C1861	C186	0.191000	0.868500	0.732800
C1871	C187	0.629600	0.515700	0.125800
C1881	C188	0.645000	0.512700	0.073700
C1891	C189	0.712000	0.986100	0.884800
C1901	C190	0.433900	0.699300	0.641800
C1911	C191	0.315600	0.719300	0.631300
C1921	C192	0.492900	0.639900	0.878500
O11	O1	0.692700	0.809600	0.325300
O21	O2	0.110500	0.078800	0.791300
O31	O3	0.134600	0.425400	0.288800
O41	O4	0.960100	0.792600	0.143100
O51	O5	0.192700	0.190400	0.174700
O61	O6	0.231400	0.139400	0.763100
O71	O7	0.506600	0.306800	0.092100
O81	O8	0.925400	0.255100	0.689200
O91	O9	0.768600	0.860600	0.236900
O101	O10	0.268600	0.139400	0.263100
O111	O11	0.854600	0.915000	0.658600
O121	O12	0.977400	0.864300	0.592300
O131	O13	0.493600	0.325300	0.877100
O141	O14	0.645400	0.915000	0.158600
O151	O15	0.039900	0.207400	0.856900
O161	O16	0.617600	0.751000	0.221600
O171	O17	0.117200	0.112200	0.905800
O181	O18	0.993400	0.306800	0.592100
O191	O19	0.473500	0.372100	0.166100
O201	O20	0.882800	0.887800	0.094200
O211	O21	0.389500	0.078800	0.291300
O221	O22	0.772100	0.810900	0.050600
O231	O23	0.889500	0.921200	0.208700
O241	O24	0.180400	0.306600	0.732600
O251	O25	0.660600	0.694000	0.023400
O261	O26	0.526500	0.627900	0.833900
O271	O27	0.731400	0.860600	0.736900
O281	O28	0.839400	0.694000	0.523400
O291	O29	0.967600	0.810500	0.279900
O301	O30	0.882400	0.751000	0.721600
O311	O31	0.973500	0.627900	0.333900
O321	O32	0.634600	0.574600	0.211200
O331	O33	0.671300	0.782000	0.876900
O341	O34	0.493400	0.693200	0.907900
O351	O35	0.921800	0.259600	0.413400
O361	O36	0.328700	0.216200	0.865600
O371	O37	0.006400	0.325300	0.377100
O381	O38	0.026500	0.372100	0.666100
O391	O39	0.117600	0.249000	0.278400
O401	O40	0.993600	0.674700	0.622900
O411	O41	0.718300	0.618000	0.157100
O421	O42	0.043100	0.406500	0.183200
O431	O43	0.727900	0.810900	0.550600
O441	O44	0.456900	0.406500	0.683200
O451	O45	0.506400	0.674700	0.122900
O461	O46	0.986700	0.701700	0.767100
O471	O47	0.460100	0.207400	0.356900
O481	O48	0.680400	0.693400	0.767400
O491	O49	0.539900	0.792600	0.643100
O501	O50	0.074600	0.744900	0.310800
O511	O51	0.285800	0.336700	0.424400
O521	O52	0.956900	0.593500	0.816800
O531	O53	0.828700	0.782000	0.376900
O541	O54	0.467600	0.189500	0.220100
O551	O55	0.214200	0.336700	0.924400
O561	O56	0.339400	0.306000	0.976600
O571	O57	0.574600	0.255100	0.189200
O581	O58	0.272100	0.189100	0.449400
O591	O59	0.486700	0.298300	0.732900
O601	O60	0.828700	0.783800	0.634400
O611	O61	0.171300	0.218000	0.623100
O621	O62	0.133500	0.270200	0.818800
O631	O63	0.354600	0.085000	0.841400
O641	O64	0.425400	0.744900	0.810800
O651	O65	0.227900	0.189100	0.949400
O661	O66	0.522600	0.864300	0.092300
O671	O67	0.421800	0.740400	0.086600
O681	O68	0.785800	0.663300	0.075600
O691	O69	0.610500	0.921200	0.708700
O701	O70	0.319600	0.306600	0.232600
O711	O71	0.633500	0.729800	0.681200
O721	O72	0.365400	0.425400	0.788800
O731	O73	0.477400	0.135700	0.907700
O741	O74	0.807300	0.809600	0.825300
O751	O75	0.078200	0.740400	0.586600
O761	O76	0.307300	0.190400	0.674700
O771	O77	0.366500	0.270200	0.318800
O781	O78	0.281700	0.382000	0.842900
O791	O79	0.006600	0.693200	0.407900
O801	O80	0.532400	0.810500	0.779900
O811	O81	0.543100	0.593500	0.316800
O821	O82	0.513300	0.701700	0.267100
O831	O83	0.328700	0.218000	0.123100
O841	O84	0.809900	0.659900	0.844900
O851	O85	0.866500	0.729800	0.181200
O861	O86	0.145400	0.085000	0.341400
O871	O87	0.781700	0.618000	0.657100
O881	O88	0.218300	0.382000	0.342900
O891	O89	0.160600	0.306000	0.476600
O901	O90	0.690100	0.659900	0.344900
O911	O91	0.819600	0.693400	0.267400
O921	O92	0.714200	0.663300	0.575600
O931	O93	0.671300	0.783800	0.134400
O941	O94	0.578200	0.259600	0.913400
O951	O95	0.309900	0.340100	0.655100
O961	O96	0.382400	0.249000	0.778400
O971	O97	0.022600	0.135700	0.407700
O981	O98	0.171300	0.216200	0.365600
O991	O99	0.032400	0.189500	0.720100
O1001	O100	0.190100	0.340100	0.155100
O1011	O101	0.865400	0.574600	0.711200
O1021	O102	0.617200	0.887800	0.594200
O1031	O103	0.382800	0.112200	0.405800
O1041	O104	0.013300	0.298300	0.232900
