data_cg901128k_si_004_clean_PM
_symmetry_space_group_name_H-M	'P1'
_cell_length_a	12.363400
_cell_length_b	12.363400
_cell_length_c	12.539000
_cell_angle_alpha	90.000000
_cell_angle_beta	90.000000
_cell_angle_gamma	120.000000
_symmetry_Int_Tables_number 1

loop_
_symmetry_equiv_pos_as_xyz
'x,y,z'

loop_
_atom_site_label
_atom_site_type_symbol
_atom_site_fract_x
_atom_site_fract_y
_atom_site_fract_z
Cu11	Cu1	0.333330	0.666660	0.100000
Cu21	Cu2	0.333330	0.666660	0.400000
Cu31	Cu3	0.000000	0.500000	0.500000
Cu41	Cu4	0.500000	0.000000	0.000000
Cu51	Cu5	0.666670	0.333340	0.900000
Cu61	Cu6	0.500000	0.500000	0.000000
Cu71	Cu7	0.500000	0.500000	0.500000
Cu81	Cu8	0.000000	0.500000	0.000000
Cu91	Cu9	0.500000	0.000000	0.500000
Cu101	Cu10	0.666670	0.333340	0.600000
H11	H1	0.106700	0.553350	0.750000
H21	H2	0.446650	0.553350	0.750000
H31	H3	0.553350	0.106700	0.250000
H41	H4	0.290200	0.240400	0.369000
H51	H5	0.709800	0.759600	0.631000
H61	H6	0.893300	0.446650	0.250000
H71	H7	0.290200	0.240400	0.131000
H81	H8	0.240400	0.290200	0.869000
H91	H9	0.240400	0.950200	0.631000
H101	H10	0.240400	0.290200	0.631000
H111	H11	0.240400	0.950200	0.869000
H121	H12	0.553350	0.446650	0.250000
H131	H13	0.950200	0.709800	0.369000
H141	H14	0.759600	0.049800	0.131000
H151	H15	0.049800	0.759600	0.869000
H161	H16	0.290200	0.049800	0.131000
H171	H17	0.709800	0.950200	0.869000
H181	H18	0.446650	0.893300	0.750000
H191	H19	0.759600	0.709800	0.369000
H201	H20	0.709800	0.950200	0.631000
H211	H21	0.950200	0.240400	0.131000
H221	H22	0.950200	0.240400	0.369000
H231	H23	0.709800	0.759600	0.869000
H241	H24	0.759600	0.709800	0.131000
H251	H25	0.290200	0.049800	0.369000
H261	H26	0.759600	0.049800	0.369000
H271	H27	0.049800	0.290200	0.869000
H281	H28	0.049800	0.290200	0.631000
H291	H29	0.950200	0.709800	0.131000
H301	H30	0.049800	0.759600	0.631000
C11	C1	0.123100	0.774300	0.905600
C21	C2	0.123100	0.348800	0.905600
C31	C3	0.651200	0.876900	0.905600
C41	C4	0.774300	0.123100	0.405600
C51	C5	0.225700	0.876900	0.905600
C61	C6	0.491000	0.982000	0.750000
C71	C7	0.491000	0.509000	0.750000
C81	C8	0.774300	0.123100	0.094400
C91	C9	0.651200	0.774300	0.594400
C101	C10	0.018000	0.509000	0.750000
C111	C11	0.348800	0.225700	0.094400
C121	C12	0.774300	0.651200	0.094400
C131	C13	0.348800	0.123100	0.094400
C141	C14	0.123100	0.348800	0.594400
C151	C15	0.876900	0.225700	0.094400
C161	C16	0.876900	0.225700	0.405600
C171	C17	0.225700	0.348800	0.594400
C181	C18	0.225700	0.876900	0.594400
C191	C19	0.876900	0.651200	0.405600
C201	C20	0.774300	0.651200	0.405600
C211	C21	0.651200	0.876900	0.594400
C221	C22	0.123100	0.774300	0.594400
C231	C23	0.509000	0.018000	0.250000
C241	C24	0.509000	0.491000	0.250000
C251	C25	0.876900	0.651200	0.094400
C261	C26	0.982000	0.491000	0.250000
C271	C27	0.348800	0.225700	0.405600
C281	C28	0.225700	0.348800	0.905600
C291	C29	0.348800	0.123100	0.405600
C301	C30	0.651200	0.774300	0.905600
N11	N1	0.173700	0.586850	0.303900
N21	N2	0.413150	0.826300	0.196100
N31	N3	0.133600	0.445600	0.533900
N41	N4	0.527300	0.054600	0.835000
N51	N5	0.586850	0.173700	0.803900
N61	N6	0.472700	0.527300	0.165000
N71	N7	0.251750	0.503500	0.497900
N81	N8	0.586850	0.413150	0.696100
N91	N9	0.133600	0.445600	0.966100
N101	N10	0.688000	0.133600	0.466100
N111	N11	0.866400	0.554400	0.466100
N121	N12	0.866400	0.312000	0.466100
N131	N13	0.586850	0.173700	0.696100
N141	N14	0.312000	0.445600	0.966100
N151	N15	0.688000	0.554400	0.033900
N161	N16	0.554400	0.688000	0.966100
N171	N17	0.866400	0.312000	0.033900
N181	N18	0.866400	0.554400	0.033900
N191	N19	0.688000	0.133600	0.033900
N201	N20	0.133600	0.688000	0.533900
N211	N21	0.945400	0.472700	0.665000
N221	N22	0.251750	0.503500	0.002100
N231	N23	0.748250	0.251750	0.997900
N241	N24	0.527300	0.054600	0.665000
N251	N25	0.054600	0.527300	0.335000
N261	N26	0.826300	0.413150	0.696100
N271	N27	0.413150	0.826300	0.303900
N281	N28	0.133600	0.688000	0.966100
N291	N29	0.312000	0.866400	0.533900
N301	N30	0.251750	0.748250	0.497900
N311	N31	0.445600	0.133600	0.033900
N321	N32	0.312000	0.866400	0.966100
N331	N33	0.554400	0.866400	0.533900
N341	N34	0.445600	0.312000	0.466100
N351	N35	0.312000	0.445600	0.533900
N361	N36	0.945400	0.472700	0.835000
N371	N37	0.472700	0.945400	0.165000
N381	N38	0.748250	0.496500	0.997900
N391	N39	0.554400	0.866400	0.966100
N401	N40	0.413150	0.586850	0.303900
N411	N41	0.503500	0.251750	0.502100
N421	N42	0.586850	0.413150	0.803900
N431	N43	0.496500	0.748250	0.497900
N441	N44	0.688000	0.554400	0.466100
N451	N45	0.413150	0.586850	0.196100
N461	N46	0.826300	0.413150	0.803900
N471	N47	0.054600	0.527300	0.165000
N481	N48	0.496500	0.748250	0.002100
N491	N49	0.748250	0.496500	0.502100
N501	N50	0.527300	0.472700	0.665000
N511	N51	0.472700	0.527300	0.335000
N521	N52	0.554400	0.688000	0.533900
N531	N53	0.472700	0.945400	0.335000
N541	N54	0.173700	0.586850	0.196100
N551	N55	0.445600	0.312000	0.033900
N561	N56	0.527300	0.472700	0.835000
N571	N57	0.748250	0.251750	0.502100
N581	N58	0.445600	0.133600	0.466100
N591	N59	0.503500	0.251750	0.997900
N601	N60	0.251750	0.748250	0.002100
