data_cg900153m_si_001_clean_PM
_symmetry_space_group_name_H-M	'P1'
_cell_length_a	30.845400
_cell_length_b	30.845400
_cell_length_c	30.845400
_cell_angle_alpha	60.000000
_cell_angle_beta	60.000000
_cell_angle_gamma	60.000000
_symmetry_Int_Tables_number 1

loop_
_symmetry_equiv_pos_as_xyz
'x,y,z'

loop_
_atom_site_label
_atom_site_type_symbol
_atom_site_fract_x
_atom_site_fract_y
_atom_site_fract_z
Zn11	Zn1	0.700590	0.299410	0.700590
Zn21	Zn2	0.660100	0.019700	0.660100
Zn31	Zn3	0.660100	0.660100	0.660100
Zn41	Zn4	0.768720	0.231280	0.768720
Zn51	Zn5	0.339900	0.980300	0.339900
Zn61	Zn6	0.613360	0.613360	0.159920
Zn71	Zn7	0.231280	0.768720	0.231280
Zn81	Zn8	0.613360	0.613360	0.613360
Zn91	Zn9	0.386640	0.386640	0.386640
Zn101	Zn10	0.231280	0.231280	0.768720
Zn111	Zn11	0.700590	0.299410	0.299410
Zn121	Zn12	0.299410	0.299410	0.700590
Zn131	Zn13	0.700590	0.700590	0.299410
Zn141	Zn14	0.660100	0.660100	0.019700
Zn151	Zn15	0.339900	0.339900	0.980300
Zn161	Zn16	0.840080	0.386640	0.386640
Zn171	Zn17	0.613360	0.159920	0.613360
Zn181	Zn18	0.299410	0.700590	0.299410
Zn191	Zn19	0.386640	0.386640	0.840080
Zn201	Zn20	0.159920	0.613360	0.613360
Zn211	Zn21	0.339900	0.339900	0.339900
Zn221	Zn22	0.299410	0.700590	0.700590
Zn231	Zn23	0.231280	0.768720	0.768720
Zn241	Zn24	0.768720	0.231280	0.231280
Zn251	Zn25	0.768720	0.768720	0.231280
Zn261	Zn26	0.386640	0.840080	0.386640
Zn271	Zn27	0.019700	0.660100	0.660100
Zn281	Zn28	0.980300	0.339900	0.339900
H11	H1	0.156000	0.634400	0.208400
H21	H2	0.730600	0.917300	0.917300
H31	H3	0.960000	0.907800	0.380200
H41	H4	0.791600	0.365600	0.844000
H51	H5	0.688800	0.688800	0.172200
H61	H6	0.081700	0.354900	0.781700
H71	H7	0.549800	0.827800	0.311200
H81	H8	0.917300	0.434800	0.730600
H91	H9	0.634400	0.208400	0.156000
H101	H10	0.311200	0.827800	0.311200
H111	H11	0.010100	0.738500	0.512900
H121	H12	0.040000	0.248000	0.619800
H131	H13	0.907800	0.752000	0.380200
H141	H14	0.688800	0.688800	0.450200
H151	H15	0.248000	0.619800	0.040000
H161	H16	0.781700	0.081700	0.354900
H171	H17	0.688800	0.172200	0.688800
H181	H18	0.082700	0.082700	0.565200
H191	H19	0.218300	0.918300	0.218300
H201	H20	0.738500	0.010100	0.512900
H211	H21	0.082700	0.269400	0.082700
H221	H22	0.261500	0.487100	0.261500
H231	H23	0.917300	0.917300	0.434800
H241	H24	0.354900	0.781700	0.081700
H251	H25	0.791600	0.844000	0.365600
H261	H26	0.434800	0.917300	0.917300
H271	H27	0.960000	0.752000	0.907800
H281	H28	0.918300	0.645100	0.218300
H291	H29	0.311200	0.311200	0.549800
H301	H30	0.791600	0.365600	0.998800
H311	H31	0.998800	0.791600	0.844000
H321	H32	0.082700	0.565200	0.082700
H331	H33	0.365600	0.998800	0.844000
H341	H34	0.917300	0.730600	0.434800
H351	H35	0.565200	0.082700	0.269400
H361	H36	0.907800	0.960000	0.752000
H371	H37	0.261500	0.989900	0.261500
H381	H38	0.365600	0.844000	0.998800
H391	H39	0.619800	0.248000	0.040000
H401	H40	0.040000	0.248000	0.092200
H411	H41	0.844000	0.791600	0.365600
H421	H42	0.487100	0.989900	0.261500
H431	H43	0.380200	0.752000	0.960000
H441	H44	0.917300	0.917300	0.730600
H451	H45	0.730600	0.917300	0.434800
H461	H46	0.380200	0.960000	0.907800
H471	H47	0.208400	0.001200	0.156000
H481	H48	0.269400	0.565200	0.082700
H491	H49	0.208400	0.634400	0.001200
H501	H50	0.261500	0.261500	0.487100
H511	H51	0.380200	0.907800	0.752000
H521	H52	0.634400	0.001200	0.208400
H531	H53	0.001200	0.156000	0.634400
H541	H54	0.738500	0.512900	0.738500
H551	H55	0.380200	0.752000	0.907800
H561	H56	0.081700	0.781700	0.354900
H571	H57	0.218300	0.645100	0.218300
H581	H58	0.092200	0.248000	0.040000
H591	H59	0.738500	0.738500	0.512900
H601	H60	0.619800	0.040000	0.092200
H611	H61	0.619800	0.040000	0.248000
H621	H62	0.156000	0.208400	0.634400
H631	H63	0.311200	0.311200	0.827800
H641	H64	0.269400	0.082700	0.082700
H651	H65	0.208400	0.001200	0.634400
H661	H66	0.998800	0.365600	0.844000
H671	H67	0.917300	0.434800	0.917300
H681	H68	0.248000	0.619800	0.092200
H691	H69	0.791600	0.844000	0.998800
H701	H70	0.450200	0.172200	0.688800
H711	H71	0.156000	0.634400	0.001200
H721	H72	0.512900	0.738500	0.010100
H731	H73	0.218300	0.218300	0.645100
H741	H74	0.752000	0.960000	0.380200
H751	H75	0.082700	0.082700	0.269400
H761	H76	0.844000	0.998800	0.791600
H771	H77	0.248000	0.092200	0.619800
H781	H78	0.907800	0.380200	0.752000
H791	H79	0.040000	0.619800	0.248000
H801	H80	0.688800	0.450200	0.688800
H811	H81	0.261500	0.261500	0.989900
H821	H82	0.791600	0.998800	0.844000
H831	H83	0.380200	0.960000	0.752000
H841	H84	0.960000	0.380200	0.752000
H851	H85	0.172200	0.688800	0.688800
H861	H86	0.781700	0.081700	0.781700
H871	H87	0.218300	0.645100	0.918300
H881	H88	0.248000	0.092200	0.040000
H891	H89	0.549800	0.311200	0.827800
H901	H90	0.918300	0.218300	0.645100
H911	H91	0.172200	0.450200	0.688800
H921	H92	0.010100	0.738500	0.738500
H931	H93	0.998800	0.844000	0.791600
H941	H94	0.092200	0.040000	0.619800
H951	H95	0.752000	0.960000	0.907800
H961	H96	0.208400	0.156000	0.634400
H971	H97	0.208400	0.156000	0.001200
H981	H98	0.844000	0.365600	0.998800
H991	H99	0.365600	0.791600	0.998800
H1001	H100	0.989900	0.261500	0.487100
H1011	H101	0.781700	0.781700	0.081700
H1021	H102	0.565200	0.082700	0.082700
H1031	H103	0.001200	0.156000	0.208400
H1041	H104	0.738500	0.512900	0.010100
H1051	H105	0.752000	0.907800	0.380200
H1061	H106	0.844000	0.998800	0.365600
H1071	H107	0.311200	0.549800	0.827800
H1081	H108	0.791600	0.998800	0.365600
H1091	H109	0.156000	0.001200	0.634400
H1101	H110	0.001200	0.634400	0.208400
H1111	H111	0.998800	0.791600	0.365600
H1121	H112	0.380200	0.907800	0.960000
H1131	H113	0.082700	0.269400	0.565200
H1141	H114	0.487100	0.261500	0.261500
H1151	H115	0.081700	0.781700	0.781700
H1161	H116	0.487100	0.261500	0.989900
H1171	H117	0.907800	0.960000	0.380200
H1181	H118	0.434800	0.917300	0.730600
H1191	H119	0.365600	0.791600	0.844000
H1201	H120	0.827800	0.549800	0.311200
H1211	H121	0.354900	0.081700	0.781700
H1221	H122	0.645100	0.918300	0.218300
H1231	H123	0.512900	0.738500	0.738500
H1241	H124	0.082700	0.565200	0.269400
H1251	H125	0.998800	0.844000	0.365600
H1261	H126	0.752000	0.380200	0.907800
H1271	H127	0.208400	0.634400	0.156000
H1281	H128	0.450200	0.688800	0.172200
H1291	H129	0.354900	0.781700	0.781700
H1301	H130	0.261500	0.989900	0.487100
H1311	H131	0.989900	0.487100	0.261500
H1321	H132	0.248000	0.040000	0.619800
H1331	H133	0.001200	0.208400	0.634400
H1341	H134	0.450200	0.688800	0.688800
H1351	H135	0.827800	0.311200	0.549800
H1361	H136	0.218300	0.218300	0.918300
H1371	H137	0.512900	0.010100	0.738500
H1381	H138	0.738500	0.738500	0.010100
H1391	H139	0.917300	0.730600	0.917300
H1401	H140	0.960000	0.380200	0.907800
H1411	H141	0.634400	0.001200	0.156000
H1421	H142	0.918300	0.218300	0.218300
H1431	H143	0.619800	0.092200	0.248000
H1441	H144	0.645100	0.218300	0.918300
H1451	H145	0.752000	0.380200	0.960000
H1461	H146	0.269400	0.082700	0.565200
H1471	H147	0.565200	0.269400	0.082700
H1481	H148	0.311200	0.827800	0.549800
H1491	H149	0.040000	0.619800	0.092200
H1501	H150	0.549800	0.311200	0.311200
H1511	H151	0.688800	0.450200	0.172200
H1521	H152	0.092200	0.248000	0.619800
H1531	H153	0.248000	0.040000	0.092200
H1541	H154	0.844000	0.791600	0.998800
H1551	H155	0.365600	0.998800	0.791600
H1561	H156	0.156000	0.208400	0.001200
H1571	H157	0.172200	0.688800	0.450200
H1581	H158	0.907800	0.380200	0.960000
H1591	H159	0.619800	0.092200	0.040000
H1601	H160	0.781700	0.781700	0.354900
H1611	H161	0.730600	0.434800	0.917300
H1621	H162	0.218300	0.918300	0.645100
H1631	H163	0.827800	0.311200	0.311200
H1641	H164	0.001200	0.208400	0.156000
H1651	H165	0.010100	0.512900	0.738500
H1661	H166	0.092200	0.619800	0.040000
H1671	H167	0.634400	0.156000	0.208400
H1681	H168	0.844000	0.365600	0.791600
H1691	H169	0.365600	0.844000	0.791600
H1701	H170	0.040000	0.092200	0.248000
H1711	H171	0.434800	0.730600	0.917300
H1721	H172	0.781700	0.354900	0.781700
H1731	H173	0.738500	0.010100	0.738500
H1741	H174	0.688800	0.172200	0.450200
H1751	H175	0.092200	0.040000	0.248000
H1761	H176	0.001200	0.634400	0.156000
H1771	H177	0.156000	0.001200	0.208400
H1781	H178	0.960000	0.752000	0.380200
H1791	H179	0.634400	0.156000	0.001200
H1801	H180	0.960000	0.907800	0.752000
H1811	H181	0.619800	0.248000	0.092200
H1821	H182	0.311200	0.549800	0.311200
H1831	H183	0.907800	0.752000	0.960000
H1841	H184	0.645100	0.218300	0.218300
H1851	H185	0.752000	0.907800	0.960000
H1861	H186	0.634400	0.208400	0.001200
H1871	H187	0.781700	0.354900	0.081700
H1881	H188	0.092200	0.619800	0.248000
H1891	H189	0.989900	0.261500	0.261500
H1901	H190	0.040000	0.092200	0.619800
H1911	H191	0.998800	0.365600	0.791600
H1921	H192	0.261500	0.487100	0.989900
C11	C1	0.839800	0.839800	0.402800
C21	C2	0.160200	0.597200	0.082400
C31	C3	0.922100	0.922100	0.756900
C41	C4	0.597200	0.160200	0.082400
C51	C5	0.017100	0.184500	0.613900
C61	C6	0.264400	0.651200	0.264400
C71	C7	0.292300	0.862100	0.292300
C81	C8	0.601100	0.077900	0.243100
C91	C9	0.763600	0.432800	0.040000
C101	C10	0.264400	0.264400	0.651200
C111	C11	0.915700	0.236900	0.236900
C121	C12	0.516700	0.262700	0.262700
C131	C13	0.184500	0.017100	0.184500
C141	C14	0.236900	0.610500	0.236900
C151	C15	0.398900	0.922100	0.756900
C161	C16	0.137900	0.707700	0.707700
C171	C17	0.763600	0.763600	0.432800
C181	C18	0.133160	0.735100	0.735100
C191	C19	0.292300	0.553300	0.292300
C201	C20	0.133160	0.735100	0.396640
C211	C21	0.907600	0.292400	0.292400
C221	C22	0.077900	0.077900	0.601100
C231	C23	0.292400	0.907600	0.507600
C241	C24	0.707700	0.446700	0.137900
C251	C25	0.077900	0.243100	0.077900
C261	C26	0.597200	0.108200	0.186400
C271	C27	0.321800	0.321800	0.453000
C281	C28	0.446700	0.137900	0.707700
C291	C29	0.982900	0.815500	0.815500
C301	C30	0.092400	0.707600	0.707600
C311	C31	0.553300	0.862100	0.292300
C321	C32	0.678200	0.547000	0.096600
C331	C33	0.084300	0.763100	0.389500
C341	C34	0.243100	0.077900	0.601100
C351	C35	0.756900	0.922100	0.398900
C361	C36	0.737300	0.737300	0.042100
C371	C37	0.907600	0.292400	0.507600
C381	C38	0.567200	0.236400	0.960000
C391	C39	0.737300	0.483300	0.042100
C401	C40	0.108200	0.597200	0.108200
C411	C41	0.262700	0.957900	0.516700
C421	C42	0.601100	0.243100	0.077900
C431	C43	0.735600	0.180000	0.735600
C441	C44	0.597200	0.186400	0.108200
C451	C45	0.678200	0.678200	0.096600
C461	C46	0.402800	0.839800	0.839800
C471	C47	0.547000	0.678200	0.678200
C481	C48	0.957900	0.262700	0.516700
C491	C49	0.160200	0.160200	0.082400
C501	C50	0.108200	0.186400	0.597200
C511	C51	0.763100	0.763100	0.084300
C521	C52	0.492400	0.707600	0.707600
C531	C53	0.396640	0.735100	0.735100
C541	C54	0.815500	0.982900	0.815500
C551	C55	0.077900	0.601100	0.077900
C561	C56	0.866840	0.603360	0.264900
C571	C57	0.082400	0.160200	0.160200
C581	C58	0.492400	0.707600	0.092400
C591	C59	0.264400	0.820000	0.264400
C601	C60	0.957900	0.516700	0.262700
C611	C61	0.763600	0.040000	0.763600
C621	C62	0.820000	0.651200	0.264400
C631	C63	0.292400	0.907600	0.292400
C641	C64	0.389500	0.084300	0.763100
C651	C65	0.096600	0.678200	0.678200
C661	C66	0.292400	0.292400	0.907600
C671	C67	0.160200	0.597200	0.160200
C681	C68	0.402800	0.891800	0.813600
C691	C69	0.160200	0.082400	0.597200
C701	C70	0.815500	0.815500	0.982900
C711	C71	0.763600	0.432800	0.763600
C721	C72	0.180000	0.348800	0.735600
C731	C73	0.108200	0.108200	0.597200
C741	C74	0.707700	0.707700	0.137900
C751	C75	0.236900	0.610500	0.915700
C761	C76	0.077900	0.077900	0.243100
C771	C77	0.082400	0.597200	0.160200
C781	C78	0.386100	0.815500	0.982900
C791	C79	0.707600	0.092400	0.707600
C801	C80	0.813600	0.402800	0.891800
C811	C81	0.707600	0.707600	0.492400
C821	C82	0.133160	0.396640	0.735100
C831	C83	0.763100	0.084300	0.389500
C841	C84	0.402800	0.891800	0.891800
C851	C85	0.613900	0.184500	0.017100
C861	C86	0.839800	0.402800	0.839800
C871	C87	0.891800	0.813600	0.402800
C881	C88	0.839800	0.402800	0.917600
C891	C89	0.603360	0.264900	0.866840
C901	C90	0.678200	0.678200	0.547000
C911	C91	0.735600	0.348800	0.180000
C921	C92	0.922100	0.922100	0.398900
C931	C93	0.236400	0.567200	0.960000
C941	C94	0.096600	0.678200	0.547000
C951	C95	0.516700	0.262700	0.957900
C961	C96	0.236900	0.915700	0.610500
C971	C97	0.264400	0.651200	0.820000
C981	C98	0.321800	0.321800	0.903400
C991	C99	0.813600	0.891800	0.402800
C1001	C100	0.077900	0.243100	0.601100
C1011	C101	0.137900	0.707700	0.446700
C1021	C102	0.553300	0.292300	0.292300
C1031	C103	0.236400	0.567200	0.236400
C1041	C104	0.839800	0.917600	0.839800
C1051	C105	0.960000	0.567200	0.236400
C1061	C106	0.184500	0.017100	0.613900
C1071	C107	0.903400	0.453000	0.321800
C1081	C108	0.262700	0.516700	0.957900
C1091	C109	0.348800	0.735600	0.735600
C1101	C110	0.735100	0.133160	0.396640
C1111	C111	0.813600	0.891800	0.891800
C1121	C112	0.402800	0.917600	0.839800
C1131	C113	0.160200	0.160200	0.597200
C1141	C114	0.735600	0.735600	0.180000
C1151	C115	0.891800	0.891800	0.813600
C1161	C116	0.613900	0.184500	0.184500
C1171	C117	0.180000	0.735600	0.735600
C1181	C118	0.432800	0.040000	0.763600
C1191	C119	0.292400	0.292400	0.507600
C1201	C120	0.398900	0.922100	0.922100
C1211	C121	0.735600	0.348800	0.735600
C1221	C122	0.042100	0.737300	0.483300
C1231	C123	0.262700	0.262700	0.516700
C1241	C124	0.735100	0.133160	0.735100
C1251	C125	0.264900	0.603360	0.866840
C1261	C126	0.922100	0.756900	0.922100
C1271	C127	0.567200	0.960000	0.236400
C1281	C128	0.453000	0.903400	0.321800
C1291	C129	0.108200	0.108200	0.186400
C1301	C130	0.613900	0.017100	0.184500
C1311	C131	0.184500	0.184500	0.613900
C1321	C132	0.763100	0.084300	0.763100
C1331	C133	0.756900	0.398900	0.922100
C1341	C134	0.243100	0.077900	0.077900
C1351	C135	0.108200	0.186400	0.108200
C1361	C136	0.567200	0.236400	0.236400
C1371	C137	0.820000	0.264400	0.651200
C1381	C138	0.483300	0.737300	0.042100
C1391	C139	0.707600	0.492400	0.707600
C1401	C140	0.236400	0.236400	0.567200
C1411	C141	0.446700	0.707700	0.707700
C1421	C142	0.236900	0.236900	0.610500
C1431	C143	0.262700	0.262700	0.957900
C1441	C144	0.402800	0.813600	0.891800
C1451	C145	0.264900	0.866840	0.603360
C1461	C146	0.186400	0.108200	0.597200
C1471	C147	0.264900	0.866840	0.264900
C1481	C148	0.236900	0.915700	0.236900
C1491	C149	0.547000	0.096600	0.678200
C1501	C150	0.321800	0.453000	0.903400
C1511	C151	0.040000	0.763600	0.432800
C1521	C152	0.903400	0.321800	0.321800
C1531	C153	0.186400	0.597200	0.108200
C1541	C154	0.236400	0.960000	0.567200
C1551	C155	0.866840	0.264900	0.603360
C1561	C156	0.492400	0.092400	0.707600
C1571	C157	0.866840	0.264900	0.264900
C1581	C158	0.597200	0.082400	0.160200
C1591	C159	0.891800	0.891800	0.402800
C1601	C160	0.982900	0.386100	0.815500
C1611	C161	0.763100	0.389500	0.763100
C1621	C162	0.903400	0.321800	0.453000
C1631	C163	0.917600	0.839800	0.839800
C1641	C164	0.610500	0.236900	0.236900
C1651	C165	0.017100	0.184500	0.184500
C1661	C166	0.264900	0.264900	0.603360
C1671	C167	0.262700	0.516700	0.262700
C1681	C168	0.922100	0.756900	0.398900
C1691	C169	0.236400	0.236400	0.960000
C1701	C170	0.891800	0.402800	0.813600
C1711	C171	0.483300	0.042100	0.737300
C1721	C172	0.321800	0.903400	0.321800
C1731	C173	0.042100	0.483300	0.737300
C1741	C174	0.839800	0.839800	0.917600
C1751	C175	0.960000	0.236400	0.567200
C1761	C176	0.815500	0.982900	0.386100
C1771	C177	0.651200	0.264400	0.264400
C1781	C178	0.917600	0.839800	0.402800
C1791	C179	0.389500	0.763100	0.084300
C1801	C180	0.707700	0.137900	0.446700
C1811	C181	0.735100	0.735100	0.133160
C1821	C182	0.446700	0.707700	0.137900
C1831	C183	0.922100	0.398900	0.756900
C1841	C184	0.862100	0.292300	0.292300
C1851	C185	0.507600	0.907600	0.292400
C1861	C186	0.922100	0.398900	0.922100
C1871	C187	0.707600	0.492400	0.092400
C1881	C188	0.982900	0.815500	0.386100
C1891	C189	0.386100	0.982900	0.815500
C1901	C190	0.737300	0.042100	0.483300
C1911	C191	0.756900	0.922100	0.922100
C1921	C192	0.292400	0.507600	0.292400
C1931	C193	0.264400	0.820000	0.651200
C1941	C194	0.737300	0.483300	0.737300
C1951	C195	0.321800	0.903400	0.453000
C1961	C196	0.236400	0.960000	0.236400
C1971	C197	0.891800	0.813600	0.891800
C1981	C198	0.092400	0.492400	0.707600
C1991	C199	0.862100	0.553300	0.292300
C2001	C200	0.960000	0.236400	0.236400
C2011	C201	0.651200	0.264400	0.820000
C2021	C202	0.815500	0.386100	0.982900
C2031	C203	0.184500	0.184500	0.017100
C2041	C204	0.820000	0.264400	0.264400
C2051	C205	0.292300	0.292300	0.553300
C2061	C206	0.348800	0.735600	0.180000
C2071	C207	0.547000	0.678200	0.096600
C2081	C208	0.601100	0.077900	0.077900
C2091	C209	0.292300	0.862100	0.553300
C2101	C210	0.096600	0.547000	0.678200
C2111	C211	0.957900	0.262700	0.262700
C2121	C212	0.735100	0.396640	0.735100
C2131	C213	0.184500	0.613900	0.017100
C2141	C214	0.180000	0.735600	0.348800
C2151	C215	0.735100	0.735100	0.396640
C2161	C216	0.763100	0.763100	0.389500
C2171	C217	0.516700	0.957900	0.262700
C2181	C218	0.108200	0.597200	0.186400
C2191	C219	0.735100	0.396640	0.133160
C2201	C220	0.907600	0.507600	0.292400
C2211	C221	0.707700	0.707700	0.446700
C2221	C222	0.735600	0.735600	0.348800
C2231	C223	0.264900	0.264900	0.866840
C2241	C224	0.017100	0.613900	0.184500
C2251	C225	0.610500	0.236900	0.915700
C2261	C226	0.603360	0.264900	0.264900
C2271	C227	0.815500	0.386100	0.815500
C2281	C228	0.386100	0.815500	0.815500
C2291	C229	0.507600	0.292400	0.907600
C2301	C230	0.763600	0.763600	0.040000
C2311	C231	0.184500	0.613900	0.184500
C2321	C232	0.160200	0.082400	0.160200
C2331	C233	0.432800	0.763600	0.040000
C2341	C234	0.707700	0.137900	0.707700
C2351	C235	0.678200	0.547000	0.678200
C2361	C236	0.707700	0.446700	0.707700
C2371	C237	0.651200	0.820000	0.264400
C2381	C238	0.040000	0.763600	0.763600
C2391	C239	0.597200	0.160200	0.160200
C2401	C240	0.321800	0.453000	0.321800
C2411	C241	0.348800	0.180000	0.735600
C2421	C242	0.915700	0.236900	0.610500
C2431	C243	0.396640	0.735100	0.133160
C2441	C244	0.092400	0.707600	0.492400
C2451	C245	0.707600	0.707600	0.092400
C2461	C246	0.292300	0.292300	0.862100
C2471	C247	0.597200	0.108200	0.108200
C2481	C248	0.917600	0.402800	0.839800
C2491	C249	0.264400	0.264400	0.820000
C2501	C250	0.678200	0.096600	0.678200
C2511	C251	0.610500	0.915700	0.236900
C2521	C252	0.236900	0.236900	0.915700
C2531	C253	0.763600	0.040000	0.432800
C2541	C254	0.862100	0.292300	0.553300
C2551	C255	0.915700	0.610500	0.236900
C2561	C256	0.186400	0.108200	0.108200
C2571	C257	0.507600	0.292400	0.292400
C2581	C258	0.839800	0.917600	0.402800
C2591	C259	0.398900	0.756900	0.922100
C2601	C260	0.483300	0.737300	0.737300
C2611	C261	0.042100	0.737300	0.737300
C2621	C262	0.084300	0.389500	0.763100
C2631	C263	0.264900	0.603360	0.264900
C2641	C264	0.603360	0.866840	0.264900
C2651	C265	0.453000	0.321800	0.321800
C2661	C266	0.678200	0.096600	0.547000
C2671	C267	0.082400	0.160200	0.597200
C2681	C268	0.763100	0.389500	0.084300
C2691	C269	0.084300	0.763100	0.763100
C2701	C270	0.077900	0.601100	0.243100
C2711	C271	0.453000	0.321800	0.903400
C2721	C272	0.815500	0.815500	0.386100
C2731	C273	0.243100	0.601100	0.077900
C2741	C274	0.737300	0.737300	0.483300
C2751	C275	0.707600	0.092400	0.492400
C2761	C276	0.137900	0.446700	0.707700
C2771	C277	0.040000	0.432800	0.763600
C2781	C278	0.737300	0.042100	0.737300
C2791	C279	0.432800	0.763600	0.763600
C2801	C280	0.735600	0.180000	0.348800
C2811	C281	0.891800	0.402800	0.891800
C2821	C282	0.292300	0.553300	0.862100
C2831	C283	0.553300	0.292300	0.862100
C2841	C284	0.292400	0.507600	0.907600
C2851	C285	0.402800	0.839800	0.917600
C2861	C286	0.262700	0.957900	0.262700
C2871	C287	0.389500	0.763100	0.763100
C2881	C288	0.396640	0.133160	0.735100
O11	O1	0.290900	0.643780	0.290900
O21	O2	0.317300	0.417700	0.947700
O31	O3	0.774420	0.643780	0.290900
O41	O4	0.290900	0.290900	0.643780
O51	O5	0.052300	0.682700	0.582300
O61	O6	0.417700	0.947700	0.317300
O71	O7	0.987300	0.432100	0.790300
O81	O8	0.759700	0.305200	0.175400
O91	O9	0.655800	0.550660	0.137740
O101	O10	0.137740	0.550660	0.655800
O111	O11	0.225580	0.709100	0.356220
O121	O12	0.790300	0.790300	0.987300
O131	O13	0.709100	0.709100	0.225580
O141	O14	0.305200	0.175400	0.759700
O151	O15	0.417700	0.317300	0.317300
O161	O16	0.012700	0.209700	0.567900
O171	O17	0.317300	0.317300	0.947700
O181	O18	0.137740	0.655800	0.550660
O191	O19	0.582300	0.052300	0.682700
O201	O20	0.759700	0.175400	0.759700
O211	O21	0.774420	0.290900	0.290900
O221	O22	0.759700	0.175400	0.305200
O231	O23	0.305200	0.759700	0.175400
O241	O24	0.175400	0.305200	0.759700
O251	O25	0.655800	0.137740	0.550660
O261	O26	0.317300	0.947700	0.417700
O271	O27	0.947700	0.417700	0.317300
O281	O28	0.240300	0.824600	0.240300
O291	O29	0.643780	0.290900	0.774420
O301	O30	0.550660	0.655800	0.137740
O311	O31	0.790300	0.790300	0.432100
O321	O32	0.682700	0.052300	0.682700
O331	O33	0.987300	0.790300	0.432100
O341	O34	0.417700	0.317300	0.947700
O351	O35	0.449340	0.862260	0.344200
O361	O36	0.209700	0.012700	0.567900
O371	O37	0.305200	0.759700	0.759700
O381	O38	0.582300	0.682700	0.052300
O391	O39	0.290900	0.643780	0.774420
O401	O40	0.175400	0.759700	0.759700
O411	O41	0.317300	0.947700	0.317300
O421	O42	0.175400	0.759700	0.305200
O431	O43	0.225580	0.709100	0.709100
O441	O44	0.824600	0.240300	0.240300
O451	O45	0.344200	0.862260	0.449340
O461	O46	0.824600	0.240300	0.694800
O471	O47	0.694800	0.824600	0.240300
O481	O48	0.759700	0.759700	0.175400
O491	O49	0.209700	0.012700	0.209700
O501	O50	0.290900	0.774420	0.290900
O511	O51	0.682700	0.682700	0.582300
O521	O52	0.550660	0.137740	0.655800
O531	O53	0.449340	0.344200	0.344200
O541	O54	0.052300	0.682700	0.682700
O551	O55	0.356220	0.709100	0.709100
O561	O56	0.567900	0.209700	0.012700
O571	O57	0.550660	0.655800	0.655800
O581	O58	0.137740	0.655800	0.655800
O591	O59	0.790300	0.987300	0.432100
O601	O60	0.655800	0.655800	0.550660
O611	O61	0.824600	0.694800	0.240300
O621	O62	0.643780	0.774420	0.290900
O631	O63	0.209700	0.567900	0.012700
O641	O64	0.655800	0.655800	0.137740
O651	O65	0.356220	0.225580	0.709100
O661	O66	0.790300	0.432100	0.790300
O671	O67	0.317300	0.417700	0.317300
O681	O68	0.432100	0.790300	0.790300
O691	O69	0.694800	0.240300	0.240300
O701	O70	0.209700	0.209700	0.012700
O711	O71	0.694800	0.240300	0.824600
O721	O72	0.682700	0.582300	0.052300
O731	O73	0.582300	0.682700	0.682700
O741	O74	0.862260	0.344200	0.344200
O751	O75	0.862260	0.449340	0.344200
O761	O76	0.344200	0.449340	0.862260
O771	O77	0.709100	0.225580	0.356220
O781	O78	0.759700	0.305200	0.759700
O791	O79	0.947700	0.317300	0.417700
O801	O80	0.655800	0.550660	0.655800
O811	O81	0.344200	0.862260	0.344200
O821	O82	0.290900	0.774420	0.643780
O831	O83	0.240300	0.824600	0.694800
O841	O84	0.790300	0.987300	0.790300
O851	O85	0.759700	0.759700	0.305200
O861	O86	0.012700	0.567900	0.209700
O871	O87	0.790300	0.432100	0.987300
O881	O88	0.209700	0.209700	0.567900
O891	O89	0.709100	0.356220	0.225580
O901	O90	0.709100	0.709100	0.356220
O911	O91	0.012700	0.209700	0.209700
O921	O92	0.240300	0.240300	0.824600
O931	O93	0.709100	0.225580	0.709100
O941	O94	0.432100	0.790300	0.987300
O951	O95	0.567900	0.012700	0.209700
O961	O96	0.052300	0.582300	0.682700
O971	O97	0.567900	0.209700	0.209700
O981	O98	0.862260	0.344200	0.449340
O991	O99	0.774420	0.290900	0.643780
O1001	O100	0.655800	0.137740	0.655800
O1011	O101	0.344200	0.449340	0.344200
O1021	O102	0.240300	0.694800	0.824600
O1031	O103	0.682700	0.682700	0.052300
O1041	O104	0.240300	0.694800	0.240300
O1051	O105	0.356220	0.709100	0.225580
O1061	O106	0.947700	0.317300	0.317300
O1071	O107	0.344200	0.344200	0.862260
O1081	O108	0.432100	0.987300	0.790300
O1091	O109	0.682700	0.052300	0.582300
O1101	O110	0.987300	0.790300	0.790300
O1111	O111	0.209700	0.567900	0.209700
O1121	O112	0.317300	0.317300	0.417700
O1131	O113	0.225580	0.356220	0.709100
O1141	O114	0.643780	0.290900	0.290900
O1151	O115	0.344200	0.344200	0.449340
O1161	O116	0.709100	0.356220	0.709100
O1171	O117	0.290900	0.290900	0.774420
O1181	O118	0.240300	0.240300	0.694800
O1191	O119	0.449340	0.344200	0.862260
O1201	O120	0.682700	0.582300	0.682700
