data_cg900505v_si_002_clean_PM
_symmetry_space_group_name_H-M	'P1'
_cell_length_a	13.014000
_cell_length_b	13.014000
_cell_length_c	13.457000
_cell_angle_alpha	90.000000
_cell_angle_beta	90.000000
_cell_angle_gamma	120.000000
_symmetry_Int_Tables_number 1

loop_
_symmetry_equiv_pos_as_xyz
'x,y,z'

loop_
_atom_site_label
_atom_site_type_symbol
_atom_site_fract_x
_atom_site_fract_y
_atom_site_fract_z
Cd11	Cd1	0.666670	0.333340	0.399300
Cd21	Cd2	0.333330	0.666660	0.899300
Cd31	Cd3	0.500000	0.000000	0.000000
Cd41	Cd4	0.000000	0.500000	0.500000
Cd51	Cd5	0.666670	0.333340	0.100700
Cd61	Cd6	0.333330	0.666660	0.600700
Cd71	Cd7	0.000000	0.500000	0.000000
Cd81	Cd8	0.500000	0.500000	0.000000
Cd91	Cd9	0.500000	0.000000	0.500000
Cd101	Cd10	0.500000	0.500000	0.500000
H11	H1	0.958200	0.167600	0.836200
H21	H2	0.958200	0.790600	0.836200
H31	H3	0.167600	0.958200	0.163800
H41	H4	0.832400	0.041800	0.663800
H51	H5	0.832400	0.041800	0.836200
H61	H6	0.962700	0.254500	0.129700
H71	H7	0.041800	0.209400	0.163800
H81	H8	0.962700	0.708200	0.129700
H91	H9	0.958200	0.167600	0.663800
H101	H10	0.041800	0.832400	0.336200
H111	H11	0.177400	0.588700	0.305300
H121	H12	0.411300	0.588700	0.305300
H131	H13	0.041800	0.832400	0.163800
H141	H14	0.588700	0.177400	0.805300
H151	H15	0.745500	0.037300	0.370300
H161	H16	0.411300	0.588700	0.194700
H171	H17	0.209400	0.041800	0.836200
H181	H18	0.037300	0.745500	0.629700
H191	H19	0.209400	0.041800	0.663800
H201	H20	0.745500	0.037300	0.129700
H211	H21	0.822600	0.411300	0.805300
H221	H22	0.822600	0.411300	0.694700
H231	H23	0.708200	0.745500	0.629700
H241	H24	0.177400	0.588700	0.194700
H251	H25	0.962700	0.708200	0.370300
H261	H26	0.041800	0.209400	0.336200
H271	H27	0.962700	0.254500	0.370300
H281	H28	0.588700	0.411300	0.805300
H291	H29	0.708200	0.745500	0.870300
H301	H30	0.167600	0.958200	0.336200
H311	H31	0.588700	0.411300	0.694700
H321	H32	0.254500	0.962700	0.870300
H331	H33	0.167600	0.209400	0.163800
H341	H34	0.411300	0.822600	0.194700
H351	H35	0.291800	0.037300	0.129700
H361	H36	0.832400	0.790600	0.836200
H371	H37	0.037300	0.291800	0.629700
H381	H38	0.790600	0.832400	0.163800
H391	H39	0.790600	0.958200	0.163800
H401	H40	0.291800	0.254500	0.129700
H411	H41	0.745500	0.708200	0.370300
H421	H42	0.745500	0.708200	0.129700
H431	H43	0.209400	0.167600	0.836200
H441	H44	0.254500	0.291800	0.629700
H451	H45	0.832400	0.790600	0.663800
H461	H46	0.291800	0.254500	0.370300
H471	H47	0.790600	0.958200	0.336200
H481	H48	0.254500	0.962700	0.629700
H491	H49	0.708200	0.962700	0.870300
H501	H50	0.790600	0.832400	0.336200
H511	H51	0.037300	0.745500	0.870300
H521	H52	0.958200	0.790600	0.663800
H531	H53	0.291800	0.037300	0.370300
H541	H54	0.708200	0.962700	0.629700
H551	H55	0.411300	0.822600	0.305300
H561	H56	0.254500	0.291800	0.870300
H571	H57	0.209400	0.167600	0.663800
H581	H58	0.037300	0.291800	0.870300
H591	H59	0.167600	0.209400	0.336200
H601	H60	0.588700	0.177400	0.694700
C11	C1	0.772300	0.122300	0.586000
C21	C2	0.509500	0.490500	0.750000
C31	C3	0.350000	0.122300	0.914000
C41	C4	0.350000	0.227700	0.914000
C51	C5	0.122300	0.772300	0.086000
C61	C6	0.490500	0.509500	0.250000
C71	C7	0.877700	0.227700	0.586000
C81	C8	0.122300	0.772300	0.414000
C91	C9	0.227700	0.877700	0.414000
C101	C10	0.019000	0.509500	0.250000
C111	C11	0.650000	0.772300	0.414000
C121	C12	0.772300	0.650000	0.586000
C131	C13	0.877700	0.650000	0.914000
C141	C14	0.772300	0.650000	0.914000
C151	C15	0.122300	0.350000	0.414000
C161	C16	0.650000	0.772300	0.086000
C171	C17	0.350000	0.122300	0.586000
C181	C18	0.350000	0.227700	0.586000
C191	C19	0.650000	0.877700	0.086000
C201	C20	0.772300	0.122300	0.914000
C211	C21	0.509500	0.019000	0.750000
C221	C22	0.227700	0.350000	0.414000
C231	C23	0.877700	0.650000	0.586000
C241	C24	0.490500	0.981000	0.250000
C251	C25	0.877700	0.227700	0.914000
C261	C26	0.227700	0.350000	0.086000
C271	C27	0.227700	0.877700	0.086000
C281	C28	0.650000	0.877700	0.414000
C291	C29	0.981000	0.490500	0.750000
C301	C30	0.122300	0.350000	0.086000
N11	N1	0.138100	0.440300	0.032900
N21	N2	0.751900	0.248100	0.502300
N31	N3	0.418050	0.581950	0.702100
N41	N4	0.581950	0.418050	0.297900
N51	N5	0.032000	0.261000	0.132000
N61	N6	0.261000	0.032000	0.868000
N71	N7	0.440300	0.138100	0.967100
N81	N8	0.261000	0.229000	0.868000
N91	N9	0.525250	0.050500	0.331500
N101	N10	0.697800	0.138100	0.967100
N111	N11	0.248100	0.751900	0.497700
N121	N12	0.751900	0.248100	0.997700
N131	N13	0.474750	0.525250	0.668500
N141	N14	0.968000	0.229000	0.632000
N151	N15	0.569500	0.430500	0.750000
N161	N16	0.861900	0.559700	0.532900
N171	N17	0.559700	0.697800	0.032900
N181	N18	0.440300	0.302200	0.532900
N191	N19	0.968000	0.739000	0.868000
N201	N20	0.229000	0.261000	0.132000
N211	N21	0.739000	0.968000	0.368000
N221	N22	0.418050	0.836100	0.702100
N231	N23	0.302200	0.440300	0.467100
N241	N24	0.949500	0.474750	0.168500
N251	N25	0.302200	0.861900	0.467100
N261	N26	0.163900	0.581950	0.702100
N271	N27	0.496200	0.248100	0.997700
N281	N28	0.430500	0.861000	0.250000
N291	N29	0.525250	0.474750	0.168500
N301	N30	0.771000	0.032000	0.868000
N311	N31	0.836100	0.418050	0.297900
N321	N32	0.739000	0.968000	0.132000
N331	N33	0.229000	0.261000	0.368000
N341	N34	0.697800	0.138100	0.532900
N351	N35	0.559700	0.697800	0.467100
N361	N36	0.261000	0.032000	0.632000
N371	N37	0.474750	0.949500	0.668500
N381	N38	0.525250	0.050500	0.168500
N391	N39	0.248100	0.751900	0.002300
N401	N40	0.525250	0.474750	0.331500
N411	N41	0.771000	0.032000	0.632000
N421	N42	0.032000	0.261000	0.368000
N431	N43	0.581950	0.418050	0.202100
N441	N44	0.697800	0.559700	0.967100
N451	N45	0.440300	0.138100	0.532900
N461	N46	0.771000	0.739000	0.632000
N471	N47	0.138100	0.440300	0.467100
N481	N48	0.229000	0.968000	0.132000
N491	N49	0.968000	0.739000	0.632000
N501	N50	0.139000	0.569500	0.250000
N511	N51	0.861900	0.559700	0.967100
N521	N52	0.248100	0.496200	0.002300
N531	N53	0.751900	0.503800	0.502300
N541	N54	0.496200	0.248100	0.502300
N551	N55	0.474750	0.525250	0.831500
N561	N56	0.138100	0.697800	0.467100
N571	N57	0.559700	0.861900	0.467100
N581	N58	0.581950	0.163900	0.297900
N591	N59	0.751900	0.503800	0.997700
N601	N60	0.569500	0.139000	0.750000
N611	N61	0.261000	0.229000	0.632000
N621	N62	0.949500	0.474750	0.331500
N631	N63	0.739000	0.771000	0.132000
N641	N64	0.440300	0.302200	0.967100
N651	N65	0.032000	0.771000	0.368000
N661	N66	0.861900	0.302200	0.967100
N671	N67	0.861900	0.302200	0.532900
N681	N68	0.163900	0.581950	0.797900
N691	N69	0.050500	0.525250	0.668500
N701	N70	0.302200	0.440300	0.032900
N711	N71	0.474750	0.949500	0.831500
N721	N72	0.503800	0.751900	0.497700
N731	N73	0.836100	0.418050	0.202100
N741	N74	0.302200	0.861900	0.032900
N751	N75	0.697800	0.559700	0.532900
N761	N76	0.581950	0.163900	0.202100
N771	N77	0.418050	0.581950	0.797900
N781	N78	0.430500	0.569500	0.250000
N791	N79	0.032000	0.771000	0.132000
N801	N80	0.771000	0.739000	0.868000
N811	N81	0.739000	0.771000	0.368000
N821	N82	0.050500	0.525250	0.831500
N831	N83	0.503800	0.751900	0.002300
N841	N84	0.559700	0.861900	0.032900
N851	N85	0.138100	0.697800	0.032900
N861	N86	0.861000	0.430500	0.750000
N871	N87	0.248100	0.496200	0.497700
N881	N88	0.418050	0.836100	0.797900
N891	N89	0.968000	0.229000	0.868000
N901	N90	0.229000	0.968000	0.368000
