data_cg901312t_si_002_clean_PM
_symmetry_space_group_name_H-M	'P1'
_cell_length_a	33.358600
_cell_length_b	33.358600
_cell_length_c	67.839000
_cell_angle_alpha	90.000000
_cell_angle_beta	90.000000
_cell_angle_gamma	120.000000
_symmetry_Int_Tables_number 1

loop_
_symmetry_equiv_pos_as_xyz
'x,y,z'

loop_
_atom_site_label
_atom_site_type_symbol
_atom_site_fract_x
_atom_site_fract_y
_atom_site_fract_z
Zn11	Zn1	0.832830	0.669150	0.022590
Zn21	Zn2	0.742150	0.671460	0.532110
Zn31	Zn3	0.747190	0.078950	0.803510
Zn41	Zn4	0.832830	0.163680	0.522590
Zn51	Zn5	0.837890	0.230190	0.556870
Zn61	Zn6	0.827170	0.668930	0.812640
Zn71	Zn7	0.889910	0.175640	0.562770
Zn81	Zn8	0.395060	0.225130	0.778780
Zn91	Zn9	0.921050	0.252810	0.303510
Zn101	Zn10	0.824360	0.110090	0.062770
Zn111	Zn11	0.824360	0.714270	0.562770
Zn121	Zn12	0.929310	0.257850	0.532110
Zn131	Zn13	0.774870	0.169930	0.778780
Zn141	Zn14	0.331760	0.252810	0.803510
Zn151	Zn15	0.830290	0.117090	0.772560
Zn161	Zn16	0.395060	0.169930	0.278780
Zn171	Zn17	0.330850	0.167170	0.522590
Zn181	Zn18	0.392300	0.230190	0.056870
Zn191	Zn19	0.769810	0.162110	0.056870
Zn201	Zn20	0.392300	0.162110	0.556870
Zn211	Zn21	0.841760	0.172830	0.812640
Zn221	Zn22	0.837890	0.607700	0.056870
Zn231	Zn23	0.830070	0.225130	0.278780
Zn241	Zn24	0.774870	0.604940	0.278780
Zn251	Zn25	0.882910	0.169710	0.272560
Zn261	Zn26	0.285730	0.175640	0.062770
Zn271	Zn27	0.328540	0.257850	0.032110
Zn281	Zn28	0.331070	0.172830	0.312640
Zn291	Zn29	0.286800	0.169710	0.772560
Zn301	Zn30	0.830070	0.604940	0.778780
Zn311	Zn31	0.742150	0.070690	0.032110
Zn321	Zn32	0.286800	0.117090	0.272560
Zn331	Zn33	0.769810	0.607700	0.556870
Zn341	Zn34	0.836320	0.167170	0.022590
Zn351	Zn35	0.285730	0.110090	0.562770
Zn361	Zn36	0.921050	0.668240	0.803510
Zn371	Zn37	0.929310	0.671460	0.032110
Zn381	Zn38	0.889910	0.714270	0.062770
Zn391	Zn39	0.841760	0.668930	0.312640
Zn401	Zn40	0.747190	0.668240	0.303510
Zn411	Zn41	0.331760	0.078950	0.303510
Zn421	Zn42	0.330850	0.163680	0.022590
Zn431	Zn43	0.836320	0.669150	0.522590
Zn441	Zn44	0.328540	0.070690	0.532110
Zn451	Zn45	0.882910	0.713200	0.772560
Zn461	Zn46	0.827170	0.158240	0.312640
Zn471	Zn47	0.830290	0.713200	0.272560
Zn481	Zn48	0.331070	0.158240	0.812640
H11	H1	0.582400	0.384000	0.559000
H21	H2	0.710900	0.052000	0.863600
H31	H3	0.621000	0.119000	0.496100
H41	H4	0.754700	0.556500	0.185800
H51	H5	0.092600	0.154800	0.260800
H61	H6	0.827500	0.850300	0.570400
H71	H7	0.210200	0.033200	0.827200
H81	H8	0.030700	0.797200	0.017700
H91	H9	0.557100	0.153900	0.763900
H101	H10	0.695300	0.182000	0.556300
H111	H11	0.864700	0.953800	0.570800
H121	H12	0.449300	0.384500	0.818800
H131	H13	0.184100	0.027200	0.068300
H141	H14	0.698900	0.034400	0.937300
H151	H15	0.022800	0.850300	0.070400
H161	H16	0.291300	0.127100	0.626600
H171	H17	0.184100	0.156900	0.568300
H181	H18	0.814000	0.931700	0.579600
H191	H19	0.839000	0.156900	0.875000
H201	H20	0.838700	0.683300	0.459700
H211	H21	0.684000	0.586600	0.822400
H221	H22	0.802000	0.228300	0.220700
H231	H23	0.754700	0.198200	0.685800
H241	H24	0.823000	0.789800	0.827200
H251	H25	0.486700	0.182000	0.056300
H261	H26	0.317900	0.156900	0.375000
H271	H27	0.336700	0.288300	0.970800
H281	H28	0.826300	0.715700	0.669200
H291	H29	0.548700	0.150300	0.069000
H301	H30	0.814000	0.882300	0.079600
H311	H31	0.565700	0.468800	0.496600
H321	H32	0.846100	0.442900	0.263900
H331	H33	0.935200	0.384500	0.318800
H341	H34	0.790600	0.915300	0.260100
H351	H35	0.889400	0.715700	0.169200
H361	H36	0.596800	0.153900	0.263900
H371	H37	0.413400	0.316000	0.322400
H381	H38	0.497800	0.187200	0.781500
H391	H39	0.965600	0.664500	0.937300
H401	H40	0.835800	0.127100	0.126600
H411	H41	0.615500	0.550700	0.318800
H421	H42	0.977700	0.212700	0.014300
H431	H43	0.440600	0.306100	0.500200
H441	H44	0.210200	0.177000	0.327200
H451	H45	0.643100	0.484100	0.276200
H461	H46	0.092600	0.937800	0.760800
H471	H47	0.810700	0.878600	0.330800
H481	H48	0.846100	0.403200	0.763900
H491	H49	0.765300	0.207700	0.647600
H501	H50	0.053700	0.232300	0.010700
H511	H51	0.029300	0.838400	0.764300
H521	H52	0.430200	0.225900	0.115600
H531	H53	0.461900	0.377000	0.007700
H541	H54	0.340700	0.038200	0.397100
H551	H55	0.697500	0.659300	0.397100
H561	H56	0.801600	0.384000	0.059000
H571	H57	0.340100	0.185400	0.418500
H581	H58	0.848500	0.714300	0.917800
H591	H59	0.809200	0.959800	0.332200
H601	H60	0.865800	0.151500	0.917800
H611	H61	0.639700	0.152400	0.059200
H621	H62	0.639700	0.487300	0.559200
H631	H63	0.848500	0.134200	0.417800
H641	H64	0.839000	0.682100	0.375000
H651	H65	0.848200	0.123000	0.665100
H661	H66	0.809100	0.838400	0.264300
H671	H67	0.089100	0.953800	0.070800
H681	H68	0.818000	0.304700	0.056300
H691	H69	0.430200	0.204300	0.615600
H701	H70	0.689400	0.187200	0.281500
H711	H71	0.643100	0.159000	0.776200
H721	H72	0.442400	0.234700	0.647600
H731	H73	0.761700	0.899200	0.012100
H741	H74	0.137500	0.238300	0.012100
H751	H75	0.150600	0.959800	0.832200
H761	H76	0.846700	0.137800	0.709400
H771	H77	0.711700	0.048400	0.970800
H781	H78	0.440600	0.134500	0.000200
H791	H79	0.812800	0.310600	0.781500
H801	H80	0.872900	0.708700	0.126600
H811	H81	0.787300	0.765000	0.014300
H821	H82	0.161600	0.970700	0.264300
H831	H83	0.848200	0.725200	0.165100
H841	H84	0.771700	0.573700	0.220700
H851	H85	0.792300	0.234700	0.147600
H861	H86	0.542600	0.486400	0.322900
H871	H87	0.961800	0.302500	0.397100
H881	H88	0.684000	0.097400	0.322400
H891	H89	0.844600	0.683300	0.959700
H901	H90	0.809200	0.849400	0.832200
H911	H91	0.977700	0.765000	0.514300
H921	H92	0.826300	0.110600	0.169200
H931	H93	0.966800	0.177000	0.827200
H941	H94	0.124700	0.209400	0.260100
H951	H95	0.761700	0.862500	0.512100
H961	H96	0.801600	0.417600	0.559000
H971	H97	0.426300	0.228300	0.720700
H981	H98	0.124700	0.915300	0.760100
H991	H99	0.340700	0.302500	0.897100
H1001	H100	0.089100	0.135300	0.570800
H1011	H101	0.557100	0.403200	0.263900
H1021	H102	0.067900	0.189300	0.330800
H1031	H103	0.513600	0.457400	0.822900
H1041	H104	0.100800	0.862500	0.012100
H1051	H105	0.022800	0.172500	0.570400
H1061	H106	0.865800	0.714300	0.417800
H1071	H107	0.117700	0.186000	0.579600
H1081	H108	0.831900	0.018000	0.268000
H1091	H109	0.062200	0.154800	0.760800
H1101	H110	0.915100	0.538100	0.007700
H1111	H111	0.202800	0.969300	0.517700
H1121	H112	0.285700	0.134200	0.917800
H1131	H113	0.889400	0.173700	0.669200
H1141	H114	0.847600	0.487300	0.059200
H1151	H115	0.449300	0.064800	0.318800
H1161	H116	0.084700	0.209400	0.760100
H1171	H117	0.486700	0.304700	0.556300
H1181	H118	0.943800	0.486400	0.822900
H1191	H119	0.765300	0.557600	0.147600
H1201	H120	0.587900	0.195600	0.778600
H1211	H121	0.084700	0.875300	0.260100
H1221	H122	0.515900	0.159000	0.276200
H1231	H123	0.190800	0.201100	0.822700
H1241	H124	0.881000	0.379000	0.996100
H1251	H125	0.798900	0.809200	0.322700
H1261	H126	0.711700	0.663300	0.470800
H1271	H127	0.766500	0.969300	0.017700
H1281	H128	0.966800	0.789800	0.327200
H1291	H129	0.827500	0.977200	0.070400
H1301	H130	0.982000	0.813900	0.268000
H1311	H131	0.463100	0.395200	0.325700
H1321	H132	0.121400	0.932100	0.330800
H1331	H133	0.965600	0.301100	0.437300
H1341	H134	0.531200	0.096900	0.496600
H1351	H135	0.137500	0.899200	0.512100
H1361	H136	0.442400	0.207700	0.147600
H1371	H137	0.766500	0.797200	0.517700
H1381	H138	0.787300	0.022300	0.514300
H1391	H139	0.202800	0.233500	0.017700
H1401	H140	0.497800	0.310600	0.281500
H1411	H141	0.843100	0.027200	0.568300
H1421	H142	0.336700	0.048400	0.470800
H1431	H143	0.291100	0.153300	0.709400
H1441	H144	0.798900	0.989700	0.822700
H1451	H145	0.426300	0.198000	0.220700
H1461	H146	0.932100	0.395200	0.825700
H1471	H147	0.587900	0.392300	0.278600
H1481	H148	0.902600	0.586600	0.322400
H1491	H149	0.149700	0.172500	0.070400
H1501	H150	0.849700	0.451300	0.569000
H1511	H151	0.046200	0.135300	0.070800
H1521	H152	0.623000	0.538100	0.507700
H1531	H153	0.823000	0.033200	0.327200
H1541	H154	0.845300	0.659900	0.418500
H1551	H155	0.693900	0.134500	0.500200
H1561	H156	0.915100	0.377000	0.507700
H1571	H157	0.693900	0.559400	0.000200
H1581	H158	0.774100	0.204300	0.115600
H1591	H159	0.117700	0.931700	0.079600
H1601	H160	0.512700	0.152400	0.559200
H1611	H161	0.767700	0.946300	0.510700
H1621	H162	0.982000	0.168100	0.768000
H1631	H163	0.902600	0.316000	0.822400
H1641	H164	0.847600	0.360300	0.559200
H1651	H165	0.340100	0.154700	0.918500
H1661	H166	0.801800	0.556500	0.685800
H1671	H167	0.316700	0.161300	0.959700
H1681	H168	0.604800	0.067900	0.325700
H1691	H169	0.809100	0.970700	0.764300
H1701	H170	0.068300	0.186000	0.079600
H1711	H171	0.795700	0.569800	0.115600
H1721	H172	0.865500	0.306100	0.000200
H1731	H173	0.841000	0.484100	0.776200
H1741	H174	0.812800	0.502200	0.281500
H1751	H175	0.149700	0.977200	0.570400
H1761	H176	0.186100	0.168100	0.268000
H1771	H177	0.621000	0.502000	0.996100
H1781	H178	0.862200	0.708900	0.709400
H1791	H179	0.616000	0.198400	0.559000
H1801	H180	0.235000	0.212700	0.514300
H1811	H181	0.335500	0.301100	0.937300
H1821	H182	0.767700	0.821400	0.010700
H1831	H183	0.498000	0.119000	0.996100
H1841	H184	0.513600	0.056200	0.322900
H1851	H185	0.877000	0.151800	0.165100
H1861	H186	0.951600	0.663300	0.970800
H1871	H187	0.186100	0.018000	0.768000
H1881	H188	0.046200	0.910900	0.570800
H1891	H189	0.515900	0.356900	0.776200
H1901	H190	0.864700	0.910900	0.070800
H1911	H191	0.062200	0.907400	0.260800
H1921	H192	0.804400	0.412100	0.278600
H1931	H193	0.317900	0.161000	0.875000
H1941	H194	0.601600	0.150300	0.569000
H1951	H195	0.697500	0.038200	0.897100
H1961	H196	0.235000	0.022300	0.014300
H1971	H197	0.463100	0.067900	0.825700
H1981	H198	0.698900	0.664500	0.437300
H1991	H199	0.710900	0.658900	0.363600
H2001	H200	0.771700	0.198000	0.720700
H2011	H201	0.689400	0.502200	0.781500
H2021	H202	0.835800	0.708700	0.626600
H2031	H203	0.291300	0.164200	0.126600
H2041	H204	0.067900	0.878600	0.830800
H2051	H205	0.615500	0.064800	0.818800
H2061	H206	0.838700	0.155400	0.959700
H2071	H207	0.831900	0.813900	0.768000
H2081	H208	0.498000	0.379000	0.496100
H2091	H209	0.804400	0.392300	0.778600
H2101	H210	0.040200	0.190800	0.832200
H2111	H211	0.881000	0.502000	0.496100
H2121	H212	0.285700	0.151500	0.417800
H2131	H213	0.512700	0.360300	0.059200
H2141	H214	0.790600	0.875300	0.760100
H2151	H215	0.846700	0.708900	0.209400
H2161	H216	0.849700	0.398400	0.069000
H2171	H217	0.565700	0.096900	0.996600
H2181	H218	0.845200	0.937800	0.260800
H2191	H219	0.601600	0.451300	0.069000
H2201	H220	0.284300	0.173700	0.169200
H2211	H221	0.948000	0.658900	0.863600
H2221	H222	0.607700	0.195600	0.278600
H2231	H223	0.810700	0.932100	0.830800
H2241	H224	0.274800	0.151800	0.665100
H2251	H225	0.795700	0.225900	0.615600
H2261	H226	0.190800	0.989700	0.322700
H2271	H227	0.903100	0.468800	0.996600
H2281	H228	0.943800	0.457400	0.322900
H2291	H229	0.178600	0.232300	0.510700
H2301	H230	0.604800	0.536900	0.825700
H2311	H231	0.053700	0.821400	0.510700
H2321	H232	0.100800	0.238300	0.512100
H2331	H233	0.862200	0.153300	0.209400
H2341	H234	0.040200	0.849400	0.332200
H2351	H235	0.531200	0.434300	0.996600
H2361	H236	0.150600	0.190800	0.332200
H2371	H237	0.948000	0.289100	0.363600
H2381	H238	0.010300	0.201100	0.322700
H2391	H239	0.284300	0.110600	0.669200
H2401	H240	0.178600	0.946300	0.010700
H2411	H241	0.814600	0.659900	0.918500
H2421	H242	0.843100	0.815900	0.068300
H2431	H243	0.877000	0.725200	0.665100
H2441	H244	0.316700	0.155400	0.459700
H2451	H245	0.818000	0.513300	0.556300
H2461	H246	0.607700	0.412100	0.778600
H2471	H247	0.951600	0.288300	0.470800
H2481	H248	0.291100	0.137800	0.209400
H2491	H249	0.542600	0.056200	0.822900
H2501	H250	0.443500	0.198200	0.185800
H2511	H251	0.341100	0.052000	0.363600
H2521	H252	0.802000	0.573700	0.720700
H2531	H253	0.582400	0.198400	0.059000
H2541	H254	0.872900	0.164200	0.626600
H2551	H255	0.801800	0.245300	0.185800
H2561	H256	0.068300	0.882300	0.579600
H2571	H257	0.972800	0.156900	0.068300
H2581	H258	0.844600	0.161300	0.459700
H2591	H259	0.845200	0.907400	0.760800
H2601	H260	0.030700	0.233500	0.517700
H2611	H261	0.623000	0.084900	0.007700
H2621	H262	0.792300	0.557600	0.647600
H2631	H263	0.814600	0.154700	0.418500
H2641	H264	0.029300	0.190900	0.264300
H2651	H265	0.932100	0.536900	0.325700
H2661	H266	0.961800	0.659300	0.897100
H2671	H267	0.972800	0.815900	0.568300
H2681	H268	0.335500	0.034400	0.437300
H2691	H269	0.843100	0.161000	0.375000
H2701	H270	0.616000	0.417600	0.059000
H2711	H271	0.841000	0.356900	0.276200
H2721	H272	0.274800	0.123000	0.165100
H2731	H273	0.695300	0.513300	0.056300
H2741	H274	0.341100	0.289100	0.863600
H2751	H275	0.121400	0.189300	0.830800
H2761	H276	0.845300	0.185400	0.918500
H2771	H277	0.443500	0.245300	0.685800
H2781	H278	0.413400	0.097400	0.822400
H2791	H279	0.161600	0.190900	0.764300
H2801	H280	0.548700	0.398400	0.569000
H2811	H281	0.865500	0.559400	0.500200
H2821	H282	0.596800	0.442900	0.763900
H2831	H283	0.935200	0.550700	0.818800
H2841	H284	0.903100	0.434300	0.496600
H2851	H285	0.843100	0.682100	0.875000
H2861	H286	0.010300	0.809200	0.822700
H2871	H287	0.461900	0.084900	0.507700
H2881	H288	0.774100	0.569800	0.615600
C11	C1	0.739100	0.151800	0.301900
C21	C2	0.042400	0.221000	0.526800
C31	C3	0.669200	0.559700	0.814900
C41	C4	0.562700	0.485900	0.313600
C51	C5	0.840800	0.173000	0.649980
C61	C6	0.845000	0.701300	0.667130
C71	C7	0.890500	0.559700	0.314900
C81	C8	0.923200	0.485900	0.813600
C91	C9	0.923200	0.437300	0.313600
C101	C10	0.076300	0.888400	0.783130
C111	C11	0.100800	0.203800	0.036500
C121	C12	0.056400	0.185900	0.803040
C131	C13	0.520700	0.158800	0.041800
C141	C14	0.181900	0.169800	0.556520
C151	C15	0.514100	0.437300	0.813600
C161	C16	0.329000	0.212700	0.844470
C171	C17	0.256000	0.085800	0.042100
C181	C18	0.795400	0.787300	0.024000
C191	C19	0.810700	0.131100	0.955190
C201	C20	0.494300	0.364200	0.508100
C211	C21	0.230400	0.028400	0.288920
C221	C22	0.819300	0.034500	0.541600
C231	C23	0.726900	0.058600	0.941750
C241	C24	0.822900	0.576900	0.531100
C251	C25	0.883700	0.212700	0.344470
C261	C26	0.061700	0.191800	0.317590
C271	C27	0.806100	0.182300	0.678390
C281	C28	0.013900	0.815000	0.792500
C291	C29	0.412700	0.151800	0.801900
C301	C30	0.854800	0.549300	0.301630
C311	C31	0.145100	0.178800	0.553400
C321	C32	0.984900	0.805900	0.316420
C331	C33	0.832400	0.753000	0.794580
C341	C34	0.561000	0.395100	0.556500
C351	C35	0.848200	0.587300	0.301900
C361	C36	0.625000	0.479400	0.792300
C371	C37	0.815800	0.893500	0.554030
C381	C38	0.329100	0.089200	0.406160
C391	C39	0.336400	0.070300	0.372600
C401	C40	0.816600	0.853700	0.558300
C411	C41	0.423100	0.246000	0.531100
C421	C42	0.807700	0.962100	0.777430
C431	C43	0.413500	0.202900	0.143800
C441	C44	0.918000	0.393600	0.311100
C451	C45	0.037900	0.845600	0.777430
C461	C46	0.154400	0.192300	0.777430
C471	C47	0.129500	0.943600	0.803040
C481	C48	0.461800	0.321300	0.510300
C491	C49	0.802400	0.829700	0.312680
C501	C50	0.810700	0.910700	0.802460
C511	C51	0.510200	0.109900	0.805600
C521	C52	0.703500	0.162000	0.529100
C531	C53	0.809900	0.188300	0.657090
C541	C54	0.829000	0.159600	0.684420
C551	C55	0.779000	0.957600	0.026800
C561	C56	0.055500	0.856400	0.536130
C571	C57	0.613800	0.101600	0.015600
C581	C58	0.224800	0.197300	0.048100
C591	C59	0.776600	0.860800	0.523400
C601	C60	0.412700	0.260900	0.301900
C611	C61	0.847000	0.652200	0.739820
C621	C62	0.489100	0.169500	0.044400
C631	C63	0.830500	0.319600	0.044400
C641	C64	0.515500	0.377100	0.785600
C651	C65	0.678700	0.140500	0.510300
C661	C66	0.836800	0.642600	0.117140
C671	C67	0.130100	0.191800	0.817590
C681	C68	0.856300	0.701300	0.167130
C691	C69	0.837200	0.434500	0.277600
C701	C70	0.680800	0.113500	0.038000
C711	C71	0.890100	0.489800	0.305600
C721	C72	0.810700	0.679600	0.455190
C731	C73	0.414400	0.190400	0.190600
C741	C74	0.802000	0.152800	0.095880
C751	C75	0.103000	0.203800	0.536500
C761	C76	0.805800	0.642600	0.617140
C771	C77	0.913500	0.238800	0.428360
C781	C78	0.803100	0.122800	0.935080
C791	C79	0.941400	0.668300	0.941750
C801	C80	0.458500	0.296500	0.529100
C811	C81	0.809600	0.585600	0.690600
C821	C82	0.910800	0.670900	0.906160
C831	C83	0.891100	0.216500	0.490250
C841	C84	0.898400	0.512200	0.015600
C851	C85	0.847200	0.198000	0.595880
C861	C86	0.971600	0.202000	0.288920
C871	C87	0.827000	0.159200	0.149980
C881	C88	0.487800	0.386200	0.015600
C891	C89	0.894000	0.421100	0.509100
C901	C90	0.802500	0.677700	0.399540
C911	C91	0.578900	0.472900	0.509100
C921	C92	0.635800	0.505700	0.008100
C931	C93	0.320400	0.131100	0.455190
C941	C94	0.817700	0.193900	0.178390
C951	C95	0.886500	0.567300	0.038000
C961	C96	0.143000	0.179600	0.284160
C971	C97	0.853500	0.678300	0.130540
C981	C98	0.966700	0.174900	0.796890
C991	C99	0.414400	0.224000	0.690600
C1001	C100	0.298700	0.143700	0.667130
C1011	C101	0.055500	0.199100	0.036130
C1021	C102	0.215200	0.180700	0.541600
C1031	C103	0.798000	0.769600	0.288920
C1041	C104	0.672400	0.509100	0.790400
C1051	C105	0.776000	0.190400	0.690600
C1061	C106	0.846700	0.162300	0.417970
C1071	C107	0.941400	0.273100	0.441750
C1081	C108	0.807700	0.845600	0.277430
C1091	C109	0.683600	0.563500	0.294500
C1101	C110	0.510200	0.400300	0.305600
C1111	C111	0.461800	0.140500	0.010300
C1121	C112	0.527100	0.421100	0.009100
C1131	C113	0.830200	0.012100	0.556520
C1141	C114	0.247000	0.079400	0.794580
C1151	C115	0.726900	0.668300	0.441750
C1161	C116	0.972500	0.775200	0.048100
C1171	C117	0.694500	0.549300	0.801630
C1181	C118	0.805100	0.210500	0.624200
C1191	C119	0.739100	0.587300	0.801900
C1201	C120	0.357400	0.194200	0.117140
C1211	C121	0.350800	0.198000	0.095880
C1221	C122	0.784700	0.821100	0.021480
C1231	C123	0.848200	0.260900	0.801900
C1241	C124	0.322300	0.197500	0.899540
C1251	C125	0.139200	0.915800	0.523400
C1261	C126	0.256000	0.170200	0.542100
C1271	C127	0.523500	0.387800	0.523700
C1281	C128	0.077700	0.184200	0.554030
C1291	C129	0.814800	0.217600	0.211360
C1301	C130	0.908200	0.378200	0.816800
C1311	C131	0.178600	0.957600	0.526800
C1321	C132	0.636500	0.112700	0.797100
C1331	C133	0.481000	0.120500	0.534000
C1341	C134	0.797100	0.586500	0.643800
C1351	C135	0.678700	0.538200	0.010300
C1361	C136	0.725800	0.061900	0.892690
C1371	C137	0.622900	0.138400	0.785600
C1381	C138	0.887300	0.523800	0.797100
C1391	C139	0.783500	0.108900	0.990250
C1401	C140	0.814100	0.971700	0.319470
C1411	C141	0.194100	0.015100	0.816420
C1421	C142	0.846700	0.684400	0.917970
C1431	C143	0.680400	0.510900	0.044400
C1441	C144	0.319700	0.196900	0.935080
C1451	C145	0.516800	0.376600	0.047600
C1461	C146	0.787300	0.671000	0.344470
C1471	C147	0.432700	0.113500	0.538000
C1481	C148	0.146300	0.962900	0.558300
C1491	C149	0.733900	0.070300	0.872600
C1501	C150	0.224800	0.027500	0.548100
C1511	C151	0.111600	0.187900	0.783130
C1521	C152	0.824800	0.146500	0.130540
C1531	C153	0.805200	0.153000	0.739820
C1541	C154	0.440300	0.330800	0.314900
C1551	C155	0.185000	0.986100	0.292500
C1561	C156	0.754000	0.177100	0.531100
C1571	C157	0.489100	0.319600	0.544400
C1581	C158	0.329600	0.223700	0.865980
C1591	C159	0.017400	0.817900	0.044130
C1601	C160	0.621800	0.091800	0.316800
C1611	C161	0.564100	0.126800	0.023800
C1621	C162	0.553400	0.102500	0.302100
C1631	C163	0.565500	0.162800	0.777600
C1641	C164	0.413500	0.210600	0.643800
C1651	C165	0.329600	0.105900	0.365980
C1661	C166	0.170300	0.197600	0.812680
C1671	C167	0.450700	0.305500	0.301630
C1681	C168	0.838000	0.296500	0.029100
C1691	C169	0.845000	0.143700	0.167130
C1701	C170	0.840400	0.171000	0.184420
C1711	C171	0.103000	0.899200	0.036500
C1721	C172	0.805200	0.652200	0.239820
C1731	C173	0.694500	0.145200	0.301630
C1741	C174	0.804500	0.644000	0.217480
C1751	C175	0.520600	0.375000	0.292300
C1761	C176	0.405400	0.210500	0.124200
C1771	C177	0.322500	0.133100	0.379450
C1781	C178	0.084200	0.223400	0.523400
C1791	C179	0.965500	0.180700	0.041600
C1801	C180	0.100800	0.897000	0.536500
C1811	C181	0.816600	0.962900	0.058300
C1821	C182	0.866900	0.189400	0.379450
C1831	C183	0.929700	0.266100	0.372600
C1841	C184	0.347800	0.153000	0.239820
C1851	C185	0.450700	0.145200	0.801630
C1861	C186	0.836700	0.327600	0.790400
C1871	C187	0.734600	0.067000	0.961860
C1881	C188	0.896700	0.673200	0.968580
C1891	C189	0.562700	0.435900	0.023800
C1901	C190	0.604900	0.439000	0.056500
C1911	C191	0.853500	0.175200	0.630540
C1921	C192	0.836700	0.509100	0.290400
C1931	C193	0.972500	0.197300	0.548100
C1941	C194	0.036600	0.857000	0.284160
C1951	C195	0.866900	0.677500	0.879450
C1961	C196	0.061300	0.168000	0.067600
C1971	C197	0.520700	0.361900	0.541800
C1981	C198	0.077700	0.893500	0.054030
C1991	C199	0.894100	0.670400	0.865980
C2001	C200	0.378400	0.190100	0.657090
C2011	C201	0.821000	0.015100	0.316420
C2021	C202	0.856300	0.155000	0.667130
C2031	C203	0.672400	0.163300	0.290400
C2041	C204	0.622900	0.484500	0.285600
C2051	C205	0.869900	0.505700	0.508100
C2061	C206	0.849400	0.170700	0.204740
C2071	C207	0.779000	0.821400	0.526800
C2081	C208	0.866800	0.446100	0.788100
C2091	C209	0.490900	0.163300	0.790400
C2101	C210	0.553900	0.420700	0.788100
C2111	C211	0.864300	0.476500	0.523700
C2121	C212	0.801100	0.815000	0.292500
C2131	C213	0.516800	0.140200	0.547600
C2141	C214	0.639500	0.120500	0.034000
C2151	C215	0.108800	0.926100	0.768710
C2161	C216	0.787300	0.116300	0.844470
C2171	C217	0.829800	0.085800	0.542100
C2181	C218	0.826600	0.820400	0.780730
C2191	C219	0.331700	0.058600	0.441750
C2201	C220	0.789500	0.594600	0.624200
C2211	C221	0.858000	0.414500	0.544200
C2221	C222	0.179600	0.006200	0.780730
C2231	C223	0.802700	0.027500	0.048100
C2241	C224	0.837700	0.153300	0.917970
C2251	C225	0.821200	0.854900	0.053400
C2261	C226	0.683600	0.120100	0.794500
C2271	C227	0.561000	0.165900	0.056500
C2281	C228	0.805100	0.594600	0.124200
C2291	C229	0.877200	0.680300	0.935080
C2301	C230	0.810700	0.900000	0.302460
C2311	C231	0.315600	0.162300	0.917970
C2321	C232	0.938100	0.663900	0.892690
C2331	C233	0.908200	0.530000	0.316800
C2341	C234	0.820400	0.857000	0.784160
C2351	C235	0.597300	0.162800	0.277600
C2361	C236	0.612200	0.135700	0.523700
C2371	C237	0.879500	0.519000	0.034000
C2381	C238	0.036600	0.179600	0.784160
C2391	C239	0.879900	0.563500	0.794500
C2401	C240	0.811700	0.190100	0.157090
C2411	C241	0.129500	0.185900	0.303040
C2421	C242	0.784700	0.963600	0.521480
C2431	C243	0.028300	0.185900	0.819470
C2441	C244	0.971600	0.769600	0.788920
C2451	C245	0.423100	0.177100	0.031100
C2461	C246	0.734600	0.667600	0.461860
C2471	C247	0.754000	0.576900	0.031100
C2481	C248	0.825100	0.791800	0.796890
C2491	C249	0.106500	0.922300	0.554030
C2501	C250	0.839500	0.644000	0.717480
C2511	C251	0.033700	0.854900	0.553400
C2521	C252	0.089300	0.189300	0.302460
C2531	C253	0.733900	0.663600	0.372600
C2541	C254	0.761200	0.674700	0.428360
C2551	C255	0.599700	0.489800	0.805600
C2561	C256	0.789400	0.586500	0.143800
C2571	C257	0.891100	0.674600	0.990250
C2581	C258	0.847000	0.194800	0.239820
C2591	C259	0.760100	0.670900	0.406160
C2601	C260	0.873200	0.437300	0.023800
C2611	C261	0.494300	0.130100	0.008100
C2621	C262	0.332200	0.159200	0.649980
C2631	C263	0.806100	0.623800	0.178390
C2641	C264	0.897500	0.450900	0.302100
C2651	C265	0.938100	0.274200	0.392690
C2661	C266	0.579300	0.446100	0.288100
C2671	C267	0.606400	0.082000	0.811100
C2681	C268	0.315600	0.153300	0.417970
C2691	C269	0.476200	0.363500	0.797100
C2701	C270	0.815800	0.922300	0.054030
C2711	C271	0.061700	0.869900	0.817590
C2721	C272	0.562700	0.076800	0.813600
C2731	C273	0.776500	0.103300	0.968580
C2741	C274	0.143000	0.963400	0.784160
C2751	C275	0.356000	0.195500	0.717480
C2761	C276	0.330600	0.171000	0.684420
C2771	C277	0.111600	0.923700	0.283130
C2781	C278	0.638100	0.158800	0.541800
C2791	C279	0.761200	0.086500	0.928360
C2801	C280	0.182100	0.982600	0.544130
C2811	C281	0.612200	0.476500	0.023700
C2821	C282	0.873200	0.435900	0.523800
C2831	C283	0.918000	0.524400	0.811100
C2841	C284	0.564100	0.437300	0.523800
C2851	C285	0.877200	0.196900	0.435080
C2861	C286	0.802500	0.124800	0.899540
C2871	C287	0.811700	0.621600	0.657090
C2881	C288	0.515500	0.138400	0.285600
C2891	C289	0.829800	0.744000	0.042100
C2901	C290	0.669200	0.109500	0.314900
C2911	C291	0.470000	0.378200	0.316800
C2921	C292	0.073900	0.182700	0.768710
C2931	C293	0.776500	0.673200	0.468580
C2941	C294	0.776600	0.915800	0.023400
C2951	C295	0.894100	0.223700	0.365980
C2961	C296	0.556500	0.142000	0.544200
C2971	C297	0.145100	0.966300	0.053400
C2981	C298	0.330600	0.159600	0.184420
C2991	C299	0.298700	0.155000	0.167130
C3001	C300	0.139200	0.223400	0.023400
C3011	C301	0.839500	0.195500	0.217480
C3021	C302	0.817300	0.891200	0.768710
C3031	C303	0.322500	0.189400	0.879450
C3041	C304	0.804500	0.160500	0.717480
C3051	C305	0.725800	0.663900	0.392690
C3061	C306	0.181900	0.012100	0.056520
C3071	C307	0.027300	0.197600	0.312680
C3081	C308	0.326800	0.103300	0.468580
C3091	C309	0.378400	0.188300	0.157090
C3101	C310	0.800900	0.856400	0.036130
C3111	C311	0.864300	0.387800	0.023700
C3121	C312	0.966700	0.791800	0.296890
C3131	C313	0.143600	0.944500	0.036130
C3141	C314	0.562700	0.126800	0.523800
C3151	C315	0.100000	0.189300	0.802460
C3161	C316	0.841200	0.479300	0.541800
C3171	C317	0.376200	0.193900	0.678390
C3181	C318	0.812100	0.888400	0.283130
C3191	C319	0.776300	0.105900	0.865980
C3201	C320	0.623400	0.483200	0.547600
C3211	C321	0.859500	0.321300	0.010300
C3221	C322	0.776000	0.585600	0.190600
C3231	C323	0.089300	0.900000	0.802460
C3241	C324	0.319700	0.122800	0.435080
C3251	C325	0.859500	0.538200	0.510300
C3261	C326	0.838000	0.541500	0.529100
C3271	C327	0.810600	0.677500	0.379450
C3281	C328	0.440300	0.109500	0.814900
C3291	C329	0.829000	0.669400	0.184420
C3301	C330	0.432700	0.319200	0.038000
C3311	C331	0.910800	0.239900	0.406160
C3321	C332	0.604900	0.165900	0.556500
C3331	C333	0.795400	0.008100	0.524000
C3341	C334	0.321300	0.150600	0.204740
C3351	C335	0.832400	0.079400	0.294580
C3361	C336	0.514100	0.076800	0.313600
C3371	C337	0.993800	0.173400	0.780730
C3381	C338	0.037900	0.192300	0.277430
C3391	C339	0.613800	0.512200	0.515600
C3401	C340	0.809600	0.224000	0.190600
C3411	C341	0.230400	0.202000	0.788920
C3421	C342	0.578900	0.106000	0.009100
C3431	C343	0.703500	0.541500	0.029100
C3441	C344	0.886500	0.319200	0.538000
C3451	C345	0.376200	0.182300	0.178390
C3461	C346	0.984900	0.179000	0.816420
C3471	C347	0.329100	0.239900	0.906160
C3481	C348	0.325400	0.108900	0.490250
C3491	C349	0.523500	0.135700	0.023700
C3501	C350	0.814100	0.842400	0.819470
C3511	C351	0.776300	0.670400	0.365980
C3521	C352	0.913500	0.674700	0.928360
C3531	C353	0.056400	0.870500	0.303040
C3541	C354	0.321700	0.175200	0.130540
C3551	C355	0.817300	0.926100	0.268710
C3561	C356	0.680400	0.169500	0.544400
C3571	C357	0.336100	0.274200	0.892690
C3581	C358	0.826600	0.006200	0.280730
C3591	C359	0.320400	0.189300	0.955190
C3601	C360	0.356000	0.160500	0.217480
C3611	C361	0.849400	0.678700	0.704740
C3621	C362	0.476200	0.112700	0.297100
C3631	C363	0.814100	0.943600	0.303040
C3641	C364	0.832000	0.893300	0.067600
C3651	C365	0.490900	0.327600	0.290400
C3661	C366	0.178900	0.963600	0.021480
C3671	C367	0.993800	0.820400	0.280730
C3681	C368	0.837200	0.402700	0.777600
C3691	C369	0.061300	0.893300	0.567600
C3701	C370	0.037100	0.853700	0.058300
C3711	C371	0.808200	0.938300	0.817590
C3721	C372	0.898400	0.386200	0.515600
C3731	C373	0.836800	0.194200	0.617140
C3741	C374	0.475600	0.082000	0.311100
C3751	C375	0.987900	0.818100	0.556520
C3761	C376	0.896700	0.223500	0.468580
C3771	C377	0.869900	0.364200	0.008100
C3781	C378	0.556500	0.414500	0.044200
C3791	C379	0.208200	0.174900	0.296890
C3801	C380	0.326800	0.223500	0.968580
C3811	C381	0.436500	0.316400	0.794500
C3821	C382	0.178600	0.221000	0.026800
C3831	C383	0.802700	0.775200	0.548100
C3841	C384	0.987900	0.169800	0.056520
C3851	C385	0.914200	0.744000	0.542100
C3861	C386	0.834100	0.439000	0.556500
C3871	C387	0.036400	0.821100	0.521480
C3881	C388	0.549100	0.102500	0.802100
C3891	C389	0.814800	0.597200	0.711360
C3901	C390	0.875200	0.677700	0.899540
C3911	C391	0.789500	0.194900	0.124200
C3921	C392	0.814100	0.870500	0.803040
C3931	C393	0.185000	0.198900	0.792500
C3941	C394	0.800900	0.944500	0.536130
C3951	C395	0.037100	0.183400	0.558300
C3961	C396	0.810600	0.133100	0.879450
C3971	C397	0.789400	0.202900	0.643800
C3981	C398	0.623400	0.140200	0.047600
C3991	C399	0.809900	0.621600	0.157090
C4001	C400	0.854800	0.305500	0.801630
C4011	C401	0.332400	0.067000	0.461860
C4021	C402	0.470000	0.091800	0.816800
C4031	C403	0.597300	0.434500	0.777600
C4041	C404	0.553400	0.450900	0.802100
C4051	C405	0.553900	0.133200	0.288100
C4061	C406	0.146300	0.183400	0.058300
C4071	C407	0.084200	0.860800	0.023400
C4081	C408	0.325400	0.216500	0.990250
C4091	C409	0.817700	0.623800	0.678390
C4101	C410	0.585500	0.142000	0.044200
C4111	C411	0.834100	0.395100	0.056500
C4121	C412	0.879900	0.316400	0.294500
C4131	C413	0.920600	0.753000	0.294580
C4141	C414	0.329000	0.116300	0.344470
C4151	C415	0.933000	0.667600	0.961860
C4161	C416	0.802000	0.649200	0.595880
C4171	C417	0.194100	0.179000	0.316420
C4181	C418	0.625000	0.145600	0.292300
C4191	C419	0.215200	0.034500	0.041600
C4201	C420	0.914200	0.170200	0.042100
C4211	C421	0.076300	0.187900	0.283130
C4221	C422	0.350800	0.152800	0.595880
C4231	C423	0.991900	0.787300	0.524000
C4241	C424	0.965500	0.784800	0.541600
C4251	C425	0.017400	0.199500	0.544130
C4261	C426	0.347800	0.194800	0.739820
C4271	C427	0.332400	0.265400	0.961860
C4281	C428	0.797100	0.210600	0.143800
C4291	C429	0.832000	0.938700	0.567600
C4301	C430	0.635800	0.130100	0.508100
C4311	C431	0.247000	0.167600	0.294580
C4321	C432	0.820400	0.963400	0.284160
C4331	C433	0.402800	0.185200	0.211360
C4341	C434	0.143600	0.199100	0.536130
C4351	C435	0.027300	0.829700	0.812680
C4361	C436	0.847200	0.649200	0.095880
C4371	C437	0.933000	0.265400	0.461860
C4381	C438	0.106700	0.938700	0.067600
C4391	C439	0.332200	0.173000	0.149980
C4401	C440	0.336100	0.061900	0.392690
C4411	C441	0.013900	0.198900	0.292500
C4421	C442	0.599700	0.109900	0.305600
C4431	C443	0.402800	0.217600	0.711360
C4441	C444	0.028300	0.842400	0.319470
C4451	C445	0.796200	0.899200	0.536500
C4461	C446	0.170300	0.972700	0.312680
C4471	C447	0.638100	0.479300	0.041800
C4481	C448	0.130100	0.938300	0.317590
C4491	C449	0.887300	0.363500	0.297100
C4501	C450	0.859800	0.483200	0.047600
C4511	C451	0.639500	0.519000	0.534000
C4521	C452	0.157600	0.971700	0.819470
C4531	C453	0.821000	0.805900	0.816420
C4541	C454	0.890500	0.330800	0.814900
C4551	C455	0.042400	0.821400	0.026800
C4561	C456	0.621800	0.530000	0.816800
C4571	C457	0.487800	0.101600	0.515600
C4581	C458	0.680800	0.567300	0.538000
C4591	C459	0.802400	0.972700	0.812680
C4601	C460	0.821200	0.966300	0.553400
C4611	C461	0.436500	0.120100	0.294500
C4621	C462	0.897500	0.446600	0.802100
C4631	C463	0.827000	0.667800	0.649980
C4641	C464	0.212700	0.008100	0.024000
C4651	C465	0.829300	0.678700	0.204740
C4661	C466	0.798000	0.028400	0.788920
C4671	C467	0.858000	0.443500	0.044200
C4681	C468	0.154400	0.962100	0.277430
C4691	C469	0.819300	0.784800	0.041600
C4701	C470	0.822900	0.246000	0.031100
C4711	C471	0.321300	0.170700	0.704740
C4721	C472	0.520600	0.145600	0.792300
C4731	C473	0.803100	0.680300	0.435080
C4741	C474	0.760100	0.089200	0.906160
C4751	C475	0.830500	0.510900	0.544400
C4761	C476	0.033700	0.178800	0.053400
C4771	C477	0.106500	0.184200	0.054030
C4781	C478	0.783500	0.674600	0.490250
C4791	C479	0.920600	0.167600	0.794580
C4801	C480	0.106700	0.168000	0.567600
C4811	C481	0.808200	0.869900	0.317590
C4821	C482	0.073900	0.891200	0.268710
C4831	C483	0.883700	0.671000	0.844470
C4841	C484	0.868900	0.679600	0.955190
C4851	C485	0.182100	0.199500	0.044130
C4861	C486	0.405400	0.194900	0.624200
C4871	C487	0.801100	0.986100	0.792500
C4881	C488	0.208200	0.033300	0.796890
C4891	C489	0.357400	0.163200	0.617140
C4901	C490	0.331700	0.273100	0.941750
C4911	C491	0.108800	0.182700	0.268710
C4921	C492	0.825100	0.033300	0.296890
C4931	C493	0.636500	0.523800	0.297100
C4941	C494	0.837700	0.684400	0.417970
C4951	C495	0.475600	0.393600	0.811100
C4961	C496	0.336400	0.266100	0.872600
C4971	C497	0.861600	0.377100	0.285600
C4981	C498	0.841200	0.361900	0.041800
C4991	C499	0.481000	0.360500	0.034000
C5001	C500	0.812100	0.923700	0.783130
C5011	C501	0.840800	0.667800	0.149980
C5021	C502	0.868900	0.189300	0.455190
C5031	C503	0.322300	0.124800	0.399540
C5041	C504	0.325300	0.086500	0.428360
C5051	C505	0.036400	0.215300	0.021480
C5061	C506	0.894000	0.472900	0.009100
C5071	C507	0.829300	0.150600	0.704740
C5081	C508	0.782400	0.597200	0.211360
C5091	C509	0.859800	0.376600	0.547600
C5101	C510	0.325300	0.238800	0.928360
C5111	C511	0.527100	0.106000	0.509100
C5121	C512	0.800500	0.982600	0.044130
C5131	C513	0.212700	0.204600	0.524000
C5141	C514	0.991900	0.204600	0.024000
C5151	C515	0.100000	0.910700	0.302460
C5161	C516	0.321700	0.146500	0.630540
C5171	C517	0.929700	0.663600	0.872600
C5181	C518	0.179600	0.173400	0.280730
C5191	C519	0.875200	0.197500	0.399540
C5201	C520	0.782400	0.185200	0.711360
C5211	C521	0.458500	0.162000	0.029100
C5221	C522	0.854400	0.479400	0.292300
C5231	C523	0.178900	0.215300	0.521480
C5241	C524	0.830200	0.818100	0.056520
C5251	C525	0.805800	0.163200	0.117140
C5261	C526	0.861600	0.484500	0.785600
C5271	C527	0.890100	0.400300	0.805600
C5281	C528	0.606400	0.524400	0.311100
C5291	C529	0.800500	0.817900	0.544130
C5301	C530	0.866800	0.420700	0.288100
C5311	C531	0.585500	0.443500	0.544200
C5321	C532	0.854400	0.375000	0.792300
C5331	C533	0.157600	0.185900	0.319470
C5341	C534	0.840400	0.669400	0.684420
C5351	C535	0.579300	0.133200	0.788100
C5361	C536	0.565500	0.402700	0.277600
C5371	C537	0.824800	0.678300	0.630540
C5381	C538	0.879500	0.360500	0.534000
C5391	C539	0.549100	0.446600	0.302100
C5401	C540	0.796200	0.897000	0.036500
O11	O1	0.707000	0.140900	0.054230
O21	O2	0.821700	0.677600	0.495310
O31	O3	0.326400	0.246700	0.001680
O41	O4	0.899500	0.153500	0.778050
O51	O5	0.865200	0.201200	0.291990
O61	O6	0.254000	0.153500	0.278050
O71	O7	0.913800	0.243300	0.333100
O81	O8	0.950800	0.180500	0.563440
O91	O9	0.753300	0.079700	0.001680
O101	O10	0.848100	0.670700	0.839920
O111	O11	0.756700	0.086200	0.833100
O121	O12	0.756700	0.670500	0.333100
O131	O13	0.763300	0.182800	0.287700
O141	O14	0.379300	0.237400	0.312670
O151	O15	0.830700	0.613600	0.084780
O161	O16	0.817600	0.052000	0.773190
O171	O17	0.820900	0.719100	0.027260
O181	O18	0.280900	0.101800	0.027260
O191	O19	0.798800	0.134800	0.791990
O201	O20	0.789200	0.748200	0.534210
O211	O21	0.336000	0.201200	0.791990
O221	O22	0.850200	0.743500	0.057730
O231	O23	0.310300	0.129400	0.590150
O241	O24	0.379300	0.141900	0.812670
O251	O25	0.834700	0.617000	0.750780
O261	O26	0.329300	0.151900	0.339920
O271	O27	0.782300	0.165300	0.750780
O281	O28	0.433900	0.140900	0.554230
O291	O29	0.826500	0.692500	0.245350
O301	O30	0.871900	0.205600	0.542780
O311	O31	0.773200	0.159900	0.519850
O321	O32	0.913800	0.670500	0.833100
O331	O33	0.336000	0.134800	0.291990
O341	O34	0.254000	0.100500	0.778050
O351	O35	0.272600	0.171500	0.309320
O361	O36	0.904400	0.302900	0.304000
O371	O37	0.693800	0.092700	0.028520
O381	O38	0.840100	0.226800	0.019850
O391	O39	0.834700	0.217700	0.250780
O401	O40	0.280900	0.179100	0.527260
O411	O41	0.710900	0.148100	0.781700
O421	O42	0.893300	0.743500	0.557730
O431	O43	0.828500	0.101100	0.309320
O441	O44	0.781800	0.741100	0.301550
O451	O45	0.830700	0.217100	0.584780
O461	O46	0.229700	0.180500	0.063440
O471	O47	0.819100	0.129400	0.090150
O481	O48	0.898900	0.727400	0.309320
O491	O49	0.870600	0.180900	0.590150
O501	O50	0.802000	0.574800	0.547060
O511	O51	0.798800	0.664000	0.291990
O521	O52	0.840100	0.613300	0.519850
O531	O53	0.229700	0.049200	0.563440
O541	O54	0.386400	0.169300	0.584780
O551	O55	0.753300	0.673600	0.501680
O561	O56	0.822600	0.670700	0.339920
O571	O57	0.865200	0.664000	0.791990
O581	O58	0.821700	0.144100	0.995310
O591	O59	0.950800	0.770300	0.063440
O601	O60	0.437200	0.289100	0.781700
O611	O61	0.820900	0.101800	0.527260
O621	O62	0.398900	0.092700	0.528520
O631	O63	0.859100	0.293000	0.554230
O641	O64	0.256500	0.149800	0.557730
O651	O65	0.920300	0.246700	0.501680
O661	O66	0.855900	0.178300	0.495310
O671	O67	0.762600	0.141900	0.312670
O681	O68	0.782300	0.617000	0.250780
O691	O69	0.826500	0.134000	0.745350
O701	O70	0.386700	0.159900	0.019850
O711	O71	0.398500	0.302900	0.804000
O721	O72	0.893300	0.149800	0.057730
O731	O73	0.899500	0.746000	0.278050
O741	O74	0.794400	0.128100	0.042780
O751	O75	0.851900	0.562800	0.781700
O761	O76	0.234400	0.182400	0.773190
O771	O77	0.822600	0.151900	0.839920
O781	O78	0.419500	0.236700	0.287700
O791	O79	0.959000	0.748200	0.034210
O801	O80	0.234400	0.052000	0.273190
O811	O81	0.850200	0.106700	0.557730
O821	O82	0.898200	0.179100	0.027260
O831	O83	0.828500	0.727400	0.809320
O841	O84	0.858100	0.237400	0.812670
O851	O85	0.794400	0.666300	0.542780
O861	O86	0.419500	0.182800	0.787700
O871	O87	0.959300	0.218200	0.301550
O881	O88	0.433900	0.293000	0.054230
O891	O89	0.773200	0.613300	0.019850
O901	O90	0.329500	0.086200	0.333100
O911	O91	0.819500	0.049200	0.063440
O921	O92	0.425200	0.198000	0.047060
O931	O93	0.781800	0.040700	0.801550
O941	O94	0.858100	0.620700	0.312670
O951	O95	0.329300	0.177400	0.839920
O961	O96	0.383000	0.165300	0.250780
O971	O97	0.707000	0.566100	0.554230
O981	O98	0.848100	0.177400	0.339920
O991	O99	0.819100	0.689700	0.590150
O1001	O100	0.272600	0.101100	0.809320
O1011	O101	0.329500	0.243300	0.833100
O1021	O102	0.789200	0.041000	0.034210
O1031	O103	0.256500	0.106700	0.057730
O1041	O104	0.851900	0.289100	0.281700
O1051	O105	0.322400	0.144100	0.495310
O1061	O106	0.817200	0.236700	0.787700
O1071	O107	0.425200	0.227200	0.547060
O1081	O108	0.307500	0.173500	0.745350
O1091	O109	0.762600	0.620700	0.812670
O1101	O110	0.866000	0.173500	0.245350
O1111	O111	0.693800	0.601100	0.528520
O1121	O112	0.819500	0.770300	0.563440
O1131	O113	0.697100	0.601500	0.304000
O1141	O114	0.386700	0.226800	0.519850
O1151	O115	0.383000	0.217700	0.750780
O1161	O116	0.258900	0.040700	0.301550
O1171	O117	0.763300	0.580500	0.787700
O1181	O118	0.898200	0.719100	0.527260
O1191	O119	0.904400	0.601500	0.804000
O1201	O120	0.920300	0.673600	0.001680
O1211	O121	0.697100	0.095600	0.804000
O1221	O122	0.870600	0.689700	0.090150
O1231	O123	0.782900	0.169300	0.084780
O1241	O124	0.258900	0.218200	0.801550
O1251	O125	0.782900	0.613600	0.584780
O1261	O126	0.251800	0.210800	0.034210
O1271	O127	0.251800	0.041000	0.534210
O1281	O128	0.855900	0.677600	0.995310
O1291	O129	0.310300	0.180900	0.090150
O1301	O130	0.948000	0.182400	0.273190
O1311	O131	0.710900	0.562800	0.281700
O1321	O132	0.948000	0.765600	0.773190
O1331	O133	0.817600	0.765600	0.273190
O1341	O134	0.802000	0.227200	0.047060
O1351	O135	0.326400	0.079700	0.501680
O1361	O136	0.898900	0.171500	0.809320
O1371	O137	0.333700	0.205600	0.042780
O1381	O138	0.907300	0.306200	0.528520
O1391	O139	0.866000	0.692500	0.745350
O1401	O140	0.846500	0.746000	0.778050
O1411	O141	0.398900	0.306200	0.028520
O1421	O142	0.859100	0.566100	0.054230
O1431	O143	0.322400	0.178300	0.995310
O1441	O144	0.959000	0.210800	0.534210
O1451	O145	0.772800	0.198000	0.547060
O1461	O146	0.817200	0.580500	0.287700
O1471	O147	0.333700	0.128100	0.542780
O1481	O148	0.386400	0.217100	0.084780
O1491	O149	0.437200	0.148100	0.281700
O1501	O150	0.907300	0.601100	0.028520
O1511	O151	0.307500	0.134000	0.245350
O1521	O152	0.871900	0.666300	0.042780
O1531	O153	0.398500	0.095600	0.304000
O1541	O154	0.772800	0.574800	0.047060
O1551	O155	0.959300	0.741100	0.801550
O1561	O156	0.846500	0.100500	0.278050
Zn491	Zn49	0.668930	0.827170	0.687360
Zn501	Zn50	0.607700	0.837890	0.443130
Zn511	Zn51	0.169710	0.286800	0.727440
Zn521	Zn52	0.163680	0.330850	0.477410
Zn531	Zn53	0.225130	0.830070	0.221220
Zn541	Zn54	0.604940	0.830070	0.721220
Zn551	Zn55	0.225130	0.395060	0.721220
Zn561	Zn56	0.175640	0.285730	0.437230
Zn571	Zn57	0.714270	0.824360	0.937230
Zn581	Zn58	0.162110	0.769810	0.443130
Zn591	Zn59	0.669150	0.836320	0.977410
Zn601	Zn60	0.167170	0.330850	0.977410
Zn611	Zn61	0.669150	0.832830	0.477410
Zn621	Zn62	0.713200	0.830290	0.227440
Zn631	Zn63	0.230190	0.392300	0.443130
Zn641	Zn64	0.117090	0.286800	0.227440
Zn651	Zn65	0.169930	0.774870	0.721220
Zn661	Zn66	0.078950	0.331760	0.196490
Zn671	Zn67	0.175640	0.889910	0.937230
Zn681	Zn68	0.070690	0.742150	0.467890
Zn691	Zn69	0.668240	0.921050	0.696490
Zn701	Zn70	0.257850	0.328540	0.467890
Zn711	Zn71	0.257850	0.929310	0.967890
Zn721	Zn72	0.110090	0.285730	0.937230
Zn731	Zn73	0.117090	0.830290	0.727440
Zn741	Zn74	0.158240	0.331070	0.687360
Zn751	Zn75	0.110090	0.824360	0.437230
Zn761	Zn76	0.604940	0.774870	0.221220
Zn771	Zn77	0.713200	0.882910	0.727440
Zn781	Zn78	0.078950	0.747190	0.696490
Zn791	Zn79	0.172830	0.331070	0.187360
Zn801	Zn80	0.252810	0.921050	0.196490
Zn811	Zn81	0.607700	0.769810	0.943130
Zn821	Zn82	0.230190	0.837890	0.943130
Zn831	Zn83	0.668930	0.841760	0.187360
Zn841	Zn84	0.169930	0.395060	0.221220
Zn851	Zn85	0.668240	0.747190	0.196490
Zn861	Zn86	0.671460	0.742150	0.967890
Zn871	Zn87	0.169710	0.882910	0.227440
Zn881	Zn88	0.070690	0.328540	0.967890
Zn891	Zn89	0.172830	0.841760	0.687360
Zn901	Zn90	0.714270	0.889910	0.437230
Zn911	Zn91	0.167170	0.836320	0.477410
Zn921	Zn92	0.671460	0.929310	0.467890
Zn931	Zn93	0.252810	0.331760	0.696490
Zn941	Zn94	0.162110	0.392300	0.943130
Zn951	Zn95	0.158240	0.827170	0.187360
Zn961	Zn96	0.163680	0.832830	0.977410
H2891	H289	0.198200	0.754700	0.814200
H2901	H290	0.797200	0.766500	0.982300
H2911	H291	0.989700	0.798900	0.677300
H2921	H292	0.434300	0.903100	0.003400
H2931	H293	0.190800	0.040200	0.667800
H2941	H294	0.559400	0.865500	0.999800
H2951	H295	0.573700	0.771700	0.279300
H2961	H296	0.289100	0.948000	0.136400
H2971	H297	0.487300	0.639700	0.940800
H2981	H298	0.212700	0.235000	0.985700
H2991	H299	0.487300	0.847600	0.440800
H3001	H300	0.123000	0.848200	0.834900
H3011	H301	0.238300	0.100800	0.987900
H3021	H302	0.232300	0.053700	0.489300
H3031	H303	0.150300	0.548700	0.431000
H3041	H304	0.153300	0.862200	0.290600
H3051	H305	0.186000	0.068300	0.420400
H3061	H306	0.714300	0.848500	0.582200
H3071	H307	0.304700	0.486700	0.943700
H3081	H308	0.502000	0.881000	0.003900
H3091	H309	0.201100	0.190800	0.677300
H3101	H310	0.306100	0.440600	0.999800
H3111	H311	0.198400	0.582400	0.441000
H3121	H312	0.134200	0.848500	0.082200
H3131	H313	0.288300	0.951600	0.029200
H3141	H314	0.159000	0.515900	0.223800
H3151	H315	0.212700	0.977700	0.485700
H3161	H316	0.022300	0.235000	0.485700
H3171	H317	0.067900	0.604800	0.174300
H3181	H318	0.907400	0.062200	0.239200
H3191	H319	0.161300	0.844600	0.040300
H3201	H320	0.931700	0.814000	0.920400
H3211	H321	0.209400	0.084700	0.739900
H3221	H322	0.809200	0.798900	0.177300
H3231	H323	0.959800	0.150600	0.667800
H3241	H324	0.155400	0.316700	0.040300
H3251	H325	0.395200	0.932100	0.674300
H3261	H326	0.915300	0.124700	0.739900
H3271	H327	0.123000	0.274800	0.334900
H3281	H328	0.398400	0.849700	0.431000
H3291	H329	0.970700	0.161600	0.235700
H3301	H330	0.232300	0.178600	0.989300
H3311	H331	0.233500	0.202800	0.482300
H3321	H332	0.097400	0.413400	0.677600
H3331	H333	0.302500	0.340700	0.602900
H3341	H334	0.152400	0.512700	0.940800
H3351	H335	0.682100	0.839000	0.125000
H3361	H336	0.048400	0.336700	0.029200
H3371	H337	0.119000	0.621000	0.003900
H3381	H338	0.064800	0.615500	0.681200
H3391	H339	0.838400	0.809100	0.235700
H3401	H340	0.789800	0.823000	0.672800
H3411	H341	0.204300	0.774100	0.384400
H3421	H342	0.538100	0.623000	0.992300
H3431	H343	0.486400	0.943800	0.677100
H3441	H344	0.550700	0.615500	0.181200
H3451	H345	0.156900	0.839000	0.625000
H3461	H346	0.878600	0.067900	0.669200
H3471	H347	0.064800	0.449300	0.181200
H3481	H348	0.097400	0.684000	0.177600
H3491	H349	0.177000	0.966800	0.672800
H3501	H350	0.412100	0.607700	0.721400
H3511	H351	0.977200	0.827500	0.429600
H3521	H352	0.168100	0.982000	0.732000
H3531	H353	0.875300	0.790600	0.739900
H3541	H354	0.195600	0.587900	0.721400
H3551	H355	0.153900	0.596800	0.236100
H3561	H356	0.434300	0.531200	0.503400
H3571	H357	0.708900	0.846700	0.290600
H3581	H358	0.379000	0.498000	0.003900
H3591	H359	0.813900	0.982000	0.232000
H3601	H360	0.316000	0.902600	0.677600
H3611	H361	0.932100	0.810700	0.669200
H3621	H362	0.899200	0.761700	0.487900
H3631	H363	0.821400	0.053700	0.989300
H3641	H364	0.907400	0.845200	0.739200
H3651	H365	0.392300	0.804400	0.721400
H3661	H366	0.959800	0.809200	0.167800
H3671	H367	0.586600	0.902600	0.177600
H3681	H368	0.977200	0.149700	0.929600
H3691	H369	0.204300	0.430200	0.884400
H3701	H370	0.234700	0.442400	0.852400
H3711	H371	0.809200	0.010300	0.677300
H3721	H372	0.150300	0.601600	0.931000
H3731	H373	0.161000	0.317900	0.625000
H3741	H374	0.151800	0.274800	0.834900
H3751	H375	0.156900	0.184100	0.931700
H3761	H376	0.302500	0.961800	0.102900
H3771	H377	0.502200	0.689400	0.718500
H3781	H378	0.182000	0.695300	0.943700
H3791	H379	0.198400	0.616000	0.941000
H3801	H380	0.937800	0.845200	0.239200
H3811	H381	0.052000	0.710900	0.636400
H3821	H382	0.151500	0.285700	0.082200
H3831	H383	0.038200	0.697500	0.602900
H3841	H384	0.502200	0.812800	0.218500
H3851	H385	0.154700	0.340100	0.581500
H3861	H386	0.173700	0.889400	0.830800
H3871	H387	0.659900	0.845300	0.081500
H3881	H388	0.725200	0.877000	0.834900
H3891	H389	0.159000	0.643100	0.723800
H3901	H390	0.486400	0.542600	0.177100
H3911	H391	0.151800	0.877000	0.334900
H3921	H392	0.190900	0.029300	0.235700
H3931	H393	0.190900	0.161600	0.735700
H3941	H394	0.910900	0.046200	0.929200
H3951	H395	0.360300	0.847600	0.940800
H3961	H396	0.663300	0.711700	0.029200
H3971	H397	0.189300	0.067900	0.169200
H3981	H398	0.937800	0.092600	0.739200
H3991	H399	0.225900	0.430200	0.384400
H4001	H400	0.177000	0.210200	0.172800
H4011	H401	0.310600	0.497800	0.218500
H4021	H402	0.878600	0.810700	0.169200
H4031	H403	0.797200	0.030700	0.482300
H4041	H404	0.048400	0.711700	0.529200
H4051	H405	0.310600	0.812800	0.718500
H4061	H406	0.033200	0.210200	0.672800
H4071	H407	0.683300	0.838700	0.040300
H4081	H408	0.953800	0.864700	0.929200
H4091	H409	0.127100	0.835800	0.373400
H4101	H410	0.765000	0.977700	0.985700
H4111	H411	0.550700	0.935200	0.681200
H4121	H412	0.882300	0.068300	0.920400
H4131	H413	0.161000	0.843100	0.125000
H4141	H414	0.306100	0.865500	0.499800
H4151	H415	0.569800	0.795700	0.384400
H4161	H416	0.683300	0.844600	0.540300
H4171	H417	0.899200	0.137500	0.987900
H4181	H418	0.556500	0.801800	0.814200
H4191	H419	0.849400	0.040200	0.167800
H4201	H420	0.457400	0.513600	0.677100
H4211	H421	0.708900	0.862200	0.790600
H4221	H422	0.154800	0.092600	0.239200
H4231	H423	0.238300	0.137500	0.487900
H4241	H424	0.849400	0.809200	0.667800
H4251	H425	0.821400	0.767700	0.489300
H4261	H426	0.245300	0.443500	0.814200
H4271	H427	0.682100	0.843100	0.625000
H4281	H428	0.557600	0.792300	0.852400
H4291	H429	0.850300	0.022800	0.429600
H4301	H430	0.135300	0.046200	0.429200
H4311	H431	0.182000	0.486700	0.443700
H4321	H432	0.155400	0.838700	0.540300
H4331	H433	0.658900	0.710900	0.136400
H4341	H434	0.946300	0.178600	0.489300
H4351	H435	0.038200	0.340700	0.102900
H4361	H436	0.659300	0.697500	0.102900
H4371	H437	0.289100	0.341100	0.636400
H4381	H438	0.384500	0.935200	0.181200
H4391	H439	0.096900	0.531200	0.003400
H4401	H440	0.195600	0.607700	0.221400
H4411	H441	0.154700	0.814600	0.081500
H4421	H442	0.034400	0.698900	0.562700
H4431	H443	0.725200	0.848200	0.334900
H4441	H444	0.234700	0.792300	0.352400
H4451	H445	0.569800	0.774100	0.884400
H4461	H446	0.664500	0.965600	0.562700
H4471	H447	0.201100	0.010300	0.177300
H4481	H448	0.168100	0.186100	0.232000
H4491	H449	0.164200	0.291300	0.373400
H4501	H450	0.838400	0.029300	0.735700
H4511	H451	0.172500	0.022800	0.929600
H4521	H452	0.813900	0.831900	0.732000
H4531	H453	0.862500	0.761700	0.987900
H4541	H454	0.384000	0.582400	0.941000
H4551	H455	0.189300	0.121400	0.669200
H4561	H456	0.154800	0.062200	0.739200
H4571	H457	0.468800	0.565700	0.003400
H4581	H458	0.931700	0.117700	0.420400
H4591	H459	0.714300	0.865800	0.082200
H4601	H460	0.573700	0.802000	0.779300
H4611	H461	0.233500	0.030700	0.982300
H4621	H462	0.715700	0.826300	0.830800
H4631	H463	0.484100	0.841000	0.723800
H4641	H464	0.185400	0.340100	0.081500
H4651	H465	0.875300	0.084700	0.239900
H4661	H466	0.398400	0.548700	0.931000
H4671	H467	0.882300	0.814000	0.420400
H4681	H468	0.663300	0.951600	0.529200
H4691	H469	0.164200	0.872900	0.873400
H4701	H470	0.708700	0.835800	0.873400
H4711	H471	0.815900	0.972800	0.931700
H4721	H472	0.207700	0.765300	0.852400
H4731	H473	0.417600	0.616000	0.441000
H4741	H474	0.457400	0.943800	0.177100
H4751	H475	0.356900	0.515900	0.723800
H4761	H476	0.027200	0.184100	0.431700
H4771	H477	0.153900	0.557100	0.736100
H4781	H478	0.056200	0.513600	0.177100
H4791	H479	0.910900	0.864700	0.429200
H4801	H480	0.789800	0.966800	0.172800
H4811	H481	0.134500	0.693900	0.999800
H4821	H482	0.395200	0.463100	0.174300
H4831	H483	0.403200	0.846100	0.736100
H4841	H484	0.135300	0.089100	0.929200
H4851	H485	0.153300	0.291100	0.790600
H4861	H486	0.586600	0.684000	0.677600
H4871	H487	0.096900	0.565700	0.503400
H4881	H488	0.442900	0.846100	0.236100
H4891	H489	0.384500	0.449300	0.681200
H4901	H490	0.137800	0.291100	0.290600
H4911	H491	0.152400	0.639700	0.440800
H4921	H492	0.557600	0.765300	0.352400
H4931	H493	0.451300	0.849700	0.931000
H4941	H494	0.502000	0.621000	0.503900
H4951	H495	0.970700	0.809100	0.735700
H4961	H496	0.067900	0.463100	0.674300
H4971	H497	0.915300	0.790600	0.239900
H4981	H498	0.412100	0.804400	0.221400
H4991	H499	0.151500	0.865800	0.582200
H5001	H500	0.969300	0.766500	0.482300
H5011	H501	0.034400	0.335500	0.062700
H5021	H502	0.536900	0.932100	0.174300
H5031	H503	0.536900	0.604800	0.674300
H5041	H504	0.161300	0.316700	0.540300
H5051	H505	0.225900	0.795700	0.884400
H5061	H506	0.018000	0.831900	0.232000
H5071	H507	0.850300	0.827500	0.929600
H5081	H508	0.989700	0.190800	0.177300
H5091	H509	0.173700	0.284300	0.330800
H5101	H510	0.379000	0.881000	0.503900
H5111	H511	0.084900	0.623000	0.492300
H5121	H512	0.377000	0.915100	0.992300
H5131	H513	0.052000	0.341100	0.136400
H5141	H514	0.468800	0.903100	0.503400
H5151	H515	0.417600	0.801600	0.941000
H5161	H516	0.538100	0.915100	0.492300
H5171	H517	0.316000	0.413400	0.177600
H5181	H518	0.765000	0.787300	0.485700
H5191	H519	0.172500	0.149700	0.429600
H5201	H520	0.033200	0.823000	0.172800
H5211	H521	0.815900	0.843100	0.431700
H5221	H522	0.084900	0.461900	0.992300
H5231	H523	0.134200	0.285700	0.582200
H5241	H524	0.664500	0.698900	0.062700
H5251	H525	0.513300	0.695300	0.443700
H5261	H526	0.442900	0.596800	0.736100
H5271	H527	0.301100	0.335500	0.562700
H5281	H528	0.288300	0.336700	0.529200
H5291	H529	0.156900	0.972800	0.431700
H5301	H530	0.110600	0.826300	0.330800
H5311	H531	0.659300	0.961800	0.602900
H5321	H532	0.658900	0.948000	0.636400
H5331	H533	0.403200	0.557100	0.236100
H5341	H534	0.245300	0.801800	0.314200
H5351	H535	0.209400	0.124700	0.239900
H5361	H536	0.187200	0.689400	0.218500
H5371	H537	0.953800	0.089100	0.429200
H5381	H538	0.556500	0.754700	0.314200
H5391	H539	0.384000	0.801600	0.441000
H5401	H540	0.392300	0.587900	0.221400
H5411	H541	0.198200	0.443500	0.314200
H5421	H542	0.304700	0.818000	0.443700
H5431	H543	0.110600	0.284300	0.830800
H5441	H544	0.228300	0.802000	0.279300
H5451	H545	0.451300	0.601600	0.431000
H5461	H546	0.134500	0.440600	0.499800
H5471	H547	0.127100	0.291300	0.873400
H5481	H548	0.946300	0.767700	0.989300
H5491	H549	0.207700	0.442400	0.352400
H5501	H550	0.356900	0.841000	0.223800
H5511	H551	0.186000	0.117700	0.920400
H5521	H552	0.301100	0.965600	0.062700
H5531	H553	0.969300	0.202800	0.982300
H5541	H554	0.190800	0.150600	0.167800
H5551	H555	0.137800	0.846700	0.790600
H5561	H556	0.056200	0.542600	0.677100
H5571	H557	0.377000	0.461900	0.492300
H5581	H558	0.119000	0.498000	0.503900
H5591	H559	0.185400	0.845300	0.581500
H5601	H560	0.022300	0.787300	0.985700
H5611	H561	0.715700	0.889400	0.330800
H5621	H562	0.027200	0.843100	0.931700
H5631	H563	0.228300	0.426300	0.779300
H5641	H564	0.198000	0.426300	0.279300
H5651	H565	0.018000	0.186100	0.732000
H5661	H566	0.559400	0.693900	0.499800
H5671	H567	0.187200	0.497800	0.718500
H5681	H568	0.156900	0.317900	0.125000
H5691	H569	0.484100	0.643100	0.223800
H5701	H570	0.198000	0.771700	0.779300
H5711	H571	0.932100	0.121400	0.169200
H5721	H572	0.708700	0.872900	0.373400
H5731	H573	0.513300	0.818000	0.943700
H5741	H574	0.659900	0.814600	0.581500
H5751	H575	0.360300	0.512700	0.440800
H5761	H576	0.862500	0.100800	0.487900
C5411	C541	0.678700	0.849400	0.795260
C5421	C542	0.202000	0.230400	0.711080
C5431	C543	0.113500	0.432700	0.962000
C5441	C544	0.684400	0.846700	0.582030
C5451	C545	0.376600	0.516800	0.452400
C5461	C546	0.364200	0.869900	0.491900
C5471	C547	0.058600	0.726900	0.558250
C5481	C548	0.188300	0.809900	0.842910
C5491	C549	0.212700	0.329000	0.655530
C5501	C550	0.163200	0.805800	0.382860
C5511	C551	0.189300	0.100000	0.697540
C5521	C552	0.070300	0.733900	0.627400
C5531	C553	0.130100	0.494300	0.491900
C5541	C554	0.006200	0.826600	0.219270
C5551	C555	0.122800	0.319700	0.064920
C5561	C556	0.787300	0.991900	0.976000
C5571	C557	0.860800	0.776600	0.976600
C5581	C558	0.957600	0.779000	0.473200
C5591	C559	0.375000	0.520600	0.207700
C5601	C560	0.842400	0.814100	0.680530
C5611	C561	0.435900	0.873200	0.976200
C5621	C562	0.663900	0.725800	0.107310
C5631	C563	0.124800	0.802500	0.600460
C5641	C564	0.652200	0.847000	0.760180
C5651	C565	0.938700	0.832000	0.932400
C5661	C566	0.140200	0.516800	0.952400
C5671	C567	0.678300	0.824800	0.869460
C5681	C568	0.668300	0.726900	0.058250
C5691	C569	0.109500	0.669200	0.185100
C5701	C570	0.437300	0.873200	0.476200
C5711	C571	0.170700	0.321300	0.795260
C5721	C572	0.805900	0.984900	0.183580
C5731	C573	0.327600	0.490900	0.209600
C5741	C574	0.821400	0.779000	0.973200
C5751	C575	0.179000	0.984900	0.683580
C5761	C576	0.238800	0.913500	0.071640
C5771	C577	0.177100	0.423100	0.468900
C5781	C578	0.140200	0.623400	0.452400
C5791	C579	0.274200	0.938100	0.107310
C5801	C580	0.202000	0.971600	0.211080
C5811	C581	0.400300	0.510200	0.194400
C5821	C582	0.649200	0.802000	0.904120
C5831	C583	0.223500	0.896700	0.031420
C5841	C584	0.670400	0.894100	0.634020
C5851	C585	0.187900	0.076300	0.216870
C5861	C586	0.943600	0.814100	0.196960
C5871	C587	0.193900	0.376200	0.821610
C5881	C588	0.642600	0.805800	0.882860
C5891	C589	0.151800	0.739100	0.198100
C5901	C590	0.519000	0.879500	0.466000
C5911	C591	0.146500	0.824800	0.369460
C5921	C592	0.189300	0.868900	0.044810
C5931	C593	0.586500	0.797100	0.856200
C5941	C594	0.305500	0.854800	0.698370
C5951	C595	0.102500	0.549100	0.697900
C5961	C596	0.109500	0.440300	0.685100
C5971	C597	0.173000	0.332200	0.350020
C5981	C598	0.775200	0.802700	0.951900
C5991	C599	0.510900	0.830500	0.955600
C6001	C600	0.856400	0.055500	0.963870
C6011	C601	0.597200	0.814800	0.788640
C6021	C602	0.175200	0.321700	0.369460
C6031	C603	0.817900	0.017400	0.455870
C6041	C604	0.775200	0.972500	0.451900
C6051	C605	0.753000	0.920600	0.205420
C6061	C606	0.195500	0.839500	0.282520
C6071	C607	0.684400	0.837700	0.082030
C6081	C608	0.623800	0.817700	0.821610
C6091	C609	0.644000	0.839500	0.782520
C6101	C610	0.103300	0.326800	0.031420
C6111	C611	0.679600	0.810700	0.044810
C6121	C612	0.160500	0.356000	0.282520
C6131	C613	0.701300	0.845000	0.832870
C6141	C614	0.678300	0.853500	0.369460
C6151	C615	0.652200	0.805200	0.260180
C6161	C616	0.223400	0.139200	0.476600
C6171	C617	0.963600	0.784700	0.978520
C6181	C618	0.962900	0.816600	0.441700
C6191	C619	0.900000	0.089300	0.697540
C6201	C620	0.158800	0.520700	0.458200
C6211	C621	0.194200	0.836800	0.882860
C6221	C622	0.541500	0.703500	0.470900
C6231	C623	0.109900	0.510200	0.694400
C6241	C624	0.670400	0.776300	0.134020
C6251	C625	0.330800	0.440300	0.185100
C6261	C626	0.926100	0.817300	0.231290
C6271	C627	0.140500	0.461800	0.489700
C6281	C628	0.173000	0.840800	0.850020
C6291	C629	0.669400	0.840400	0.815580
C6301	C630	0.079400	0.832400	0.205420
C6311	C631	0.787300	0.795400	0.476000
C6321	C632	0.361900	0.841200	0.458200
C6331	C633	0.160500	0.804500	0.782520
C6341	C634	0.387800	0.864300	0.476300
C6351	C635	0.483200	0.623400	0.952400
C6361	C636	0.962100	0.807700	0.722570
C6371	C637	0.180700	0.965500	0.458400
C6381	C638	0.888400	0.812100	0.216870
C6391	C639	0.221000	0.042400	0.973200
C6401	C640	0.869900	0.061700	0.682410
C6411	C641	0.434500	0.837200	0.222400
C6421	C642	0.193900	0.817700	0.321610
C6431	C643	0.962900	0.146300	0.941700
C6441	C644	0.538200	0.859500	0.989700
C6451	C645	0.319600	0.489100	0.955600
C6461	C646	0.891200	0.817300	0.731290
C6471	C647	0.168000	0.106700	0.932400
C6481	C648	0.103300	0.776500	0.531420
C6491	C649	0.145200	0.450700	0.698370
C6501	C650	0.400300	0.890100	0.694400
C6511	C651	0.196900	0.319700	0.564920
C6521	C652	0.439000	0.834100	0.943500
C6531	C653	0.105900	0.776300	0.634020
C6541	C654	0.185200	0.402800	0.288640
C6551	C655	0.420700	0.866800	0.211900
C6561	C656	0.153000	0.347800	0.260180
C6571	C657	0.265400	0.332400	0.538140
C6581	C658	0.167600	0.247000	0.205420
C6591	C659	0.563500	0.683600	0.205500
C6601	C660	0.971700	0.157600	0.680530
C6611	C661	0.109900	0.599700	0.194400
C6621	C662	0.089200	0.329100	0.093840
C6631	C663	0.086500	0.761200	0.571640
C6641	C664	0.033300	0.208200	0.703110
C6651	C665	0.155000	0.298700	0.332870
C6661	C666	0.106000	0.578900	0.490900
C6671	C667	0.101600	0.613800	0.484400
C6681	C668	0.173400	0.179600	0.219270
C6691	C669	0.138400	0.515500	0.214400
C6701	C670	0.174900	0.966700	0.703110
C6711	C671	0.197600	0.027300	0.187320
C6721	C672	0.202900	0.789400	0.856200
C6731	C673	0.182700	0.073900	0.731290
C6741	C674	0.559700	0.669200	0.685100
C6751	C675	0.198000	0.847200	0.904120
C6761	C676	0.512200	0.898400	0.484400
C6771	C677	0.162300	0.315600	0.582030
C6781	C678	0.437300	0.514100	0.686400
C6791	C679	0.188300	0.378400	0.342910
C6801	C680	0.446600	0.897500	0.697900
C6811	C681	0.185900	0.056400	0.696960
C6821	C682	0.179600	0.036600	0.715840
C6831	C683	0.915800	0.139200	0.976600
C6841	C684	0.587300	0.848200	0.198100
C6851	C685	0.923700	0.812100	0.716870
C6861	C686	0.971700	0.814100	0.180530
C6871	C687	0.891200	0.073900	0.231290
C6881	C688	0.510900	0.680400	0.455600
C6891	C689	0.274200	0.336100	0.607310
C6901	C690	0.962100	0.154400	0.222570
C6911	C691	0.378200	0.470000	0.183200
C6921	C692	0.963600	0.178900	0.478520
C6931	C693	0.204600	0.991900	0.476000
C6941	C694	0.330800	0.890500	0.685100
C6951	C695	0.594600	0.805100	0.375800
C6961	C696	0.943600	0.129500	0.696960
C6971	C697	0.567300	0.680800	0.962000
C6981	C698	0.195500	0.356000	0.782520
C6991	C699	0.972700	0.802400	0.687320
C7001	C700	0.145600	0.520600	0.707700
C7011	C701	0.597200	0.782400	0.288640
C7021	C702	0.224000	0.414400	0.809400
C7031	C703	0.421100	0.894000	0.990900
C7041	C704	0.122800	0.803100	0.564920
C7051	C705	0.820400	0.826600	0.719270
C7061	C706	0.744000	0.914200	0.957900
C7071	C707	0.549300	0.854800	0.198370
C7081	C708	0.133100	0.810600	0.620550
C7091	C709	0.089200	0.760100	0.593840
C7101	C710	0.185900	0.028300	0.680530
C7111	C711	0.679600	0.868900	0.544810
C7121	C712	0.199100	0.143600	0.963870
C7131	C713	0.155000	0.856300	0.832870
C7141	C714	0.472900	0.578900	0.990900
C7151	C715	0.163200	0.357400	0.882860
C7161	C716	0.198900	0.185000	0.707500
C7171	C717	0.189400	0.866900	0.120550
C7181	C718	0.541500	0.838000	0.970900
C7191	C719	0.377100	0.515500	0.714400
C7201	C720	0.594600	0.789500	0.875800
C7211	C721	0.183400	0.146300	0.441700
C7221	C722	0.519000	0.639500	0.966000
C7231	C723	0.012100	0.830200	0.943480
C7241	C724	0.446100	0.866800	0.711900
C7251	C725	0.893500	0.815800	0.945970
C7261	C726	0.185900	0.129500	0.196960
C7271	C727	0.076800	0.562700	0.686400
C7281	C728	0.667600	0.933000	0.538140
C7291	C729	0.649200	0.847200	0.404120
C7301	C730	0.821100	0.784700	0.478520
C7311	C731	0.982600	0.182100	0.955870
C7321	C732	0.027500	0.224800	0.951900
C7331	C733	0.171000	0.840400	0.315580
C7341	C734	0.203800	0.100800	0.463500
C7351	C735	0.266100	0.336400	0.627400
C7361	C736	0.146500	0.321700	0.869460
C7371	C737	0.189400	0.322500	0.620550
C7381	C738	0.549300	0.694500	0.698370
C7391	C739	0.058600	0.331700	0.058250
C7401	C740	0.217600	0.814800	0.288640
C7411	C741	0.476500	0.612200	0.476300
C7421	C742	0.082000	0.606400	0.688900
C7431	C743	0.260900	0.848200	0.698100
C7441	C744	0.375000	0.854400	0.707700
C7451	C745	0.512200	0.613800	0.984400
C7461	C746	0.563500	0.879900	0.705500
C7471	C747	0.860800	0.084200	0.476600
C7481	C748	0.182300	0.806100	0.821610
C7491	C749	0.484500	0.622900	0.214400
C7501	C750	0.108900	0.783500	0.509750
C7511	C751	0.076800	0.514100	0.186400
C7521	C752	0.194900	0.789500	0.375800
C7531	C753	0.393600	0.475600	0.688900
C7541	C754	0.246000	0.822900	0.468900
C7551	C755	0.509100	0.836700	0.209600
C7561	C756	0.870500	0.814100	0.696960
C7571	C757	0.265400	0.933000	0.038140
C7581	C758	0.938700	0.106700	0.432400
C7591	C759	0.986100	0.801100	0.707500
C7601	C760	0.158800	0.638100	0.958200
C7611	C761	0.126800	0.564100	0.476200
C7621	C762	0.944500	0.800900	0.963870
C7631	C763	0.769600	0.971600	0.711080
C7641	C764	0.621600	0.809900	0.342910
C7651	C765	0.923700	0.111600	0.216870
C7661	C766	0.893300	0.832000	0.432400
C7671	C767	0.079400	0.247000	0.705420
C7681	C768	0.198900	0.013900	0.207500
C7691	C769	0.900000	0.810700	0.197540
C7701	C770	0.210600	0.797100	0.356200
C7711	C771	0.377100	0.861600	0.214400
C7721	C772	0.034500	0.215200	0.458400
C7731	C773	0.162000	0.458500	0.470900
C7741	C774	0.189300	0.089300	0.197540
C7751	C775	0.165900	0.604900	0.943500
C7761	C776	0.199500	0.017400	0.955870
C7771	C777	0.169500	0.489100	0.455600
C7781	C778	0.197500	0.875200	0.100460
C7791	C779	0.131100	0.810700	0.544810
C7801	C780	0.215300	0.178900	0.978520
C7811	C781	0.130100	0.635800	0.991900
C7821	C782	0.163300	0.672400	0.209600
C7831	C783	0.106000	0.527100	0.990900
C7841	C784	0.223700	0.329600	0.634020
C7851	C785	0.435900	0.562700	0.476200
C7861	C786	0.138400	0.622900	0.714400
C7871	C787	0.899200	0.796200	0.963500
C7881	C788	0.223500	0.326800	0.531420
C7891	C789	0.926100	0.108800	0.731290
C7901	C790	0.180700	0.215200	0.958400
C7911	C791	0.922300	0.815800	0.445970
C7921	C792	0.070300	0.336400	0.127400
C7931	C793	0.182700	0.108800	0.231290
C7941	C794	0.159600	0.330600	0.315580
C7951	C795	0.817900	0.800500	0.955870
C7961	C796	0.446100	0.579300	0.211900
C7971	C797	0.203800	0.103000	0.963500
C7981	C798	0.963400	0.820400	0.215840
C7991	C799	0.922300	0.106500	0.945970
C8001	C800	0.842400	0.028300	0.180530
C8011	C801	0.142000	0.585500	0.455800
C8021	C802	0.361900	0.520700	0.958200
C8031	C803	0.680300	0.803100	0.064920
C8041	C804	0.538200	0.678700	0.489700
C8051	C805	0.663900	0.938100	0.607310
C8061	C806	0.187900	0.111600	0.716870
C8071	C807	0.677500	0.866900	0.620550
C8081	C808	0.674700	0.761200	0.071640
C8091	C809	0.829700	0.802400	0.187320
C8101	C810	0.815000	0.801100	0.207500
C8111	C811	0.197500	0.322300	0.600460
C8121	C812	0.173400	0.993800	0.719270
C8131	C813	0.857000	0.820400	0.715840
C8141	C814	0.217600	0.402800	0.788640
C8151	C815	0.197300	0.972500	0.951900
C8161	C816	0.296500	0.458500	0.970900
C8171	C817	0.159200	0.332200	0.850020
C8181	C818	0.319600	0.830500	0.455600
C8191	C819	0.585600	0.809600	0.809400
C8201	C820	0.140500	0.678700	0.989700
C8211	C821	0.152800	0.350800	0.904120
C8221	C822	0.067000	0.734600	0.538140
C8231	C823	0.623800	0.806100	0.321610
C8241	C824	0.120100	0.436500	0.205500
C8251	C825	0.966300	0.145100	0.446600
C8261	C826	0.179600	0.143000	0.215840
C8271	C827	0.085800	0.829800	0.957900
C8281	C828	0.169500	0.680400	0.955600
C8291	C829	0.893300	0.061300	0.932400
C8301	C830	0.182300	0.376200	0.321610
C8311	C831	0.112700	0.476200	0.202900
C8321	C832	0.204600	0.212700	0.976000
C8331	C833	0.784800	0.965500	0.958400
C8341	C834	0.150600	0.321300	0.295260
C8351	C835	0.319200	0.886500	0.962000
C8361	C836	0.530000	0.621800	0.683200
C8371	C837	0.476500	0.864300	0.976300
C8381	C838	0.509100	0.672400	0.709600
C8391	C839	0.162800	0.597300	0.222400
C8401	C840	0.319200	0.432700	0.462000
C8411	C841	0.479400	0.625000	0.707700
C8421	C842	0.386200	0.898400	0.984400
C8431	C843	0.489800	0.599700	0.694400
C8441	C844	0.363500	0.887300	0.202900
C8451	C845	0.818100	0.830200	0.443480
C8461	C846	0.133100	0.322500	0.120550
C8471	C847	0.791800	0.966700	0.203110
C8481	C848	0.124800	0.322300	0.100460
C8491	C849	0.168000	0.061300	0.432400
C8501	C850	0.805900	0.821000	0.683580
C8511	C851	0.818100	0.987900	0.943480
C8521	C852	0.194900	0.405400	0.875800
C8531	C853	0.202900	0.413500	0.356200
C8541	C854	0.791800	0.825100	0.703110
C8551	C855	0.091800	0.621800	0.183200
C8561	C856	0.437300	0.923200	0.186400
C8571	C857	0.196900	0.877200	0.064920
C8581	C858	0.677700	0.875200	0.600460
C8591	C859	0.450900	0.553400	0.697900
C8601	C860	0.034500	0.819300	0.958400
C8611	C861	0.126800	0.562700	0.976200
C8621	C862	0.006200	0.179600	0.719270
C8631	C863	0.524400	0.606400	0.188900
C8641	C864	0.505700	0.869900	0.991900
C8651	C865	0.174900	0.208200	0.203110
C8661	C866	0.015100	0.821000	0.183580
C8671	C867	0.185200	0.782400	0.788640
C8681	C868	0.321300	0.461800	0.989700
C8691	C869	0.446600	0.549100	0.197900
C8701	C870	0.113500	0.680800	0.462000
C8711	C871	0.133200	0.579300	0.711900
C8721	C872	0.189300	0.320400	0.544810
C8731	C873	0.893500	0.077700	0.445970
C8741	C874	0.239900	0.329100	0.593840
C8751	C875	0.484500	0.861600	0.714400
C8761	C876	0.191800	0.130100	0.682410
C8771	C877	0.360500	0.481000	0.466000
C8781	C878	0.150600	0.829300	0.795260
C8791	C879	0.015100	0.194100	0.683580
C8801	C880	0.479300	0.638100	0.458200
C8811	C881	0.915800	0.776600	0.476600
C8821	C882	0.061900	0.336100	0.107310
C8831	C883	0.434500	0.597300	0.722400
C8841	C884	0.769600	0.798000	0.211080
C8851	C885	0.854900	0.821200	0.446600
C8861	C886	0.120500	0.481000	0.966000
C8871	C887	0.972700	0.170300	0.187320
C8881	C888	0.576900	0.822900	0.968900
C8891	C889	0.870500	0.056400	0.196960
C8901	C890	0.190100	0.811700	0.342910
C8911	C891	0.586500	0.789400	0.356200
C8921	C892	0.910700	0.100000	0.197540
C8931	C893	0.178800	0.145100	0.946600
C8941	C894	0.027500	0.802700	0.451900
C8951	C895	0.472900	0.894000	0.490900
C8961	C896	0.489800	0.890100	0.194400
C8971	C897	0.485900	0.923200	0.686400
C8981	C898	0.162000	0.703500	0.970900
C8991	C899	0.587300	0.739100	0.698100
C9001	C900	0.273100	0.941400	0.058250
C9011	C901	0.171000	0.330600	0.815580
C9021	C902	0.266100	0.929700	0.127400
C9031	C903	0.668300	0.941400	0.558250
C9041	C904	0.102500	0.553400	0.197900
C9051	C905	0.108900	0.325400	0.009750
C9061	C906	0.938300	0.130100	0.182410
C9071	C907	0.185900	0.157600	0.180530
C9081	C908	0.145600	0.625000	0.207700
C9091	C909	0.159200	0.827000	0.350020
C9101	C910	0.869900	0.808200	0.182410
C9111	C911	0.151800	0.412700	0.698100
C9121	C912	0.402700	0.837200	0.722400
C9131	C913	0.784800	0.819300	0.458400
C9141	C914	0.143700	0.298700	0.832870
C9151	C915	0.316400	0.879900	0.205500
C9161	C916	0.443500	0.585500	0.955800
C9171	C917	0.169800	0.181900	0.943480
C9181	C918	0.163300	0.490900	0.709600
C9191	C919	0.194800	0.347800	0.760180
C9201	C920	0.479400	0.854400	0.207700
C9211	C921	0.153000	0.805200	0.760180
C9221	C922	0.479300	0.841200	0.958200
C9231	C923	0.576900	0.754000	0.468900
C9241	C924	0.395100	0.561000	0.943500
C9251	C925	0.437300	0.564100	0.976200
C9261	C926	0.567300	0.886500	0.462000
C9271	C927	0.210600	0.413500	0.856200
C9281	C928	0.644000	0.804500	0.282520
C9291	C929	0.215300	0.036400	0.478520
C9301	C930	0.197600	0.170300	0.687320
C9311	C931	0.184200	0.077700	0.945970
C9321	C932	0.678700	0.829300	0.295260
C9331	C933	0.190400	0.776000	0.809400
C9341	C934	0.673200	0.776500	0.031420
C9351	C935	0.857000	0.036600	0.215840
C9361	C936	0.845600	0.037900	0.722570
C9371	C937	0.505700	0.635800	0.491900
C9381	C938	0.162300	0.846700	0.082030
C9391	C939	0.101600	0.487800	0.984400
C9401	C940	0.674600	0.783500	0.009750
C9411	C941	0.421100	0.527100	0.490900
C9421	C942	0.169800	0.987900	0.443480
C9431	C943	0.142000	0.556500	0.955800
C9441	C944	0.216500	0.325400	0.509750
C9451	C945	0.194200	0.357400	0.382860
C9461	C946	0.273100	0.331700	0.558250
C9471	C947	0.821100	0.036400	0.978520
C9481	C948	0.393600	0.918000	0.188900
C9491	C949	0.143700	0.845000	0.332870
C9501	C950	0.854900	0.033700	0.946600
C9511	C951	0.395100	0.834100	0.443500
C9521	C952	0.216500	0.891100	0.009750
C9531	C953	0.897000	0.796200	0.463500
C9541	C954	0.175200	0.853500	0.869460
C9551	C955	0.028400	0.798000	0.711080
C9561	C956	0.483200	0.859800	0.452400
C9571	C957	0.670900	0.760100	0.093840
C9581	C958	0.067000	0.332400	0.038140
C9591	C959	0.701300	0.856300	0.332870
C9601	C960	0.170200	0.256000	0.957900
C9611	C961	0.238800	0.325300	0.571640
C9621	C962	0.133200	0.553900	0.211900
C9631	C963	0.135700	0.612200	0.976300
C9641	C964	0.184200	0.106500	0.445970
C9651	C965	0.131100	0.320400	0.044810
C9661	C966	0.986100	0.185000	0.207500
C9671	C967	0.387800	0.523500	0.976300
C9681	C968	0.221000	0.178600	0.473200
C9691	C969	0.321300	0.859500	0.489700
C9701	C970	0.105900	0.329600	0.134020
C9711	C971	0.376600	0.859800	0.952400
C9721	C972	0.260900	0.412700	0.198100
C9731	C973	0.982600	0.800500	0.455870
C9741	C974	0.485900	0.562700	0.186400
C9751	C975	0.135700	0.523500	0.476300
C9761	C976	0.420700	0.553900	0.711900
C9771	C977	0.667600	0.734600	0.038140
C9781	C978	0.386200	0.487800	0.484400
C9791	C979	0.179000	0.194100	0.183580
C9801	C980	0.671000	0.883700	0.655530
C9811	C981	0.669400	0.829000	0.315580
C9821	C982	0.120500	0.639500	0.466000
C9831	C983	0.821400	0.042400	0.473200
C9841	C984	0.414500	0.858000	0.955800
C9851	C985	0.199500	0.182100	0.455870
C9861	C986	0.316400	0.436500	0.705500
C9871	C987	0.899200	0.103000	0.463500
C9881	C988	0.670900	0.910800	0.593840
C9891	C989	0.170200	0.914200	0.457900
C9901	C990	0.199100	0.055500	0.463870
C9911	C991	0.523800	0.636500	0.202900
C9921	C992	0.402700	0.565500	0.222400
C9931	C993	0.674600	0.891100	0.509750
C9941	C994	0.364200	0.494300	0.991900
C9951	C995	0.414500	0.556500	0.455800
C9961	C996	0.443500	0.858000	0.455800
C9971	C997	0.091800	0.470000	0.683200
C9981	C998	0.033300	0.825100	0.203110
C9991	C999	0.677700	0.802500	0.100460
C10001	C1000	0.820400	0.993800	0.219270
C10011	C1001	0.957600	0.178600	0.973200
C10021	C1002	0.210500	0.405400	0.375800
C10031	C1003	0.116300	0.329000	0.155530
C10041	C1004	0.853700	0.037100	0.441700
C10051	C1005	0.963400	0.143000	0.715840
C10061	C1006	0.559700	0.890500	0.185100
C10071	C1007	0.674700	0.913500	0.571640
C10081	C1008	0.744000	0.829800	0.457900
C10091	C1009	0.162800	0.565500	0.722400
C10101	C1010	0.671000	0.787300	0.155530
C10111	C1011	0.897000	0.100800	0.963500
C10121	C1012	0.223400	0.084200	0.976600
C10131	C1013	0.966300	0.821200	0.946600
C10141	C1014	0.642600	0.836800	0.382860
C10151	C1015	0.210500	0.805100	0.875800
C10161	C1016	0.523800	0.887300	0.702900
C10171	C1017	0.145200	0.694500	0.198370
C10181	C1018	0.086500	0.325300	0.071640
C10191	C1019	0.530000	0.908200	0.183200
C10201	C1020	0.082000	0.475600	0.188900
C10211	C1021	0.197300	0.224800	0.451900
C10221	C1022	0.153300	0.315600	0.082030
C10231	C1023	0.246000	0.423100	0.968900
C10241	C1024	0.116300	0.787300	0.655530
C10251	C1025	0.910700	0.810700	0.697540
C10261	C1026	0.177100	0.754000	0.968900
C10271	C1027	0.152800	0.802000	0.404120
C10281	C1028	0.305500	0.450700	0.198370
C10291	C1029	0.223700	0.894100	0.134020
C10301	C1030	0.153300	0.837700	0.582030
C10311	C1031	0.028400	0.230400	0.211080
C10321	C1032	0.815000	0.013900	0.707500
C10331	C1033	0.192300	0.154400	0.722570
C10341	C1034	0.167600	0.920600	0.705420
C10351	C1035	0.450900	0.897500	0.197900
C10361	C1036	0.192300	0.037900	0.222570
C10371	C1037	0.888400	0.076300	0.716870
C10381	C1038	0.680300	0.877200	0.564920
C10391	C1039	0.856400	0.800900	0.463870
C10401	C1040	0.663600	0.929700	0.627400
C10411	C1041	0.120100	0.683600	0.705500
C10421	C1042	0.677500	0.810600	0.120550
C10431	C1043	0.194800	0.847000	0.260180
C10441	C1044	0.165900	0.561000	0.443500
C10451	C1045	0.753000	0.832400	0.705420
C10461	C1046	0.829700	0.027300	0.687320
C10471	C1047	0.178800	0.033700	0.446600
C10481	C1048	0.845600	0.807700	0.222570
C10491	C1049	0.183400	0.037100	0.941700
C10501	C1050	0.159600	0.829000	0.815580
C10511	C1051	0.938300	0.808200	0.682410
C10521	C1052	0.170700	0.849400	0.295260
C10531	C1053	0.190100	0.378400	0.842910
C10541	C1054	0.239900	0.910800	0.093840
C10551	C1055	0.085800	0.256000	0.457900
C10561	C1056	0.008100	0.212700	0.476000
C10571	C1057	0.621600	0.811700	0.842910
C10581	C1058	0.198000	0.350800	0.404120
C10591	C1059	0.224000	0.809600	0.309400
C10601	C1060	0.327600	0.836700	0.709600
C10611	C1061	0.663600	0.733900	0.127400
C10621	C1062	0.008100	0.795400	0.976000
C10631	C1063	0.673200	0.896700	0.531420
C10641	C1064	0.296500	0.838000	0.470900
C10651	C1065	0.190400	0.414400	0.309400
C10661	C1066	0.853700	0.816600	0.941700
C10671	C1067	0.363500	0.476200	0.702900
C10681	C1068	0.667800	0.840800	0.350020
C10691	C1069	0.944500	0.143600	0.463870
C10701	C1070	0.012100	0.181900	0.443480
C10711	C1071	0.360500	0.879500	0.966000
C10721	C1072	0.439000	0.604900	0.443500
C10731	C1073	0.061900	0.725800	0.607310
C10741	C1074	0.191800	0.061700	0.182410
C10751	C1075	0.378200	0.908200	0.683200
C10761	C1076	0.585600	0.776000	0.309400
C10771	C1077	0.667800	0.827000	0.850020
C10781	C1078	0.112700	0.636500	0.702900
C10791	C1079	0.212700	0.883700	0.155530
C10801	C1080	0.524400	0.918000	0.688900
O1571	O157	0.243300	0.913800	0.166900
O1581	O158	0.201200	0.865200	0.208010
O1591	O159	0.180500	0.950800	0.936560
O1601	O160	0.210800	0.251800	0.465790
O1611	O161	0.620700	0.858100	0.187330
O1621	O162	0.178300	0.322400	0.504690
O1631	O163	0.210800	0.959000	0.965790
O1641	O164	0.580500	0.817200	0.212300
O1651	O165	0.237400	0.858100	0.687330
O1661	O166	0.179100	0.898200	0.472740
O1671	O167	0.302900	0.398500	0.696000
O1681	O168	0.692500	0.866000	0.754650
O1691	O169	0.677600	0.821700	0.004690
O1701	O170	0.173500	0.866000	0.254650
O1711	O171	0.100500	0.846500	0.221950
O1721	O172	0.743500	0.893300	0.942270
O1731	O173	0.101100	0.272600	0.690680
O1741	O174	0.177400	0.848100	0.160080
O1751	O175	0.689700	0.819100	0.909850
O1761	O176	0.106700	0.850200	0.942270
O1771	O177	0.149800	0.893300	0.442270
O1781	O178	0.613600	0.782900	0.915220
O1791	O179	0.613300	0.773200	0.480150
O1801	O180	0.746000	0.899500	0.221950
O1811	O181	0.106700	0.256500	0.442270
O1821	O182	0.562800	0.851900	0.718300
O1831	O183	0.566100	0.707000	0.945770
O1841	O184	0.198000	0.772800	0.952940
O1851	O185	0.153500	0.254000	0.221950
O1861	O186	0.141900	0.762600	0.187330
O1871	O187	0.236700	0.817200	0.712300
O1881	O188	0.574800	0.802000	0.952940
O1891	O189	0.620700	0.762600	0.687330
O1901	O190	0.289100	0.437200	0.718300
O1911	O191	0.179100	0.280900	0.972740
O1921	O192	0.601500	0.697100	0.196000
O1931	O193	0.692500	0.826500	0.254650
O1941	O194	0.741100	0.959300	0.698450
O1951	O195	0.217100	0.386400	0.415220
O1961	O196	0.040700	0.258900	0.198450
O1971	O197	0.293000	0.859100	0.945770
O1981	O198	0.159900	0.386700	0.480150
O1991	O199	0.182400	0.234400	0.726810
O2001	O200	0.562800	0.710900	0.218300
O2011	O201	0.134000	0.307500	0.254650
O2021	O202	0.770300	0.819500	0.936560
O2031	O203	0.101800	0.280900	0.472740
O2041	O204	0.765600	0.817600	0.226810
O2051	O205	0.670700	0.848100	0.660080
O2061	O206	0.617000	0.834700	0.749220
O2071	O207	0.670500	0.913800	0.666900
O2081	O208	0.601100	0.693800	0.971480
O2091	O209	0.306200	0.907300	0.971480
O2101	O210	0.049200	0.819500	0.436560
O2111	O211	0.226800	0.840100	0.480150
O2121	O212	0.128100	0.794400	0.457220
O2131	O213	0.177400	0.329300	0.660080
O2141	O214	0.765600	0.948000	0.726810
O2151	O215	0.134800	0.798800	0.708010
O2161	O216	0.049200	0.229700	0.936560
O2171	O217	0.673600	0.753300	0.998320
O2181	O218	0.153500	0.899500	0.721950
O2191	O219	0.151900	0.822600	0.660080
O2201	O220	0.198000	0.425200	0.452940
O2211	O221	0.178300	0.855900	0.004690
O2221	O222	0.666300	0.794400	0.957220
O2231	O223	0.180900	0.310300	0.409850
O2241	O224	0.727400	0.898900	0.190680
O2251	O225	0.165300	0.782300	0.749220
O2261	O226	0.613300	0.840100	0.980150
O2271	O227	0.748200	0.959000	0.465790
O2281	O228	0.218200	0.258900	0.698450
O2291	O229	0.182800	0.763300	0.212300
O2301	O230	0.052000	0.817600	0.726810
O2311	O231	0.129400	0.310300	0.909850
O2321	O232	0.101100	0.828500	0.190680
O2331	O233	0.079700	0.326400	0.998320
O2341	O234	0.052000	0.234400	0.226810
O2351	O235	0.134000	0.826500	0.754650
O2361	O236	0.182400	0.948000	0.226810
O2371	O237	0.040700	0.781800	0.698450
O2381	O238	0.141900	0.379300	0.687330
O2391	O239	0.574800	0.772800	0.452940
O2401	O240	0.613600	0.830700	0.415220
O2411	O241	0.169300	0.782900	0.415220
O2421	O242	0.134800	0.336000	0.208010
O2431	O243	0.727400	0.828500	0.690680
O2441	O244	0.217700	0.383000	0.749220
O2451	O245	0.159900	0.773200	0.980150
O2461	O246	0.227200	0.802000	0.452940
O2471	O247	0.217100	0.830700	0.915220
O2481	O248	0.227200	0.425200	0.952940
O2491	O249	0.144100	0.322400	0.004690
O2501	O250	0.580500	0.763300	0.712300
O2511	O251	0.689700	0.870600	0.409850
O2521	O252	0.246700	0.920300	0.998320
O2531	O253	0.148100	0.437200	0.218300
O2541	O254	0.289100	0.851900	0.218300
O2551	O255	0.129400	0.819100	0.409850
O2561	O256	0.165300	0.383000	0.249220
O2571	O257	0.237400	0.379300	0.187330
O2581	O258	0.664000	0.798800	0.208010
O2591	O259	0.226800	0.386700	0.980150
O2601	O260	0.217700	0.834700	0.249220
O2611	O261	0.180500	0.229700	0.436560
O2621	O262	0.719100	0.820900	0.472740
O2631	O263	0.601500	0.904400	0.696000
O2641	O264	0.041000	0.251800	0.965790
O2651	O265	0.169300	0.386400	0.915220
O2661	O266	0.086200	0.329500	0.166900
O2671	O267	0.601100	0.907300	0.471480
O2681	O268	0.770300	0.950800	0.436560
O2691	O269	0.666300	0.871900	0.457220
O2701	O270	0.100500	0.254000	0.721950
O2711	O271	0.140900	0.433900	0.945770
O2721	O272	0.218200	0.959300	0.198450
O2731	O273	0.243300	0.329500	0.666900
O2741	O274	0.246700	0.326400	0.498320
O2751	O275	0.743500	0.850200	0.442270
O2761	O276	0.149800	0.256500	0.942270
O2771	O277	0.670500	0.756700	0.166900
O2781	O278	0.670700	0.822600	0.160080
O2791	O279	0.205600	0.871900	0.957220
O2801	O280	0.741100	0.781800	0.198450
O2811	O281	0.673600	0.920300	0.498320
O2821	O282	0.171500	0.272600	0.190680
O2831	O283	0.306200	0.398900	0.471480
O2841	O284	0.293000	0.433900	0.445770
O2851	O285	0.079700	0.753300	0.498320
O2861	O286	0.140900	0.707000	0.445770
O2871	O287	0.151900	0.329300	0.160080
O2881	O288	0.041000	0.789200	0.465790
O2891	O289	0.101800	0.820900	0.972740
O2901	O290	0.719100	0.898200	0.972740
O2911	O291	0.746000	0.846500	0.721950
O2921	O292	0.148100	0.710900	0.718300
O2931	O293	0.205600	0.333700	0.457220
O2941	O294	0.302900	0.904400	0.196000
O2951	O295	0.201200	0.336000	0.708010
O2961	O296	0.180900	0.870600	0.909850
O2971	O297	0.144100	0.821700	0.504690
O2981	O298	0.092700	0.398900	0.971480
O2991	O299	0.677600	0.855900	0.504690
O3001	O300	0.664000	0.865200	0.708010
O3011	O301	0.095600	0.398500	0.196000
O3021	O302	0.092700	0.693800	0.471480
O3031	O303	0.128100	0.333700	0.957220
O3041	O304	0.236700	0.419500	0.212300
O3051	O305	0.182800	0.419500	0.712300
O3061	O306	0.095600	0.697100	0.696000
O3071	O307	0.086200	0.756700	0.666900
O3081	O308	0.617000	0.782300	0.249220
O3091	O309	0.748200	0.789200	0.965790
O3101	O310	0.566100	0.859100	0.445770
O3111	O311	0.171500	0.898900	0.690680
O3121	O312	0.173500	0.307500	0.754650
