data_CIDKUX_clean_PM
_symmetry_space_group_name_H-M	'P1'
_cell_length_a	13.872100
_cell_length_b	15.899100
_cell_length_c	17.674300
_cell_angle_alpha	63.270400
_cell_angle_beta	78.894200
_cell_angle_gamma	64.643100
_symmetry_Int_Tables_number 1

loop_
_symmetry_equiv_pos_as_xyz
'x,y,z'

loop_
_atom_site_label
_atom_site_type_symbol
_atom_site_fract_x
_atom_site_fract_y
_atom_site_fract_z
Cu11	Cu1	0.756700	0.484230	0.000000
Cu21	Cu2	0.243300	0.515770	0.000000
Cu31	Cu3	0.500000	0.500000	0.000000
Cu41	Cu4	0.000000	0.500000	0.000000
C11	C1	0.684600	0.261850	0.199900
C21	C2	0.708000	0.174790	0.284020
C31	C3	0.672200	0.098220	0.307160
C41	C4	0.695100	0.016390	0.385820
C51	C5	0.752500	0.012510	0.444580
C61	C6	0.786900	0.083900	0.420800
C71	C7	0.764500	0.168000	0.344200
C81	C8	0.819100	0.707990	0.792820
C91	C9	0.802200	0.781450	0.705100
C101	C10	0.701700	0.840670	0.667060
C111	C11	0.686300	0.908210	0.584980
C121	C12	0.769700	0.929260	0.532280
C131	C13	0.868700	0.871300	0.568800
C141	C14	0.884700	0.800820	0.651760
C151	C15	0.315400	0.538250	0.199900
C161	C16	0.292000	0.541190	0.284020
C171	C17	0.327800	0.594620	0.307160
C181	C18	0.304900	0.597790	0.385820
C191	C19	0.247500	0.542910	0.444580
C201	C20	0.213100	0.495300	0.420800
C211	C21	0.235500	0.487800	0.344200
C221	C22	0.180900	0.499190	0.792820
C231	C23	0.197800	0.513450	0.705100
C241	C24	0.298300	0.492270	0.667060
C251	C25	0.313700	0.506810	0.584980
C261	C26	0.230300	0.538460	0.532280
C271	C27	0.131300	0.559900	0.568800
C281	C28	0.115300	0.547420	0.651760
C291	C29	0.315400	0.738150	0.800100
C301	C30	0.292000	0.825210	0.715980
C311	C31	0.327800	0.901780	0.692840
C321	C32	0.304900	0.983610	0.614180
C331	C33	0.247500	0.987490	0.555420
C341	C34	0.213100	0.916100	0.579200
C351	C35	0.235500	0.832000	0.655800
C361	C36	0.180900	0.292010	0.207180
C371	C37	0.197800	0.218550	0.294900
C381	C38	0.298300	0.159330	0.332940
C391	C39	0.313700	0.091790	0.415020
C401	C40	0.230300	0.070740	0.467720
C411	C41	0.131300	0.128700	0.431200
C421	C42	0.115300	0.199180	0.348240
C431	C43	0.684600	0.461750	0.800100
C441	C44	0.708000	0.458810	0.715980
C451	C45	0.672200	0.405380	0.692840
C461	C46	0.695100	0.402210	0.614180
C471	C47	0.752500	0.457090	0.555420
C481	C48	0.786900	0.504700	0.579200
C491	C49	0.764500	0.512200	0.655800
C501	C50	0.819100	0.500810	0.207180
C511	C51	0.802200	0.486550	0.294900
C521	C52	0.701700	0.507730	0.332940
C531	C53	0.686300	0.493190	0.415020
C541	C54	0.769700	0.461540	0.467720
C551	C55	0.868700	0.440100	0.431200
C561	C56	0.884700	0.452580	0.348240
N11	N1	0.606500	0.386410	0.091380
N21	N2	0.705500	0.379300	0.088800
N31	N3	0.757400	0.302820	0.156160
N41	N4	0.591100	0.313000	0.160400
N51	N5	0.801000	0.592570	0.908660
N61	N6	0.889900	0.602600	0.909200
N71	N7	0.904600	0.673650	0.838500
N81	N8	0.753000	0.660010	0.835180
N91	N9	0.393500	0.522210	0.091380
N101	N10	0.294500	0.531900	0.088800
N111	N11	0.242600	0.541020	0.156160
N121	N12	0.408900	0.526600	0.160400
N131	N13	0.199000	0.498770	0.908660
N141	N14	0.110100	0.488200	0.909200
N151	N15	0.095400	0.487850	0.838500
N161	N16	0.247000	0.504810	0.835180
N171	N17	0.393500	0.613590	0.908620
N181	N18	0.294500	0.620700	0.911200
N191	N19	0.242600	0.697180	0.843840
N201	N20	0.408900	0.687000	0.839600
N211	N21	0.199000	0.407430	0.091340
N221	N22	0.110100	0.397400	0.090800
N231	N23	0.095400	0.326350	0.161500
N241	N24	0.247000	0.339990	0.164820
N251	N25	0.606500	0.477790	0.908620
N261	N26	0.705500	0.468100	0.911200
N271	N27	0.757400	0.458980	0.843840
N281	N28	0.591100	0.473400	0.839600
N291	N29	0.801000	0.501230	0.091340
N301	N30	0.889900	0.511800	0.090800
N311	N31	0.904600	0.512150	0.161500
N321	N32	0.753000	0.495190	0.164820
F11	F1	0.620300	0.097050	0.252300
F21	F2	0.660900	0.942120	0.403960
F31	F3	0.838500	0.089710	0.478580
F41	F4	0.801200	0.240680	0.325240
F51	F5	0.615300	0.827850	0.713900
F61	F6	0.584900	0.964120	0.555760
F71	F7	0.951500	0.885640	0.521920
F81	F8	0.982500	0.754170	0.682460
F91	F9	0.379700	0.650650	0.252300
F101	F10	0.339100	0.653920	0.403960
F111	F11	0.161500	0.431710	0.478580
F121	F12	0.198800	0.434080	0.325240
F131	F13	0.384700	0.458250	0.713900
F141	F14	0.415100	0.480120	0.555760
F151	F15	0.048500	0.592440	0.521920
F161	F16	0.017500	0.563370	0.682460
F171	F17	0.379700	0.902950	0.747700
F181	F18	0.339100	0.057880	0.596040
F191	F19	0.161500	0.910290	0.521420
F201	F20	0.198800	0.759320	0.674760
F211	F21	0.384700	0.172150	0.286100
F221	F22	0.415100	0.035880	0.444240
F231	F23	0.048500	0.114360	0.478080
F241	F24	0.017500	0.245830	0.317540
F251	F25	0.620300	0.349350	0.747700
F261	F26	0.660900	0.346080	0.596040
F271	F27	0.838500	0.568290	0.521420
F281	F28	0.801200	0.565920	0.674760
F291	F29	0.615300	0.541750	0.286100
F301	F30	0.584900	0.519880	0.444240
F311	F31	0.951500	0.407560	0.478080
F321	F32	0.982500	0.436630	0.317540
