data_CIFDOM_clean_PM
_symmetry_space_group_name_H-M	'P1'
_cell_length_a	11.873100
_cell_length_b	13.233400
_cell_length_c	18.474300
_cell_angle_alpha	90.000000
_cell_angle_beta	90.000000
_cell_angle_gamma	109.511000
_symmetry_Int_Tables_number 1

loop_
_symmetry_equiv_pos_as_xyz
'x,y,z'

loop_
_atom_site_label
_atom_site_type_symbol
_atom_site_fract_x
_atom_site_fract_y
_atom_site_fract_z
Mn11	Mn1	0.151650	0.787440	0.979680
Mn21	Mn2	0.348350	0.712560	0.479680
Mn31	Mn3	0.848350	0.212560	0.020320
Mn41	Mn4	0.651650	0.287440	0.520320
Mn51	Mn5	0.000000	0.500000	0.000000
Mn61	Mn6	0.500000	0.000000	0.500000
H11	H1	0.069500	0.133000	0.855900
H21	H2	0.247400	0.448000	0.858300
H31	H3	0.380200	0.427900	0.774900
H41	H4	0.445700	0.310600	0.691800
H51	H5	0.276800	0.994600	0.694500
H61	H6	0.146700	0.013200	0.779600
H71	H7	0.593800	0.584800	0.875500
H81	H8	0.450400	0.664400	0.870000
H91	H9	0.305300	0.523000	0.055500
H101	H10	0.430500	0.367000	0.355900
H111	H11	0.252600	0.052000	0.358300
H121	H12	0.119800	0.072100	0.274900
H131	H13	0.054300	0.189400	0.191800
H141	H14	0.223200	0.505400	0.194500
H151	H15	0.353300	0.486800	0.279600
H161	H16	0.906200	0.915200	0.375500
H171	H17	0.049600	0.835600	0.370000
H181	H18	0.194700	0.977000	0.555500
H191	H19	0.930500	0.867000	0.144100
H201	H20	0.752600	0.552000	0.141700
H211	H21	0.619800	0.572100	0.225100
H221	H22	0.554300	0.689400	0.308200
H231	H23	0.723200	0.005400	0.305500
H241	H24	0.853300	0.986800	0.220400
H251	H25	0.406200	0.415200	0.124500
H261	H26	0.549600	0.335600	0.130000
H271	H27	0.694700	0.477000	0.944500
H281	H28	0.569500	0.633000	0.644100
H291	H29	0.747400	0.948000	0.641700
H301	H30	0.880200	0.927900	0.725100
H311	H31	0.945700	0.810600	0.808200
H321	H32	0.776800	0.494600	0.805500
H331	H33	0.646700	0.513200	0.720400
H341	H34	0.093800	0.084800	0.624500
H351	H35	0.950400	0.164400	0.630000
H361	H36	0.805300	0.023000	0.444500
C11	C1	0.132100	0.191700	0.839270
C21	C2	0.144200	0.291600	0.864380
C31	C3	0.238600	0.380200	0.840250
C41	C4	0.317800	0.368200	0.790560
C51	C5	0.384600	0.251400	0.709330
C61	C6	0.372800	0.152700	0.683130
C71	C7	0.283200	0.062600	0.711040
C81	C8	0.205700	0.073700	0.761890
C91	C9	0.213500	0.176000	0.788210
C101	C10	0.306200	0.266400	0.762640
C111	C11	0.057200	0.308600	0.918440
C121	C12	0.454700	0.142400	0.623080
C131	C13	0.538200	0.573900	0.912680
C141	C14	0.451700	0.620100	0.908900
C151	C15	0.363700	0.601700	0.963360
C161	C16	0.364900	0.536900	0.020530
C171	C17	0.455900	0.490500	0.027320
C181	C18	0.276500	0.661600	0.961180
C191	C19	0.367900	0.308300	0.339270
C201	C20	0.355800	0.208400	0.364380
C211	C21	0.261400	0.119800	0.340250
C221	C22	0.182200	0.131800	0.290560
C231	C23	0.115400	0.248600	0.209330
C241	C24	0.127200	0.347300	0.183130
C251	C25	0.216800	0.437400	0.211040
C261	C26	0.294300	0.426300	0.261890
C271	C27	0.286500	0.324000	0.288210
C281	C28	0.193800	0.233600	0.262640
C291	C29	0.442800	0.191400	0.418440
C301	C30	0.045300	0.357600	0.123080
C311	C31	0.961800	0.926100	0.412680
C321	C32	0.048300	0.879900	0.408900
C331	C33	0.136300	0.898300	0.463360
C341	C34	0.135100	0.963100	0.520530
C351	C35	0.044100	0.009500	0.527320
C361	C36	0.223500	0.838400	0.461180
C371	C37	0.867900	0.808300	0.160730
C381	C38	0.855800	0.708400	0.135620
C391	C39	0.761400	0.619800	0.159750
C401	C40	0.682200	0.631800	0.209440
C411	C41	0.615400	0.748600	0.290670
C421	C42	0.627200	0.847300	0.316870
C431	C43	0.716800	0.937400	0.288960
C441	C44	0.794300	0.926300	0.238110
C451	C45	0.786500	0.824000	0.211790
C461	C46	0.693800	0.733600	0.237360
C471	C47	0.942800	0.691400	0.081560
C481	C48	0.545300	0.857600	0.376920
C491	C49	0.461800	0.426100	0.087320
C501	C50	0.548300	0.379900	0.091100
C511	C51	0.636300	0.398300	0.036640
C521	C52	0.635100	0.463100	0.979470
C531	C53	0.544100	0.509500	0.972680
C541	C54	0.723500	0.338400	0.038820
C551	C55	0.632100	0.691700	0.660730
C561	C56	0.644200	0.791600	0.635620
C571	C57	0.738600	0.880200	0.659750
C581	C58	0.817800	0.868200	0.709440
C591	C59	0.884600	0.751400	0.790670
C601	C60	0.872800	0.652700	0.816870
C611	C61	0.783200	0.562600	0.788960
C621	C62	0.705700	0.573700	0.738110
C631	C63	0.713500	0.676000	0.711790
C641	C64	0.806200	0.766400	0.737360
C651	C65	0.557200	0.808600	0.581560
C661	C66	0.954700	0.642400	0.876920
C671	C67	0.038200	0.073900	0.587320
C681	C68	0.951700	0.120100	0.591100
C691	C69	0.863700	0.101700	0.536640
C701	C70	0.864900	0.036900	0.479470
C711	C71	0.955900	0.990500	0.472680
C721	C72	0.776500	0.161600	0.538820
O11	O1	0.070170	0.402030	0.935520
O21	O2	0.977890	0.226710	0.941220
O31	O3	0.437490	0.051910	0.597720
O41	O4	0.532650	0.226750	0.604550
O51	O5	0.182330	0.628770	0.999030
O61	O6	0.302810	0.746390	0.926020
O71	O7	0.429830	0.097970	0.435520
O81	O8	0.522110	0.273290	0.441220
O91	O9	0.062510	0.448090	0.097720
O101	O10	0.967350	0.273250	0.104550
O111	O11	0.317670	0.871230	0.499030
O121	O12	0.197190	0.753610	0.426020
O131	O13	0.929830	0.597970	0.064480
O141	O14	0.022110	0.773290	0.058780
O151	O15	0.562510	0.948090	0.402280
O161	O16	0.467350	0.773250	0.395450
O171	O17	0.817670	0.371230	0.000970
O181	O18	0.697190	0.253610	0.073980
O191	O19	0.570170	0.902030	0.564480
O201	O20	0.477890	0.726710	0.558780
O211	O21	0.937490	0.551910	0.902280
O221	O22	0.032650	0.726750	0.895450
O231	O23	0.682330	0.128770	0.500970
O241	O24	0.802810	0.246390	0.573980
