data_CIGFEF_clean_PM
_symmetry_space_group_name_H-M	'P1'
_cell_length_a	10.063400
_cell_length_b	13.028400
_cell_length_c	14.922700
_cell_angle_alpha	79.662200
_cell_angle_beta	70.294600
_cell_angle_gamma	67.281100
_symmetry_Int_Tables_number 1

loop_
_symmetry_equiv_pos_as_xyz
'x,y,z'

loop_
_atom_site_label
_atom_site_type_symbol
_atom_site_fract_x
_atom_site_fract_y
_atom_site_fract_z
Nd11	Nd1	0.091830	0.295200	0.608000
Nd21	Nd2	0.354840	0.030200	0.346400
Nd31	Nd3	0.504970	0.795200	0.108000
Nd41	Nd4	0.768560	0.530200	0.846400
H11	H1	0.824100	0.618100	0.199300
H21	H2	0.000900	0.460300	0.273300
H31	H3	0.470900	0.317000	0.577400
H41	H4	0.720600	0.313000	0.578000
H51	H5	0.116000	0.853000	0.690800
H61	H6	0.028400	0.701400	0.758800
H71	H7	0.858500	0.118100	0.699300
H81	H8	0.765500	0.960300	0.773300
H91	H9	0.134700	0.817000	0.077400
H101	H10	0.888400	0.813000	0.078000
H111	H11	0.840200	0.353000	0.190800
H121	H12	0.011400	0.201400	0.258800
C11	C1	0.114000	0.636500	0.623300
C21	C2	0.459500	0.164600	0.484800
C31	C3	0.958400	0.455200	0.466000
C41	C4	0.618400	0.800300	0.310100
C51	C5	0.198800	0.790900	0.559500
C61	C6	0.890800	0.527500	0.400900
C71	C7	0.086700	0.526600	0.642000
C81	C8	0.976500	0.159800	0.490800
C91	C9	0.822700	0.614200	0.262400
C101	C10	0.250800	0.875800	0.488600
C111	C11	0.922800	0.519500	0.306900
C121	C12	0.827900	0.192900	0.485300
C131	C13	0.579900	0.193900	0.482300
C141	C14	0.563000	0.270100	0.541900
C151	C15	0.710500	0.267200	0.541800
C161	C16	0.128100	0.796100	0.655700
C171	C17	0.078100	0.710800	0.695000
C181	C18	0.731000	0.692700	0.322300
C191	C19	0.126200	0.136500	0.123300
C201	C20	0.391100	0.664600	0.984800
C211	C21	0.620400	0.955200	0.966000
C221	C22	0.771200	0.300300	0.810100
C231	C23	0.950800	0.290900	0.059500
C241	C24	0.680800	0.027500	0.900900
C251	C25	0.244700	0.026600	0.142000
C261	C26	0.872900	0.659800	0.990800
C271	C27	0.800700	0.114200	0.762400
C281	C28	0.884800	0.375800	0.988600
C291	C29	0.750800	0.019500	0.806900
C301	C30	0.993900	0.692900	0.985300
C311	C31	0.243900	0.693900	0.982300
C321	C32	0.125000	0.770100	0.041900
C331	C33	0.980500	0.767200	0.041800
C341	C34	0.920100	0.296100	0.155700
C351	C35	0.016100	0.210800	0.195000
C361	C36	0.754000	0.192700	0.822300
S11	S1	0.752900	0.650300	0.437500
S21	S2	0.201700	0.673300	0.517300
S31	S3	0.766900	0.121700	0.428500
S41	S4	0.659300	0.150300	0.937500
S51	S5	0.107700	0.173300	0.017300
S61	S6	0.182900	0.621700	0.928500
O11	O1	0.276600	0.861900	0.403300
O21	O2	0.895100	0.453600	0.558200
O31	O3	0.570900	0.869300	0.373300
O41	O4	0.173500	0.453400	0.585000
O51	O5	0.571600	0.814500	0.241500
O61	O6	0.987600	0.506800	0.714000
O71	O7	0.098800	0.375500	0.434900
O81	O8	0.340700	0.217300	0.515500
O91	O9	0.268700	0.948000	0.514600
O101	O10	0.486000	0.098100	0.412500
O111	O11	0.018700	0.200200	0.526400
O121	O12	0.085300	0.109600	0.402200
O131	O13	0.958200	0.361900	0.903300
O141	O14	0.593100	0.953600	0.058200
O151	O15	0.686500	0.369300	0.873300
O161	O16	0.288100	0.953400	0.085000
O171	O17	0.872400	0.314500	0.741500
O181	O18	0.291600	0.006800	0.214000
O191	O19	0.590800	0.875500	0.934900
O201	O20	0.426500	0.717300	0.015500
O211	O21	0.768700	0.448000	0.014600
O221	O22	0.503400	0.598100	0.912500
O231	O23	0.754700	0.700200	0.026400
O241	O24	0.902900	0.609600	0.902200
