data_CIJVOH01_clean_PM
_symmetry_space_group_name_H-M	'P1'
_cell_length_a	8.414900
_cell_length_b	9.813000
_cell_length_c	21.028000
_cell_angle_alpha	90.000000
_cell_angle_beta	90.000000
_cell_angle_gamma	90.000000
_symmetry_Int_Tables_number 1

loop_
_symmetry_equiv_pos_as_xyz
'x,y,z'

loop_
_atom_site_label
_atom_site_type_symbol
_atom_site_fract_x
_atom_site_fract_y
_atom_site_fract_z
Cd11	Cd1	0.495990	0.107710	0.783020
Cd21	Cd2	0.305720	0.662710	0.977260
Cd31	Cd3	0.004010	0.892290	0.283020
Cd41	Cd4	0.194280	0.337290	0.477260
Cd51	Cd5	0.504010	0.607710	0.716980
Cd61	Cd6	0.694280	0.162710	0.522740
Cd71	Cd7	0.995990	0.392290	0.216980
Cd81	Cd8	0.805720	0.837290	0.022740
H11	H1	0.782900	0.503600	0.846100
H21	H2	0.663700	0.415300	0.937500
H31	H3	0.436000	0.406300	0.917000
H41	H4	0.690000	0.674000	0.810100
H51	H5	0.717100	0.496400	0.346100
H61	H6	0.836300	0.584700	0.437500
H71	H7	0.064000	0.593700	0.417000
H81	H8	0.810000	0.326000	0.310100
H91	H9	0.217100	0.003600	0.653900
H101	H10	0.336300	0.915300	0.562500
H111	H11	0.564000	0.906300	0.583000
H121	H12	0.310000	0.174000	0.689900
H131	H13	0.282900	0.996400	0.153900
H141	H14	0.163700	0.084700	0.062500
H151	H15	0.936000	0.093700	0.083000
H161	H16	0.190000	0.826000	0.189900
C11	C1	0.598900	0.383100	0.812940
C21	C2	0.666700	0.506400	0.848570
C31	C3	0.616300	0.497200	0.918720
C41	C4	0.673900	0.621500	0.955480
C51	C5	0.901100	0.616900	0.312940
C61	C6	0.833300	0.493600	0.348570
C71	C7	0.883700	0.502800	0.418720
C81	C8	0.826100	0.378500	0.455480
C91	C9	0.401100	0.883100	0.687060
C101	C10	0.333300	0.006400	0.651430
C111	C11	0.383700	0.997200	0.581280
C121	C12	0.326100	0.121500	0.544520
C131	C13	0.098900	0.116900	0.187060
C141	C14	0.166700	0.993600	0.151430
C151	C15	0.116300	0.002800	0.081280
C161	C16	0.173900	0.878500	0.044520
O11	O1	0.602400	0.272470	0.842280
O21	O2	0.545700	0.396900	0.757790
O31	O3	0.612700	0.630700	0.821910
O41	O4	0.448500	0.487930	0.923580
O51	O5	0.578100	0.698550	0.983070
O61	O6	0.821300	0.643100	0.956630
O71	O7	0.897600	0.727530	0.342280
O81	O8	0.954300	0.603100	0.257790
O91	O9	0.887300	0.369300	0.321910
O101	O10	0.051500	0.512070	0.423580
O111	O11	0.921900	0.301450	0.483070
O121	O12	0.678700	0.356900	0.456630
O131	O13	0.397600	0.772470	0.657720
O141	O14	0.454300	0.896900	0.742210
O151	O15	0.387300	0.130700	0.678090
O161	O16	0.551500	0.987930	0.576420
O171	O17	0.421900	0.198550	0.516930
O181	O18	0.178700	0.143100	0.543370
O191	O19	0.102400	0.227530	0.157720
O201	O20	0.045700	0.103100	0.242210
O211	O21	0.112700	0.869300	0.178090
O221	O22	0.948500	0.012070	0.076420
O231	O23	0.078100	0.801450	0.016930
O241	O24	0.321300	0.856900	0.043370
