data_CIMTAV_charged_PM
_symmetry_space_group_name_H-M	'P1'
_cell_length_a	18.483500
_cell_length_b	27.147200
_cell_length_c	37.927000
_cell_angle_alpha	90.000000
_cell_angle_beta	90.000000
_cell_angle_gamma	90.000000
_symmetry_Int_Tables_number 1

loop_
_symmetry_equiv_pos_as_xyz
'x,y,z'

loop_
_atom_site_label
_atom_site_type_symbol
_atom_site_fract_x
_atom_site_fract_y
_atom_site_fract_z
La11	La1	0.373810	0.259130	0.976610
La21	La2	0.126190	0.759130	0.523390
La31	La3	0.873810	0.759130	0.023390
La41	La4	0.619480	0.748510	0.900570
La51	La5	0.626190	0.740870	0.023390
La61	La6	0.619480	0.251490	0.599430
La71	La7	0.880520	0.751490	0.900570
La81	La8	0.873810	0.240870	0.476610
La91	La9	0.880520	0.248510	0.599430
La101	La10	0.119480	0.751490	0.400570
La111	La11	0.126190	0.240870	0.976610
La121	La12	0.626190	0.259130	0.476610
La131	La13	0.380520	0.748510	0.400570
La141	La14	0.119480	0.248510	0.099430
La151	La15	0.373810	0.740870	0.523390
La161	La16	0.380520	0.251490	0.099430
B11	B1	0.255800	0.936600	0.967500
B21	B2	0.750000	0.250000	0.825000
B31	B3	0.250000	0.750000	0.175000
B41	B4	0.250000	0.250000	0.325000
B51	B5	0.755800	0.436600	0.032500
B61	B6	0.744200	0.063400	0.032500
B71	B7	0.744200	0.936600	0.467500
B81	B8	0.250000	0.750000	0.753200
B91	B9	0.255800	0.063400	0.532500
B101	B10	0.750000	0.750000	0.675000
B111	B11	0.250000	0.250000	0.746800
B121	B12	0.244200	0.563400	0.967500
B131	B13	0.750000	0.750000	0.253200
B141	B14	0.755800	0.563400	0.467500
B151	B15	0.244200	0.436600	0.532500
B161	B16	0.750000	0.250000	0.246800
H11	H1	0.728300	0.356500	0.187000
H21	H2	0.290800	0.635600	0.472500
H31	H3	0.226600	0.804200	0.108500
H41	H4	0.271600	0.151600	0.492100
H51	H5	0.756200	0.152100	0.379900
H61	H6	0.650800	0.173600	0.796700
H71	H7	0.653100	0.800200	0.220600
H81	H8	0.858200	0.481000	0.397800
H91	H9	0.367700	0.827800	0.059900
H101	H10	0.675900	0.095600	0.394700
H111	H11	0.472800	0.617300	0.099600
H121	H12	0.618500	0.208700	0.101500
H131	H13	0.824100	0.404400	0.394700
H141	H14	0.403000	0.485400	0.581400
H151	H15	0.550000	0.835000	0.568600
H161	H16	0.881500	0.708700	0.398500
H171	H17	0.367700	0.172200	0.440100
H181	H18	0.608200	0.131800	0.913000
H191	H19	0.292700	0.855500	0.893300
H201	H20	0.891000	0.842900	0.680700
H211	H21	0.064900	0.732700	0.925500
H221	H22	0.005000	0.401400	0.967000
H231	H23	0.444600	0.276600	0.492800
H241	H24	0.842400	0.524300	0.512400
H251	H25	0.148900	0.904600	0.468300
H261	H26	0.267600	0.864700	0.286800
H271	H27	0.463500	0.191900	0.203800
H281	H28	0.773400	0.195800	0.891500
H291	H29	0.184900	0.862100	0.697200
H301	H30	0.771700	0.143500	0.187000
H311	H31	0.851100	0.095400	0.531700
H321	H32	0.709200	0.635600	0.972500
H331	H33	0.387900	0.966500	0.434200
H341	H34	0.112100	0.533500	0.434200
H351	H35	0.069500	0.708800	0.718200
H361	H36	0.972800	0.117300	0.900400
H371	H37	0.719600	0.183100	0.203000
H381	H38	0.334900	0.687800	0.202500
H391	H39	0.061800	0.860200	0.065500
H401	H40	0.351100	0.595400	0.468300
H411	H41	0.314400	0.540800	0.022400
H421	H42	0.748100	0.844800	0.635200
H431	H43	0.153100	0.300200	0.779400
H441	H44	0.150800	0.673600	0.203300
H451	H45	0.597000	0.514600	0.418600
H461	H46	0.273400	0.695800	0.108500
H471	H47	0.152700	0.654900	0.288000
H481	H48	0.379900	0.619000	0.540400
H491	H49	0.815100	0.137900	0.302800
H501	H50	0.226600	0.195800	0.391500
H511	H51	0.488700	0.920500	0.362200
H521	H52	0.989000	0.374000	0.613300
H531	H53	0.272300	0.149400	0.297600
H541	H54	0.722400	0.590000	0.948000
H551	H55	0.336600	0.879200	0.433600
H561	H56	0.751900	0.655200	0.635200
H571	H57	0.981900	0.937800	0.011000
H581	H58	0.549000	0.019900	0.591600
H591	H59	0.780400	0.316900	0.203000
H601	H60	0.044100	0.917800	0.433300
H611	H61	0.346900	0.800200	0.720600
H621	H62	0.438200	0.360200	0.434500
H631	H63	0.229100	0.880900	0.035100
H641	H64	0.997200	0.181200	0.325300
H651	H65	0.104600	0.409900	0.916800
H661	H66	0.271700	0.356500	0.687000
H671	H67	0.922700	0.084900	0.924400
H681	H68	0.141800	0.519000	0.602200
H691	H69	0.555400	0.276600	0.992800
H701	H70	0.688100	0.363100	0.350600
H711	H71	0.011300	0.938300	0.905600
H721	H72	0.015200	0.116500	0.096900
H731	H73	0.950000	0.665000	0.568600
H741	H74	0.834900	0.812200	0.702500
H751	H75	0.343100	0.310600	0.623800
H761	H76	0.364000	0.552600	0.893900
H771	H77	0.464300	0.929900	0.500300
H781	H78	0.290300	0.675000	0.030700
H791	H79	0.011000	0.626000	0.386700
H801	H80	0.984800	0.883500	0.903100
H811	H81	0.555400	0.723400	0.507200
H821	H82	0.728400	0.848400	0.507900
H831	H83	0.839300	0.171600	0.271300
H841	H84	0.888900	0.443300	0.961900
H851	H85	0.130200	0.143100	0.644800
H861	H86	0.650800	0.826400	0.703300
H871	H87	0.511000	0.126000	0.613300
H881	H88	0.814400	0.959200	0.522400
H891	H89	0.903000	0.014600	0.081400
H901	H90	0.767600	0.364700	0.713200
H911	H91	0.153100	0.699800	0.720600
H921	H92	0.511300	0.438300	0.094400
H931	H93	0.995000	0.598600	0.033000
H941	H94	0.324100	0.095600	0.894700
H951	H95	0.536500	0.808100	0.796200
H961	H96	0.049000	0.519900	0.408400
H971	H97	0.185600	0.040800	0.477600
H981	H98	0.400400	0.165500	0.758700
H991	H99	0.777600	0.910000	0.948000
H1001	H100	0.064900	0.267300	0.574500
H1011	H101	0.772300	0.350600	0.797600
H1021	H102	0.280400	0.816900	0.797000
H1031	H103	0.297700	0.021500	0.601300
H1041	H104	0.660700	0.671600	0.228700
H1051	H105	0.664200	0.328100	0.381300
H1061	H106	0.391000	0.342900	0.319300
H1071	H107	0.481900	0.437800	0.989000
H1081	H108	0.702300	0.021500	0.101300
H1091	H109	0.525800	0.534400	0.540300
H1101	H110	0.451000	0.980100	0.408400
H1111	H111	0.073900	0.821700	0.873100
H1121	H112	0.612100	0.033500	0.565800
H1131	H113	0.891000	0.157100	0.819300
H1141	H114	0.611100	0.943300	0.538100
H1151	H115	0.038800	0.437500	0.064200
H1161	H116	0.630200	0.643100	0.355200
H1171	H117	0.559000	0.466600	0.459200
H1181	H118	0.555800	0.238500	0.726400
H1191	H119	0.430500	0.208800	0.781800
H1201	H120	0.790300	0.825000	0.530700
H1211	H121	0.849200	0.673600	0.703300
H1221	H122	0.290600	0.499800	0.049100
H1231	H123	0.664200	0.671900	0.118700
H1241	H124	0.049000	0.480100	0.091600
H1251	H125	0.228300	0.856500	0.813000
H1261	H126	0.451000	0.019900	0.091600
H1271	H127	0.290800	0.364400	0.027500
H1281	H128	0.582000	0.306000	0.790400
H1291	H129	0.335800	0.328100	0.881300
H1301	H130	0.941000	0.966600	0.040800
H1311	H131	0.044100	0.082200	0.066700
H1321	H132	0.109000	0.157100	0.319300
H1331	H133	0.941000	0.033400	0.459200
H1341	H134	0.256200	0.652100	0.620100
H1351	H135	0.002800	0.181200	0.825300
H1361	H136	0.488700	0.561700	0.905600
H1371	H137	0.561000	0.124600	0.646600
H1381	H138	0.663400	0.120800	0.566400
H1391	H139	0.435100	0.232700	0.574500
H1401	H140	0.339300	0.671600	0.728700
H1411	H141	0.152700	0.345100	0.212000
H1421	H142	0.011000	0.374000	0.113300
H1431	H143	0.612100	0.966500	0.934200
H1441	H144	0.599600	0.834500	0.241300
H1451	H145	0.077300	0.915100	0.075600
H1461	H146	0.550000	0.165000	0.931400
H1471	H147	0.311900	0.363100	0.850600
H1481	H148	0.120100	0.119000	0.959600
H1491	H149	0.474200	0.465600	0.459700
H1501	H150	0.379900	0.381000	0.959600
H1511	H151	0.843100	0.810600	0.376200
H1521	H152	0.935100	0.267300	0.074500
H1531	H153	0.441000	0.533400	0.540800
H1541	H154	0.636700	0.505600	0.971800
H1551	H155	0.256200	0.347900	0.879900
H1561	H156	0.266700	0.375500	0.580900
H1571	H157	0.157600	0.524300	0.012400
H1581	H158	0.229100	0.119100	0.464900
H1591	H159	0.444200	0.722500	0.661700
H1601	H160	0.618500	0.791300	0.398500
H1611	H161	0.363300	0.494400	0.028200
H1621	H162	0.270900	0.619100	0.035100
H1631	H163	0.260300	0.349300	0.772600
H1641	H164	0.073900	0.178300	0.626900
H1651	H165	0.824100	0.595600	0.105300
H1661	H166	0.393200	0.300000	0.464500
H1671	H167	0.972800	0.882700	0.599600
H1681	H168	0.922700	0.915100	0.575600
H1691	H169	0.981900	0.062200	0.489000
H1701	H170	0.743800	0.652100	0.120100
H1711	H171	0.641800	0.019000	0.397800
H1721	H172	0.061000	0.375400	0.146600
H1731	H173	0.155200	0.635800	0.577400
H1741	H174	0.290600	0.500200	0.450900
H1751	H175	0.222400	0.910000	0.448000
H1761	H176	0.849200	0.326400	0.796700
H1771	H177	0.266700	0.624500	0.919100
H1781	H178	0.648500	0.236600	0.068400
H1791	H179	0.754000	0.319500	0.080400
H1801	H180	0.864000	0.052600	0.106100
H1811	H181	0.718700	0.844900	0.596400
H1821	H182	0.446700	0.873800	0.505300
H1831	H183	0.319000	0.477900	0.578700
H1841	H184	0.611100	0.056700	0.961900
H1851	H185	0.014200	0.305600	0.243700
H1861	H186	0.444200	0.761500	0.273600
H1871	H187	0.555800	0.761500	0.773600
H1881	H188	0.227700	0.649400	0.202400
H1891	H189	0.732400	0.864700	0.786800
H1901	H190	0.139400	0.769400	0.004200
H1911	H191	0.188100	0.136900	0.850600
H1921	H192	0.059000	0.033400	0.959200
H1931	H193	0.564900	0.767300	0.425500
H1941	H194	0.108200	0.631800	0.087000
H1951	H195	0.324100	0.904400	0.605300
H1961	H196	0.685600	0.459200	0.977600
H1971	H197	0.944600	0.223400	0.992800
H1981	H198	0.209400	0.999800	0.450900
H1991	H199	0.964300	0.429900	0.499700
H2001	H200	0.175900	0.595600	0.605300
H2011	H201	0.381500	0.208700	0.601500
H2021	H202	0.835800	0.828100	0.118700
H2031	H203	0.395400	0.909900	0.583200
H2041	H204	0.511300	0.561700	0.405600
H2051	H205	0.120100	0.881000	0.540400
H2061	H206	0.985800	0.305600	0.743700
H2071	H207	0.728400	0.151600	0.992100
H2081	H208	0.082000	0.194000	0.290400
H2091	H209	0.688100	0.636900	0.149400
H2101	H210	0.351500	0.236600	0.568400
H2111	H211	0.254000	0.819500	0.919600
H2121	H212	0.270900	0.380900	0.464900
H2131	H213	0.290300	0.325000	0.469300
H2141	H214	0.251900	0.844800	0.135200
H2151	H215	0.961200	0.562500	0.935800
H2161	H216	0.228400	0.348400	0.492100
H2171	H217	0.036500	0.691900	0.296200
H2181	H218	0.536500	0.191900	0.703800
H2191	H219	0.726600	0.304200	0.891500
H2201	H220	0.748100	0.155200	0.864800
H2211	H221	0.722400	0.410000	0.552000
H2221	H222	0.538800	0.062500	0.564200
H2231	H223	0.655200	0.864200	0.077400
H2241	H224	0.209400	0.000200	0.049100
H2251	H225	0.104600	0.590100	0.583200
H2261	H226	0.846900	0.699800	0.220600
H2271	H227	0.729100	0.380900	0.964900
H2281	H228	0.955900	0.082200	0.566700
H2291	H229	0.620100	0.619000	0.040400
H2301	H230	0.561800	0.360200	0.934500
H2311	H231	0.781300	0.344900	0.903600
H2321	H232	0.527900	0.682400	0.135300
H2331	H233	0.656900	0.689400	0.376200
H2341	H234	0.951000	0.480100	0.591600
H2351	H235	0.927000	0.521200	0.511200
H2361	H236	0.790800	0.135600	0.527500
H2371	H237	0.053300	0.626200	0.505300
H2381	H238	0.851500	0.736600	0.431600
H2391	H239	0.964300	0.570100	0.000300
H2401	H240	0.773400	0.804200	0.608500
H2411	H241	0.011300	0.061700	0.594400
H2421	H242	0.709200	0.364400	0.527500
H2431	H243	0.767600	0.635300	0.786800
H2441	H244	0.846900	0.300200	0.279400
H2451	H245	0.792700	0.644500	0.393300
H2461	H246	0.209700	0.825000	0.030700
H2471	H247	0.160700	0.828400	0.728700
H2481	H248	0.346900	0.199800	0.779400
H2491	H249	0.207300	0.644500	0.893300
H2501	H250	0.055800	0.777500	0.661700
H2511	H251	0.770900	0.880900	0.535100
H2521	H252	0.222400	0.090000	0.052000
H2531	H253	0.655200	0.135800	0.422600
H2541	H254	0.564900	0.232700	0.074500
H2551	H255	0.368700	0.971600	0.920800
H2561	H256	0.681000	0.477900	0.078700
H2571	H257	0.163400	0.620800	0.433600
H2581	H258	0.718700	0.155100	0.903600
H2591	H259	0.319000	0.522100	0.921300
H2601	H260	0.292700	0.144500	0.606700
H2611	H261	0.760200	0.315000	0.162900
H2621	H262	0.489000	0.874000	0.386700
H2631	H263	0.136000	0.052600	0.606100
H2641	H264	0.315100	0.362100	0.802800
H2651	H265	0.036500	0.308100	0.203800
H2661	H266	0.573900	0.321700	0.126900
H2671	H267	0.636000	0.447400	0.106100
H2681	H268	0.887900	0.533500	0.934200
H2691	H269	0.972100	0.817600	0.135300
H2701	H270	0.707300	0.144500	0.106700
H2711	H271	0.472100	0.682400	0.635300
H2721	H272	0.218700	0.344900	0.403600
H2731	H273	0.766700	0.875500	0.419100
H2741	H274	0.790300	0.175000	0.969300
H2751	H275	0.027200	0.882700	0.099600
H2761	H276	0.847300	0.654900	0.788000
H2771	H277	0.544100	0.582200	0.933300
H2781	H278	0.656900	0.310600	0.123800
H2791	H279	0.280400	0.183100	0.703000
H2801	H280	0.636000	0.552600	0.393900
H2811	H281	0.604600	0.090100	0.416800
H2821	H282	0.472800	0.382700	0.400400
H2831	H283	0.351500	0.763400	0.931600
H2841	H284	0.349200	0.826400	0.203300
H2851	H285	0.727700	0.850600	0.702400
H2861	H286	0.164200	0.171900	0.881300
H2871	H287	0.360600	0.730600	0.004200
H2881	H288	0.035700	0.570100	0.500300
H2891	H289	0.648900	0.595400	0.968300
H2901	H290	0.988700	0.938300	0.405600
H2911	H291	0.267600	0.135300	0.213200
H2921	H292	0.111100	0.556700	0.038100
H2931	H293	0.108200	0.368200	0.413000
H2941	H294	0.248100	0.344800	0.364800
H2951	H295	0.660700	0.328400	0.271300
H2961	H296	0.391800	0.131800	0.413000
H2971	H297	0.050000	0.665000	0.068600
H2981	H298	0.464300	0.070100	0.999700
H2991	H299	0.395400	0.090100	0.916800
H3001	H300	0.160700	0.171600	0.771300
H3011	H301	0.944200	0.738500	0.773600
H3021	H302	0.059000	0.966600	0.540800
H3031	H303	0.461200	0.062500	0.064200
H3041	H304	0.867700	0.327800	0.940100
H3051	H305	0.944200	0.777500	0.161700
H3061	H306	0.495000	0.901400	0.533000
H3071	H307	0.418000	0.306000	0.290400
H3081	H308	0.790600	0.999800	0.950900
H3091	H309	0.272300	0.850600	0.202400
H3101	H310	0.879900	0.881000	0.040400
H3111	H311	0.422700	0.415100	0.424400
H3121	H312	0.888900	0.556700	0.538100
H3131	H313	0.323400	0.859500	0.234800
H3141	H314	0.893200	0.200000	0.964500
H3151	H315	0.815100	0.862100	0.197200
H3161	H316	0.184900	0.137900	0.802800
H3171	H317	0.707300	0.855500	0.393300
H3181	H318	0.118500	0.291300	0.601500
H3191	H319	0.553300	0.873800	0.005300
H3201	H320	0.444200	0.277500	0.838300
H3211	H321	0.132300	0.672200	0.059900
H3221	H322	0.639400	0.269400	0.995800
H3231	H323	0.864000	0.947400	0.393900
H3241	H324	0.069500	0.291200	0.781800
H3251	H325	0.218700	0.655100	0.096400
H3261	H326	0.985800	0.694400	0.756300
H3271	H327	0.527200	0.617300	0.599600
H3281	H328	0.657600	0.975700	0.512400
H3291	H329	0.756200	0.847900	0.120100
H3301	H330	0.709400	0.500200	0.950900
H3311	H331	0.728300	0.643500	0.313000
H3321	H332	0.391000	0.657100	0.180700
H3331	H333	0.663400	0.879200	0.933600
H3341	H334	0.481900	0.562200	0.511000
H3351	H335	0.676600	0.859500	0.734800
H3361	H336	0.652700	0.845100	0.788000
H3371	H337	0.489000	0.126000	0.113300
H3381	H338	0.335800	0.671900	0.618700
H3391	H339	0.246000	0.319500	0.580400
H3401	H340	0.018100	0.937800	0.511000
H3411	H341	0.505000	0.901400	0.033000
H3421	H342	0.202300	0.478500	0.601300
H3431	H343	0.474200	0.534400	0.040300
H3441	H344	0.271600	0.848400	0.007900
H3451	H345	0.963500	0.691900	0.796200
H3461	H346	0.648500	0.763400	0.431600
H3471	H347	0.684900	0.362100	0.302800
H3481	H348	0.963500	0.308100	0.703800
H3491	H349	0.248100	0.655200	0.135200
H3501	H350	0.549000	0.980100	0.908400
H3511	H351	0.497200	0.318800	0.825300
H3521	H352	0.927000	0.478800	0.988800
H3531	H353	0.097000	0.985400	0.918600
H3541	H354	0.502800	0.681200	0.174700
H3551	H355	0.599600	0.165500	0.258700
H3561	H356	0.260200	0.815000	0.837100
H3571	H357	0.739700	0.349300	0.272600
H3581	H358	0.239700	0.150700	0.772600
H3591	H359	0.653100	0.199800	0.279400
H3601	H360	0.360600	0.269400	0.495800
H3611	H361	0.887900	0.466500	0.565800
H3621	H362	0.781300	0.655100	0.596400
H3631	H363	0.488700	0.438300	0.594400
H3641	H364	0.561000	0.875400	0.853400
H3651	H365	0.260300	0.650700	0.727400
H3661	H366	0.733300	0.375500	0.080900
H3671	H367	0.771600	0.348400	0.992100
H3681	H368	0.766700	0.124500	0.080900
H3691	H369	0.495000	0.098600	0.967000
H3701	H370	0.136700	0.994400	0.471800
H3711	H371	0.984800	0.116500	0.596900
H3721	H372	0.544100	0.417800	0.566700
H3731	H373	0.334900	0.312200	0.297500
H3741	H374	0.055400	0.776600	0.007200
H3751	H375	0.388900	0.943300	0.038100
H3761	H376	0.311900	0.636900	0.649400
H3771	H377	0.746000	0.819500	0.419600
H3781	H378	0.232400	0.635300	0.286800
H3791	H379	0.930500	0.708800	0.218200
H3801	H380	0.206900	0.668600	0.318200
H3811	H381	0.780400	0.683100	0.297000
H3821	H382	0.727700	0.149400	0.797600
H3831	H383	0.811900	0.136900	0.350600
H3841	H384	0.577300	0.415100	0.924400
H3851	H385	0.939000	0.375400	0.646600
H3861	H386	0.843100	0.189400	0.123800
H3871	H387	0.631300	0.028400	0.079200
H3881	H388	0.944200	0.222500	0.338300
H3891	H389	0.511300	0.920500	0.862200
H3901	H390	0.202300	0.521500	0.898700
H3911	H391	0.455900	0.582200	0.433300
H3921	H392	0.271700	0.643500	0.813000
H3931	H393	0.797700	0.478500	0.101300
H3941	H394	0.219600	0.316900	0.703000
H3951	H395	0.136000	0.947400	0.893900
H3961	H396	0.869800	0.143100	0.144800
H3971	H397	0.439000	0.875400	0.353400
H3981	H398	0.002800	0.818800	0.674700
H3991	H399	0.858200	0.519000	0.102200
H4001	H400	0.254000	0.180500	0.580400
H4011	H401	0.400400	0.834500	0.741300
H4021	H402	0.819000	0.022100	0.078700
H4031	H403	0.181000	0.022100	0.578700
H4041	H404	0.111100	0.443300	0.461900
H4051	H405	0.706900	0.831400	0.818200
H4061	H406	0.336600	0.120800	0.066400
H4071	H407	0.760300	0.849300	0.227400
H4081	H408	0.209700	0.175000	0.469300
H4091	H409	0.233300	0.124500	0.580900
H4101	H410	0.944200	0.261500	0.726400
H4111	H411	0.895400	0.409900	0.416800
H4121	H412	0.293100	0.168600	0.181800
H4131	H413	0.099600	0.334500	0.758700
H4141	H414	0.141800	0.481000	0.897800
H4151	H415	0.148500	0.263400	0.568400
H4161	H416	0.136700	0.005600	0.028200
H4171	H417	0.055800	0.738500	0.273600
H4181	H418	0.860600	0.769400	0.504200
H4191	H419	0.525800	0.465600	0.959700
H4201	H420	0.665100	0.687800	0.702500
H4211	H421	0.630200	0.356900	0.144800
H4221	H422	0.387900	0.033500	0.065800
H4231	H423	0.790800	0.864400	0.972500
H4241	H424	0.243800	0.152100	0.879900
H4251	H425	0.323400	0.140500	0.265200
H4261	H426	0.900400	0.665500	0.241300
H4271	H427	0.393200	0.700000	0.035500
H4281	H428	0.175900	0.404400	0.894700
H4291	H429	0.418000	0.694000	0.209600
H4301	H430	0.239800	0.315000	0.662900
H4311	H431	0.277600	0.410000	0.052000
H4321	H432	0.926100	0.821700	0.373100
H4331	H433	0.836600	0.379200	0.566400
H4341	H434	0.005000	0.598600	0.533000
H4351	H435	0.430500	0.791200	0.718200
H4361	H436	0.760200	0.685000	0.337100
H4371	H437	0.951000	0.519900	0.908400
H4381	H438	0.342400	0.975700	0.012400
H4391	H439	0.444200	0.238500	0.226400
H4401	H440	0.685600	0.540800	0.522400
H4411	H441	0.511000	0.874000	0.886700
H4421	H442	0.209200	0.135600	0.027500
H4431	H443	0.573000	0.978800	0.511200
H4441	H444	0.743800	0.347900	0.379900
H4451	H445	0.961200	0.437500	0.564200
H4461	H446	0.518100	0.562200	0.011000
H4471	H447	0.239700	0.849300	0.727400
H4481	H448	0.739800	0.185000	0.162900
H4491	H449	0.082000	0.806000	0.209600
H4501	H450	0.893200	0.800000	0.535500
H4511	H451	0.702300	0.978500	0.398700
H4521	H452	0.851100	0.904600	0.968300
H4531	H453	0.097000	0.014600	0.581400
H4541	H454	0.472100	0.317600	0.864700
H4551	H455	0.364000	0.447400	0.606100
H4561	H456	0.014200	0.694400	0.256300
H4571	H457	0.150800	0.326400	0.296700
H4581	H458	0.641800	0.981000	0.102200
H4591	H459	0.055400	0.223400	0.492800
H4601	H460	0.435100	0.767300	0.925500
H4611	H461	0.444600	0.723400	0.007200
H4621	H462	0.339300	0.328400	0.771300
H4631	H463	0.344800	0.864200	0.577400
H4641	H464	0.851500	0.263400	0.068400
H4651	H465	0.946700	0.373800	0.494700
H4661	H466	0.281300	0.155100	0.403600
H4671	H467	0.938200	0.139800	0.934500
H4681	H468	0.974200	0.034400	0.959700
H4691	H469	0.631300	0.971600	0.420800
H4701	H470	0.344800	0.135800	0.922600
H4711	H471	0.358200	0.019000	0.897800
H4721	H472	0.358200	0.981000	0.602200
H4731	H473	0.130200	0.856900	0.855200
H4741	H474	0.455900	0.417800	0.066700
H4751	H475	0.511300	0.079500	0.637800
H4761	H476	0.754000	0.680500	0.419600
H4771	H477	0.157600	0.475700	0.487600
H4781	H478	0.025800	0.965600	0.040300
H4791	H479	0.869800	0.856900	0.355200
H4801	H480	0.055800	0.261500	0.226400
H4811	H481	0.988700	0.061700	0.094400
H4821	H482	0.895400	0.590100	0.083200
H4831	H483	0.632300	0.827800	0.559900
H4841	H484	0.381500	0.791300	0.898500
H4851	H485	0.050000	0.335000	0.431400
H4861	H486	0.860600	0.230600	0.995800
H4871	H487	0.518100	0.437800	0.489000
H4881	H488	0.930500	0.291200	0.281800
H4891	H489	0.604600	0.909900	0.083200
H4901	H490	0.793100	0.331400	0.681800
H4911	H491	0.609000	0.657100	0.680700
H4921	H492	0.239800	0.685000	0.837100
H4931	H493	0.463500	0.808100	0.296200
H4941	H494	0.502800	0.318800	0.325300
H4951	H495	0.772300	0.649400	0.702400
H4961	H496	0.461200	0.937500	0.435800
H4971	H497	0.935100	0.732700	0.425500
H4981	H498	0.314400	0.459200	0.477600
H4991	H499	0.176600	0.640500	0.234800
H5001	H500	0.514200	0.805600	0.756300
H5011	H501	0.665100	0.312200	0.797500
H5021	H502	0.606800	0.700000	0.535500
H5031	H503	0.228400	0.651600	0.007900
H5041	H504	0.207300	0.355500	0.606700
H5051	H505	0.363300	0.505600	0.471800
H5061	H506	0.681000	0.522100	0.421300
H5071	H507	0.569500	0.208800	0.281800
H5081	H508	0.426100	0.678300	0.873100
H5091	H509	0.251900	0.155200	0.364800
H5101	H510	0.228300	0.143500	0.687000
H5111	H511	0.918000	0.806000	0.709600
H5121	H512	0.946700	0.626200	0.005300
H5131	H513	0.823400	0.640500	0.734800
H5141	H514	0.577300	0.584900	0.575600
H5151	H515	0.148900	0.095400	0.031700
H5161	H516	0.488700	0.079500	0.137800
H5171	H517	0.369800	0.643100	0.855200
H5181	H518	0.485800	0.194400	0.243700
H5191	H519	0.891800	0.368200	0.913000
H5201	H520	0.974200	0.965600	0.540300
H5211	H521	0.163400	0.379200	0.066400
H5221	H522	0.027200	0.117300	0.400400
H5231	H523	0.011300	0.579500	0.362200
H5241	H524	0.771600	0.651600	0.507900
H5251	H525	0.582000	0.694000	0.709600
H5261	H526	0.484800	0.383500	0.096900
H5271	H527	0.450000	0.165000	0.431400
H5281	H528	0.620100	0.381000	0.459600
H5291	H529	0.732400	0.135300	0.713200
H5301	H530	0.819000	0.977900	0.421300
H5311	H531	0.099600	0.665500	0.741300
H5321	H532	0.018100	0.062200	0.989000
H5331	H533	0.439000	0.124600	0.146600
H5341	H534	0.844800	0.364200	0.422600
H5351	H535	0.369800	0.356900	0.644800
H5361	H536	0.053300	0.373800	0.994700
H5371	H537	0.232400	0.364700	0.213200
H5381	H538	0.709700	0.675000	0.530700
H5391	H539	0.293100	0.831400	0.318200
H5401	H540	0.515200	0.616500	0.903100
H5411	H541	0.422700	0.584900	0.075600
H5421	H542	0.015200	0.883500	0.403100
H5431	H543	0.746000	0.180500	0.080400
H5441	H544	0.109000	0.842900	0.180700
H5451	H545	0.535700	0.070100	0.499700
H5461	H546	0.719600	0.816900	0.297000
H5471	H547	0.793100	0.668600	0.818200
H5481	H548	0.555800	0.722500	0.161700
H5491	H549	0.555800	0.277500	0.338300
H5501	H550	0.771700	0.856500	0.313000
H5511	H551	0.351100	0.404600	0.031700
H5521	H552	0.606800	0.300000	0.964500
H5531	H553	0.131300	0.471600	0.579200
H5541	H554	0.814400	0.040800	0.977600
H5551	H555	0.608200	0.868200	0.587000
H5561	H556	0.632300	0.172200	0.940100
H5571	H557	0.709400	0.499800	0.549100
H5581	H558	0.077300	0.084900	0.424400
H5591	H559	0.561800	0.639800	0.565500
H5601	H560	0.514200	0.194400	0.743700
H5611	H561	0.347300	0.845100	0.288000
H5621	H562	0.609000	0.342900	0.819300
H5631	H563	0.388900	0.056700	0.461900
H5641	H564	0.181000	0.977900	0.921300
H5651	H565	0.684900	0.637900	0.197200
H5661	H566	0.739800	0.815000	0.337100
H5671	H567	0.485800	0.805600	0.256300
H5681	H568	0.891800	0.631800	0.587000
H5691	H569	0.073000	0.521200	0.011200
H5701	H570	0.527200	0.382700	0.900400
H5711	H571	0.027900	0.817600	0.635300
H5721	H572	0.709700	0.325000	0.969300
H5731	H573	0.842400	0.475700	0.987600
H5741	H574	0.847300	0.345100	0.712000
H5751	H575	0.347300	0.154900	0.212000
H5761	H576	0.676600	0.140500	0.765200
H5771	H577	0.139400	0.230600	0.495800
H5781	H578	0.652700	0.154900	0.712000
H5791	H579	0.038800	0.562500	0.435800
H5801	H580	0.156900	0.810600	0.876200
H5811	H581	0.538800	0.937500	0.935800
H5821	H582	0.972100	0.182400	0.364700
H5831	H583	0.342400	0.024300	0.487600
H5841	H584	0.176600	0.359500	0.265200
H5851	H585	0.427000	0.978800	0.011200
H5861	H586	0.131300	0.528400	0.920800
H5871	H587	0.995000	0.401400	0.467000
H5881	H588	0.206900	0.331400	0.181800
H5891	H589	0.219600	0.683100	0.797000
H5901	H590	0.706900	0.168600	0.681800
H5911	H591	0.233300	0.875500	0.919100
H5921	H592	0.777600	0.090000	0.552000
H5931	H593	0.011300	0.420500	0.137800
H5941	H594	0.156900	0.189400	0.623800
H5951	H595	0.636700	0.494400	0.528200
H5961	H596	0.559000	0.533400	0.040800
H5971	H597	0.938200	0.860200	0.565500
H5981	H598	0.823400	0.359500	0.765200
H5991	H599	0.648900	0.404600	0.531700
H6001	H600	0.569500	0.791200	0.218200
H6011	H601	0.797700	0.521500	0.398700
H6021	H602	0.867700	0.672200	0.559900
H6031	H603	0.944600	0.776600	0.507200
H6041	H604	0.035700	0.429900	0.999700
H6051	H605	0.726600	0.695800	0.608500
H6061	H606	0.391800	0.868200	0.087000
H6071	H607	0.273400	0.304200	0.391500
H6081	H608	0.997200	0.818800	0.174700
H6091	H609	0.863300	0.994400	0.971800
H6101	H610	0.839300	0.828400	0.228700
H6111	H611	0.770900	0.119100	0.964900
H6121	H612	0.155200	0.364200	0.922600
H6131	H613	0.185600	0.959200	0.022400
H6141	H614	0.297700	0.978500	0.898700
H6151	H615	0.403000	0.514600	0.918600
H6161	H616	0.739700	0.650700	0.227400
H6171	H617	0.260200	0.185000	0.662900
H6181	H618	0.989000	0.626000	0.886700
H6191	H619	0.246000	0.680500	0.919600
H6201	H620	0.027900	0.182400	0.864700
H6211	H621	0.061800	0.139800	0.434500
H6221	H622	0.243800	0.847900	0.620100
H6231	H623	0.188100	0.863100	0.649400
H6241	H624	0.441000	0.466600	0.959200
H6251	H625	0.073000	0.478800	0.488800
H6261	H626	0.535700	0.929900	0.000300
H6271	H627	0.106800	0.200000	0.464500
H6281	H628	0.343100	0.689400	0.876200
H6291	H629	0.868700	0.528400	0.420800
H6301	H630	0.132300	0.327800	0.440100
H6311	H631	0.926100	0.178300	0.126900
H6321	H632	0.844800	0.635800	0.077400
H6331	H633	0.484800	0.616500	0.403100
H6341	H634	0.165100	0.187800	0.297500
H6351	H635	0.061000	0.624600	0.353400
H6361	H636	0.811900	0.863100	0.149400
H6371	H637	0.527900	0.317600	0.364700
H6381	H638	0.903000	0.985400	0.418600
H6391	H639	0.427000	0.021200	0.488800
H6401	H640	0.597000	0.485400	0.081400
H6411	H641	0.863300	0.005600	0.528200
H6421	H642	0.450000	0.835000	0.068600
H6431	H643	0.834900	0.187800	0.797500
H6441	H644	0.025800	0.034400	0.459700
H6451	H645	0.106800	0.800000	0.035500
H6461	H646	0.112100	0.466500	0.065800
H6471	H647	0.879900	0.119000	0.459600
H6481	H648	0.751900	0.344800	0.864800
H6491	H649	0.573900	0.678300	0.373100
H6501	H650	0.164200	0.828100	0.618700
H6511	H651	0.209200	0.864400	0.472500
H6521	H652	0.939000	0.624600	0.853400
H6531	H653	0.955900	0.917800	0.933300
H6541	H654	0.368700	0.028400	0.579200
H6551	H655	0.918000	0.194000	0.790400
H6561	H656	0.729100	0.619100	0.535100
H6571	H657	0.792700	0.355500	0.106700
H6581	H658	0.505000	0.098600	0.467000
H6591	H659	0.165100	0.812200	0.202500
H6601	H660	0.950000	0.335000	0.931400
H6611	H661	0.315100	0.637900	0.697200
H6621	H662	0.760300	0.150700	0.272600
H6631	H663	0.988700	0.579500	0.862200
H6641	H664	0.446700	0.126200	0.994700
H6651	H665	0.675900	0.904400	0.105300
H6661	H666	0.573000	0.021200	0.988800
H6671	H667	0.515200	0.383500	0.596900
H6681	H668	0.868700	0.471600	0.079200
H6691	H669	0.148500	0.736600	0.931600
H6701	H670	0.900400	0.334500	0.258700
H6711	H671	0.118500	0.708700	0.898500
H6721	H672	0.790600	0.000200	0.549100
H6731	H673	0.227700	0.350600	0.297600
H6741	H674	0.277600	0.590000	0.448000
H6751	H675	0.553300	0.126200	0.494700
H6761	H676	0.733300	0.624500	0.419100
H6771	H677	0.836600	0.620800	0.933600
H6781	H678	0.657600	0.024300	0.987600
H6791	H679	0.497200	0.681200	0.674700
H6801	H680	0.281300	0.844900	0.096400
H6811	H681	0.835800	0.171900	0.381300
H6821	H682	0.988700	0.420500	0.637800
H6831	H683	0.426100	0.321700	0.626900
H6841	H684	0.438200	0.639800	0.065500
H6851	H685	0.349200	0.173600	0.296700
H6861	H686	0.055800	0.222500	0.838300
H6871	H687	0.639400	0.730600	0.504200
H6881	H688	0.881500	0.291300	0.101500
C11	C1	0.250000	0.250000	0.169320
C21	C2	0.325500	0.757500	0.154630
C31	C3	0.766500	0.675600	0.615700
C41	C4	0.525600	0.224400	0.400000
C51	C5	0.148000	0.623000	0.410300
C61	C6	0.124000	0.078810	0.555330
C71	C7	0.611900	0.915530	0.487130
C81	C8	0.185600	0.006000	0.472980
C91	C9	0.250000	0.250000	0.209240
C101	C10	0.016000	0.689900	0.465210
C111	C11	0.821400	0.908280	0.468120
C121	C12	0.112700	0.265900	0.733720
C131	C13	0.846100	0.398800	0.417270
C141	C14	0.796600	0.837000	0.134000
C151	C15	0.185600	0.994000	0.027020
C161	C16	0.927000	0.546400	0.920500
C171	C17	0.455300	0.768900	0.118530
C181	C18	0.516600	0.677500	0.963400
C191	C19	0.233500	0.675600	0.115700
C201	C20	0.702200	0.162500	0.706650
C211	C21	0.242700	0.177400	0.686120
C221	C22	0.153900	0.398800	0.917270
C231	C23	0.273500	0.521280	0.503090
C241	C24	0.016600	0.177500	0.036600
C251	C25	0.240600	0.495890	0.530570
C261	C26	0.041600	0.110600	0.424200
C271	C27	0.955300	0.268900	0.881470
C281	C28	0.298200	0.021470	0.943920
C291	C29	0.984700	0.202200	0.344700
C301	C30	0.674500	0.242500	0.845370
C311	C31	0.447500	0.647380	0.964860
C321	C32	0.703400	0.663000	0.134000
C331	C33	0.224000	0.346280	0.974980
C341	C34	0.107100	0.839710	0.988310
C351	C35	0.750000	0.250000	0.669320
C361	C36	0.446300	0.734100	0.818110
C371	C37	0.898300	0.208200	0.989000
C381	C38	0.169200	0.637130	0.944360
C391	C39	0.983400	0.177500	0.536600
C401	C40	0.776600	0.709300	0.735600
C411	C41	0.750000	0.750000	0.211370
C421	C42	0.685600	0.494000	0.972980
C431	C43	0.392900	0.339710	0.511690
C441	C44	0.272200	0.147640	0.583510
C451	C45	0.051400	0.385150	0.512970
C461	C46	0.276600	0.209300	0.264400
C471	C47	0.830800	0.637130	0.444360
C481	C48	0.669500	0.791200	0.627170
C491	C49	0.773500	0.978720	0.003090
C501	C50	0.997100	0.090200	0.581000
C511	C51	0.073000	0.453600	0.079500
C521	C52	0.958400	0.110600	0.924200
C531	C53	0.901900	0.664200	0.578100
C541	C54	0.825100	0.760180	0.274920
C551	C55	0.334100	0.004900	0.587680
C561	C56	0.821400	0.091720	0.031880
C571	C57	0.725000	0.708800	0.192800
C581	C58	0.974400	0.275600	0.400000
C591	C59	0.947500	0.147380	0.035140
C601	C60	0.450300	0.735200	0.145990
C611	C61	0.619600	0.676700	0.361100
C621	C62	0.742700	0.322600	0.186120
C631	C63	0.330500	0.208800	0.372830
C641	C64	0.389700	0.215990	0.577040
C651	C65	0.240600	0.504110	0.969430
C661	C66	0.323500	0.289100	0.694850
C671	C67	0.691700	0.164000	0.782670
C681	C68	0.517200	0.101100	0.491560
C691	C69	0.111900	0.584470	0.987130
C701	C70	0.946300	0.234100	0.181890
C711	C71	0.169500	0.708800	0.127170
C721	C72	0.750000	0.750000	0.138330
C731	C73	0.613600	0.042700	0.985160
C741	C74	0.823500	0.210900	0.194850
C751	C75	0.678600	0.408280	0.031880
C761	C76	0.742700	0.677400	0.313880
C771	C77	0.493000	0.262000	0.155600
C781	C78	0.750000	0.750000	0.830680
C791	C79	0.250000	0.750000	0.450500
C801	C80	0.608300	0.198580	0.266620
C811	C81	0.392900	0.660290	0.988310
C821	C82	0.997100	0.909800	0.919000
C831	C83	0.920500	0.870700	0.052900
C841	C84	0.202200	0.662500	0.293350
C851	C85	0.772200	0.647640	0.416490
C861	C86	0.771000	0.402160	0.473370
C871	C87	0.250000	0.250000	0.283180
C881	C88	0.016000	0.310100	0.034790
C891	C89	0.775000	0.791200	0.192800
C901	C90	0.613600	0.957300	0.514840
C911	C91	0.015300	0.797800	0.655300
C921	C92	0.773500	0.021280	0.496910
C931	C93	0.750000	0.250000	0.709240
C941	C94	0.825100	0.239820	0.225080
C951	C95	0.948600	0.385150	0.012970
C961	C96	0.979600	0.286790	0.722490
C971	C97	0.864400	0.961800	0.417020
C981	C98	0.950200	0.343630	0.034400
C991	C99	0.250000	0.750000	0.330680
C1001	C100	0.276000	0.846280	0.525020
C1011	C101	0.114600	0.770600	0.164040
C1021	C102	0.334100	0.995100	0.912320
C1031	C103	0.025600	0.724400	0.600000
C1041	C104	0.330500	0.791200	0.127170
C1051	C105	0.053700	0.765900	0.818110
C1061	C106	0.052000	0.263060	0.712130
C1071	C107	0.982800	0.601100	0.008440
C1081	C108	0.420500	0.370700	0.947100
C1091	C109	0.296600	0.337000	0.866000
C1101	C110	0.618000	0.688200	0.691800
C1111	C111	0.614600	0.270600	0.835960
C1121	C112	0.635600	0.538200	0.417020
C1131	C113	0.176500	0.789100	0.805150
C1141	C114	0.607100	0.339710	0.011690
C1151	C115	0.678600	0.591720	0.468120
C1161	C116	0.484700	0.297800	0.844700
C1171	C117	0.891700	0.698580	0.233380
C1181	C118	0.401900	0.164200	0.421900
C1191	C119	0.276600	0.790700	0.235600
C1201	C120	0.541600	0.610600	0.575800
C1211	C121	0.225300	0.145800	0.481410
C1221	C122	0.808300	0.336000	0.782670
C1231	C123	0.226500	0.021280	0.996910
C1241	C124	0.750000	0.750000	0.950500
C1251	C125	0.830500	0.708800	0.627170
C1261	C126	0.060900	0.893360	0.943040
C1271	C127	0.757300	0.822600	0.313880
C1281	C128	0.314400	0.506000	0.027020
C1291	C129	0.676500	0.289100	0.194850
C1301	C130	0.108300	0.698580	0.733380
C1311	C131	0.993000	0.762000	0.844400
C1321	C132	0.798200	0.521470	0.056080
C1331	C133	0.701800	0.021470	0.443920
C1341	C134	0.648000	0.877000	0.910300
C1351	C135	0.750000	0.250000	0.402150
C1361	C136	0.201800	0.521470	0.556080
C1371	C137	0.551400	0.885150	0.487030
C1381	C138	0.385400	0.270600	0.335960
C1391	C139	0.275000	0.708800	0.692800
C1401	C140	0.891300	0.332490	0.055740
C1411	C141	0.229000	0.402160	0.973370
C1421	C142	0.384100	0.708100	0.826750
C1431	C143	0.515300	0.297800	0.344700
C1441	C144	0.482800	0.101100	0.991560
C1451	C145	0.724000	0.153720	0.474980
C1461	C146	0.757300	0.177400	0.186120
C1471	C147	0.191700	0.664000	0.217330
C1481	C148	0.232300	0.927750	0.501120
C1491	C149	0.732300	0.427750	0.498880
C1501	C150	0.460000	0.105300	0.127900
C1511	C151	0.725300	0.354200	0.981410
C1521	C152	0.984700	0.797800	0.155300
C1531	C153	0.670100	0.367540	0.010060
C1541	C154	0.516000	0.810100	0.965210
C1551	C155	0.560900	0.606640	0.443040
C1561	C156	0.774200	0.207900	0.343850
C1571	C157	0.960000	0.605300	0.872100
C1581	C158	0.427000	0.953600	0.420500
C1591	C159	0.729000	0.097840	0.473370
C1601	C160	0.502900	0.590200	0.919000
C1611	C161	0.892900	0.839710	0.488310
C1621	C162	0.274500	0.791000	0.272610
C1631	C163	0.484000	0.810100	0.465210
C1641	C164	0.200200	0.837100	0.713500
C1651	C165	0.044700	0.731100	0.118530
C1661	C166	0.882000	0.188200	0.808200
C1671	C167	0.200100	0.101100	0.030530
C1681	C168	0.225500	0.291000	0.227390
C1691	C169	0.776600	0.290700	0.764400
C1701	C170	0.450300	0.264800	0.354010
C1711	C171	0.886400	0.457300	0.985160
C1721	C172	0.395400	0.796900	0.109120
C1731	C173	0.610300	0.215990	0.077040
C1741	C174	0.898300	0.791800	0.511000
C1751	C175	0.049700	0.235200	0.354010
C1761	C176	0.740600	0.995890	0.469430
C1771	C177	0.982800	0.053000	0.464500
C1781	C178	0.846100	0.601200	0.082730
C1791	C179	0.391300	0.167510	0.555740
C1801	C180	0.007000	0.238000	0.155600
C1811	C181	0.115900	0.791900	0.826750
C1821	C182	0.864400	0.038200	0.082980
C1831	C183	0.299800	0.337100	0.786500
C1841	C184	0.115900	0.208100	0.673250
C1851	C185	0.540000	0.105300	0.627900
C1861	C186	0.549700	0.264800	0.854010
C1871	C187	0.170100	0.132460	0.510060
C1881	C188	0.553700	0.734100	0.318110
C1891	C189	0.040000	0.394700	0.127900
C1901	C190	0.329900	0.367540	0.510060
C1911	C191	0.020400	0.286790	0.222490
C1921	C192	0.799800	0.162900	0.286500
C1931	C193	0.225000	0.208800	0.807200
C1941	C194	0.799900	0.101100	0.530530
C1951	C195	0.984000	0.689900	0.965210
C1961	C196	0.700200	0.662900	0.213500
C1971	C197	0.113600	0.457300	0.485160
C1981	C198	0.624000	0.578810	0.444670
C1991	C199	0.507000	0.738000	0.844400
C2001	C200	0.482800	0.447000	0.964500
C2011	C201	0.724000	0.846280	0.025020
C2021	C202	0.170100	0.867540	0.989940
C2031	C203	0.388100	0.084470	0.512870
C2041	C204	0.624000	0.421190	0.055330
C2051	C205	0.549800	0.156370	0.034400
C2061	C206	0.887300	0.265900	0.233720
C2071	C207	0.174500	0.742500	0.154630
C2081	C208	0.330800	0.137130	0.555640
C2091	C209	0.108700	0.332490	0.555740
C2101	C210	0.250000	0.750000	0.711370
C2111	C211	0.665900	0.995100	0.412320
C2121	C212	0.598100	0.164200	0.921900
C2131	C213	0.174900	0.239820	0.725080
C2141	C214	0.376000	0.578810	0.944670
C2151	C215	0.950200	0.656370	0.465600
C2161	C216	0.165900	0.495100	0.587680
C2171	C217	0.274700	0.354200	0.481410
C2181	C218	0.696000	0.072450	0.445890
C2191	C219	0.051400	0.614850	0.987030
C2201	C220	0.108300	0.301420	0.766620
C2211	C221	0.352000	0.123000	0.089700
C2221	C222	0.446300	0.265900	0.681890
C2231	C223	0.610300	0.784010	0.422960
C2241	C224	0.227800	0.647640	0.916490
C2251	C225	0.552500	0.352620	0.035140
C2261	C226	0.329900	0.632460	0.989940
C2271	C227	0.948000	0.736940	0.287870
C2281	C228	0.608300	0.801420	0.233380
C2291	C229	0.670800	0.904390	0.465790
C2301	C230	0.482800	0.898900	0.508440
C2311	C231	0.798200	0.478530	0.443920
C2321	C232	0.829900	0.867540	0.489940
C2331	C233	0.892900	0.160290	0.011690
C2341	C234	0.880400	0.823300	0.361100
C2351	C235	0.391700	0.198580	0.766620
C2361	C236	0.119600	0.176700	0.638900
C2371	C237	0.552000	0.236940	0.212130
C2381	C238	0.804000	0.427550	0.445890
C2391	C239	0.196000	0.572450	0.554110
C2401	C240	0.885400	0.770600	0.664040
C2411	C241	0.297800	0.837500	0.293350
C2421	C242	0.299900	0.398900	0.030530
C2431	C243	0.676500	0.710900	0.305150
C2441	C244	0.380400	0.323300	0.638900
C2451	C245	0.017200	0.398900	0.991560
C2461	C246	0.274500	0.209000	0.227390
C2471	C247	0.750000	0.750000	0.716820
C2481	C248	0.669500	0.208800	0.872830
C2491	C249	0.974400	0.724400	0.100000
C2501	C250	0.178600	0.091720	0.531880
C2511	C251	0.796600	0.163000	0.366000
C2521	C252	0.775000	0.208800	0.307200
C2531	C253	0.376000	0.421190	0.555330
C2541	C254	0.049800	0.656370	0.965600
C2551	C255	0.517200	0.447000	0.464500
C2561	C256	0.750000	0.750000	0.097850
C2571	C257	0.200200	0.162900	0.786500
C2581	C258	0.598100	0.835800	0.578100
C2591	C259	0.002900	0.090200	0.081000
C2601	C260	0.740600	0.004110	0.030570
C2611	C261	0.732300	0.572250	0.001120
C2621	C262	0.308300	0.836000	0.217330
C2631	C263	0.118000	0.188200	0.308200
C2641	C264	0.223400	0.709300	0.235600
C2651	C265	0.653900	0.898800	0.082730
C2661	C266	0.888100	0.415530	0.012870
C2671	C267	0.266500	0.175600	0.384300
C2681	C268	0.507000	0.262000	0.655600
C2691	C269	0.250000	0.250000	0.902150
C2701	C270	0.114600	0.229400	0.335960
C2711	C271	0.516600	0.322500	0.536600
C2721	C272	0.958400	0.889400	0.575800
C2731	C273	0.274200	0.292100	0.843850
C2741	C274	0.670800	0.095610	0.034210
C2751	C275	0.891300	0.667510	0.444260
C2761	C276	0.725800	0.292100	0.343850
C2771	C277	0.203400	0.837000	0.634000
C2781	C278	0.797800	0.337500	0.706650
C2791	C279	0.901900	0.335800	0.921900
C2801	C280	0.614600	0.729400	0.664040
C2811	C281	0.729000	0.902160	0.026630
C2821	C282	0.733500	0.175600	0.884300
C2831	C283	0.701800	0.978530	0.056080
C2841	C284	0.364400	0.538200	0.917020
C2851	C285	0.517200	0.553000	0.035500
C2861	C286	0.223400	0.290700	0.264400
C2871	C287	0.814400	0.994000	0.527020
C2881	C288	0.104600	0.296900	0.390880
C2891	C289	0.696000	0.927550	0.054110
C2901	C290	0.552000	0.763060	0.287870
C2911	C291	0.233500	0.324400	0.384300
C2921	C292	0.888100	0.584470	0.487130
C2931	C293	0.947500	0.852620	0.464860
C2941	C294	0.685600	0.506000	0.527020
C2951	C295	0.950300	0.764800	0.645990
C2961	C296	0.052500	0.852620	0.964860
C2971	C297	0.608700	0.832490	0.444260
C2981	C298	0.385400	0.729400	0.164040
C2991	C299	0.119600	0.823300	0.861100
C3001	C300	0.380400	0.676700	0.861100
C3011	C301	0.774700	0.145800	0.981410
C3021	C302	0.325100	0.260180	0.725080
C3031	C303	0.017200	0.947000	0.535500
C3041	C304	0.321400	0.591720	0.968120
C3051	C305	0.299900	0.601100	0.469470
C3061	C306	0.946300	0.765900	0.318110
C3071	C307	0.329200	0.904390	0.965790
C3081	C308	0.169500	0.291200	0.372830
C3091	C309	0.398300	0.291800	0.489000
C3101	C310	0.174500	0.257500	0.345370
C3111	C311	0.804000	0.572450	0.054110
C3121	C312	0.148000	0.377000	0.089700
C3131	C313	0.387300	0.234100	0.733720
C3141	C314	0.700200	0.337100	0.286500
C3151	C315	0.314400	0.494000	0.472980
C3161	C316	0.271000	0.902160	0.526630
C3171	C317	0.483400	0.677500	0.463400
C3181	C318	0.515300	0.702200	0.155300
C3191	C319	0.225500	0.709000	0.272610
C3201	C320	0.111900	0.415530	0.512870
C3211	C321	0.382000	0.688200	0.191800
C3221	C322	0.044700	0.268900	0.381470
C3231	C323	0.135600	0.961800	0.917020
C3241	C324	0.448600	0.114850	0.512970
C3251	C325	0.271000	0.097840	0.973370
C3261	C326	0.352000	0.877000	0.410300
C3271	C327	0.830500	0.291200	0.872830
C3281	C328	0.814400	0.006000	0.972980
C3291	C329	0.196000	0.427550	0.945890
C3301	C330	0.073000	0.546400	0.420500
C3311	C331	0.170800	0.595610	0.965790
C3321	C332	0.619600	0.323300	0.138900
C3331	C333	0.551400	0.114850	0.012970
C3341	C334	0.876000	0.921190	0.444670
C3351	C335	0.203400	0.163000	0.866000
C3361	C336	0.766500	0.324400	0.884300
C3371	C337	0.427000	0.046400	0.079500
C3381	C338	0.540000	0.894700	0.872100
C3391	C339	0.691700	0.836000	0.717330
C3401	C340	0.225800	0.792100	0.656150
C3411	C341	0.250000	0.750000	0.216820
C3421	C342	0.298200	0.978530	0.556080
C3431	C343	0.891700	0.301420	0.266620
C3441	C344	0.703400	0.337000	0.366000
C3451	C345	0.388100	0.915530	0.987130
C3461	C346	0.250000	0.250000	0.049500
C3471	C347	0.020400	0.713210	0.277510
C3481	C348	0.386400	0.042700	0.485160
C3491	C349	0.607100	0.660290	0.488310
C3501	C350	0.079500	0.129300	0.947100
C3511	C351	0.601700	0.291800	0.989000
C3521	C352	0.750000	0.250000	0.361670
C3531	C353	0.889700	0.284010	0.077040
C3541	C354	0.635600	0.461800	0.082980
C3551	C355	0.257300	0.322600	0.686120
C3561	C356	0.516000	0.189900	0.534790
C3571	C357	0.458400	0.389400	0.424200
C3581	C358	0.549700	0.735200	0.645990
C3591	C359	0.346100	0.101200	0.917270
C3601	C360	0.304000	0.927550	0.554110
C3611	C361	0.612700	0.234100	0.233720
C3621	C362	0.455300	0.231100	0.381470
C3631	C363	0.266500	0.824400	0.115700
C3641	C364	0.391300	0.832490	0.944260
C3651	C365	0.771000	0.597840	0.026630
C3661	C366	0.153900	0.601200	0.582730
C3671	C367	0.053700	0.234100	0.681890
C3681	C368	0.052000	0.736940	0.787870
C3691	C369	0.015300	0.202200	0.844700
C3701	C370	0.259400	0.004110	0.530570
C3711	C371	0.852000	0.623000	0.910300
C3721	C372	0.272200	0.852360	0.916490
C3731	C373	0.101700	0.791800	0.011000
C3741	C374	0.474400	0.775600	0.600000
C3751	C375	0.982800	0.947000	0.035500
C3761	C376	0.774500	0.291000	0.727390
C3771	C377	0.825500	0.257500	0.845370
C3781	C378	0.484700	0.702200	0.655300
C3791	C379	0.700100	0.601100	0.969470
C3801	C380	0.448000	0.236940	0.712130
C3811	C381	0.927000	0.453600	0.579500
C3821	C382	0.939100	0.893360	0.443040
C3831	C383	0.493000	0.738000	0.344400
C3841	C384	0.726500	0.478720	0.496910
C3851	C385	0.834100	0.504900	0.412320
C3861	C386	0.201800	0.478530	0.943920
C3871	C387	0.702200	0.837500	0.793350
C3881	C388	0.517200	0.898900	0.008440
C3891	C389	0.882000	0.811800	0.691800
C3901	C390	0.887300	0.734100	0.266280
C3911	C391	0.225800	0.207900	0.843850
C3921	C392	0.750000	0.250000	0.288630
C3931	C393	0.733500	0.824400	0.615700
C3941	C394	0.098100	0.664200	0.078100
C3951	C395	0.834100	0.495100	0.087680
C3961	C396	0.767700	0.927750	0.001120
C3971	C397	0.950300	0.235200	0.854010
C3981	C398	0.948000	0.263060	0.212130
C3991	C399	0.774700	0.854200	0.518590
C4001	C400	0.364400	0.461800	0.582980
C4011	C401	0.257300	0.677400	0.813880
C4021	C402	0.447500	0.352620	0.535140
C4031	C403	0.108700	0.667510	0.944260
C4041	C404	0.669200	0.862870	0.444360
C4051	C405	0.479600	0.786790	0.277510
C4061	C406	0.726500	0.521280	0.003090
C4071	C407	0.939100	0.106640	0.056960
C4081	C408	0.825500	0.742500	0.654630
C4091	C409	0.993000	0.238000	0.655600
C4101	C410	0.448600	0.885150	0.987030
C4111	C411	0.483400	0.322500	0.036600
C4121	C412	0.759400	0.495890	0.030570
C4131	C413	0.017200	0.601100	0.508440
C4141	C414	0.579500	0.629300	0.052900
C4151	C415	0.250000	0.750000	0.290760
C4161	C416	0.759400	0.504110	0.469430
C4171	C417	0.017200	0.053000	0.964500
C4181	C418	0.808300	0.664000	0.717330
C4191	C419	0.604600	0.796900	0.609120
C4201	C420	0.823500	0.789100	0.305150
C4211	C421	0.202200	0.337500	0.206650
C4221	C422	0.346100	0.898800	0.582730
C4231	C423	0.176500	0.210900	0.694850
C4241	C424	0.541600	0.389400	0.924200
C4251	C425	0.259400	0.995890	0.969430
C4261	C426	0.799900	0.898900	0.969470
C4271	C427	0.420500	0.629300	0.552900
C4281	C428	0.552500	0.647380	0.464860
C4291	C429	0.750000	0.750000	0.790760
C4301	C430	0.118000	0.811800	0.191800
C4311	C431	0.274700	0.645800	0.018590
C4321	C432	0.601700	0.708200	0.511000
C4331	C433	0.497100	0.409800	0.081000
C4341	C434	0.274200	0.707900	0.656150
C4351	C435	0.615900	0.291900	0.173250
C4361	C436	0.482800	0.553000	0.535500
C4371	C437	0.242700	0.822600	0.813880
C4381	C438	0.884100	0.208100	0.173250
C4391	C439	0.384100	0.291900	0.673250
C4401	C440	0.895400	0.296900	0.890880
C4411	C441	0.880400	0.176700	0.138900
C4421	C442	0.955300	0.731100	0.618530
C4431	C443	0.104600	0.703100	0.109120
C4441	C444	0.200100	0.898900	0.469470
C4451	C445	0.016600	0.822500	0.463400
C4461	C446	0.296600	0.663000	0.634000
C4471	C447	0.107100	0.160290	0.511690
C4481	C448	0.227800	0.352360	0.583510
C4491	C449	0.665900	0.004900	0.087680
C4501	C450	0.110300	0.715990	0.922960
C4511	C451	0.330800	0.862870	0.944360
C4521	C452	0.275000	0.291200	0.807200
C4531	C453	0.232300	0.072250	0.998880
C4541	C454	0.191700	0.336000	0.282670
C4551	C455	0.799800	0.837100	0.213500
C4561	C456	0.098100	0.335800	0.421900
C4571	C457	0.386400	0.957300	0.014840
C4581	C458	0.612700	0.765900	0.266280
C4591	C459	0.389700	0.784010	0.922960
C4601	C460	0.669200	0.137130	0.055640
C4611	C461	0.458400	0.610600	0.075800
C4621	C462	0.439100	0.606640	0.943040
C4631	C463	0.174900	0.760180	0.774920
C4641	C464	0.250000	0.250000	0.788630
C4651	C465	0.829200	0.595610	0.465790
C4661	C466	0.225000	0.791200	0.692800
C4671	C467	0.573000	0.046400	0.579500
C4681	C468	0.276000	0.153720	0.974980
C4691	C469	0.618000	0.311800	0.808200
C4701	C470	0.178600	0.908280	0.968120
C4711	C471	0.049800	0.343630	0.534400
C4721	C472	0.544700	0.768900	0.618530
C4731	C473	0.323500	0.710900	0.805150
C4741	C474	0.041600	0.889400	0.075800
C4751	C475	0.007000	0.762000	0.344400
C4761	C476	0.579500	0.370700	0.447100
C4771	C477	0.398300	0.708200	0.011000
C4781	C478	0.889700	0.715990	0.422960
C4791	C479	0.250000	0.750000	0.597850
C4801	C480	0.670100	0.632460	0.489940
C4811	C481	0.876000	0.078810	0.055330
C4821	C482	0.776000	0.346280	0.474980
C4831	C483	0.520400	0.213210	0.722490
C4841	C484	0.049700	0.764800	0.145990
C4851	C485	0.391700	0.801420	0.733380
C4861	C486	0.553700	0.265900	0.181890
C4871	C487	0.608700	0.167510	0.055740
C4881	C488	0.250000	0.250000	0.861670
C4891	C489	0.948600	0.614850	0.487030
C4901	C490	0.727800	0.147640	0.083510
C4911	C491	0.984000	0.310100	0.534790
C4921	C492	0.225300	0.854200	0.018590
C4931	C493	0.774500	0.709000	0.772610
C4941	C494	0.299800	0.662900	0.713500
C4951	C495	0.401900	0.835800	0.078100
C4961	C496	0.829900	0.132460	0.010060
C4971	C497	0.653900	0.101200	0.417270
C4981	C498	0.829200	0.404390	0.034210
C4991	C499	0.060900	0.106640	0.556960
C5001	C500	0.727800	0.852360	0.416490
C5011	C501	0.040000	0.605300	0.372100
C5021	C502	0.382000	0.311800	0.308200
C5031	C503	0.885400	0.229400	0.835960
C5041	C504	0.229000	0.597840	0.526630
C5051	C505	0.439100	0.393360	0.556960
C5061	C506	0.267700	0.572250	0.501120
C5071	C507	0.750000	0.250000	0.549500
C5081	C508	0.308300	0.164000	0.282670
C5091	C509	0.674900	0.260180	0.225080
C5101	C510	0.886400	0.542700	0.514840
C5111	C511	0.979600	0.713210	0.777510
C5121	C512	0.700100	0.398900	0.530530
C5131	C513	0.611900	0.084470	0.012870
C5141	C514	0.772200	0.352360	0.083510
C5151	C515	0.725500	0.209000	0.727390
C5161	C516	0.325100	0.739820	0.774920
C5171	C517	0.884100	0.791900	0.326750
C5181	C518	0.395400	0.203100	0.390880
C5191	C519	0.674900	0.739820	0.274920
C5201	C520	0.549800	0.843630	0.465600
C5211	C521	0.052500	0.147380	0.535140
C5221	C522	0.774200	0.792100	0.156150
C5231	C523	0.170800	0.404390	0.534210
C5241	C524	0.124000	0.921190	0.944670
C5251	C525	0.573000	0.953600	0.920500
C5261	C526	0.767700	0.072250	0.498880
C5271	C527	0.113600	0.542700	0.014840
C5281	C528	0.797800	0.662500	0.793350
C5291	C529	0.304000	0.072450	0.945890
C5301	C530	0.474400	0.224400	0.900000
C5311	C531	0.165900	0.504900	0.912320
C5321	C532	0.525600	0.775600	0.100000
C5331	C533	0.725500	0.791000	0.772610
C5341	C534	0.273500	0.478720	0.996910
C5351	C535	0.750000	0.250000	0.783180
C5361	C536	0.460000	0.894700	0.372100
C5371	C537	0.725300	0.645800	0.518590
C5381	C538	0.329200	0.095610	0.534210
C5391	C539	0.723400	0.209300	0.764400
C5401	C540	0.387300	0.765900	0.766280
C5411	C541	0.002900	0.909800	0.419000
C5421	C542	0.079500	0.870700	0.552900
C5431	C543	0.450200	0.843630	0.965600
C5441	C544	0.725800	0.707900	0.156150
C5451	C545	0.960000	0.394700	0.627900
C5461	C546	0.250000	0.750000	0.638330
C5471	C547	0.520400	0.786790	0.777510
C5481	C548	0.135600	0.038200	0.582980
C5491	C549	0.560900	0.393360	0.056960
C5501	C550	0.110300	0.284010	0.577040
C5511	C551	0.267700	0.427750	0.998880
C5521	C552	0.723400	0.790700	0.735600
C5531	C553	0.226500	0.978720	0.503090
C5541	C554	0.448000	0.763060	0.787870
C5551	C555	0.484000	0.189900	0.034790
C5561	C556	0.604600	0.203100	0.890880
C5571	C557	0.725000	0.291200	0.307200
C5581	C558	0.112700	0.734100	0.766280
C5591	C559	0.982800	0.398900	0.491560
C5601	C560	0.920500	0.129300	0.447100
C5611	C561	0.830800	0.362870	0.055640
C5621	C562	0.479600	0.213210	0.222490
C5631	C563	0.321400	0.408280	0.531880
C5641	C564	0.025600	0.275600	0.900000
C5651	C565	0.615900	0.708100	0.326750
C5661	C566	0.297800	0.162500	0.206650
C5671	C567	0.895400	0.703100	0.609120
C5681	C568	0.497100	0.590200	0.419000
C5691	C569	0.224000	0.653720	0.525020
C5701	C570	0.502900	0.409800	0.581000
C5711	C571	0.674500	0.757500	0.654630
C5721	C572	0.648000	0.123000	0.589700
C5731	C573	0.101700	0.208200	0.489000
C5741	C574	0.852000	0.377000	0.589700
C5751	C575	0.776000	0.653720	0.025020
C5761	C576	0.544700	0.231100	0.881470
C5771	C577	0.325500	0.242500	0.345370
C5781	C578	0.983400	0.822500	0.963400
C5791	C579	0.169200	0.362870	0.555640
C5801	C580	0.450200	0.156370	0.534400
N11	N1	0.017700	0.904100	0.556500
N21	N2	0.982300	0.904100	0.056500
N31	N3	0.482300	0.595900	0.556500
N41	N4	0.982300	0.095900	0.443500
N51	N5	0.482300	0.404100	0.943500
N61	N6	0.398700	0.917300	0.394200
N71	N7	0.601300	0.082700	0.605800
N81	N8	0.517700	0.404100	0.443500
N91	N9	0.517700	0.595900	0.056500
N101	N10	0.898700	0.417300	0.605800
N111	N11	0.101300	0.417300	0.105800
N121	N12	0.898700	0.582700	0.894200
N131	N13	0.017700	0.095900	0.943500
N141	N14	0.601300	0.917300	0.894200
N151	N15	0.101300	0.582700	0.394200
N161	N16	0.398700	0.082700	0.105800
O11	O1	0.174800	0.840000	0.393700
O21	O2	0.078600	0.828800	0.566100
O31	O3	0.444800	0.679300	0.490600
O41	O4	0.458100	0.299900	0.147200
O51	O5	0.825200	0.840000	0.893700
O61	O6	0.032700	0.269200	0.931000
O71	O7	0.189000	0.753900	0.465700
O81	O8	0.421400	0.328800	0.933900
O91	O9	0.031200	0.287200	0.006900
O101	O10	0.948600	0.308300	0.563000
O111	O11	0.444800	0.320700	0.009400
O121	O12	0.041900	0.799900	0.352800
O131	O13	0.421400	0.671200	0.566100
O141	O14	0.468800	0.212800	0.006900
O151	O15	0.944800	0.820700	0.990600
O161	O16	0.458100	0.700100	0.352800
O171	O17	0.219200	0.821800	0.527600
O181	O18	0.750000	0.750000	0.916500
O191	O19	0.532100	0.698600	0.934700
O201	O20	0.691700	0.239900	0.417700
O211	O21	0.958100	0.799900	0.852800
O221	O22	0.174800	0.160000	0.106300
O231	O23	0.691700	0.760100	0.082300
O241	O24	0.191700	0.260100	0.917700
O251	O25	0.780800	0.821800	0.027600
O261	O26	0.811000	0.246100	0.534300
O271	O27	0.468800	0.787200	0.493100
O281	O28	0.250000	0.250000	0.083500
O291	O29	0.551400	0.191700	0.563000
O301	O30	0.690000	0.749300	0.845200
O311	O31	0.689000	0.746100	0.965700
O321	O32	0.690000	0.250700	0.654800
O331	O33	0.810000	0.249300	0.654800
O341	O34	0.967900	0.198600	0.565300
O351	O35	0.664400	0.160700	0.609000
O361	O36	0.578600	0.328800	0.433900
O371	O37	0.311000	0.746100	0.465700
O381	O38	0.310000	0.749300	0.345200
O391	O39	0.163100	0.672300	0.520800
O401	O40	0.418800	0.788900	0.620900
O411	O41	0.836900	0.327700	0.479200
O421	O42	0.336900	0.827700	0.520800
O431	O43	0.055200	0.820700	0.490600
O441	O44	0.541900	0.299900	0.647200
O451	O45	0.032700	0.730800	0.569000
O461	O46	0.081200	0.288900	0.879100
O471	O47	0.551400	0.808300	0.937000
O481	O48	0.335600	0.839300	0.391000
O491	O49	0.448600	0.808300	0.437000
O501	O50	0.719200	0.321800	0.472400
O511	O51	0.948600	0.691700	0.937000
O521	O52	0.968800	0.287200	0.506900
O531	O53	0.674800	0.340000	0.606300
O541	O54	0.581200	0.788900	0.120900
O551	O55	0.958100	0.200100	0.647200
O561	O56	0.968800	0.712800	0.993100
O571	O57	0.163100	0.327700	0.979200
O581	O58	0.944800	0.179300	0.509400
O591	O59	0.521900	0.220900	0.641800
O601	O60	0.325200	0.660000	0.393700
O611	O61	0.967300	0.730800	0.069000
O621	O62	0.719200	0.678200	0.027600
O631	O63	0.336900	0.172300	0.979200
O641	O64	0.164400	0.339300	0.109000
O651	O65	0.967300	0.269200	0.431000
O661	O66	0.478100	0.779100	0.358200
O671	O67	0.835600	0.339300	0.609000
O681	O68	0.081200	0.711100	0.620900
O691	O69	0.467900	0.301400	0.065300
O701	O70	0.967900	0.801400	0.934700
O711	O71	0.051400	0.691700	0.437000
O721	O72	0.578600	0.671200	0.066100
O731	O73	0.078600	0.171200	0.933900
O741	O74	0.921400	0.828800	0.066100
O751	O75	0.750000	0.250000	0.583500
O761	O76	0.308300	0.760100	0.582300
O771	O77	0.836900	0.672300	0.020800
O781	O78	0.808300	0.739900	0.082300
O791	O79	0.664400	0.839300	0.891000
O801	O80	0.250000	0.750000	0.416500
O811	O81	0.021900	0.279100	0.141800
O821	O82	0.021900	0.720900	0.358200
O831	O83	0.055200	0.179300	0.009400
O841	O84	0.418800	0.211100	0.879100
O851	O85	0.555200	0.320700	0.509400
O861	O86	0.531200	0.787200	0.993100
O871	O87	0.467300	0.230800	0.931000
O881	O88	0.918800	0.288900	0.379100
O891	O89	0.448600	0.191700	0.063000
O901	O90	0.041900	0.200100	0.147200
O911	O91	0.918800	0.711100	0.120900
O921	O92	0.978100	0.279100	0.641800
O931	O93	0.810000	0.750700	0.845200
O941	O94	0.555200	0.679300	0.990600
O951	O95	0.189000	0.246100	0.034300
O961	O96	0.835600	0.660700	0.891000
O971	O97	0.308300	0.239900	0.917700
O981	O98	0.164400	0.660700	0.391000
O991	O99	0.532700	0.769200	0.069000
O1001	O100	0.191700	0.739900	0.582300
O1011	O101	0.031200	0.712800	0.493100
O1021	O102	0.219200	0.178200	0.972400
O1031	O103	0.541900	0.700100	0.852800
O1041	O104	0.032100	0.198600	0.065300
O1051	O105	0.190000	0.750700	0.345200
O1061	O106	0.978100	0.720900	0.858200
O1071	O107	0.531200	0.212800	0.506900
O1081	O108	0.311000	0.253900	0.034300
O1091	O109	0.032100	0.801400	0.434700
O1101	O110	0.521900	0.779100	0.858200
O1111	O111	0.051400	0.308300	0.063000
O1121	O112	0.663100	0.827700	0.020800
O1131	O113	0.921400	0.171200	0.433900
O1141	O114	0.310000	0.250700	0.154800
O1151	O115	0.467300	0.769200	0.569000
O1161	O116	0.280800	0.321800	0.972400
O1171	O117	0.689000	0.253900	0.534300
O1181	O118	0.280800	0.678200	0.527600
O1191	O119	0.335600	0.160700	0.109000
O1201	O120	0.190000	0.249300	0.154800
O1211	O121	0.325200	0.340000	0.106300
O1221	O122	0.663100	0.172300	0.479200
O1231	O123	0.811000	0.753900	0.965700
O1241	O124	0.532100	0.301400	0.565300
O1251	O125	0.808300	0.260100	0.417700
O1261	O126	0.478100	0.220900	0.141800
O1271	O127	0.780800	0.178200	0.472400
O1281	O128	0.532700	0.230800	0.431000
O1291	O129	0.581200	0.211100	0.379100
O1301	O130	0.467900	0.698600	0.434700
O1311	O131	0.825200	0.160000	0.606300
O1321	O132	0.674800	0.660000	0.893700
H6891	H689	0.010300	0.920900	0.279800
H6901	H690	0.149700	0.885500	0.342300
H6911	H691	0.018000	0.873900	0.256100
H6921	H692	0.981500	0.870000	0.293300
H6931	H693	0.066900	0.877600	0.349300
H6941	H694	0.094900	0.928400	0.335200
C5811	C581	0.019000	0.886100	0.279900
C5821	C582	0.102000	0.893400	0.334400
N171	N17	0.092000	0.875400	0.296400
H6951	H695	0.982000	0.873900	0.756100
H6961	H696	0.850300	0.885500	0.842300
H6971	H697	0.933100	0.877600	0.849300
H6981	H698	0.989700	0.920900	0.779800
H6991	H699	0.018500	0.870000	0.793300
H7001	H700	0.905100	0.928400	0.835200
C5831	C583	0.898000	0.893400	0.834400
C5841	C584	0.981000	0.886100	0.779900
N181	N18	0.908000	0.875400	0.796400
H7011	H701	0.981500	0.130000	0.206700
H7021	H702	0.010300	0.079100	0.220200
H7031	H703	0.094900	0.071600	0.164800
H7041	H704	0.018000	0.126100	0.243900
H7051	H705	0.149700	0.114500	0.157700
H7061	H706	0.066900	0.122400	0.150700
C5851	C585	0.102000	0.106600	0.165600
C5861	C586	0.019000	0.113900	0.220100
N191	N19	0.092000	0.124600	0.203600
H7071	H707	0.489700	0.420900	0.220200
H7081	H708	0.518500	0.370000	0.206700
H7091	H709	0.433100	0.377600	0.150700
H7101	H710	0.405100	0.428400	0.164800
H7111	H711	0.350300	0.385500	0.157700
H7121	H712	0.482000	0.373900	0.243900
C5871	C587	0.398000	0.393400	0.165600
C5881	C588	0.481000	0.386100	0.220100
N201	N20	0.408000	0.375400	0.203600
H7131	H713	0.982000	0.126100	0.743900
H7141	H714	0.989700	0.079100	0.720200
H7151	H715	0.018500	0.130000	0.706700
H7161	H716	0.850300	0.114500	0.657700
H7171	H717	0.905100	0.071600	0.664800
H7181	H718	0.933100	0.122400	0.650700
C5891	C589	0.898000	0.106600	0.665600
C5901	C590	0.981000	0.113900	0.720100
N211	N21	0.908000	0.124600	0.703600
H7191	H719	0.518000	0.373900	0.743900
H7201	H720	0.649700	0.385500	0.657700
H7211	H721	0.510300	0.420900	0.720200
H7221	H722	0.566900	0.377600	0.650700
H7231	H723	0.481500	0.370000	0.706700
H7241	H724	0.594900	0.428400	0.664800
C5911	C591	0.602000	0.393400	0.665600
C5921	C592	0.519000	0.386100	0.720100
N221	N22	0.592000	0.375400	0.703600
H7251	H725	0.566900	0.622400	0.849300
H7261	H726	0.510300	0.579100	0.779800
H7271	H727	0.481500	0.630000	0.793300
H7281	H728	0.518000	0.626100	0.756100
H7291	H729	0.594900	0.571600	0.835200
H7301	H730	0.649700	0.614500	0.842300
C5931	C593	0.602000	0.606600	0.834400
C5941	C594	0.519000	0.613900	0.779900
N231	N23	0.592000	0.624600	0.796400
H7311	H731	0.433100	0.622400	0.349300
H7321	H732	0.518500	0.630000	0.293300
H7331	H733	0.350300	0.614500	0.342300
H7341	H734	0.482000	0.626100	0.256100
H7351	H735	0.489700	0.579100	0.279800
H7361	H736	0.405100	0.571600	0.335200
C5951	C595	0.398000	0.606600	0.334400
C5961	C596	0.481000	0.613900	0.279900
N241	N24	0.408000	0.624600	0.296400
