data_CIMTEZ_charged_PM
_symmetry_space_group_name_H-M	'P1'
_cell_length_a	18.215100
_cell_length_b	27.286000
_cell_length_c	37.614000
_cell_angle_alpha	90.000000
_cell_angle_beta	90.000000
_cell_angle_gamma	90.000000
_symmetry_Int_Tables_number 1

loop_
_symmetry_equiv_pos_as_xyz
'x,y,z'

loop_
_atom_site_label
_atom_site_type_symbol
_atom_site_fract_x
_atom_site_fract_y
_atom_site_fract_z
Nd11	Nd1	0.626160	0.244570	0.526710
Nd21	Nd2	0.126160	0.744570	0.473290
Nd31	Nd3	0.121560	0.251600	0.904360
Nd41	Nd4	0.126160	0.255430	0.026710
Nd51	Nd5	0.878440	0.748400	0.095640
Nd61	Nd6	0.621560	0.248400	0.404360
Nd71	Nd7	0.626160	0.755430	0.973290
Nd81	Nd8	0.121560	0.748400	0.595640
Nd91	Nd9	0.373840	0.244570	0.026710
Nd101	Nd10	0.873840	0.744570	0.973290
Nd111	Nd11	0.878440	0.251600	0.404360
Nd121	Nd12	0.873840	0.255430	0.526710
Nd131	Nd13	0.378440	0.751600	0.595640
Nd141	Nd14	0.621560	0.751600	0.095640
Nd151	Nd15	0.373840	0.755430	0.473290
Nd161	Nd16	0.378440	0.248400	0.904360
B11	B1	0.750000	0.750000	0.322600
B21	B2	0.244300	0.062500	0.468000
B31	B3	0.750000	0.750000	0.744500
B41	B4	0.255700	0.562500	0.032000
B51	B5	0.250000	0.750000	0.244500
B61	B6	0.250000	0.250000	0.255500
B71	B7	0.755700	0.062500	0.968000
B81	B8	0.244300	0.937500	0.032000
B91	B9	0.744300	0.437500	0.968000
B101	B10	0.255700	0.437500	0.468000
B111	B11	0.755700	0.937500	0.532000
B121	B12	0.250000	0.750000	0.822600
B131	B13	0.744300	0.562500	0.532000
B141	B14	0.750000	0.250000	0.177400
B151	B15	0.750000	0.250000	0.755500
B161	B16	0.250000	0.250000	0.677400
H11	H1	0.741000	0.314200	0.839400
H21	H2	0.409800	0.034500	0.404000
H31	H3	0.829700	0.961400	0.584300
H41	H4	0.118000	0.144400	0.576700
H51	H5	0.006000	0.593000	0.103900
H61	H6	0.562900	0.681200	0.440900
H71	H7	0.994000	0.593000	0.603900
H81	H8	0.392400	0.741400	0.059500
H91	H9	0.835600	0.661500	0.634200
H101	H10	0.648600	0.209800	0.026600
H111	H11	0.484900	0.557000	0.572600
H121	H12	0.764500	0.135800	0.289700
H131	H13	0.998400	0.076700	0.388800
H141	H14	0.253500	0.823300	0.983800
H151	H15	0.148600	0.709800	0.973400
H161	H16	0.487700	0.426800	0.025100
H171	H17	0.840200	0.977500	0.488500
H181	H18	0.724600	0.661200	0.404100
H191	H19	0.440400	0.769800	0.341100
H201	H20	0.484900	0.443000	0.927400
H211	H21	0.720900	0.197900	0.114100
H221	H22	0.726700	0.148100	0.928000
H231	H23	0.973000	0.562300	0.072600
H241	H24	0.660100	0.635900	0.920900
H251	H25	0.727200	0.380700	0.899700
H261	H26	0.765800	0.636700	0.858800
H271	H27	0.892400	0.241400	0.940500
H281	H28	0.851400	0.290200	0.026600
H291	H29	0.709400	0.828000	0.889400
H301	H30	0.759000	0.814200	0.660600
H311	H31	0.772800	0.880700	0.600300
H321	H32	0.609500	0.198200	0.883900
H331	H33	0.438700	0.402800	0.995700
H341	H34	0.647700	0.310800	0.055000
H351	H35	0.355200	0.674500	0.261000
H361	H36	0.618000	0.644400	0.423300
H371	H37	0.001600	0.076700	0.888800
H381	H38	0.541200	0.693000	0.198100
H391	H39	0.501600	0.423300	0.388800
H401	H40	0.452600	0.117800	0.923300
H411	H41	0.612300	0.503800	0.913800
H421	H42	0.420700	0.645800	0.630100
H431	H43	0.617800	0.718000	0.784900
H441	H44	0.920700	0.854200	0.130100
H451	H45	0.428200	0.800100	0.788600
H461	H46	0.387700	0.496200	0.086200
H471	H47	0.612300	0.496200	0.586200
H481	H48	0.890500	0.301800	0.883900
H491	H49	0.562600	0.793200	0.473000
H501	H50	0.984900	0.943000	0.072600
H511	H51	0.315900	0.506700	0.390800
H521	H52	0.522200	0.305500	0.261300
H531	H53	0.282100	0.975100	0.961200
H541	H54	0.602900	0.235200	0.996500
H551	H55	0.102900	0.735200	0.003500
H561	H56	0.743500	0.344500	0.136300
H571	H57	0.562900	0.318800	0.059100
H581	H58	0.886300	0.052600	0.039200
H591	H59	0.890500	0.698200	0.616100
H601	H60	0.291700	0.331200	0.821200
H611	H61	0.847200	0.215500	0.910400
H621	H62	0.892900	0.660800	0.313900
H631	H63	0.225600	0.644500	0.184600
H641	H64	0.680100	0.459000	0.423700
H651	H65	0.180100	0.041000	0.923700
H661	H66	0.512300	0.573200	0.974900
H671	H67	0.613700	0.552600	0.460800
H681	H68	0.079600	0.347100	0.362600
H691	H69	0.352800	0.428000	0.954900
H701	H70	0.958800	0.807000	0.198100
H711	H71	0.439400	0.684600	0.265300
H721	H72	0.390500	0.801800	0.116100
H731	H73	0.768600	0.635600	0.789800
H741	H74	0.477800	0.305500	0.761300
H751	H75	0.792000	0.640400	0.457400
H761	H76	0.514400	0.813000	0.824400
H771	H77	0.342500	0.804400	0.791400
H781	H78	0.059600	0.730200	0.341100
H791	H79	0.653500	0.843400	0.859800
H801	H80	0.756500	0.844500	0.363700
H811	H81	0.118000	0.855600	0.923300
H821	H82	0.342500	0.195600	0.708600
H831	H83	0.462400	0.815000	0.364500
H841	H84	0.031200	0.129100	0.027100
H851	H85	0.117800	0.782000	0.284900
H861	H86	0.547400	0.882200	0.076700
H871	H87	0.952600	0.382200	0.423300
H881	H88	0.531200	0.370900	0.527100
H891	H89	0.325700	0.953300	0.097100
H901	H90	0.176200	0.094200	0.106800
H911	H91	0.650300	0.845100	0.790700
H921	H92	0.152800	0.784500	0.089600
H931	H93	0.202200	0.330600	0.240800
H941	H94	0.323800	0.405800	0.106800
H951	H95	0.654200	0.654500	0.209500
H961	H96	0.852800	0.928000	0.045100
H971	H97	0.512300	0.426800	0.525100
H981	H98	0.756500	0.155500	0.136300
H991	H99	0.644800	0.674500	0.761000
H1001	H100	0.939400	0.815400	0.765300
H1011	H101	0.652600	0.876500	0.018200
H1021	H102	0.420700	0.354200	0.869900
H1031	H103	0.994000	0.407000	0.896100
H1041	H104	0.468800	0.370900	0.027100
H1051	H105	0.764500	0.864200	0.210300
H1061	H106	0.759000	0.185800	0.839400
H1071	H107	0.653500	0.156600	0.640200
H1081	H108	0.409800	0.965500	0.096000
H1091	H109	0.027000	0.562300	0.572600
H1101	H110	0.882000	0.144400	0.076700
H1111	H111	0.235500	0.864200	0.710300
H1121	H112	0.998400	0.923300	0.111200
H1131	H113	0.354700	0.025100	0.516500
H1141	H114	0.851500	0.844000	0.273700
H1151	H115	0.319900	0.459000	0.923700
H1161	H116	0.282100	0.024900	0.538800
H1171	H117	0.338000	0.981400	0.542300
H1181	H118	0.162000	0.481400	0.957700
H1191	H119	0.022200	0.805500	0.738700
H1201	H120	0.768600	0.364400	0.710200
H1211	H121	0.663800	0.078200	0.456800
H1221	H122	0.062600	0.706800	0.973000
H1231	H123	0.887700	0.996200	0.913800
H1241	H124	0.894000	0.091500	0.582800
H1251	H125	0.708000	0.859600	0.457400
H1261	H126	0.027000	0.437700	0.927400
H1271	H127	0.840200	0.022500	0.011500
H1281	H128	0.660100	0.364100	0.579100
H1291	H129	0.205700	0.095300	0.929400
H1301	H130	0.652600	0.123500	0.481800
H1311	H131	0.351400	0.790200	0.973400
H1321	H132	0.113700	0.052600	0.539200
H1331	H133	0.702200	0.169400	0.740800
H1341	H134	0.062900	0.818800	0.940900
H1351	H135	0.339900	0.364100	0.079100
H1361	H136	0.886300	0.947400	0.460800
H1371	H137	0.147700	0.810800	0.945000
H1381	H138	0.566800	0.284200	0.908800
H1391	H139	0.279100	0.683300	0.201000
H1401	H140	0.709400	0.172000	0.610600
H1411	H141	0.485600	0.813000	0.324400
H1421	H142	0.090200	0.465500	0.404000
H1431	H143	0.109500	0.301800	0.383900
H1441	H144	0.355700	0.008200	0.430200
H1451	H145	0.335600	0.838500	0.134200
H1461	H146	0.275400	0.661200	0.904100
H1471	H147	0.775400	0.838800	0.404100
H1481	H148	0.579600	0.152900	0.862600
H1491	H149	0.928200	0.699900	0.288600
H1501	H150	0.265800	0.136700	0.141200
H1511	H151	0.715100	0.324300	0.904700
H1521	H152	0.060600	0.815400	0.265300
H1531	H153	0.561800	0.260900	0.279200
H1541	H154	0.335600	0.161500	0.365800
H1551	H155	0.727200	0.619300	0.600300
H1561	H156	0.659800	0.477500	0.011500
H1571	H157	0.606000	0.591500	0.917200
H1581	H158	0.562600	0.206800	0.027000
H1591	H159	0.426100	0.518500	0.988300
H1601	H160	0.352300	0.689200	0.945000
H1611	H161	0.579300	0.354200	0.369900
H1621	H162	0.618000	0.355600	0.076700
H1631	H163	0.892900	0.339200	0.186100
H1641	H164	0.527000	0.062300	0.427400
H1651	H165	0.180100	0.959000	0.576300
H1661	H166	0.300000	0.667900	0.806000
H1671	H167	0.346500	0.843400	0.359800
H1681	H168	0.144300	0.508200	0.069800
H1691	H169	0.451900	0.529000	0.605300
H1701	H170	0.705700	0.595300	0.070600
H1711	H171	0.647700	0.689200	0.445000
H1721	H172	0.952600	0.617800	0.076700
H1731	H173	0.437100	0.318800	0.559100
H1741	H174	0.674300	0.046700	0.902900
H1751	H175	0.349700	0.154900	0.209300
H1761	H176	0.437400	0.206800	0.527000
H1771	H177	0.897100	0.264800	0.996500
H1781	H178	0.433200	0.284200	0.408800
H1791	H179	0.769800	0.121400	0.017000
H1801	H180	0.272800	0.619300	0.100300
H1811	H181	0.174300	0.546700	0.097100
H1821	H182	0.771200	0.135400	0.225500
H1831	H183	0.985600	0.687000	0.824400
H1841	H184	0.800000	0.167900	0.194000
H1851	H185	0.790600	0.672000	0.889400
H1861	H186	0.451900	0.471000	0.894700
H1871	H187	0.347400	0.123500	0.981800
H1881	H188	0.392900	0.839200	0.813900
H1891	H189	0.823800	0.905800	0.893200
H1901	H190	0.940400	0.730200	0.841100
H1911	H191	0.984900	0.057000	0.427400
H1921	H192	0.220900	0.183300	0.299000
H1931	H193	0.847400	0.623500	0.018200
H1941	H194	0.148600	0.290200	0.526600
H1951	H195	0.148500	0.844000	0.773700
H1961	H196	0.113700	0.947400	0.960800
H1971	H197	0.838000	0.481400	0.457700
H1981	H198	0.144300	0.491800	0.430200
H1991	H199	0.522200	0.694500	0.238700
H2001	H200	0.079600	0.652900	0.137400
H2011	H201	0.515100	0.443000	0.427400
H2021	H202	0.684100	0.506700	0.890800
H2031	H203	0.284900	0.675700	0.095300
H2041	H204	0.231400	0.635600	0.289800
H2051	H205	0.275700	0.119000	0.959000
H2061	H206	0.273300	0.851900	0.072000
H2071	H207	0.268600	0.135600	0.210200
H2081	H208	0.224300	0.381000	0.959000
H2091	H209	0.790600	0.328000	0.610600
H2101	H210	0.394000	0.408500	0.082800
H2111	H211	0.735500	0.635800	0.210300
H2121	H212	0.382000	0.644400	0.923300
H2131	H213	0.351500	0.344000	0.726300
H2141	H214	0.498400	0.423300	0.888800
H2151	H215	0.382200	0.282000	0.215100
H2161	H216	0.160100	0.135900	0.079100
H2171	H217	0.329700	0.538600	0.084300
H2181	H218	0.226700	0.648100	0.072000
H2191	H219	0.730200	0.378600	0.017000
H2201	H220	0.220900	0.302100	0.614100
H2211	H221	0.275700	0.881000	0.541000
H2221	H222	0.347400	0.876500	0.518200
H2231	H223	0.061800	0.760900	0.720800
H2241	H224	0.664400	0.161500	0.865800
H2251	H225	0.153500	0.656600	0.359800
H2261	H226	0.268600	0.864400	0.289800
H2271	H227	0.217900	0.524900	0.961200
H2281	H228	0.664400	0.838500	0.634200
H2291	H229	0.794300	0.904700	0.070600
H2301	H230	0.773300	0.351900	0.928000
H2311	H231	0.433200	0.715800	0.091200
H2321	H232	0.420400	0.847100	0.137400
H2331	H233	0.920400	0.347100	0.862600
H2341	H234	0.962400	0.315000	0.635500
H2351	H235	0.354700	0.974900	0.983500
H2361	H236	0.170300	0.038600	0.415700
H2371	H237	0.428200	0.199900	0.711400
H2381	H238	0.847400	0.376500	0.481800
H2391	H239	0.073900	0.018500	0.511700
H2401	H240	0.145300	0.474900	0.516500
H2411	H241	0.987700	0.073200	0.525100
H2421	H242	0.753500	0.323300	0.016200
H2431	H243	0.938200	0.239100	0.279200
H2441	H244	0.022200	0.194500	0.761300
H2451	H245	0.720900	0.802100	0.385900
H2461	H246	0.106000	0.908500	0.417200
H2471	H247	0.909800	0.465500	0.904000
H2481	H248	0.561300	0.597200	0.004300
H2491	H249	0.846500	0.656600	0.859800
H2501	H250	0.297800	0.169400	0.240800
H2511	H251	0.648500	0.344000	0.226300
H2521	H252	0.607600	0.258600	0.940500
H2531	H253	0.145300	0.525100	0.983500
H2541	H254	0.928200	0.300100	0.211400
H2551	H255	0.215100	0.175700	0.404700
H2561	H256	0.351400	0.209800	0.526600
H2571	H257	0.541200	0.307000	0.301900
H2581	H258	0.791700	0.168800	0.321200
H2591	H259	0.730200	0.621400	0.483000
H2601	H260	0.882200	0.218000	0.715100
H2611	H261	0.284900	0.324300	0.404700
H2621	H262	0.066800	0.215800	0.408800
H2631	H263	0.162000	0.518600	0.542300
H2641	H264	0.735500	0.364200	0.289700
H2651	H265	0.329700	0.461400	0.415700
H2661	H266	0.909800	0.534500	0.596000
H2671	H267	0.290600	0.172000	0.110600
H2681	H268	0.336200	0.921800	0.543200
H2691	H269	0.573900	0.481500	0.011700
H2701	H270	0.347200	0.715500	0.089600
H2711	H271	0.163800	0.421800	0.956800
H2721	H272	0.708000	0.140400	0.042600
H2731	H273	0.724300	0.881000	0.041000
H2741	H274	0.851500	0.156000	0.226300
H2751	H275	0.355200	0.325500	0.239000
H2761	H276	0.200000	0.167900	0.694000
H2771	H277	0.159800	0.022500	0.511500
H2781	H278	0.012300	0.073200	0.025100
H2791	H279	0.527000	0.937700	0.072600
H2801	H280	0.676200	0.594200	0.893200
H2811	H281	0.717900	0.975100	0.461200
H2821	H282	0.220900	0.816700	0.201000
H2831	H283	0.274400	0.144500	0.315400
H2841	H284	0.559600	0.769800	0.841100
H2851	H285	0.147200	0.928000	0.545100
H2861	H286	0.397100	0.764800	0.003500
H2871	H287	0.462400	0.185000	0.135500
H2881	H288	0.937100	0.818800	0.440900
H2891	H289	0.852800	0.072000	0.454900
H2901	H290	0.845800	0.154500	0.290500
H2911	H291	0.607100	0.160800	0.186100
H2921	H292	0.937100	0.181200	0.059100
H2931	H293	0.291700	0.668800	0.678800
H2941	H294	0.208300	0.831200	0.678800
H2951	H295	0.227200	0.880700	0.100300
H2961	H296	0.647200	0.572000	0.045100
H2971	H297	0.494000	0.093000	0.396100
H2981	H298	0.264500	0.364200	0.789700
H2991	H299	0.473000	0.062300	0.927400
H3001	H300	0.506000	0.093000	0.896100
H3011	H301	0.939400	0.184600	0.734700
H3021	H302	0.336200	0.078200	0.956800
H3031	H303	0.775700	0.619000	0.041000
H3041	H304	0.345800	0.654500	0.709500
H3051	H305	0.224300	0.619000	0.541000
H3061	H306	0.836200	0.578200	0.043200
H3071	H307	0.958800	0.193000	0.301900
H3081	H308	0.048100	0.971000	0.605300
H3091	H309	0.241000	0.185800	0.339400
H3101	H310	0.154200	0.154500	0.790500
H3111	H311	0.438700	0.597200	0.504300
H3121	H312	0.662000	0.018600	0.457700
H3131	H313	0.061300	0.097200	0.995700
H3141	H314	0.648600	0.790200	0.473400
H3151	H315	0.772800	0.119300	0.899700
H3161	H316	0.985600	0.313000	0.675600
H3171	H317	0.839900	0.864100	0.920900
H3181	H318	0.933200	0.215800	0.908800
H3191	H319	0.112300	0.003800	0.086200
H3201	H320	0.272800	0.380700	0.399700
H3211	H321	0.345800	0.345500	0.790500
H3221	H322	0.836200	0.421800	0.456800
H3231	H323	0.779100	0.697900	0.385900
H3241	H324	0.230200	0.121400	0.517000
H3251	H325	0.849700	0.345100	0.709300
H3261	H326	0.973000	0.437700	0.427400
H3271	H327	0.887700	0.003800	0.586200
H3281	H328	0.774400	0.355500	0.815400
H3291	H329	0.731400	0.135600	0.710200
H3301	H330	0.323800	0.594200	0.393200
H3311	H331	0.259000	0.314200	0.339400
H3321	H332	0.047400	0.382200	0.923300
H3331	H333	0.256500	0.655500	0.863700
H3341	H334	0.006000	0.407000	0.396100
H3351	H335	0.220900	0.697900	0.885900
H3361	H336	0.147700	0.189200	0.555000
H3371	H337	0.246500	0.323300	0.516200
H3381	H338	0.951900	0.029000	0.394700
H3391	H339	0.106000	0.091500	0.082800
H3401	H340	0.224600	0.838800	0.904100
H3411	H341	0.208000	0.359600	0.542600
H3421	H342	0.938700	0.902800	0.004300
H3431	H343	0.487700	0.573200	0.474900
H3441	H344	0.031200	0.870900	0.472900
H3451	H345	0.226700	0.351900	0.428000
H3461	H346	0.849700	0.654900	0.790700
H3471	H347	0.579300	0.645800	0.130100
H3481	H348	0.394000	0.591500	0.417200
H3491	H349	0.920400	0.652900	0.637400
H3501	H350	0.274400	0.855500	0.184600
H3511	H351	0.060600	0.184600	0.234700
H3521	H352	0.854700	0.525100	0.483500
H3531	H353	0.800000	0.832100	0.306000
H3541	H354	0.208300	0.168800	0.821200
H3551	H355	0.340200	0.477500	0.511500
H3561	H356	0.209400	0.328000	0.110600
H3571	H357	0.352300	0.310800	0.555000
H3581	H358	0.152600	0.376500	0.981800
H3591	H359	0.559600	0.230200	0.658900
H3601	H360	0.059600	0.269800	0.158900
H3611	H361	0.235500	0.135800	0.789700
H3621	H362	0.724600	0.338800	0.095900
H3631	H363	0.259000	0.685800	0.160600
H3641	H364	0.566800	0.715800	0.591200
H3651	H365	0.590200	0.965500	0.596000
H3661	H366	0.061800	0.239100	0.779200
H3671	H367	0.725600	0.855500	0.684600
H3681	H368	0.047400	0.617800	0.576700
H3691	H369	0.494000	0.907000	0.103900
H3701	H370	0.571800	0.800100	0.288600
H3711	H371	0.720900	0.316700	0.799000
H3721	H372	0.731400	0.864400	0.789800
H3731	H373	0.230200	0.878600	0.983000
H3741	H374	0.531200	0.629100	0.972900
H3751	H375	0.647200	0.428000	0.454900
H3761	H376	0.256500	0.344500	0.636300
H3771	H377	0.107100	0.339200	0.686100
H3781	H378	0.717900	0.024900	0.038800
H3791	H379	0.680100	0.541000	0.076300
H3801	H380	0.743500	0.655500	0.363700
H3811	H381	0.882200	0.782000	0.784900
H3821	H382	0.741000	0.685800	0.660600
H3831	H383	0.153500	0.343400	0.140200
H3841	H384	0.726700	0.851900	0.572000
H3851	H385	0.339900	0.635900	0.420900
H3861	H386	0.882000	0.855600	0.423300
H3871	H387	0.654200	0.345500	0.290500
H3881	H388	0.209400	0.672000	0.389400
H3891	H389	0.962400	0.685000	0.864500
H3901	H390	0.700000	0.332100	0.194000
H3911	H391	0.815900	0.006700	0.609200
H3921	H392	0.897100	0.735200	0.503500
H3931	H393	0.144800	0.174500	0.239000
H3941	H394	0.705700	0.404700	0.429400
H3951	H395	0.652800	0.284500	0.910400
H3961	H396	0.071800	0.699900	0.788600
H3971	H397	0.102900	0.264800	0.496500
H3981	H398	0.012300	0.926800	0.474900
H3991	H399	0.117800	0.218000	0.215100
H4001	H400	0.926100	0.981500	0.488300
H4011	H401	0.246500	0.676700	0.983800
H4021	H402	0.392900	0.160800	0.686100
H4031	H403	0.782100	0.475100	0.038800
H4041	H404	0.779100	0.302100	0.114100
H4051	H405	0.292000	0.140400	0.542600
H4061	H406	0.061300	0.902800	0.504300
H4071	H407	0.746500	0.823300	0.483800
H4081	H408	0.537600	0.815000	0.864500
H4091	H409	0.847200	0.784500	0.589600
H4101	H410	0.609500	0.801800	0.616100
H4111	H411	0.728800	0.364600	0.225500
H4121	H412	0.838000	0.518600	0.042300
H4131	H413	0.264500	0.635800	0.710300
H4141	H414	0.561800	0.739100	0.220800
H4151	H415	0.420400	0.152900	0.362600
H4161	H416	0.846500	0.343400	0.640200
H4171	H417	0.208000	0.640400	0.957400
H4181	H418	0.657500	0.804400	0.291400
H4191	H419	0.784900	0.824300	0.595300
H4201	H420	0.157500	0.304400	0.708600
H4211	H421	0.670300	0.538600	0.584300
H4221	H422	0.231400	0.364400	0.210200
H4231	H423	0.645300	0.974900	0.483500
H4241	H424	0.670300	0.461400	0.915700
H4251	H425	0.648500	0.656000	0.273700
H4261	H426	0.579600	0.847100	0.637400
H4271	H427	0.150300	0.345100	0.209300
H4281	H428	0.725600	0.144500	0.815400
H4291	H429	0.152600	0.623500	0.518200
H4301	H430	0.347200	0.284500	0.410400
H4311	H431	0.855700	0.491800	0.930200
H4321	H432	0.547400	0.117800	0.423300
H4331	H433	0.382000	0.355600	0.576700
H4341	H434	0.938700	0.097200	0.495700
H4351	H435	0.234200	0.636700	0.358800
H4361	H436	0.468800	0.629100	0.472900
H4371	H437	0.224600	0.161200	0.595900
H4381	H438	0.015100	0.943000	0.572600
H4391	H439	0.438200	0.739100	0.720800
H4401	H440	0.644800	0.325500	0.739000
H4411	H441	0.473000	0.937700	0.572600
H4421	H442	0.090200	0.534500	0.096000
H4431	H443	0.294300	0.595300	0.570600
H4441	H444	0.708300	0.331200	0.321200
H4451	H445	0.734200	0.136700	0.641200
H4461	H446	0.842500	0.695600	0.291400
H4471	H447	0.297800	0.830600	0.259200
H4481	H448	0.765800	0.363300	0.641200
H4491	H449	0.892400	0.758600	0.559500
H4501	H450	0.107100	0.660800	0.813900
H4511	H451	0.325700	0.046700	0.402900
H4521	H452	0.048100	0.029000	0.894700
H4531	H453	0.773300	0.648100	0.572000
H4541	H454	0.150300	0.654900	0.290700
H4551	H455	0.851400	0.709800	0.473400
H4561	H456	0.645300	0.025100	0.016500
H4571	H457	0.951900	0.971000	0.105300
H4581	H458	0.109500	0.698200	0.116100
H4591	H459	0.977800	0.805500	0.238700
H4601	H460	0.734200	0.863300	0.858800
H4611	H461	0.659800	0.522500	0.488500
H4621	H462	0.340200	0.522500	0.988500
H4631	H463	0.292000	0.859600	0.957400
H4641	H464	0.515100	0.557000	0.072600
H4651	H465	0.265800	0.863300	0.358800
H4661	H466	0.041200	0.807000	0.698100
H4671	H467	0.073900	0.981500	0.988300
H4681	H468	0.477800	0.694500	0.738700
H4691	H469	0.352800	0.572000	0.545100
H4701	H470	0.079300	0.145800	0.869900
H4711	H471	0.163800	0.578200	0.543200
H4721	H472	0.815900	0.993300	0.890800
H4731	H473	0.271200	0.364600	0.725500
H4741	H474	0.438200	0.260900	0.779200
H4751	H475	0.724300	0.119000	0.459000
H4761	H476	0.107600	0.758600	0.059500
H4771	H477	0.560600	0.315400	0.734700
H4781	H478	0.938200	0.760900	0.220800
H4791	H479	0.548100	0.471000	0.394700
H4801	H480	0.501600	0.576700	0.111200
H4811	H481	0.225600	0.355500	0.315400
H4821	H482	0.794300	0.095300	0.429400
H4831	H483	0.537600	0.185000	0.635500
H4841	H484	0.657500	0.195600	0.208600
H4851	H485	0.200000	0.832100	0.806000
H4861	H486	0.560600	0.684600	0.765300
H4871	H487	0.784900	0.175700	0.904700
H4881	H488	0.819900	0.041000	0.423700
H4891	H489	0.215100	0.824300	0.095300
H4901	H490	0.154200	0.845500	0.709500
H4911	H491	0.014400	0.313000	0.175600
H4921	H492	0.349700	0.845100	0.290700
H4931	H493	0.160100	0.864100	0.420900
H4941	H494	0.548100	0.529000	0.105300
H4951	H495	0.440400	0.230200	0.158900
H4961	H496	0.829700	0.038600	0.915700
H4971	H497	0.279100	0.316700	0.299000
H4981	H498	0.184100	0.006700	0.109200
H4991	H499	0.452600	0.882200	0.576700
H5001	H500	0.968800	0.129100	0.527100
H5011	H501	0.062600	0.293200	0.527000
H5021	H502	0.792000	0.359600	0.042600
H5031	H503	0.700000	0.667900	0.306000
H5041	H504	0.279100	0.802100	0.885900
H5051	H505	0.819900	0.959000	0.076300
H5061	H506	0.774400	0.644500	0.684600
H5071	H507	0.720900	0.683300	0.701000
H5081	H508	0.987700	0.926800	0.974900
H5091	H509	0.940400	0.269800	0.658900
H5101	H510	0.835600	0.338500	0.865800
H5111	H511	0.506000	0.907000	0.603900
H5121	H512	0.392400	0.258600	0.440500
H5131	H513	0.839900	0.135900	0.579100
H5141	H514	0.926100	0.018500	0.011700
H5151	H515	0.855700	0.508200	0.569800
H5161	H516	0.779100	0.816700	0.701000
H5171	H517	0.144800	0.825500	0.261000
H5181	H518	0.279100	0.197900	0.614100
H5191	H519	0.602900	0.764800	0.503500
H5201	H520	0.437400	0.793200	0.973000
H5211	H521	0.170300	0.961400	0.084300
H5221	H522	0.164400	0.661500	0.134200
H5231	H523	0.458800	0.307000	0.801900
H5241	H524	0.855200	0.825500	0.761000
H5251	H525	0.937400	0.706800	0.473000
H5261	H526	0.228800	0.864600	0.774500
H5271	H527	0.823800	0.094200	0.606800
H5281	H528	0.037600	0.685000	0.364500
H5291	H529	0.271200	0.635400	0.774500
H5301	H530	0.243500	0.844500	0.863700
H5311	H531	0.607100	0.839200	0.313900
H5321	H532	0.674300	0.953300	0.597100
H5331	H533	0.315900	0.493300	0.109200
H5341	H534	0.386300	0.447400	0.539200
H5351	H535	0.346500	0.156600	0.140200
H5361	H536	0.390500	0.198200	0.383900
H5371	H537	0.662000	0.981400	0.042300
H5381	H538	0.458800	0.693000	0.698100
H5391	H539	0.387700	0.503800	0.413800
H5401	H540	0.176200	0.905800	0.393200
H5411	H541	0.351500	0.656000	0.773700
H5421	H542	0.791700	0.831200	0.178800
H5431	H543	0.290600	0.828000	0.389400
H5441	H544	0.382200	0.718000	0.284900
H5451	H545	0.107600	0.241400	0.440500
H5461	H546	0.269800	0.378600	0.517000
H5471	H547	0.273300	0.148100	0.428000
H5481	H548	0.644300	0.991800	0.569800
H5491	H549	0.797800	0.330600	0.740800
H5501	H550	0.676200	0.405800	0.606800
H5511	H551	0.684100	0.493300	0.609200
H5521	H552	0.894000	0.908500	0.917200
H5531	H553	0.147200	0.072000	0.954900
H5541	H554	0.779100	0.183300	0.799000
H5551	H555	0.397100	0.235200	0.496500
H5561	H556	0.062900	0.181200	0.559100
H5571	H557	0.708300	0.668800	0.178800
H5581	H558	0.842500	0.304400	0.208600
H5591	H559	0.775700	0.381000	0.459000
H5601	H560	0.174300	0.453300	0.402900
H5611	H561	0.243500	0.155500	0.636300
H5621	H562	0.968800	0.870900	0.972900
H5631	H563	0.590200	0.034500	0.904000
H5641	H564	0.728800	0.635400	0.274500
H5651	H565	0.782100	0.524900	0.461200
H5661	H566	0.825700	0.546700	0.597100
H5671	H567	0.112300	0.996200	0.413800
H5681	H568	0.769800	0.878600	0.483000
H5691	H569	0.845800	0.845500	0.209500
H5701	H570	0.852300	0.810800	0.445000
H5711	H571	0.148500	0.156000	0.726300
H5721	H572	0.253500	0.176700	0.516200
H5731	H573	0.228800	0.135400	0.725500
H5741	H574	0.644300	0.008200	0.930200
H5751	H575	0.797800	0.669400	0.759200
H5761	H576	0.775400	0.161200	0.095900
H5771	H577	0.355700	0.991800	0.069800
H5781	H578	0.771200	0.864600	0.274500
H5791	H579	0.571800	0.199900	0.211400
H5801	H580	0.753500	0.676700	0.483800
H5811	H581	0.227200	0.119300	0.399700
H5821	H582	0.217900	0.475100	0.538800
H5831	H583	0.933200	0.784200	0.591200
H5841	H584	0.157500	0.695600	0.791400
H5851	H585	0.300000	0.332100	0.694000
H5861	H586	0.607600	0.741400	0.559500
H5871	H587	0.613700	0.447400	0.039200
H5881	H588	0.071800	0.300100	0.711400
H5891	H589	0.561300	0.402800	0.495700
H5901	H590	0.202200	0.669400	0.259200
H5911	H591	0.241000	0.814200	0.160600
H5921	H592	0.319900	0.541000	0.576300
H5931	H593	0.825700	0.453300	0.902900
H5941	H594	0.855200	0.174500	0.739000
H5951	H595	0.485600	0.187000	0.175600
H5961	H596	0.650300	0.154900	0.709300
H5971	H597	0.014400	0.687000	0.324400
H5981	H598	0.715100	0.675700	0.595300
H5991	H599	0.663800	0.921800	0.043200
H6001	H600	0.205700	0.904700	0.570600
H6011	H601	0.234200	0.363300	0.141200
H6021	H602	0.920700	0.145800	0.369900
H6031	H603	0.294300	0.404700	0.929400
H6041	H604	0.937400	0.293200	0.027000
H6051	H605	0.275400	0.338800	0.595900
H6061	H606	0.498400	0.576700	0.611200
H6071	H607	0.159800	0.977500	0.988500
H6081	H608	0.041200	0.193000	0.801900
H6091	H609	0.514400	0.187000	0.675600
H6101	H610	0.606000	0.408500	0.582800
H6111	H611	0.426100	0.481500	0.511700
H6121	H612	0.437100	0.681200	0.940900
H6131	H613	0.617800	0.282000	0.715100
H6141	H614	0.652800	0.715500	0.589600
H6151	H615	0.152800	0.215500	0.410400
H6161	H616	0.001600	0.923300	0.611200
H6171	H617	0.338000	0.018600	0.957700
H6181	H618	0.015100	0.057000	0.927400
H6191	H619	0.746500	0.176700	0.016200
H6201	H620	0.164400	0.338500	0.365800
H6211	H621	0.439400	0.315400	0.234700
H6221	H622	0.066800	0.784200	0.091200
H6231	H623	0.573900	0.518500	0.488300
H6241	H624	0.386300	0.552600	0.960800
H6251	H625	0.184100	0.993300	0.390800
H6261	H626	0.702200	0.830600	0.759200
H6271	H627	0.269800	0.621400	0.983000
H6281	H628	0.977800	0.194500	0.261300
H6291	H629	0.079300	0.854200	0.630100
H6301	H630	0.037600	0.315000	0.135500
H6311	H631	0.854700	0.474900	0.016500
H6321	H632	0.852300	0.189200	0.055000
C11	C1	0.112100	0.306800	0.695700
C21	C2	0.133800	0.461600	0.418100
C31	C3	0.774600	0.426820	0.502780
C41	C4	0.047600	0.844370	0.032390
C51	C5	0.740900	0.821900	0.683900
C61	C6	0.167200	0.864800	0.055260
C71	C7	0.612000	0.363000	0.387600
C81	C8	0.250000	0.250000	0.139300
C91	C9	0.250000	0.250000	0.099700
C101	C10	0.750000	0.250000	0.333400
C111	C11	0.828300	0.367900	0.991270
C121	C12	0.843500	0.898700	0.916400
C131	C13	0.667200	0.635200	0.555260
C141	C14	0.608200	0.300500	0.736400
C151	C15	0.950600	0.885700	0.510770
C161	C16	0.389400	0.734300	0.230890
C171	C17	0.204100	0.837400	0.703800
C181	C18	0.296100	0.835600	0.364600
C191	C19	0.981600	0.678900	0.032700
C201	C20	0.450000	0.737100	0.208600
C211	C21	0.688000	0.898900	0.027800
C221	C22	0.536000	0.560700	0.095800
C231	C23	0.676700	0.789300	0.692410
C241	C24	0.835000	0.073100	0.430900
C251	C25	0.011600	0.738800	0.649800
C261	C26	0.018400	0.678900	0.532700
C271	C27	0.332800	0.635200	0.055260
C281	C28	0.172200	0.788400	0.873200
C291	C29	0.609600	0.321900	0.070700
C301	C30	0.884000	0.707900	0.670090
C311	C31	0.017400	0.189300	0.967500
C321	C32	0.773300	0.208100	0.275700
C331	C33	0.048900	0.238000	0.614000
C341	C34	0.750000	0.250000	0.293800
C351	C35	0.887900	0.269500	0.165410
C361	C36	0.312000	0.101100	0.972200
C371	C37	0.199800	0.073380	0.055570
C381	C38	0.548900	0.738000	0.386000
C391	C39	0.165000	0.073100	0.930900
C401	C40	0.234400	0.153700	0.027700
C411	C41	0.169000	0.906060	0.033640
C421	C42	0.110600	0.765700	0.230890
C431	C43	0.796100	0.664400	0.864600
C441	C44	0.331000	0.406060	0.466360
C451	C45	0.522300	0.206100	0.654500
C461	C46	0.669000	0.593940	0.533640
C471	C47	0.512800	0.262700	0.588800
C481	C48	0.773800	0.145500	0.916600
C491	C49	0.174000	0.260400	0.277190
C501	C50	0.616000	0.792100	0.670090
C511	C51	0.108200	0.800500	0.263600
C521	C52	0.750000	0.750000	0.786400
C531	C53	0.273800	0.354500	0.416600
C541	C54	0.378200	0.079920	0.445660
C551	C55	0.109600	0.178100	0.570700
C561	C56	0.950600	0.114300	0.989230
C571	C57	0.297300	0.477510	0.056610
C581	C58	0.250000	0.250000	0.213600
C591	C59	0.052000	0.351170	0.466970
C601	C60	0.490900	0.906000	0.579500
C611	C61	0.012800	0.762700	0.411200
C621	C62	0.026200	0.213700	0.782600
C631	C63	0.385200	0.459900	0.515300
C641	C64	0.549900	0.232200	0.144000
C651	C65	0.394600	0.207400	0.512100
C661	C66	0.549400	0.385700	0.989230
C671	C67	0.477700	0.793900	0.345500
C681	C68	0.250000	0.250000	0.833400
C691	C69	0.621800	0.920080	0.554340
C701	C70	0.450600	0.614300	0.010770
C711	C71	0.610600	0.265700	0.769110
C721	C72	0.335000	0.426900	0.930900
C731	C73	0.987200	0.237300	0.588800
C741	C74	0.387900	0.193200	0.695700
C751	C75	0.241500	0.003050	0.469260
C761	C76	0.199900	0.337200	0.215700
C771	C77	0.750000	0.250000	0.639300
C781	C78	0.183300	0.495200	0.526200
C791	C79	0.112100	0.730500	0.834590
C801	C80	0.133800	0.538400	0.081900
C811	C81	0.116000	0.707900	0.170090
C821	C82	0.608500	0.839330	0.509730
C831	C83	0.887900	0.306800	0.195700
C841	C84	0.391800	0.699500	0.263600
C851	C85	0.022300	0.293900	0.154500
C861	C86	0.774800	0.208300	0.238300
C871	C87	0.550000	0.737100	0.708600
C881	C88	0.826000	0.739600	0.722810
C891	C89	0.393500	0.666080	0.054640
C901	C90	0.204100	0.162600	0.796200
C911	C91	0.729300	0.856300	0.480600
C921	C92	0.889800	0.083490	0.988600
C931	C93	0.888000	0.863000	0.112400
C941	C94	0.178300	0.408200	0.468970
C951	C95	0.273200	0.207800	0.157400
C961	C96	0.390000	0.290100	0.605430
C971	C97	0.106500	0.833920	0.054640
C981	C98	0.552000	0.851170	0.533030
C991	C99	0.750000	0.750000	0.860700
C1001	C100	0.259100	0.178100	0.316100
C1011	C101	0.722600	0.022290	0.503820
C1021	C102	0.323300	0.210700	0.307590
C1031	C103	0.226700	0.208100	0.775700
C1041	C104	0.390000	0.709900	0.894570
C1051	C105	0.826000	0.260400	0.777190
C1061	C106	0.520600	0.602300	0.988600
C1071	C107	0.450600	0.385700	0.489230
C1081	C108	0.735800	0.598720	0.971350
C1091	C109	0.225400	0.573180	0.497220
C1101	C110	0.009100	0.406000	0.920500
C1111	C111	0.108200	0.199500	0.236400
C1121	C112	0.258500	0.496950	0.469260
C1131	C113	0.988400	0.738800	0.149800
C1141	C114	0.273300	0.708100	0.724300
C1151	C115	0.394600	0.792600	0.987900
C1161	C116	0.387900	0.806800	0.804300
C1171	C117	0.117500	0.322700	0.363700
C1181	C118	0.517400	0.310700	0.467500
C1191	C119	0.673200	0.741300	0.343190
C1201	C120	0.235800	0.901280	0.471350
C1211	C121	0.990900	0.406000	0.420500
C1221	C122	0.110200	0.083490	0.488600
C1231	C123	0.300100	0.162800	0.215700
C1241	C124	0.770700	0.356300	0.019400
C1251	C125	0.165000	0.926900	0.569100
C1261	C126	0.473800	0.286300	0.782600
C1271	C127	0.621800	0.079920	0.945660
C1281	C128	0.511600	0.238800	0.350200
C1291	C129	0.831000	0.093940	0.966360
C1301	C130	0.835000	0.926900	0.069100
C1311	C131	0.750000	0.750000	0.280200
C1321	C132	0.726700	0.291900	0.275700
C1331	C133	0.777400	0.477710	0.503820
C1341	C134	0.240900	0.321900	0.316100
C1351	C135	0.110000	0.209900	0.605430
C1361	C136	0.547600	0.344370	0.967610
C1371	C137	0.448000	0.851170	0.033030
C1381	C138	0.608500	0.160670	0.990270
C1391	C139	0.704100	0.337400	0.296200
C1401	C140	0.387900	0.769500	0.834590
C1411	C141	0.759100	0.678100	0.683900
C1421	C142	0.202700	0.977510	0.443390
C1431	C143	0.522300	0.793900	0.845500
C1441	C144	0.823300	0.710700	0.692410
C1451	C145	0.250000	0.750000	0.544900
C1461	C146	0.274600	0.073180	0.002780
C1471	C147	0.388000	0.637000	0.612400
C1481	C148	0.052000	0.648830	0.033030
C1491	C149	0.889400	0.765700	0.730890
C1501	C150	0.270700	0.143700	0.519400
C1511	C151	0.321700	0.091800	0.468970
C1521	C152	0.885200	0.040100	0.015300
C1531	C153	0.391800	0.300500	0.236400
C1541	C154	0.482600	0.310700	0.967500
C1551	C155	0.882500	0.322700	0.863700
C1561	C156	0.020600	0.897700	0.488600
C1571	C157	0.734400	0.346300	0.527700
C1581	C158	0.890400	0.821900	0.429300
C1591	C159	0.552600	0.766000	0.678180
C1601	C160	0.605400	0.207400	0.012100
C1611	C161	0.558600	0.891500	0.555340
C1621	C162	0.447400	0.766000	0.178180
C1631	C163	0.612100	0.769500	0.334590
C1641	C164	0.264200	0.401280	0.028650
C1651	C165	0.274800	0.708300	0.761700
C1661	C166	0.172200	0.211600	0.626800
C1671	C167	0.336200	0.503800	0.086900
C1681	C168	0.740900	0.178100	0.816100
C1691	C169	0.326800	0.258700	0.656810
C1701	C170	0.750000	0.250000	0.599700
C1711	C171	0.890000	0.790100	0.394570
C1721	C172	0.827800	0.788400	0.373200
C1731	C173	0.698100	0.662700	0.280700
C1741	C174	0.549900	0.767800	0.356000
C1751	C175	0.316700	0.995200	0.973800
C1761	C176	0.188000	0.601100	0.527800
C1771	C177	0.389800	0.416510	0.488600
C1781	C178	0.473800	0.713700	0.717400
C1791	C179	0.726800	0.792200	0.842600
C1801	C180	0.112000	0.137000	0.887600
C1811	C181	0.893500	0.166080	0.945360
C1821	C182	0.890000	0.209900	0.105430
C1831	C183	0.633800	0.961600	0.581900
C1841	C184	0.116000	0.292100	0.329910
C1851	C185	0.295900	0.337400	0.796200
C1861	C186	0.777400	0.522290	0.996180
C1871	C187	0.183300	0.504800	0.973800
C1881	C188	0.941400	0.608500	0.555340
C1891	C189	0.509100	0.094000	0.420500
C1901	C190	0.894600	0.292600	0.012100
C1911	C191	0.548900	0.262000	0.114000
C1921	C192	0.301900	0.337300	0.719300
C1931	C193	0.321700	0.908200	0.031030
C1941	C194	0.112100	0.269500	0.665410
C1951	C195	0.764200	0.098720	0.528650
C1961	C196	0.891400	0.214200	0.924300
C1971	C197	0.052600	0.266000	0.321820
C1981	C198	0.774800	0.791700	0.261700
C1991	C199	0.366200	0.038400	0.418100
C2001	C200	0.669000	0.406060	0.966360
C2011	C201	0.017400	0.810700	0.532500
C2021	C202	0.022300	0.706100	0.345500
C2031	C203	0.549400	0.614300	0.510770
C2041	C204	0.656500	0.601300	0.916400
C2051	C205	0.891800	0.199500	0.736400
C2061	C206	0.726200	0.354500	0.916600
C2071	C207	0.384000	0.207900	0.329910
C2081	C208	0.608200	0.699500	0.763600
C2091	C209	0.774600	0.573180	0.997220
C2101	C210	0.617500	0.822700	0.636300
C2111	C211	0.163800	0.996200	0.086900
C2121	C212	0.198100	0.162700	0.719300
C2131	C213	0.550000	0.262900	0.791400
C2141	C214	0.450100	0.767800	0.856000
C2151	C215	0.816700	0.495200	0.026200
C2161	C216	0.552000	0.148830	0.966970
C2171	C217	0.169000	0.093940	0.466360
C2181	C218	0.765600	0.846300	0.972300
C2191	C219	0.801900	0.837300	0.280700
C2201	C220	0.274600	0.926820	0.497220
C2211	C221	0.672200	0.288400	0.126800
C2221	C222	0.482600	0.689300	0.532500
C2231	C223	0.250000	0.250000	0.793800
C2241	C224	0.605400	0.792600	0.487900
C2251	C225	0.726700	0.708100	0.224300
C2261	C226	0.110000	0.790100	0.894570
C2271	C227	0.323300	0.789300	0.192410
C2281	C228	0.617500	0.177300	0.863700
C2291	C229	0.891500	0.660670	0.509730
C2301	C230	0.759100	0.321900	0.816100
C2311	C231	0.176700	0.289300	0.307590
C2321	C232	0.171700	0.367900	0.491270
C2331	C233	0.836200	0.003800	0.913100
C2341	C234	0.663800	0.496200	0.913100
C2351	C235	0.250000	0.750000	0.706200
C2361	C236	0.328300	0.867900	0.008730
C2371	C237	0.758500	0.996950	0.530740
C2381	C238	0.273800	0.645500	0.083400
C2391	C239	0.795900	0.837400	0.203800
C2401	C240	0.608600	0.285800	0.924300
C2411	C241	0.121800	0.420080	0.445660
C2421	C242	0.225500	0.708800	0.305300
C2431	C243	0.678300	0.908200	0.531030
C2441	C244	0.552600	0.234000	0.821820
C2451	C245	0.156500	0.898700	0.416400
C2461	C246	0.250000	0.250000	0.719800
C2471	C247	0.950100	0.267800	0.144000
C2481	C248	0.977700	0.706100	0.845500
C2491	C249	0.174000	0.739600	0.222810
C2501	C250	0.301900	0.662700	0.780700
C2511	C251	0.547600	0.655630	0.532390
C2521	C252	0.812000	0.398900	0.472200
C2531	C253	0.683300	0.995200	0.473800
C2541	C254	0.729300	0.143700	0.019400
C2551	C255	0.259100	0.821900	0.183900
C2561	C256	0.270700	0.856300	0.980600
C2571	C257	0.735600	0.321500	0.117400
C2581	C258	0.011600	0.261200	0.850200
C2591	C259	0.300200	0.426620	0.055570
C2601	C260	0.633800	0.038400	0.918100
C2611	C261	0.234400	0.846300	0.472300
C2621	C262	0.606500	0.666080	0.554640
C2631	C263	0.891800	0.800500	0.763600
C2641	C264	0.326000	0.760400	0.222810
C2651	C265	0.536000	0.439300	0.404200
C2661	C266	0.274500	0.791200	0.305300
C2671	C267	0.816700	0.504800	0.473800
C2681	C268	0.121800	0.579920	0.054340
C2691	C269	0.726800	0.207800	0.657400
C2701	C270	0.240900	0.678100	0.183900
C2711	C271	0.050000	0.762900	0.208600
C2721	C272	0.950100	0.732200	0.356000
C2731	C273	0.699800	0.426620	0.555570
C2741	C274	0.327800	0.288400	0.626800
C2751	C275	0.110200	0.916510	0.011400
C2761	C276	0.198100	0.837300	0.780700
C2771	C277	0.229300	0.356300	0.519400
C2781	C278	0.750000	0.250000	0.219800
C2791	C279	0.610000	0.709900	0.394570
C2801	C280	0.047600	0.155630	0.467610
C2811	C281	0.981600	0.321100	0.467300
C2821	C282	0.801900	0.162700	0.219300
C2831	C283	0.203900	0.335600	0.135400
C2841	C284	0.389400	0.265700	0.269110
C2851	C285	0.948000	0.351170	0.966970
C2861	C286	0.979400	0.102300	0.511400
C2871	C287	0.702700	0.522490	0.943390
C2881	C288	0.982600	0.189300	0.467500
C2891	C289	0.378200	0.920080	0.054340
C2901	C290	0.112000	0.863000	0.612400
C2911	C291	0.108600	0.785800	0.075700
C2921	C292	0.450100	0.232200	0.644000
C2931	C293	0.725500	0.791200	0.805300
C2941	C294	0.667200	0.364800	0.944740
C2951	C295	0.511600	0.761200	0.149800
C2961	C296	0.036000	0.939300	0.595800
C2971	C297	0.614800	0.459900	0.015300
C2981	C298	0.277400	0.022290	0.003820
C2991	C299	0.393500	0.333920	0.445360
C3001	C300	0.821700	0.591800	0.531030
C3011	C301	0.609600	0.678100	0.429300
C3021	C302	0.741500	0.496950	0.969260
C3031	C303	0.725200	0.708300	0.261700
C3041	C304	0.114800	0.040100	0.515300
C3051	C305	0.447400	0.234000	0.321820
C3061	C306	0.832800	0.135200	0.944740
C3071	C307	0.518400	0.821100	0.032700
C3081	C308	0.235600	0.821500	0.882600
C3091	C309	0.384000	0.792100	0.170090
C3101	C310	0.335000	0.573100	0.569100
C3111	C311	0.893500	0.833920	0.554640
C3121	C312	0.036000	0.060700	0.904200
C3131	C313	0.526200	0.286300	0.282600
C3141	C314	0.229300	0.643700	0.980600
C3151	C315	0.109600	0.821900	0.929300
C3161	C316	0.765600	0.153700	0.527700
C3171	C317	0.800100	0.337200	0.715700
C3181	C318	0.488400	0.238800	0.850200
C3191	C319	0.105400	0.707400	0.987900
C3201	C320	0.889800	0.916510	0.511400
C3211	C321	0.250000	0.750000	0.666600
C3221	C322	0.477700	0.206100	0.154500
C3231	C323	0.888000	0.137000	0.387600
C3241	C324	0.797300	0.022490	0.556610
C3251	C325	0.722600	0.977710	0.996180
C3261	C326	0.241500	0.996950	0.030740
C3271	C327	0.108600	0.214200	0.424300
C3281	C328	0.950000	0.762900	0.708600
C3291	C329	0.226800	0.292200	0.157400
C3301	C330	0.110600	0.234300	0.269110
C3311	C331	0.866200	0.538400	0.581900
C3321	C332	0.885200	0.959900	0.484700
C3331	C333	0.518400	0.178900	0.467300
C3341	C334	0.665000	0.426900	0.430900
C3351	C335	0.331000	0.593940	0.033640
C3361	C336	0.108500	0.339330	0.490270
C3371	C337	0.295900	0.662600	0.703800
C3381	C338	0.312000	0.898900	0.527800
C3391	C339	0.300200	0.573380	0.444430
C3401	C340	0.018400	0.321100	0.967300
C3411	C341	0.316700	0.004800	0.526200
C3421	C342	0.382500	0.177300	0.363700
C3431	C343	0.671700	0.132100	0.991270
C3441	C344	0.226700	0.791900	0.724300
C3451	C345	0.979400	0.897700	0.988600
C3461	C346	0.612100	0.806800	0.304300
C3471	C347	0.199800	0.926620	0.444430
C3481	C348	0.826800	0.758700	0.343190
C3491	C349	0.616000	0.207900	0.829910
C3501	C350	0.704100	0.662600	0.203800
C3511	C351	0.773300	0.791900	0.224300
C3521	C352	0.382500	0.822700	0.136300
C3531	C353	0.703900	0.164400	0.635400
C3541	C354	0.366200	0.961600	0.081900
C3551	C355	0.479400	0.397700	0.011400
C3561	C356	0.610200	0.416510	0.988600
C3571	C357	0.441400	0.108500	0.444660
C3581	C358	0.774500	0.708800	0.805300
C3591	C359	0.452400	0.655630	0.032390
C3601	C360	0.265600	0.346300	0.027700
C3611	C361	0.391500	0.160670	0.490270
C3621	C362	0.264200	0.598720	0.471350
C3631	C363	0.222600	0.477710	0.003820
C3641	C364	0.964000	0.939300	0.095800
C3651	C365	0.226800	0.707800	0.342600
C3661	C366	0.610000	0.290100	0.105430
C3671	C367	0.797300	0.977510	0.943390
C3681	C368	0.665000	0.573100	0.069100
C3691	C369	0.894600	0.707400	0.487900
C3701	C370	0.250000	0.750000	0.286400
C3711	C371	0.274800	0.291700	0.738300
C3721	C372	0.890400	0.178100	0.070700
C3731	C373	0.964000	0.060700	0.404200
C3741	C374	0.225200	0.208300	0.738300
C3751	C375	0.750000	0.250000	0.713600
C3761	C376	0.612100	0.193200	0.195700
C3771	C377	0.774500	0.291200	0.694700
C3781	C378	0.385200	0.540100	0.984700
C3791	C379	0.479400	0.602300	0.488600
C3801	C380	0.049900	0.732200	0.856000
C3811	C381	0.026200	0.786300	0.717400
C3821	C382	0.866200	0.461600	0.918100
C3831	C383	0.832800	0.864800	0.555260
C3841	C384	0.390400	0.678100	0.929300
C3851	C385	0.156500	0.101300	0.083600
C3861	C386	0.173200	0.241300	0.656810
C3871	C387	0.327800	0.711600	0.873200
C3881	C388	0.674000	0.239600	0.777190
C3891	C389	0.726200	0.645500	0.583400
C3901	C390	0.878200	0.579920	0.554340
C3911	C391	0.163800	0.003800	0.413100
C3921	C392	0.389800	0.583490	0.011400
C3931	C393	0.326800	0.741300	0.843190
C3941	C394	0.052600	0.734000	0.178180
C3951	C395	0.703900	0.835600	0.864600
C3961	C396	0.725400	0.926820	0.997220
C3971	C397	0.750000	0.750000	0.206200
C3981	C398	0.391400	0.714200	0.075700
C3991	C399	0.464000	0.560700	0.595800
C4001	C400	0.941400	0.391500	0.944660
C4011	C401	0.725200	0.291700	0.238300
C4021	C402	0.199900	0.662800	0.284300
C4031	C403	0.105400	0.292600	0.512100
C4041	C404	0.610600	0.734300	0.730890
C4051	C405	0.827800	0.211600	0.126800
C4061	C406	0.222600	0.522290	0.496180
C4071	C407	0.821700	0.408200	0.968970
C4081	C408	0.048900	0.762000	0.886000
C4091	C409	0.328300	0.132100	0.491270
C4101	C410	0.831000	0.906060	0.533640
C4111	C411	0.764400	0.178500	0.117400
C4121	C412	0.202700	0.022490	0.056610
C4131	C413	0.725400	0.073180	0.502780
C4141	C414	0.750000	0.750000	0.166600
C4151	C415	0.117500	0.677300	0.136300
C4161	C416	0.250000	0.750000	0.400300
C4171	C417	0.250000	0.750000	0.360700
C4181	C418	0.273300	0.291900	0.775700
C4191	C419	0.009100	0.594000	0.579500
C4201	C420	0.049900	0.267800	0.644000
C4211	C421	0.225400	0.426820	0.002780
C4221	C422	0.823300	0.289300	0.807590
C4231	C423	0.800100	0.662800	0.784300
C4241	C424	0.225500	0.291200	0.194700
C4251	C425	0.610200	0.583490	0.511400
C4261	C426	0.982600	0.810700	0.032500
C4271	C427	0.058600	0.391500	0.444660
C4281	C428	0.020600	0.102300	0.011400
C4291	C429	0.049400	0.885700	0.010770
C4301	C430	0.951100	0.238000	0.114000
C4311	C431	0.764400	0.821500	0.382600
C4321	C432	0.226200	0.145500	0.416600
C4331	C433	0.750000	0.250000	0.455100
C4341	C434	0.520600	0.397700	0.511400
C4351	C435	0.884000	0.292100	0.829910
C4361	C436	0.388000	0.363000	0.887600
C4371	C437	0.451100	0.262000	0.614000
C4381	C438	0.387900	0.230500	0.665410
C4391	C439	0.517400	0.689300	0.032500
C4401	C440	0.250000	0.250000	0.955100
C4411	C441	0.114800	0.959900	0.984700
C4421	C442	0.671700	0.867900	0.508730
C4431	C443	0.688000	0.101100	0.472200
C4441	C444	0.741500	0.503050	0.530740
C4451	C445	0.050000	0.237100	0.291400
C4461	C446	0.173200	0.758700	0.843190
C4471	C447	0.391500	0.839330	0.009730
C4481	C448	0.882500	0.677300	0.636300
C4491	C449	0.297300	0.522490	0.443390
C4501	C450	0.326000	0.239600	0.277190
C4511	C451	0.481600	0.821100	0.532700
C4521	C452	0.836200	0.996200	0.586900
C4531	C453	0.725500	0.208800	0.694700
C4541	C454	0.441400	0.891500	0.055340
C4551	C455	0.795900	0.162600	0.296200
C4561	C456	0.750000	0.750000	0.900300
C4571	C457	0.450000	0.262900	0.291400
C4581	C458	0.887900	0.693200	0.304300
C4591	C459	0.796100	0.335600	0.635400
C4601	C460	0.176700	0.710700	0.192410
C4611	C461	0.656500	0.398700	0.583600
C4621	C462	0.012800	0.237300	0.088800
C4631	C463	0.878200	0.420080	0.945660
C4641	C464	0.235600	0.178500	0.617400
C4651	C465	0.448000	0.148830	0.466970
C4661	C466	0.235800	0.098720	0.028650
C4671	C467	0.452400	0.344370	0.467610
C4681	C468	0.952400	0.155630	0.967610
C4691	C469	0.702700	0.477510	0.556610
C4701	C470	0.608600	0.714200	0.575700
C4711	C471	0.948000	0.648830	0.533030
C4721	C472	0.735600	0.678500	0.382600
C4731	C473	0.812000	0.601100	0.027800
C4741	C474	0.108500	0.660670	0.009730
C4751	C475	0.678300	0.091800	0.968970
C4761	C476	0.487200	0.262700	0.088800
C4771	C477	0.273200	0.792200	0.342600
C4781	C478	0.451100	0.738000	0.886000
C4791	C479	0.891400	0.785800	0.575700
C4801	C480	0.188000	0.398900	0.972200
C4811	C481	0.676700	0.210700	0.807590
C4821	C482	0.735800	0.401280	0.528650
C4831	C483	0.300100	0.837200	0.284300
C4841	C484	0.464000	0.439300	0.904200
C4851	C485	0.950000	0.237100	0.791400
C4861	C486	0.699900	0.162800	0.715700
C4871	C487	0.614800	0.540100	0.484700
C4881	C488	0.277400	0.977710	0.496180
C4891	C489	0.112100	0.693200	0.804300
C4901	C490	0.336200	0.496200	0.413100
C4911	C491	0.265600	0.653700	0.472300
C4921	C492	0.258500	0.503050	0.030740
C4931	C493	0.391400	0.285800	0.424300
C4941	C494	0.049400	0.114300	0.489230
C4951	C495	0.203900	0.664400	0.364600
C4961	C496	0.889400	0.234300	0.769110
C4971	C497	0.699900	0.837200	0.784300
C4981	C498	0.167200	0.135200	0.444740
C4991	C499	0.699800	0.573380	0.944430
C5001	C500	0.274500	0.208800	0.194700
C5011	C501	0.773800	0.854500	0.583400
C5021	C502	0.490900	0.094000	0.920500
C5031	C503	0.343500	0.398700	0.083600
C5041	C504	0.773200	0.292200	0.657400
C5051	C505	0.264400	0.321500	0.617400
C5061	C506	0.264400	0.678500	0.882600
C5071	C507	0.526200	0.713700	0.217400
C5081	C508	0.951100	0.762000	0.386000
C5091	C509	0.250000	0.750000	0.780200
C5101	C510	0.332800	0.364800	0.444740
C5111	C511	0.343500	0.601300	0.416400
C5121	C512	0.672200	0.711600	0.373200
C5131	C513	0.843500	0.101300	0.583600
C5141	C514	0.973800	0.786300	0.217400
C5151	C515	0.512800	0.737300	0.911200
C5161	C516	0.226200	0.854500	0.083400
C5171	C517	0.612000	0.637000	0.112400
C5181	C518	0.987200	0.762700	0.911200
C5191	C519	0.612100	0.230500	0.165410
C5201	C520	0.947400	0.266000	0.821820
C5211	C521	0.891500	0.339330	0.990270
C5221	C522	0.828300	0.632100	0.508730
C5231	C523	0.734400	0.653700	0.972300
C5241	C524	0.887900	0.730500	0.334590
C5251	C525	0.390400	0.321900	0.570700
C5261	C526	0.606500	0.333920	0.945360
C5271	C527	0.800200	0.926620	0.944430
C5281	C528	0.488400	0.761200	0.649800
C5291	C529	0.773200	0.707800	0.842600
C5301	C530	0.800200	0.073380	0.555570
C5311	C531	0.058600	0.608500	0.055340
C5321	C532	0.973800	0.213700	0.282600
C5331	C533	0.171700	0.632100	0.008730
C5341	C534	0.977700	0.293900	0.654500
C5351	C535	0.952400	0.844370	0.532390
C5361	C536	0.225200	0.791700	0.761700
C5371	C537	0.764200	0.901280	0.971350
C5381	C538	0.683300	0.004800	0.026200
C5391	C539	0.178300	0.591800	0.031030
C5401	C540	0.947400	0.734000	0.678180
C5411	C541	0.826800	0.241300	0.156810
C5421	C542	0.758500	0.003050	0.969260
C5431	C543	0.296100	0.164400	0.135400
C5441	C544	0.673200	0.258700	0.156810
C5451	C545	0.674000	0.760400	0.722810
C5461	C546	0.487200	0.737300	0.411200
C5471	C547	0.481600	0.178900	0.967300
C5481	C548	0.770700	0.643700	0.480600
C5491	C549	0.990900	0.594000	0.079500
C5501	C550	0.988400	0.261200	0.350200
C5511	C551	0.750000	0.750000	0.044900
C5521	C552	0.509100	0.906000	0.079500
C5531	C553	0.698100	0.337300	0.219300
C5541	C554	0.663800	0.503800	0.586900
C5551	C555	0.106500	0.166080	0.445360
C5561	C556	0.558600	0.108500	0.944660
N11	N1	0.604000	0.409200	0.406700
N21	N2	0.104000	0.090800	0.906700
N31	N3	0.396000	0.590800	0.593300
N41	N4	0.104000	0.909200	0.593300
N51	N5	0.896000	0.090800	0.406700
N61	N6	0.604000	0.590800	0.093300
N71	N7	0.896000	0.909200	0.093300
N81	N8	0.396000	0.409200	0.906700
O11	O1	0.446700	0.182300	0.995000
O21	O2	0.946700	0.317700	0.495000
O31	O3	0.665000	0.335500	0.395400
O41	O4	0.325000	0.325900	0.022100
O51	O5	0.750000	0.250000	0.420000
O61	O6	0.191000	0.758100	0.416020
O71	O7	0.525000	0.720300	0.137200
O81	O8	0.035300	0.300600	0.938400
O91	O9	0.811200	0.255500	0.468960
O101	O10	0.957700	0.795700	0.927600
O111	O11	0.175300	0.337000	0.896500
O121	O12	0.553300	0.693700	0.060500
O131	O13	0.035300	0.699400	0.561600
O141	O14	0.446700	0.306300	0.939500
O151	O15	0.335000	0.664500	0.604600
O161	O16	0.025000	0.779700	0.637200
O171	O17	0.553300	0.182300	0.495000
O181	O18	0.455600	0.200700	0.857200
O191	O19	0.031900	0.788900	0.503710
O201	O20	0.809000	0.241900	0.583980
O211	O21	0.295400	0.174900	0.033200
O221	O22	0.704600	0.825100	0.966800
O231	O23	0.688800	0.755500	0.031040
O241	O24	0.967800	0.722300	0.927200
O251	O25	0.795400	0.325100	0.533200
O261	O26	0.311200	0.244500	0.968960
O271	O27	0.691000	0.741900	0.916020
O281	O28	0.042300	0.204300	0.072400
O291	O29	0.544400	0.799300	0.142800
O301	O30	0.044400	0.299300	0.857200
O311	O31	0.968100	0.211100	0.496290
O321	O32	0.295400	0.825100	0.466800
O331	O33	0.835000	0.164500	0.395400
O341	O34	0.824700	0.663000	0.103500
O351	O35	0.310400	0.750400	0.651100
O361	O36	0.964700	0.699400	0.061600
O371	O37	0.175000	0.174100	0.022100
O381	O38	0.025000	0.220300	0.862800
O391	O39	0.542300	0.704300	0.927600
O401	O40	0.053300	0.806300	0.560500
O411	O41	0.825000	0.174100	0.522100
O421	O42	0.675300	0.837000	0.103500
O431	O43	0.955600	0.700700	0.142800
O441	O44	0.044400	0.700700	0.642800
O451	O45	0.946700	0.682300	0.005000
O461	O46	0.544400	0.200700	0.357200
O471	O47	0.691000	0.258100	0.583980
O481	O48	0.542300	0.295700	0.572400
O491	O49	0.967800	0.277700	0.572800
O501	O50	0.532200	0.222300	0.572800
O511	O51	0.032200	0.277700	0.072800
O521	O52	0.675000	0.325900	0.522100
O531	O53	0.750000	0.750000	0.080000
O541	O54	0.032200	0.722300	0.427200
O551	O55	0.457700	0.704300	0.427600
O561	O56	0.446700	0.693700	0.560500
O571	O57	0.553300	0.306300	0.439500
O581	O58	0.835000	0.835500	0.104600
O591	O59	0.955600	0.299300	0.357200
O601	O60	0.468100	0.711100	0.503710
O611	O61	0.525000	0.279700	0.362800
O621	O62	0.204600	0.674900	0.466800
O631	O63	0.975000	0.220300	0.362800
O641	O64	0.809000	0.758100	0.916020
O651	O65	0.188800	0.255500	0.968960
O661	O66	0.188800	0.744500	0.531040
O671	O67	0.189600	0.749600	0.651100
O681	O68	0.031900	0.211100	0.996290
O691	O69	0.675300	0.163000	0.396500
O701	O70	0.250000	0.750000	0.580000
O711	O71	0.467800	0.222300	0.072800
O721	O72	0.335000	0.335500	0.895400
O731	O73	0.689600	0.750400	0.151100
O741	O74	0.309000	0.258100	0.083980
O751	O75	0.675000	0.674100	0.977900
O761	O76	0.946700	0.806300	0.060500
O771	O77	0.311200	0.755500	0.531040
O781	O78	0.189600	0.250400	0.848900
O791	O79	0.309000	0.741900	0.416020
O801	O80	0.324700	0.837000	0.603500
O811	O81	0.665000	0.664500	0.104600
O821	O82	0.531900	0.711100	0.003710
O831	O83	0.704600	0.174900	0.533200
O841	O84	0.795400	0.674900	0.966800
O851	O85	0.464700	0.199400	0.938400
O861	O86	0.325000	0.674100	0.477900
O871	O87	0.191000	0.241900	0.083980
O881	O88	0.468100	0.288900	0.996290
O891	O89	0.053300	0.682300	0.505000
O901	O90	0.535300	0.800600	0.061600
O911	O91	0.310400	0.249600	0.848900
O921	O92	0.531900	0.288900	0.496290
O931	O93	0.175300	0.663000	0.603500
O941	O94	0.811200	0.744500	0.031040
O951	O95	0.175000	0.825900	0.477900
O961	O96	0.957700	0.204300	0.572400
O971	O97	0.553300	0.817700	0.005000
O981	O98	0.689600	0.249600	0.348900
O991	O99	0.475000	0.279700	0.862800
O1001	O100	0.204600	0.325100	0.033200
O1011	O101	0.810400	0.250400	0.348900
O1021	O102	0.250000	0.250000	0.920000
O1031	O103	0.688800	0.244500	0.468960
O1041	O104	0.467800	0.777700	0.427200
O1051	O105	0.824700	0.337000	0.396500
O1061	O106	0.053300	0.193700	0.939500
O1071	O107	0.324700	0.163000	0.896500
O1081	O108	0.968100	0.788900	0.003710
O1091	O109	0.946700	0.193700	0.439500
O1101	O110	0.165000	0.835500	0.604600
O1111	O111	0.535300	0.199400	0.438400
O1121	O112	0.532200	0.777700	0.927200
O1131	O113	0.475000	0.720300	0.637200
O1141	O114	0.464700	0.800600	0.561600
O1151	O115	0.042300	0.795700	0.427600
O1161	O116	0.165000	0.164500	0.895400
O1171	O117	0.810400	0.749600	0.151100
O1181	O118	0.446700	0.817700	0.505000
O1191	O119	0.964700	0.300600	0.438400
O1201	O120	0.975000	0.779700	0.137200
O1211	O121	0.825000	0.825900	0.977900
O1221	O122	0.457700	0.295700	0.072400
O1231	O123	0.053300	0.317700	0.995000
O1241	O124	0.455600	0.799300	0.642800
