data_CIPRID_charged_PM
_symmetry_space_group_name_H-M	'P1'
_cell_length_a	14.237000
_cell_length_b	15.739000
_cell_length_c	16.611000
_cell_angle_alpha	90.000000
_cell_angle_beta	90.000000
_cell_angle_gamma	90.000000
_symmetry_Int_Tables_number 1

loop_
_symmetry_equiv_pos_as_xyz
'x,y,z'

loop_
_atom_site_label
_atom_site_type_symbol
_atom_site_fract_x
_atom_site_fract_y
_atom_site_fract_z
La11	La1	0.108560	0.750000	0.750000
La21	La2	0.391440	0.250000	0.250000
La31	La3	0.891440	0.250000	0.250000
La41	La4	0.608560	0.750000	0.750000
Ni11	Ni1	0.287420	0.559950	0.884010
Ni21	Ni2	0.287420	0.940050	0.615990
Ni31	Ni3	0.212580	0.440050	0.384010
Ni41	Ni4	0.212580	0.059950	0.115990
Ni51	Ni5	0.712580	0.440050	0.115990
Ni61	Ni6	0.712580	0.059950	0.384010
Ni71	Ni7	0.787420	0.559950	0.615990
Ni81	Ni8	0.787420	0.940050	0.884010
H11	H1	0.096200	0.734700	0.570400
H21	H2	0.007500	0.772800	0.592800
H31	H3	0.298400	0.757800	0.665400
H41	H4	0.246200	0.692100	0.623300
H51	H5	0.224300	0.460200	0.688200
H61	H6	0.180900	0.435900	0.772200
H71	H7	0.428500	0.498800	0.716200
H81	H8	0.343500	0.547600	0.678300
H91	H9	0.303200	0.371900	0.833300
H101	H10	0.379300	0.377000	0.764900
H111	H11	0.477800	0.458500	0.847400
H121	H12	0.452300	0.374700	0.893600
H131	H13	0.357300	0.366900	0.993300
H141	H14	0.351100	0.444100	0.052400
H151	H15	0.490400	0.565500	0.942900
H161	H16	0.432900	0.561000	0.023100
H171	H17	0.096200	0.765300	0.929600
H181	H18	0.007500	0.727200	0.907200
H191	H19	0.298400	0.742200	0.834600
H201	H20	0.246200	0.807900	0.876700
H211	H21	0.224300	0.039800	0.811800
H221	H22	0.180900	0.064100	0.727800
H231	H23	0.428500	0.001200	0.783800
H241	H24	0.343500	0.952400	0.821700
H251	H25	0.303200	0.128100	0.666700
H261	H26	0.379300	0.123000	0.735100
H271	H27	0.477800	0.041500	0.652600
H281	H28	0.452300	0.125300	0.606400
H291	H29	0.357300	0.133100	0.506700
H301	H30	0.351100	0.055900	0.447600
H311	H31	0.490400	0.934500	0.557100
H321	H32	0.432900	0.939000	0.476900
H331	H33	0.403800	0.265300	0.070400
H341	H34	0.492500	0.227200	0.092800
H351	H35	0.201600	0.242200	0.165400
H361	H36	0.253800	0.307900	0.123300
H371	H37	0.275700	0.539800	0.188200
H381	H38	0.319100	0.564100	0.272200
H391	H39	0.071500	0.501200	0.216200
H401	H40	0.156500	0.452400	0.178300
H411	H41	0.196800	0.628100	0.333300
H421	H42	0.120700	0.623000	0.264900
H431	H43	0.022200	0.541500	0.347400
H441	H44	0.047700	0.625300	0.393600
H451	H45	0.142700	0.633100	0.493300
H461	H46	0.148900	0.555900	0.552400
H471	H47	0.009600	0.434500	0.442900
H481	H48	0.067100	0.439000	0.523100
H491	H49	0.403800	0.234700	0.429600
H501	H50	0.492500	0.272800	0.407200
H511	H51	0.201600	0.257800	0.334600
H521	H52	0.253800	0.192100	0.376700
H531	H53	0.275700	0.960200	0.311800
H541	H54	0.319100	0.935900	0.227800
H551	H55	0.071500	0.998800	0.283800
H561	H56	0.156500	0.047600	0.321700
H571	H57	0.196800	0.871900	0.166700
H581	H58	0.120700	0.877000	0.235100
H591	H59	0.022200	0.958500	0.152600
H601	H60	0.047700	0.874700	0.106400
H611	H61	0.142700	0.866900	0.006700
H621	H62	0.148900	0.944100	0.947600
H631	H63	0.009600	0.065500	0.057100
H641	H64	0.067100	0.061000	0.976900
H651	H65	0.903800	0.265300	0.429600
H661	H66	0.992500	0.227200	0.407200
H671	H67	0.701600	0.242200	0.334600
H681	H68	0.753800	0.307900	0.376700
H691	H69	0.775700	0.539800	0.311800
H701	H70	0.819100	0.564100	0.227800
H711	H71	0.571500	0.501200	0.283800
H721	H72	0.656500	0.452400	0.321700
H731	H73	0.696800	0.628100	0.166700
H741	H74	0.620700	0.623000	0.235100
H751	H75	0.522200	0.541500	0.152600
H761	H76	0.547700	0.625300	0.106400
H771	H77	0.642700	0.633100	0.006700
H781	H78	0.648900	0.555900	0.947600
H791	H79	0.509600	0.434500	0.057100
H801	H80	0.567100	0.439000	0.976900
H811	H81	0.903800	0.234700	0.070400
H821	H82	0.992500	0.272800	0.092800
H831	H83	0.701600	0.257800	0.165400
H841	H84	0.753800	0.192100	0.123300
H851	H85	0.775700	0.960200	0.188200
H861	H86	0.819100	0.935900	0.272200
H871	H87	0.571500	0.998800	0.216200
H881	H88	0.656500	0.047600	0.178300
H891	H89	0.696800	0.871900	0.333300
H901	H90	0.620700	0.877000	0.264900
H911	H91	0.522200	0.958500	0.347400
H921	H92	0.547700	0.874700	0.393600
H931	H93	0.642700	0.866900	0.493300
H941	H94	0.648900	0.944100	0.552400
H951	H95	0.509600	0.065500	0.442900
H961	H96	0.567100	0.061000	0.523100
H971	H97	0.596200	0.734700	0.929600
H981	H98	0.507500	0.772800	0.907200
H991	H99	0.798400	0.757800	0.834600
H1001	H100	0.746200	0.692100	0.876700
H1011	H101	0.724300	0.460200	0.811800
H1021	H102	0.680900	0.435900	0.727800
H1031	H103	0.928500	0.498800	0.783800
H1041	H104	0.843500	0.547600	0.821700
H1051	H105	0.803200	0.371900	0.666700
H1061	H106	0.879300	0.377000	0.735100
H1071	H107	0.977800	0.458500	0.652600
H1081	H108	0.952300	0.374700	0.606400
H1091	H109	0.857300	0.366900	0.506700
H1101	H110	0.851100	0.444100	0.447600
H1111	H111	0.990400	0.565500	0.557100
H1121	H112	0.932900	0.561000	0.476900
H1131	H113	0.596200	0.765300	0.570400
H1141	H114	0.507500	0.727200	0.592800
H1151	H115	0.798400	0.742200	0.665400
H1161	H116	0.746200	0.807900	0.623300
H1171	H117	0.724300	0.039800	0.688200
H1181	H118	0.680900	0.064100	0.772200
H1191	H119	0.928500	0.001200	0.716200
H1201	H120	0.843500	0.952400	0.678300
H1211	H121	0.803200	0.128100	0.833300
H1221	H122	0.879300	0.123000	0.764900
H1231	H123	0.977800	0.041500	0.847400
H1241	H124	0.952300	0.125300	0.893600
H1251	H125	0.857300	0.133100	0.993300
H1261	H126	0.851100	0.055900	0.052400
H1271	H127	0.990400	0.934500	0.942900
H1281	H128	0.932900	0.939000	0.023100
C11	C1	0.168000	0.563300	0.747100
C21	C2	0.217400	0.478400	0.743700
C31	C3	0.375300	0.535100	0.728600
C41	C4	0.411700	0.617200	0.763600
C51	C5	0.351500	0.407500	0.809700
C61	C6	0.426900	0.427400	0.872700
C71	C7	0.336000	0.425200	0.998400
C81	C8	0.229800	0.427400	0.987500
C91	C9	0.461800	0.526900	0.981200
C101	C10	0.233100	0.658700	0.029000
C111	C11	0.168000	0.936700	0.752900
C121	C12	0.217400	0.021600	0.756300
C131	C13	0.375300	0.964900	0.771400
C141	C14	0.411700	0.882800	0.736400
C151	C15	0.351500	0.092500	0.690300
C161	C16	0.426900	0.072600	0.627300
C171	C17	0.336000	0.074800	0.501600
C181	C18	0.229800	0.072600	0.512500
C191	C19	0.461800	0.973100	0.518800
C201	C20	0.233100	0.841300	0.471000
C211	C21	0.332000	0.436700	0.247100
C221	C22	0.282600	0.521600	0.243700
C231	C23	0.124700	0.464900	0.228600
C241	C24	0.088300	0.382800	0.263600
C251	C25	0.148500	0.592500	0.309700
C261	C26	0.073100	0.572600	0.372700
C271	C27	0.164000	0.574800	0.498400
C281	C28	0.270200	0.572600	0.487500
C291	C29	0.038200	0.473100	0.481200
C301	C30	0.266900	0.341300	0.529000
C311	C31	0.332000	0.063300	0.252900
C321	C32	0.282600	0.978400	0.256300
C331	C33	0.124700	0.035100	0.271400
C341	C34	0.088300	0.117200	0.236400
C351	C35	0.148500	0.907500	0.190300
C361	C36	0.073100	0.927400	0.127300
C371	C37	0.164000	0.925200	0.001600
C381	C38	0.270200	0.927400	0.012500
C391	C39	0.038200	0.026900	0.018800
C401	C40	0.266900	0.158700	0.971000
C411	C41	0.832000	0.436700	0.252900
C421	C42	0.782600	0.521600	0.256300
C431	C43	0.624700	0.464900	0.271400
C441	C44	0.588300	0.382800	0.236400
C451	C45	0.648500	0.592500	0.190300
C461	C46	0.573100	0.572600	0.127300
C471	C47	0.664000	0.574800	0.001600
C481	C48	0.770200	0.572600	0.012500
C491	C49	0.538200	0.473100	0.018800
C501	C50	0.766900	0.341300	0.971000
C511	C51	0.832000	0.063300	0.247100
C521	C52	0.782600	0.978400	0.243700
C531	C53	0.624700	0.035100	0.228600
C541	C54	0.588300	0.117200	0.263600
C551	C55	0.648500	0.907500	0.309700
C561	C56	0.573100	0.927400	0.372700
C571	C57	0.664000	0.925200	0.498400
C581	C58	0.770200	0.927400	0.487500
C591	C59	0.538200	0.026900	0.481200
C601	C60	0.766900	0.158700	0.529000
C611	C61	0.668000	0.563300	0.752900
C621	C62	0.717400	0.478400	0.756300
C631	C63	0.875300	0.535100	0.771400
C641	C64	0.911700	0.617200	0.736400
C651	C65	0.851500	0.407500	0.690300
C661	C66	0.926900	0.427400	0.627300
C671	C67	0.836000	0.425200	0.501600
C681	C68	0.729800	0.427400	0.512500
C691	C69	0.961800	0.526900	0.518800
C701	C70	0.733100	0.658700	0.471000
C711	C71	0.668000	0.936700	0.747100
C721	C72	0.717400	0.021600	0.743700
C731	C73	0.875300	0.964900	0.728600
C741	C74	0.911700	0.882800	0.763600
C751	C75	0.851500	0.092500	0.809700
C761	C76	0.926900	0.072600	0.872700
C771	C77	0.836000	0.074800	0.998400
C781	C78	0.729800	0.072600	0.987500
C791	C79	0.961800	0.973100	0.981200
C801	C80	0.733100	0.841300	0.029000
S11	S1	0.185500	0.702800	0.116200
S21	S2	0.185500	0.797200	0.383800
S31	S3	0.314500	0.297200	0.616200
S41	S4	0.314500	0.202800	0.883800
S51	S5	0.814500	0.297200	0.883800
S61	S6	0.814500	0.202800	0.616200
S71	S7	0.685500	0.702800	0.383800
S81	S8	0.685500	0.797200	0.116200
N11	N1	0.310100	0.487600	0.781200
N21	N2	0.388200	0.478400	0.939900
N31	N3	0.267300	0.634500	0.975400
N41	N4	0.310100	0.012400	0.718800
N51	N5	0.388200	0.021600	0.560100
N61	N6	0.267300	0.865500	0.524600
N71	N7	0.189900	0.512400	0.281200
N81	N8	0.111800	0.521600	0.439900
N91	N9	0.232700	0.365500	0.475400
N101	N10	0.189900	0.987600	0.218800
N111	N11	0.111800	0.978400	0.060100
N121	N12	0.232700	0.134500	0.024600
N131	N13	0.689900	0.512400	0.218800
N141	N14	0.611800	0.521600	0.060100
N151	N15	0.732700	0.365500	0.024600
N161	N16	0.689900	0.987600	0.281200
N171	N17	0.611800	0.978400	0.439900
N181	N18	0.732700	0.134500	0.475400
N191	N19	0.810100	0.487600	0.718800
N201	N20	0.888200	0.478400	0.560100
N211	N21	0.767300	0.634500	0.524600
N221	N22	0.810100	0.012400	0.781200
N231	N23	0.888200	0.021600	0.939900
N241	N24	0.767300	0.865500	0.975400
O11	O1	0.182800	0.610000	0.808700
O21	O2	0.116700	0.586000	0.690700
O31	O3	0.385100	0.638500	0.833400
O41	O4	0.468200	0.658200	0.721600
O51	O5	0.194800	0.473300	0.931700
O61	O6	0.182500	0.383600	0.035500
O71	O7	0.050200	0.736800	0.603700
O81	O8	0.258800	0.718000	0.666500
O91	O9	0.182800	0.890000	0.691300
O101	O10	0.116700	0.914000	0.809300
O111	O11	0.385100	0.861500	0.666600
O121	O12	0.468200	0.841800	0.778400
O131	O13	0.194800	0.026700	0.568300
O141	O14	0.182500	0.116400	0.464500
O151	O15	0.050200	0.763200	0.896300
O161	O16	0.258800	0.782000	0.833500
O171	O17	0.317200	0.390000	0.308700
O181	O18	0.383300	0.414000	0.190700
O191	O19	0.114900	0.361500	0.333400
O201	O20	0.031800	0.341800	0.221600
O211	O21	0.305200	0.526700	0.431700
O221	O22	0.317500	0.616400	0.535500
O231	O23	0.449800	0.263200	0.103700
O241	O24	0.241200	0.282000	0.166500
O251	O25	0.317200	0.110000	0.191300
O261	O26	0.383300	0.086000	0.309300
O271	O27	0.114900	0.138500	0.166600
O281	O28	0.031800	0.158200	0.278400
O291	O29	0.305200	0.973300	0.068300
O301	O30	0.317500	0.883600	0.964500
O311	O31	0.449800	0.236800	0.396300
O321	O32	0.241200	0.218000	0.333500
O331	O33	0.817200	0.390000	0.191300
O341	O34	0.883300	0.414000	0.309300
O351	O35	0.614900	0.361500	0.166600
O361	O36	0.531800	0.341800	0.278400
O371	O37	0.805200	0.526700	0.068300
O381	O38	0.817500	0.616400	0.964500
O391	O39	0.949800	0.263200	0.396300
O401	O40	0.741200	0.282000	0.333500
O411	O41	0.817200	0.110000	0.308700
O421	O42	0.883300	0.086000	0.190700
O431	O43	0.614900	0.138500	0.333400
O441	O44	0.531800	0.158200	0.221600
O451	O45	0.805200	0.973300	0.431700
O461	O46	0.817500	0.883600	0.535500
O471	O47	0.949800	0.236800	0.103700
O481	O48	0.741200	0.218000	0.166500
O491	O49	0.682800	0.610000	0.691300
O501	O50	0.616700	0.586000	0.809300
O511	O51	0.885100	0.638500	0.666600
O521	O52	0.968200	0.658200	0.778400
O531	O53	0.694800	0.473300	0.568300
O541	O54	0.682500	0.383600	0.464500
O551	O55	0.550200	0.736800	0.896300
O561	O56	0.758800	0.718000	0.833500
O571	O57	0.682800	0.890000	0.808700
O581	O58	0.616700	0.914000	0.690700
O591	O59	0.885100	0.861500	0.833400
O601	O60	0.968200	0.841800	0.721600
O611	O61	0.694800	0.026700	0.931700
O621	O62	0.682500	0.116400	0.035500
O631	O63	0.550200	0.763200	0.603700
O641	O64	0.758800	0.782000	0.666500
