data_CIQYUX_clean_PM
_symmetry_space_group_name_H-M	'P1'
_cell_length_a	11.409000
_cell_length_b	17.706100
_cell_length_c	17.706100
_cell_angle_alpha	84.042000
_cell_angle_beta	71.205300
_cell_angle_gamma	71.205300
_symmetry_Int_Tables_number 1

loop_
_symmetry_equiv_pos_as_xyz
'x,y,z'

loop_
_atom_site_label
_atom_site_type_symbol
_atom_site_fract_x
_atom_site_fract_y
_atom_site_fract_z
Co11	Co1	0.426920	0.775350	0.330830
Co21	Co2	0.133400	0.833520	0.411380
Co31	Co3	0.033100	0.724650	0.169170
Co41	Co4	0.878300	0.666480	0.088620
Co51	Co5	0.757750	0.669170	0.275350
Co61	Co6	0.544780	0.588620	0.333520
Co71	Co7	0.202270	0.830830	0.224650
Co81	Co8	0.966920	0.911380	0.166480
Co91	Co9	0.573080	0.224650	0.669170
Co101	Co10	0.866600	0.166480	0.588620
Co111	Co11	0.966900	0.275350	0.830830
Co121	Co12	0.121700	0.333520	0.911380
Co131	Co13	0.242250	0.330830	0.724650
Co141	Co14	0.455220	0.411380	0.666480
Co151	Co15	0.797730	0.169170	0.775350
Co161	Co16	0.033080	0.088620	0.833520
Co171	Co17	0.500000	0.500000	0.500000
Co181	Co18	0.000000	0.000000	0.000000
Co191	Co19	0.000000	0.500000	0.000000
Co201	Co20	0.000000	0.000000	0.500000
H11	H1	0.575900	0.693500	0.408500
H21	H2	0.388300	0.599300	0.138500
H31	H3	0.531600	0.602700	0.106300
H41	H4	0.486300	0.557900	0.186300
H51	H5	0.143000	0.704400	0.565400
H61	H6	0.248500	0.629900	0.585100
H71	H7	0.261700	0.715600	0.584000
H81	H8	0.913600	0.472500	0.448100
H91	H9	0.815500	0.541100	0.507300
H101	H10	0.778600	0.464400	0.501400
H111	H11	0.447700	0.330300	0.356700
H121	H12	0.382600	0.393000	0.301200
H131	H13	0.532700	0.349100	0.272300
H141	H14	0.177900	0.806500	0.091500
H151	H15	0.626100	0.900700	0.361500
H161	H16	0.740600	0.897300	0.393700
H171	H17	0.730500	0.942100	0.313700
H181	H18	0.912800	0.795600	0.934600
H191	H19	0.963500	0.870100	0.914900
H201	H20	0.061300	0.784400	0.916000
H211	H21	0.334200	0.027500	0.051900
H221	H22	0.363900	0.958900	0.992700
H231	H23	0.244400	0.035600	0.998600
H241	H24	0.634700	0.169700	0.143300
H251	H25	0.576800	0.107000	0.198800
H261	H26	0.654100	0.150900	0.227700
H271	H27	0.984400	0.591500	0.193500
H281	H28	0.526800	0.861500	0.099300
H291	H29	0.637900	0.893700	0.102700
H301	H30	0.672600	0.813700	0.057900
H311	H31	0.708400	0.434600	0.204400
H321	H32	0.833600	0.414900	0.129900
H331	H33	0.845700	0.416000	0.215600
H341	H34	0.361700	0.551900	0.972500
H351	H35	0.322800	0.492700	0.041100
H361	H36	0.280000	0.498600	0.964400
H371	H37	0.804400	0.643300	0.830300
H381	H38	0.683800	0.698800	0.893000
H391	H39	0.805000	0.727700	0.849100
H401	H40	0.269400	0.908500	0.306500
H411	H41	0.987600	0.638500	0.400700
H421	H42	0.134300	0.606300	0.397300
H431	H43	0.044200	0.686300	0.442100
H441	H44	0.847400	0.065400	0.295600
H451	H45	0.878400	0.085100	0.370100
H461	H46	0.977300	0.084000	0.284400
H471	H47	0.386100	0.948100	0.527500
H481	H48	0.356600	0.007300	0.458900
H491	H49	0.243000	0.001400	0.535600
H501	H50	0.778000	0.856700	0.669700
H511	H51	0.775600	0.801200	0.607000
H521	H52	0.881800	0.772300	0.650900
H531	H53	0.424100	0.306500	0.591500
H541	H54	0.611700	0.400700	0.861500
H551	H55	0.468400	0.397300	0.893700
H561	H56	0.513700	0.442100	0.813700
H571	H57	0.857000	0.295600	0.434600
H581	H58	0.751500	0.370100	0.414900
H591	H59	0.738300	0.284400	0.416000
H601	H60	0.086400	0.527500	0.551900
H611	H61	0.184500	0.458900	0.492700
H621	H62	0.221400	0.535600	0.498600
H631	H63	0.552300	0.669700	0.643300
H641	H64	0.617400	0.607000	0.698800
H651	H65	0.467300	0.650900	0.727700
H661	H66	0.822100	0.193500	0.908500
H671	H67	0.373900	0.099300	0.638500
H681	H68	0.259400	0.102700	0.606300
H691	H69	0.269500	0.057900	0.686300
H701	H70	0.087200	0.204400	0.065400
H711	H71	0.036500	0.129900	0.085100
H721	H72	0.938700	0.215600	0.084000
H731	H73	0.665800	0.972500	0.948100
H741	H74	0.636100	0.041100	0.007300
H751	H75	0.755600	0.964400	0.001400
H761	H76	0.365300	0.830300	0.856700
H771	H77	0.423200	0.893000	0.801200
H781	H78	0.345900	0.849100	0.772300
H791	H79	0.015600	0.408500	0.806500
H801	H80	0.473200	0.138500	0.900700
H811	H81	0.362100	0.106300	0.897300
H821	H82	0.327400	0.186300	0.942100
H831	H83	0.291600	0.565400	0.795600
H841	H84	0.166400	0.585100	0.870100
H851	H85	0.154300	0.584000	0.784400
H861	H86	0.638300	0.448100	0.027500
H871	H87	0.677200	0.507300	0.958900
H881	H88	0.720000	0.501400	0.035600
H891	H89	0.195600	0.356700	0.169700
H901	H90	0.316200	0.301200	0.107000
H911	H91	0.195000	0.272300	0.150900
H921	H92	0.730600	0.091500	0.693500
H931	H93	0.012400	0.361500	0.599300
H941	H94	0.865700	0.393700	0.602700
H951	H95	0.955800	0.313700	0.557900
H961	H96	0.152600	0.934600	0.704400
H971	H97	0.121600	0.914900	0.629900
H981	H98	0.022700	0.916000	0.715600
H991	H99	0.613900	0.051900	0.472500
H1001	H100	0.643400	0.992700	0.541100
H1011	H101	0.757000	0.998600	0.464400
H1021	H102	0.222000	0.143300	0.330300
H1031	H103	0.224400	0.198800	0.393000
H1041	H104	0.118200	0.227700	0.349100
C11	C1	0.420000	0.678100	0.198900
C21	C2	0.460100	0.602800	0.153400
C31	C3	0.311200	0.671600	0.471400
C41	C4	0.234000	0.681200	0.559600
C51	C5	0.764300	0.539900	0.407900
C61	C6	0.823200	0.501000	0.472000
C71	C7	0.482800	0.436500	0.353300
C81	C8	0.459300	0.371300	0.317700
C91	C9	0.797000	0.821900	0.301100
C101	C10	0.716300	0.897200	0.346600
C111	C11	0.954200	0.828400	0.028600
C121	C12	0.974800	0.818800	0.940400
C131	C13	0.212100	0.960100	0.092100
C141	C14	0.296200	0.999000	0.028000
C151	C15	0.772600	0.063500	0.146700
C161	C16	0.648300	0.128700	0.182300
C171	C17	0.618900	0.801100	0.178100
C181	C18	0.613500	0.846600	0.102800
C191	C19	0.782600	0.528600	0.171600
C201	C20	0.793600	0.440400	0.181200
C211	C21	0.172200	0.592100	0.039900
C221	C22	0.295200	0.528000	0.001000
C231	C23	0.836100	0.646700	0.936500
C241	C24	0.777000	0.682300	0.871300
C251	C25	0.098100	0.698900	0.321900
C261	C26	0.062900	0.653400	0.397200
C271	C27	0.982800	0.971400	0.328400
C281	C28	0.915200	0.059600	0.318800
C291	C29	0.304200	0.907900	0.460100
C301	C30	0.324200	0.972000	0.499000
C311	C31	0.919300	0.853300	0.563500
C321	C32	0.830600	0.817700	0.628700
C331	C33	0.580000	0.321900	0.801100
C341	C34	0.539900	0.397200	0.846600
C351	C35	0.688800	0.328400	0.528600
C361	C36	0.766000	0.318800	0.440400
C371	C37	0.235700	0.460100	0.592100
C381	C38	0.176800	0.499000	0.528000
C391	C39	0.517200	0.563500	0.646700
C401	C40	0.540700	0.628700	0.682300
C411	C41	0.203000	0.178100	0.698900
C421	C42	0.283700	0.102800	0.653400
C431	C43	0.045800	0.171600	0.971400
C441	C44	0.025200	0.181200	0.059600
C451	C45	0.787900	0.039900	0.907900
C461	C46	0.703800	0.001000	0.972000
C471	C47	0.227400	0.936500	0.853300
C481	C48	0.351700	0.871300	0.817700
C491	C49	0.381100	0.198900	0.821900
C501	C50	0.386500	0.153400	0.897200
C511	C51	0.217400	0.471400	0.828400
C521	C52	0.206400	0.559600	0.818800
C531	C53	0.827800	0.407900	0.960100
C541	C54	0.704800	0.472000	0.999000
C551	C55	0.163900	0.353300	0.063500
C561	C56	0.223000	0.317700	0.128700
C571	C57	0.901900	0.301100	0.678100
C581	C58	0.937100	0.346600	0.602800
C591	C59	0.017200	0.028600	0.671600
C601	C60	0.084800	0.940400	0.681200
C611	C61	0.695800	0.092100	0.539900
C621	C62	0.675800	0.028000	0.501000
C631	C63	0.080700	0.146700	0.436500
C641	C64	0.169400	0.182300	0.371300
O11	O1	0.438210	0.674860	0.266720
O21	O2	0.371500	0.742600	0.168000
O31	O3	0.288800	0.729600	0.425800
O41	O4	0.396300	0.605510	0.446690
O51	O5	0.657600	0.527110	0.408290
O61	O6	0.818500	0.581600	0.357800
O71	O7	0.502100	0.494500	0.308700
O81	O8	0.480000	0.429500	0.425100
O91	O9	0.576210	0.690540	0.353440
O101	O10	0.879790	0.825140	0.233280
O111	O11	0.782100	0.757400	0.332000
O121	O12	0.944200	0.770400	0.074200
O131	O13	0.948500	0.894490	0.053310
O141	O14	0.093000	0.972890	0.091710
O151	O15	0.257900	0.918400	0.142200
O161	O16	0.805300	0.005500	0.191300
O171	O17	0.834600	0.070500	0.074900
O181	O18	0.120190	0.809460	0.146560
O191	O19	0.704930	0.733280	0.174860
O201	O20	0.539500	0.832000	0.242600
O211	O21	0.714600	0.574200	0.229600
O221	O22	0.842990	0.553310	0.105510
O231	O23	0.065890	0.591710	0.027110
O241	O24	0.176300	0.642200	0.081600
O251	O25	0.810800	0.691300	0.994500
O261	O26	0.905100	0.574900	0.929500
O271	O27	0.929650	0.646560	0.190540
O281	O28	0.113070	0.766720	0.325140
O291	O29	0.114100	0.668000	0.257400
O301	O30	0.018400	0.925800	0.270400
O311	O31	0.001810	0.946690	0.394490
O321	O32	0.184710	0.908290	0.472890
O331	O33	0.400100	0.857800	0.418400
O341	O34	0.996600	0.808700	0.505500
O351	O35	0.909500	0.925100	0.570500
O361	O36	0.266750	0.853440	0.309460
O371	O37	0.561790	0.325140	0.733280
O381	O38	0.628500	0.257400	0.832000
O391	O39	0.711200	0.270400	0.574200
O401	O40	0.603700	0.394490	0.553310
O411	O41	0.342400	0.472890	0.591710
O421	O42	0.181500	0.418400	0.642200
O431	O43	0.497900	0.505500	0.691300
O441	O44	0.520000	0.570500	0.574900
O451	O45	0.423790	0.309460	0.646560
O461	O46	0.120210	0.174860	0.766720
O471	O47	0.217900	0.242600	0.668000
O481	O48	0.055800	0.229600	0.925800
O491	O49	0.051500	0.105510	0.946690
O501	O50	0.907000	0.027110	0.908290
O511	O51	0.742100	0.081600	0.857800
O521	O52	0.194700	0.994500	0.808700
O531	O53	0.165400	0.929500	0.925100
O541	O54	0.879810	0.190540	0.853440
O551	O55	0.295070	0.266720	0.825140
O561	O56	0.460500	0.168000	0.757400
O571	O57	0.285400	0.425800	0.770400
O581	O58	0.157010	0.446690	0.894490
O591	O59	0.934110	0.408290	0.972890
O601	O60	0.823700	0.357800	0.918400
O611	O61	0.189200	0.308700	0.005500
O621	O62	0.094900	0.425100	0.070500
O631	O63	0.070350	0.353440	0.809460
O641	O64	0.886930	0.233280	0.674860
O651	O65	0.885900	0.332000	0.742600
O661	O66	0.981600	0.074200	0.729600
O671	O67	0.998190	0.053310	0.605510
O681	O68	0.815290	0.091710	0.527110
O691	O69	0.599900	0.142200	0.581600
O701	O70	0.003400	0.191300	0.494500
O711	O71	0.090500	0.074900	0.429500
O721	O72	0.733250	0.146560	0.690540
