data_CIRTUU_clean_PM
_symmetry_space_group_name_H-M	'P1'
_cell_length_a	30.988000
_cell_length_b	30.988000
_cell_length_c	45.964000
_cell_angle_alpha	90.000000
_cell_angle_beta	90.000000
_cell_angle_gamma	90.000000
_symmetry_Int_Tables_number 1

loop_
_symmetry_equiv_pos_as_xyz
'x,y,z'

loop_
_atom_site_label
_atom_site_type_symbol
_atom_site_fract_x
_atom_site_fract_y
_atom_site_fract_z
Cu11	Cu1	0.103320	0.145380	0.127780
Cu21	Cu2	0.138940	0.195990	0.167790
O11	O1	0.159060	0.147300	0.108450
O21	O2	0.187190	0.194210	0.140580
O31	O3	0.246480	0.088130	0.030160
O41	O4	0.317790	0.102230	0.029480
O51	O5	0.400010	0.374600	0.346900
O61	O6	0.357780	0.340410	0.314620
O71	O7	0.552790	0.348220	0.347670
O81	O8	0.584550	0.311810	0.310900
O91	O9	0.087450	0.199180	0.108770
O101	O10	0.110600	0.241480	0.145230
O111	O11	0.998670	0.259010	0.030700
O121	O12	0.985180	0.330800	0.030660
O131	O13	0.356690	0.239040	0.198090
N11	N1	0.455230	0.270950	0.144720
H11	H1	0.477100	0.277400	0.133300
C11	C1	0.189070	0.170570	0.118360
C21	C2	0.231260	0.168760	0.101950
C31	C3	0.235150	0.142240	0.077970
H21	H2	0.210700	0.126800	0.071100
C41	C4	0.274030	0.137990	0.063950
C51	C5	0.310170	0.161400	0.073930
H31	H3	0.337200	0.158700	0.064300
C61	C6	0.305990	0.188380	0.097830
C71	C7	0.266890	0.191850	0.111500
H41	H4	0.264100	0.210400	0.127800
C81	C8	0.279520	0.106530	0.039380
C91	C9	0.345570	0.211970	0.109500
C101	C10	0.378350	0.225320	0.091820
H51	H5	0.375800	0.221300	0.071400
C111	C11	0.415650	0.244870	0.102990
H61	H6	0.437900	0.253900	0.090200
C121	C12	0.420140	0.251050	0.132890
C131	C13	0.384670	0.239350	0.151270
C141	C14	0.348720	0.220190	0.139290
H71	H7	0.325400	0.212400	0.151600
C151	C15	0.385930	0.248220	0.181950
C161	C16	0.425840	0.269010	0.193040
C171	C17	0.457860	0.281080	0.172900
C181	C18	0.496000	0.299860	0.185450
H81	H8	0.520000	0.305300	0.173100
C191	C19	0.499260	0.309990	0.213550
H91	H9	0.524300	0.324300	0.220500
C201	C20	0.465150	0.299450	0.233160
C211	C21	0.429780	0.278850	0.222260
H101	H10	0.407100	0.271000	0.235100
C221	C22	0.468040	0.312640	0.263770
C231	C23	0.507890	0.314510	0.278570
H111	H11	0.533500	0.306200	0.268700
C241	C24	0.510600	0.328390	0.307440
C251	C25	0.473140	0.340910	0.321820
H121	H12	0.474800	0.351200	0.341200
C261	C26	0.433600	0.338450	0.308110
C271	C27	0.430870	0.324140	0.279510
H131	H13	0.403400	0.322100	0.270400
C281	C28	0.552610	0.329450	0.323040
C291	C29	0.393990	0.351750	0.324840
C301	C30	0.090540	0.234690	0.122070
C311	C31	0.048660	0.267600	0.081200
H141	H14	0.051200	0.240900	0.071100
C321	C32	0.025960	0.301460	0.068990
C331	C33	0.022060	0.340890	0.084150
H151	H15	0.006800	0.364300	0.075600
C341	C34	0.040550	0.345590	0.111700
C351	C35	0.064450	0.311410	0.123080
H161	H16	0.078700	0.314700	0.141300
C361	C36	0.067690	0.272930	0.108250
C371	C37	0.001700	0.295870	0.040870
C381	C38	0.033290	0.386210	0.127960
C391	C39	0.023000	0.424150	0.113110
H171	H17	0.023200	0.424100	0.092400
C401	C40	0.012130	0.463040	0.128200
C411	C41	0.010790	0.463530	0.158280
C421	C42	0.020470	0.425410	0.173230
H181	H18	0.019300	0.425000	0.193900
C431	C43	0.032050	0.387150	0.157830
H191	H19	0.039100	0.361800	0.168400
Cu31	Cu3	0.896680	0.854620	0.127780
Cu41	Cu4	0.861060	0.804010	0.167790
O141	O14	0.840940	0.852700	0.108450
O151	O15	0.812810	0.805790	0.140580
O161	O16	0.753520	0.911870	0.030160
O171	O17	0.682210	0.897770	0.029480
O181	O18	0.599990	0.625400	0.346900
O191	O19	0.642220	0.659590	0.314620
O201	O20	0.447210	0.651780	0.347670
O211	O21	0.415450	0.688190	0.310900
O221	O22	0.912550	0.800820	0.108770
O231	O23	0.889400	0.758520	0.145230
O241	O24	0.001330	0.740990	0.030700
O251	O25	0.014820	0.669200	0.030660
O261	O26	0.643310	0.760960	0.198090
N21	N2	0.544770	0.729050	0.144720
H201	H20	0.522900	0.722600	0.133300
C441	C44	0.810930	0.829430	0.118360
C451	C45	0.768740	0.831240	0.101950
C461	C46	0.764850	0.857760	0.077970
H211	H21	0.789300	0.873200	0.071100
C471	C47	0.725970	0.862010	0.063950
C481	C48	0.689830	0.838600	0.073930
H221	H22	0.662800	0.841300	0.064300
C491	C49	0.694010	0.811620	0.097830
C501	C50	0.733110	0.808150	0.111500
H231	H23	0.735900	0.789600	0.127800
C511	C51	0.720480	0.893470	0.039380
C521	C52	0.654430	0.788030	0.109500
C531	C53	0.621650	0.774680	0.091820
H241	H24	0.624200	0.778700	0.071400
C541	C54	0.584350	0.755130	0.102990
H251	H25	0.562100	0.746100	0.090200
C551	C55	0.579860	0.748950	0.132890
C561	C56	0.615330	0.760650	0.151270
C571	C57	0.651280	0.779810	0.139290
H261	H26	0.674600	0.787600	0.151600
C581	C58	0.614070	0.751780	0.181950
C591	C59	0.574160	0.730990	0.193040
C601	C60	0.542140	0.718920	0.172900
C611	C61	0.504000	0.700140	0.185450
H271	H27	0.480000	0.694700	0.173100
C621	C62	0.500740	0.690010	0.213550
H281	H28	0.475700	0.675700	0.220500
C631	C63	0.534850	0.700550	0.233160
C641	C64	0.570220	0.721150	0.222260
H291	H29	0.592900	0.729000	0.235100
C651	C65	0.531960	0.687360	0.263770
C661	C66	0.492110	0.685490	0.278570
H301	H30	0.466500	0.693800	0.268700
C671	C67	0.489400	0.671610	0.307440
C681	C68	0.526860	0.659090	0.321820
H311	H31	0.525200	0.648800	0.341200
C691	C69	0.566400	0.661550	0.308110
C701	C70	0.569130	0.675860	0.279510
H321	H32	0.596600	0.677900	0.270400
C711	C71	0.447390	0.670550	0.323040
C721	C72	0.606010	0.648250	0.324840
C731	C73	0.909460	0.765310	0.122070
C741	C74	0.951340	0.732400	0.081200
H331	H33	0.948800	0.759100	0.071100
C751	C75	0.974040	0.698540	0.068990
C761	C76	0.977940	0.659110	0.084150
H341	H34	0.993200	0.635700	0.075600
C771	C77	0.959450	0.654410	0.111700
C781	C78	0.935550	0.688590	0.123080
H351	H35	0.921300	0.685300	0.141300
C791	C79	0.932310	0.727070	0.108250
C801	C80	0.998300	0.704130	0.040870
C811	C81	0.966710	0.613790	0.127960
C821	C82	0.977000	0.575850	0.113110
H361	H36	0.976800	0.575900	0.092400
C831	C83	0.987870	0.536960	0.128200
C841	C84	0.989210	0.536470	0.158280
C851	C85	0.979530	0.574590	0.173230
H371	H37	0.980700	0.575000	0.193900
C861	C86	0.967950	0.612850	0.157830
H381	H38	0.960900	0.638200	0.168400
Cu51	Cu5	0.854620	0.103320	0.127780
Cu61	Cu6	0.804010	0.138940	0.167790
O271	O27	0.852700	0.159060	0.108450
O281	O28	0.805790	0.187190	0.140580
O291	O29	0.911870	0.246480	0.030160
O301	O30	0.897770	0.317790	0.029480
O311	O31	0.625400	0.400010	0.346900
O321	O32	0.659590	0.357780	0.314620
O331	O33	0.651780	0.552790	0.347670
O341	O34	0.688190	0.584550	0.310900
O351	O35	0.800820	0.087450	0.108770
O361	O36	0.758520	0.110600	0.145230
O371	O37	0.740990	0.998670	0.030700
O381	O38	0.669200	0.985180	0.030660
O391	O39	0.760960	0.356690	0.198090
N31	N3	0.729050	0.455230	0.144720
H391	H39	0.722600	0.477100	0.133300
C871	C87	0.829430	0.189070	0.118360
C881	C88	0.831240	0.231260	0.101950
C891	C89	0.857760	0.235150	0.077970
H401	H40	0.873200	0.210700	0.071100
C901	C90	0.862010	0.274030	0.063950
C911	C91	0.838600	0.310170	0.073930
H411	H41	0.841300	0.337200	0.064300
C921	C92	0.811620	0.305990	0.097830
C931	C93	0.808150	0.266890	0.111500
H421	H42	0.789600	0.264100	0.127800
C941	C94	0.893470	0.279520	0.039380
C951	C95	0.788030	0.345570	0.109500
C961	C96	0.774680	0.378350	0.091820
H431	H43	0.778700	0.375800	0.071400
C971	C97	0.755130	0.415650	0.102990
H441	H44	0.746100	0.437900	0.090200
C981	C98	0.748950	0.420140	0.132890
C991	C99	0.760650	0.384670	0.151270
C1001	C100	0.779810	0.348720	0.139290
H451	H45	0.787600	0.325400	0.151600
C1011	C101	0.751780	0.385930	0.181950
C1021	C102	0.730990	0.425840	0.193040
C1031	C103	0.718920	0.457860	0.172900
C1041	C104	0.700140	0.496000	0.185450
H461	H46	0.694700	0.520000	0.173100
C1051	C105	0.690010	0.499260	0.213550
H471	H47	0.675700	0.524300	0.220500
C1061	C106	0.700550	0.465150	0.233160
C1071	C107	0.721150	0.429780	0.222260
H481	H48	0.729000	0.407100	0.235100
C1081	C108	0.687360	0.468040	0.263770
C1091	C109	0.685490	0.507890	0.278570
H491	H49	0.693800	0.533500	0.268700
C1101	C110	0.671610	0.510600	0.307440
C1111	C111	0.659090	0.473140	0.321820
H501	H50	0.648800	0.474800	0.341200
C1121	C112	0.661550	0.433600	0.308110
C1131	C113	0.675860	0.430870	0.279510
H511	H51	0.677900	0.403400	0.270400
C1141	C114	0.670550	0.552610	0.323040
C1151	C115	0.648250	0.393990	0.324840
C1161	C116	0.765310	0.090540	0.122070
C1171	C117	0.732400	0.048660	0.081200
H521	H52	0.759100	0.051200	0.071100
C1181	C118	0.698540	0.025960	0.068990
C1191	C119	0.659110	0.022060	0.084150
H531	H53	0.635700	0.006800	0.075600
C1201	C120	0.654410	0.040550	0.111700
C1211	C121	0.688590	0.064450	0.123080
H541	H54	0.685300	0.078700	0.141300
C1221	C122	0.727070	0.067690	0.108250
C1231	C123	0.704130	0.001700	0.040870
C1241	C124	0.613790	0.033290	0.127960
C1251	C125	0.575850	0.023000	0.113110
H551	H55	0.575900	0.023200	0.092400
C1261	C126	0.536960	0.012130	0.128200
C1271	C127	0.536470	0.010790	0.158280
C1281	C128	0.574590	0.020470	0.173230
H561	H56	0.575000	0.019300	0.193900
C1291	C129	0.612850	0.032050	0.157830
H571	H57	0.638200	0.039100	0.168400
Cu71	Cu7	0.145380	0.896680	0.127780
Cu81	Cu8	0.195990	0.861060	0.167790
O401	O40	0.147300	0.840940	0.108450
O411	O41	0.194210	0.812810	0.140580
O421	O42	0.088130	0.753520	0.030160
O431	O43	0.102230	0.682210	0.029480
O441	O44	0.374600	0.599990	0.346900
O451	O45	0.340410	0.642220	0.314620
O461	O46	0.348220	0.447210	0.347670
O471	O47	0.311810	0.415450	0.310900
O481	O48	0.199180	0.912550	0.108770
O491	O49	0.241480	0.889400	0.145230
O501	O50	0.259010	0.001330	0.030700
O511	O51	0.330800	0.014820	0.030660
O521	O52	0.239040	0.643310	0.198090
N41	N4	0.270950	0.544770	0.144720
H581	H58	0.277400	0.522900	0.133300
C1301	C130	0.170570	0.810930	0.118360
C1311	C131	0.168760	0.768740	0.101950
C1321	C132	0.142240	0.764850	0.077970
H591	H59	0.126800	0.789300	0.071100
C1331	C133	0.137990	0.725970	0.063950
C1341	C134	0.161400	0.689830	0.073930
H601	H60	0.158700	0.662800	0.064300
C1351	C135	0.188380	0.694010	0.097830
C1361	C136	0.191850	0.733110	0.111500
H611	H61	0.210400	0.735900	0.127800
C1371	C137	0.106530	0.720480	0.039380
C1381	C138	0.211970	0.654430	0.109500
C1391	C139	0.225320	0.621650	0.091820
H621	H62	0.221300	0.624200	0.071400
C1401	C140	0.244870	0.584350	0.102990
H631	H63	0.253900	0.562100	0.090200
C1411	C141	0.251050	0.579860	0.132890
C1421	C142	0.239350	0.615330	0.151270
C1431	C143	0.220190	0.651280	0.139290
H641	H64	0.212400	0.674600	0.151600
C1441	C144	0.248220	0.614070	0.181950
C1451	C145	0.269010	0.574160	0.193040
C1461	C146	0.281080	0.542140	0.172900
C1471	C147	0.299860	0.504000	0.185450
H651	H65	0.305300	0.480000	0.173100
C1481	C148	0.309990	0.500740	0.213550
H661	H66	0.324300	0.475700	0.220500
C1491	C149	0.299450	0.534850	0.233160
C1501	C150	0.278850	0.570220	0.222260
H671	H67	0.271000	0.592900	0.235100
C1511	C151	0.312640	0.531960	0.263770
C1521	C152	0.314510	0.492110	0.278570
H681	H68	0.306200	0.466500	0.268700
C1531	C153	0.328390	0.489400	0.307440
C1541	C154	0.340910	0.526860	0.321820
H691	H69	0.351200	0.525200	0.341200
C1551	C155	0.338450	0.566400	0.308110
C1561	C156	0.324140	0.569130	0.279510
H701	H70	0.322100	0.596600	0.270400
C1571	C157	0.329450	0.447390	0.323040
C1581	C158	0.351750	0.606010	0.324840
C1591	C159	0.234690	0.909460	0.122070
C1601	C160	0.267600	0.951340	0.081200
H711	H71	0.240900	0.948800	0.071100
C1611	C161	0.301460	0.974040	0.068990
C1621	C162	0.340890	0.977940	0.084150
H721	H72	0.364300	0.993200	0.075600
C1631	C163	0.345590	0.959450	0.111700
C1641	C164	0.311410	0.935550	0.123080
H731	H73	0.314700	0.921300	0.141300
C1651	C165	0.272930	0.932310	0.108250
C1661	C166	0.295870	0.998300	0.040870
C1671	C167	0.386210	0.966710	0.127960
C1681	C168	0.424150	0.977000	0.113110
H741	H74	0.424100	0.976800	0.092400
C1691	C169	0.463040	0.987870	0.128200
C1701	C170	0.463530	0.989210	0.158280
C1711	C171	0.425410	0.979530	0.173230
H751	H75	0.425000	0.980700	0.193900
C1721	C172	0.387150	0.967950	0.157830
H761	H76	0.361800	0.960900	0.168400
Cu91	Cu9	0.396680	0.645380	0.372220
Cu101	Cu10	0.361060	0.695990	0.332210
O531	O53	0.340940	0.647300	0.391550
O541	O54	0.312810	0.694210	0.359420
O551	O55	0.253520	0.588130	0.469840
O561	O56	0.182210	0.602230	0.470520
O571	O57	0.099990	0.874600	0.153100
O581	O58	0.142220	0.840410	0.185380
O591	O59	0.947210	0.848220	0.152330
O601	O60	0.915450	0.811810	0.189100
O611	O61	0.412550	0.699180	0.391230
O621	O62	0.389400	0.741480	0.354770
O631	O63	0.501330	0.759010	0.469300
O641	O64	0.514820	0.830800	0.469340
O651	O65	0.143310	0.739040	0.301910
N51	N5	0.044770	0.770950	0.355280
H771	H77	0.022900	0.777400	0.366700
C1731	C173	0.310930	0.670570	0.381640
C1741	C174	0.268740	0.668760	0.398050
C1751	C175	0.264850	0.642240	0.422030
H781	H78	0.289300	0.626800	0.428900
C1761	C176	0.225970	0.637990	0.436050
C1771	C177	0.189830	0.661400	0.426070
H791	H79	0.162800	0.658700	0.435700
C1781	C178	0.194010	0.688380	0.402170
C1791	C179	0.233110	0.691850	0.388500
H801	H80	0.235900	0.710400	0.372200
C1801	C180	0.220480	0.606530	0.460620
C1811	C181	0.154430	0.711970	0.390500
C1821	C182	0.121650	0.725320	0.408180
H811	H81	0.124200	0.721300	0.428600
C1831	C183	0.084350	0.744870	0.397010
H821	H82	0.062100	0.753900	0.409800
C1841	C184	0.079860	0.751050	0.367110
C1851	C185	0.115330	0.739350	0.348730
C1861	C186	0.151280	0.720190	0.360710
H831	H83	0.174600	0.712400	0.348400
C1871	C187	0.114070	0.748220	0.318050
C1881	C188	0.074160	0.769010	0.306960
C1891	C189	0.042140	0.781080	0.327100
C1901	C190	0.004000	0.799860	0.314550
H841	H84	0.980000	0.805300	0.326900
C1911	C191	0.000740	0.809990	0.286450
H851	H85	0.975700	0.824300	0.279500
C1921	C192	0.034850	0.799450	0.266840
C1931	C193	0.070220	0.778850	0.277740
H861	H86	0.092900	0.771000	0.264900
C1941	C194	0.031960	0.812640	0.236230
C1951	C195	0.992110	0.814510	0.221430
H871	H87	0.966500	0.806200	0.231300
C1961	C196	0.989400	0.828390	0.192560
C1971	C197	0.026860	0.840910	0.178180
H881	H88	0.025200	0.851200	0.158800
C1981	C198	0.066400	0.838450	0.191890
C1991	C199	0.069130	0.824140	0.220490
H891	H89	0.096600	0.822100	0.229600
C2001	C200	0.947390	0.829450	0.176960
C2011	C201	0.106010	0.851750	0.175160
C2021	C202	0.409460	0.734690	0.377930
C2031	C203	0.451340	0.767600	0.418800
H901	H90	0.448800	0.740900	0.428900
C2041	C204	0.474040	0.801460	0.431010
C2051	C205	0.477940	0.840890	0.415850
H911	H91	0.493200	0.864300	0.424400
C2061	C206	0.459450	0.845590	0.388300
C2071	C207	0.435550	0.811410	0.376920
H921	H92	0.421300	0.814700	0.358700
C2081	C208	0.432310	0.772930	0.391750
C2091	C209	0.498300	0.795870	0.459130
C2101	C210	0.466710	0.886210	0.372040
C2111	C211	0.477000	0.924150	0.386890
H931	H93	0.476800	0.924100	0.407600
C2121	C212	0.487870	0.963040	0.371800
C2131	C213	0.489210	0.963530	0.341720
C2141	C214	0.479530	0.925410	0.326770
H941	H94	0.480700	0.925000	0.306100
C2151	C215	0.467950	0.887150	0.342170
H951	H95	0.460900	0.861800	0.331600
Cu111	Cu11	0.603320	0.354620	0.372220
Cu121	Cu12	0.638940	0.304010	0.332210
O661	O66	0.659060	0.352700	0.391550
O671	O67	0.687190	0.305790	0.359420
O681	O68	0.746480	0.411870	0.469840
O691	O69	0.817790	0.397770	0.470520
O701	O70	0.900010	0.125400	0.153100
O711	O71	0.857780	0.159590	0.185380
O721	O72	0.052790	0.151780	0.152330
O731	O73	0.084550	0.188190	0.189100
O741	O74	0.587450	0.300820	0.391230
O751	O75	0.610600	0.258520	0.354770
O761	O76	0.498670	0.240990	0.469300
O771	O77	0.485180	0.169200	0.469340
O781	O78	0.856690	0.260960	0.301910
N61	N6	0.955230	0.229050	0.355280
H961	H96	0.977100	0.222600	0.366700
C2161	C216	0.689070	0.329430	0.381640
C2171	C217	0.731260	0.331240	0.398050
C2181	C218	0.735150	0.357760	0.422030
H971	H97	0.710700	0.373200	0.428900
C2191	C219	0.774030	0.362010	0.436050
C2201	C220	0.810170	0.338600	0.426070
H981	H98	0.837200	0.341300	0.435700
C2211	C221	0.805990	0.311620	0.402170
C2221	C222	0.766890	0.308150	0.388500
H991	H99	0.764100	0.289600	0.372200
C2231	C223	0.779520	0.393470	0.460620
C2241	C224	0.845570	0.288030	0.390500
C2251	C225	0.878350	0.274680	0.408180
H1001	H100	0.875800	0.278700	0.428600
C2261	C226	0.915650	0.255130	0.397010
H1011	H101	0.937900	0.246100	0.409800
C2271	C227	0.920140	0.248950	0.367110
C2281	C228	0.884670	0.260650	0.348730
C2291	C229	0.848720	0.279810	0.360710
H1021	H102	0.825400	0.287600	0.348400
C2301	C230	0.885930	0.251780	0.318050
C2311	C231	0.925840	0.230990	0.306960
C2321	C232	0.957860	0.218920	0.327100
C2331	C233	0.996000	0.200140	0.314550
H1031	H103	0.020000	0.194700	0.326900
C2341	C234	0.999260	0.190010	0.286450
H1041	H104	0.024300	0.175700	0.279500
C2351	C235	0.965150	0.200550	0.266840
C2361	C236	0.929780	0.221150	0.277740
H1051	H105	0.907100	0.229000	0.264900
C2371	C237	0.968040	0.187360	0.236230
C2381	C238	0.007890	0.185490	0.221430
H1061	H106	0.033500	0.193800	0.231300
C2391	C239	0.010600	0.171610	0.192560
C2401	C240	0.973140	0.159090	0.178180
H1071	H107	0.974800	0.148800	0.158800
C2411	C241	0.933600	0.161550	0.191890
C2421	C242	0.930870	0.175860	0.220490
H1081	H108	0.903400	0.177900	0.229600
C2431	C243	0.052610	0.170550	0.176960
C2441	C244	0.893990	0.148250	0.175160
C2451	C245	0.590540	0.265310	0.377930
C2461	C246	0.548660	0.232400	0.418800
H1091	H109	0.551200	0.259100	0.428900
C2471	C247	0.525960	0.198540	0.431010
C2481	C248	0.522060	0.159110	0.415850
H1101	H110	0.506800	0.135700	0.424400
C2491	C249	0.540550	0.154410	0.388300
C2501	C250	0.564450	0.188590	0.376920
H1111	H111	0.578700	0.185300	0.358700
C2511	C251	0.567690	0.227070	0.391750
C2521	C252	0.501700	0.204130	0.459130
C2531	C253	0.533290	0.113790	0.372040
C2541	C254	0.523000	0.075850	0.386890
H1121	H112	0.523200	0.075900	0.407600
C2551	C255	0.512130	0.036960	0.371800
C2561	C256	0.510790	0.036470	0.341720
C2571	C257	0.520470	0.074590	0.326770
H1131	H113	0.519300	0.075000	0.306100
C2581	C258	0.532050	0.112850	0.342170
H1141	H114	0.539100	0.138200	0.331600
Cu131	Cu13	0.645380	0.603320	0.372220
Cu141	Cu14	0.695990	0.638940	0.332210
O791	O79	0.647300	0.659060	0.391550
O801	O80	0.694210	0.687190	0.359420
O811	O81	0.588130	0.746480	0.469840
O821	O82	0.602230	0.817790	0.470520
O831	O83	0.874600	0.900010	0.153100
O841	O84	0.840410	0.857780	0.185380
O851	O85	0.848220	0.052790	0.152330
O861	O86	0.811810	0.084550	0.189100
O871	O87	0.699180	0.587450	0.391230
O881	O88	0.741480	0.610600	0.354770
O891	O89	0.759010	0.498670	0.469300
O901	O90	0.830800	0.485180	0.469340
O911	O91	0.739040	0.856690	0.301910
N71	N7	0.770950	0.955230	0.355280
H1151	H115	0.777400	0.977100	0.366700
C2591	C259	0.670570	0.689070	0.381640
C2601	C260	0.668760	0.731260	0.398050
C2611	C261	0.642240	0.735150	0.422030
H1161	H116	0.626800	0.710700	0.428900
C2621	C262	0.637990	0.774030	0.436050
C2631	C263	0.661400	0.810170	0.426070
H1171	H117	0.658700	0.837200	0.435700
C2641	C264	0.688380	0.805990	0.402170
C2651	C265	0.691850	0.766890	0.388500
H1181	H118	0.710400	0.764100	0.372200
C2661	C266	0.606530	0.779520	0.460620
C2671	C267	0.711970	0.845570	0.390500
C2681	C268	0.725320	0.878350	0.408180
H1191	H119	0.721300	0.875800	0.428600
C2691	C269	0.744870	0.915650	0.397010
H1201	H120	0.753900	0.937900	0.409800
C2701	C270	0.751050	0.920140	0.367110
C2711	C271	0.739350	0.884670	0.348730
C2721	C272	0.720190	0.848720	0.360710
H1211	H121	0.712400	0.825400	0.348400
C2731	C273	0.748220	0.885930	0.318050
C2741	C274	0.769010	0.925840	0.306960
C2751	C275	0.781080	0.957860	0.327100
C2761	C276	0.799860	0.996000	0.314550
H1221	H122	0.805300	0.020000	0.326900
C2771	C277	0.809990	0.999260	0.286450
H1231	H123	0.824300	0.024300	0.279500
C2781	C278	0.799450	0.965150	0.266840
C2791	C279	0.778850	0.929780	0.277740
H1241	H124	0.771000	0.907100	0.264900
C2801	C280	0.812640	0.968040	0.236230
C2811	C281	0.814510	0.007890	0.221430
H1251	H125	0.806200	0.033500	0.231300
C2821	C282	0.828390	0.010600	0.192560
C2831	C283	0.840910	0.973140	0.178180
H1261	H126	0.851200	0.974800	0.158800
C2841	C284	0.838450	0.933600	0.191890
C2851	C285	0.824140	0.930870	0.220490
H1271	H127	0.822100	0.903400	0.229600
C2861	C286	0.829450	0.052610	0.176960
C2871	C287	0.851750	0.893990	0.175160
C2881	C288	0.734690	0.590540	0.377930
C2891	C289	0.767600	0.548660	0.418800
H1281	H128	0.740900	0.551200	0.428900
C2901	C290	0.801460	0.525960	0.431010
C2911	C291	0.840890	0.522060	0.415850
H1291	H129	0.864300	0.506800	0.424400
C2921	C292	0.845590	0.540550	0.388300
C2931	C293	0.811410	0.564450	0.376920
H1301	H130	0.814700	0.578700	0.358700
C2941	C294	0.772930	0.567690	0.391750
C2951	C295	0.795870	0.501700	0.459130
C2961	C296	0.886210	0.533290	0.372040
C2971	C297	0.924150	0.523000	0.386890
H1311	H131	0.924100	0.523200	0.407600
C2981	C298	0.963040	0.512130	0.371800
C2991	C299	0.963530	0.510790	0.341720
C3001	C300	0.925410	0.520470	0.326770
H1321	H132	0.925000	0.519300	0.306100
C3011	C301	0.887150	0.532050	0.342170
H1331	H133	0.861800	0.539100	0.331600
Cu151	Cu15	0.354620	0.396680	0.372220
Cu161	Cu16	0.304010	0.361060	0.332210
O921	O92	0.352700	0.340940	0.391550
O931	O93	0.305790	0.312810	0.359420
O941	O94	0.411870	0.253520	0.469840
O951	O95	0.397770	0.182210	0.470520
O961	O96	0.125400	0.099990	0.153100
O971	O97	0.159590	0.142220	0.185380
O981	O98	0.151780	0.947210	0.152330
O991	O99	0.188190	0.915450	0.189100
O1001	O100	0.300820	0.412550	0.391230
O1011	O101	0.258520	0.389400	0.354770
O1021	O102	0.240990	0.501330	0.469300
O1031	O103	0.169200	0.514820	0.469340
O1041	O104	0.260960	0.143310	0.301910
N81	N8	0.229050	0.044770	0.355280
H1341	H134	0.222600	0.022900	0.366700
C3021	C302	0.329430	0.310930	0.381640
C3031	C303	0.331240	0.268740	0.398050
C3041	C304	0.357760	0.264850	0.422030
H1351	H135	0.373200	0.289300	0.428900
C3051	C305	0.362010	0.225970	0.436050
C3061	C306	0.338600	0.189830	0.426070
H1361	H136	0.341300	0.162800	0.435700
C3071	C307	0.311620	0.194010	0.402170
C3081	C308	0.308150	0.233110	0.388500
H1371	H137	0.289600	0.235900	0.372200
C3091	C309	0.393470	0.220480	0.460620
C3101	C310	0.288030	0.154430	0.390500
C3111	C311	0.274680	0.121650	0.408180
H1381	H138	0.278700	0.124200	0.428600
C3121	C312	0.255130	0.084350	0.397010
H1391	H139	0.246100	0.062100	0.409800
C3131	C313	0.248950	0.079860	0.367110
C3141	C314	0.260650	0.115330	0.348730
C3151	C315	0.279810	0.151280	0.360710
H1401	H140	0.287600	0.174600	0.348400
C3161	C316	0.251780	0.114070	0.318050
C3171	C317	0.230990	0.074160	0.306960
C3181	C318	0.218920	0.042140	0.327100
C3191	C319	0.200140	0.004000	0.314550
H1411	H141	0.194700	0.980000	0.326900
C3201	C320	0.190010	0.000740	0.286450
H1421	H142	0.175700	0.975700	0.279500
C3211	C321	0.200550	0.034850	0.266840
C3221	C322	0.221150	0.070220	0.277740
H1431	H143	0.229000	0.092900	0.264900
C3231	C323	0.187360	0.031960	0.236230
C3241	C324	0.185490	0.992110	0.221430
H1441	H144	0.193800	0.966500	0.231300
C3251	C325	0.171610	0.989400	0.192560
C3261	C326	0.159090	0.026860	0.178180
H1451	H145	0.148800	0.025200	0.158800
C3271	C327	0.161550	0.066400	0.191890
C3281	C328	0.175860	0.069130	0.220490
H1461	H146	0.177900	0.096600	0.229600
C3291	C329	0.170550	0.947390	0.176960
C3301	C330	0.148250	0.106010	0.175160
C3311	C331	0.265310	0.409460	0.377930
C3321	C332	0.232400	0.451340	0.418800
H1471	H147	0.259100	0.448800	0.428900
C3331	C333	0.198540	0.474040	0.431010
C3341	C334	0.159110	0.477940	0.415850
H1481	H148	0.135700	0.493200	0.424400
C3351	C335	0.154410	0.459450	0.388300
C3361	C336	0.188590	0.435550	0.376920
H1491	H149	0.185300	0.421300	0.358700
C3371	C337	0.227070	0.432310	0.391750
C3381	C338	0.204130	0.498300	0.459130
C3391	C339	0.113790	0.466710	0.372040
C3401	C340	0.075850	0.477000	0.386890
H1501	H150	0.075900	0.476800	0.407600
C3411	C341	0.036960	0.487870	0.371800
C3421	C342	0.036470	0.489210	0.341720
C3431	C343	0.074590	0.479530	0.326770
H1511	H151	0.075000	0.480700	0.306100
C3441	C344	0.112850	0.467950	0.342170
H1521	H152	0.138200	0.460900	0.331600
Cu171	Cu17	0.896680	0.854620	0.872220
Cu181	Cu18	0.861060	0.804010	0.832210
O1051	O105	0.840940	0.852700	0.891550
O1061	O106	0.812810	0.805790	0.859420
O1071	O107	0.753520	0.911870	0.969840
O1081	O108	0.682210	0.897770	0.970520
O1091	O109	0.599990	0.625400	0.653100
O1101	O110	0.642220	0.659590	0.685380
O1111	O111	0.447210	0.651780	0.652330
O1121	O112	0.415450	0.688190	0.689100
O1131	O113	0.912550	0.800820	0.891230
O1141	O114	0.889400	0.758520	0.854770
O1151	O115	0.001330	0.740990	0.969300
O1161	O116	0.014820	0.669200	0.969340
O1171	O117	0.643310	0.760960	0.801910
N91	N9	0.544770	0.729050	0.855280
H1531	H153	0.522900	0.722600	0.866700
C3451	C345	0.810930	0.829430	0.881640
C3461	C346	0.768740	0.831240	0.898050
C3471	C347	0.764850	0.857760	0.922030
H1541	H154	0.789300	0.873200	0.928900
C3481	C348	0.725970	0.862010	0.936050
C3491	C349	0.689830	0.838600	0.926070
H1551	H155	0.662800	0.841300	0.935700
C3501	C350	0.694010	0.811620	0.902170
C3511	C351	0.733110	0.808150	0.888500
H1561	H156	0.735900	0.789600	0.872200
C3521	C352	0.720480	0.893470	0.960620
C3531	C353	0.654430	0.788030	0.890500
C3541	C354	0.621650	0.774680	0.908180
H1571	H157	0.624200	0.778700	0.928600
C3551	C355	0.584350	0.755130	0.897010
H1581	H158	0.562100	0.746100	0.909800
C3561	C356	0.579860	0.748950	0.867110
C3571	C357	0.615330	0.760650	0.848730
C3581	C358	0.651280	0.779810	0.860710
H1591	H159	0.674600	0.787600	0.848400
C3591	C359	0.614070	0.751780	0.818050
C3601	C360	0.574160	0.730990	0.806960
C3611	C361	0.542140	0.718920	0.827100
C3621	C362	0.504000	0.700140	0.814550
H1601	H160	0.480000	0.694700	0.826900
C3631	C363	0.500740	0.690010	0.786450
H1611	H161	0.475700	0.675700	0.779500
C3641	C364	0.534850	0.700550	0.766840
C3651	C365	0.570220	0.721150	0.777740
H1621	H162	0.592900	0.729000	0.764900
C3661	C366	0.531960	0.687360	0.736230
C3671	C367	0.492110	0.685490	0.721430
H1631	H163	0.466500	0.693800	0.731300
C3681	C368	0.489400	0.671610	0.692560
C3691	C369	0.526860	0.659090	0.678180
H1641	H164	0.525200	0.648800	0.658800
C3701	C370	0.566400	0.661550	0.691890
C3711	C371	0.569130	0.675860	0.720490
H1651	H165	0.596600	0.677900	0.729600
C3721	C372	0.447390	0.670550	0.676960
C3731	C373	0.606010	0.648250	0.675160
C3741	C374	0.909460	0.765310	0.877930
C3751	C375	0.951340	0.732400	0.918800
H1661	H166	0.948800	0.759100	0.928900
C3761	C376	0.974040	0.698540	0.931010
C3771	C377	0.977940	0.659110	0.915850
H1671	H167	0.993200	0.635700	0.924400
C3781	C378	0.959450	0.654410	0.888300
C3791	C379	0.935550	0.688590	0.876920
H1681	H168	0.921300	0.685300	0.858700
C3801	C380	0.932310	0.727070	0.891750
C3811	C381	0.998300	0.704130	0.959130
C3821	C382	0.966710	0.613790	0.872040
C3831	C383	0.977000	0.575850	0.886890
H1691	H169	0.976800	0.575900	0.907600
C3841	C384	0.987870	0.536960	0.871800
C3851	C385	0.989210	0.536470	0.841720
C3861	C386	0.979530	0.574590	0.826770
H1701	H170	0.980700	0.575000	0.806100
C3871	C387	0.967950	0.612850	0.842170
H1711	H171	0.960900	0.638200	0.831600
Cu191	Cu19	0.103320	0.145380	0.872220
Cu201	Cu20	0.138940	0.195990	0.832210
O1181	O118	0.159060	0.147300	0.891550
O1191	O119	0.187190	0.194210	0.859420
O1201	O120	0.246480	0.088130	0.969840
O1211	O121	0.317790	0.102230	0.970520
O1221	O122	0.400010	0.374600	0.653100
O1231	O123	0.357780	0.340410	0.685380
O1241	O124	0.552790	0.348220	0.652330
O1251	O125	0.584550	0.311810	0.689100
O1261	O126	0.087450	0.199180	0.891230
O1271	O127	0.110600	0.241480	0.854770
O1281	O128	0.998670	0.259010	0.969300
O1291	O129	0.985180	0.330800	0.969340
O1301	O130	0.356690	0.239040	0.801910
N101	N10	0.455230	0.270950	0.855280
H1721	H172	0.477100	0.277400	0.866700
C3881	C388	0.189070	0.170570	0.881640
C3891	C389	0.231260	0.168760	0.898050
C3901	C390	0.235150	0.142240	0.922030
H1731	H173	0.210700	0.126800	0.928900
C3911	C391	0.274030	0.137990	0.936050
C3921	C392	0.310170	0.161400	0.926070
H1741	H174	0.337200	0.158700	0.935700
C3931	C393	0.305990	0.188380	0.902170
C3941	C394	0.266890	0.191850	0.888500
H1751	H175	0.264100	0.210400	0.872200
C3951	C395	0.279520	0.106530	0.960620
C3961	C396	0.345570	0.211970	0.890500
C3971	C397	0.378350	0.225320	0.908180
H1761	H176	0.375800	0.221300	0.928600
C3981	C398	0.415650	0.244870	0.897010
H1771	H177	0.437900	0.253900	0.909800
C3991	C399	0.420140	0.251050	0.867110
C4001	C400	0.384670	0.239350	0.848730
C4011	C401	0.348720	0.220190	0.860710
H1781	H178	0.325400	0.212400	0.848400
C4021	C402	0.385930	0.248220	0.818050
C4031	C403	0.425840	0.269010	0.806960
C4041	C404	0.457860	0.281080	0.827100
C4051	C405	0.496000	0.299860	0.814550
H1791	H179	0.520000	0.305300	0.826900
C4061	C406	0.499260	0.309990	0.786450
H1801	H180	0.524300	0.324300	0.779500
C4071	C407	0.465150	0.299450	0.766840
C4081	C408	0.429780	0.278850	0.777740
H1811	H181	0.407100	0.271000	0.764900
C4091	C409	0.468040	0.312640	0.736230
C4101	C410	0.507890	0.314510	0.721430
H1821	H182	0.533500	0.306200	0.731300
C4111	C411	0.510600	0.328390	0.692560
C4121	C412	0.473140	0.340910	0.678180
H1831	H183	0.474800	0.351200	0.658800
C4131	C413	0.433600	0.338450	0.691890
C4141	C414	0.430870	0.324140	0.720490
H1841	H184	0.403400	0.322100	0.729600
C4151	C415	0.552610	0.329450	0.676960
C4161	C416	0.393990	0.351750	0.675160
C4171	C417	0.090540	0.234690	0.877930
C4181	C418	0.048660	0.267600	0.918800
H1851	H185	0.051200	0.240900	0.928900
C4191	C419	0.025960	0.301460	0.931010
C4201	C420	0.022060	0.340890	0.915850
H1861	H186	0.006800	0.364300	0.924400
C4211	C421	0.040550	0.345590	0.888300
C4221	C422	0.064450	0.311410	0.876920
H1871	H187	0.078700	0.314700	0.858700
C4231	C423	0.067690	0.272930	0.891750
C4241	C424	0.001700	0.295870	0.959130
C4251	C425	0.033290	0.386210	0.872040
C4261	C426	0.023000	0.424150	0.886890
H1881	H188	0.023200	0.424100	0.907600
C4271	C427	0.012130	0.463040	0.871800
C4281	C428	0.010790	0.463530	0.841720
C4291	C429	0.020470	0.425410	0.826770
H1891	H189	0.019300	0.425000	0.806100
C4301	C430	0.032050	0.387150	0.842170
H1901	H190	0.039100	0.361800	0.831600
Cu211	Cu21	0.145380	0.896680	0.872220
Cu221	Cu22	0.195990	0.861060	0.832210
O1311	O131	0.147300	0.840940	0.891550
O1321	O132	0.194210	0.812810	0.859420
O1331	O133	0.088130	0.753520	0.969840
O1341	O134	0.102230	0.682210	0.970520
O1351	O135	0.374600	0.599990	0.653100
O1361	O136	0.340410	0.642220	0.685380
O1371	O137	0.348220	0.447210	0.652330
O1381	O138	0.311810	0.415450	0.689100
O1391	O139	0.199180	0.912550	0.891230
O1401	O140	0.241480	0.889400	0.854770
O1411	O141	0.259010	0.001330	0.969300
O1421	O142	0.330800	0.014820	0.969340
O1431	O143	0.239040	0.643310	0.801910
N111	N11	0.270950	0.544770	0.855280
H1911	H191	0.277400	0.522900	0.866700
C4311	C431	0.170570	0.810930	0.881640
C4321	C432	0.168760	0.768740	0.898050
C4331	C433	0.142240	0.764850	0.922030
H1921	H192	0.126800	0.789300	0.928900
C4341	C434	0.137990	0.725970	0.936050
C4351	C435	0.161400	0.689830	0.926070
H1931	H193	0.158700	0.662800	0.935700
C4361	C436	0.188380	0.694010	0.902170
C4371	C437	0.191850	0.733110	0.888500
H1941	H194	0.210400	0.735900	0.872200
C4381	C438	0.106530	0.720480	0.960620
C4391	C439	0.211970	0.654430	0.890500
C4401	C440	0.225320	0.621650	0.908180
H1951	H195	0.221300	0.624200	0.928600
C4411	C441	0.244870	0.584350	0.897010
H1961	H196	0.253900	0.562100	0.909800
C4421	C442	0.251050	0.579860	0.867110
C4431	C443	0.239350	0.615330	0.848730
C4441	C444	0.220190	0.651280	0.860710
H1971	H197	0.212400	0.674600	0.848400
C4451	C445	0.248220	0.614070	0.818050
C4461	C446	0.269010	0.574160	0.806960
C4471	C447	0.281080	0.542140	0.827100
C4481	C448	0.299860	0.504000	0.814550
H1981	H198	0.305300	0.480000	0.826900
C4491	C449	0.309990	0.500740	0.786450
H1991	H199	0.324300	0.475700	0.779500
C4501	C450	0.299450	0.534850	0.766840
C4511	C451	0.278850	0.570220	0.777740
H2001	H200	0.271000	0.592900	0.764900
C4521	C452	0.312640	0.531960	0.736230
C4531	C453	0.314510	0.492110	0.721430
H2011	H201	0.306200	0.466500	0.731300
C4541	C454	0.328390	0.489400	0.692560
C4551	C455	0.340910	0.526860	0.678180
H2021	H202	0.351200	0.525200	0.658800
C4561	C456	0.338450	0.566400	0.691890
C4571	C457	0.324140	0.569130	0.720490
H2031	H203	0.322100	0.596600	0.729600
C4581	C458	0.329450	0.447390	0.676960
C4591	C459	0.351750	0.606010	0.675160
C4601	C460	0.234690	0.909460	0.877930
C4611	C461	0.267600	0.951340	0.918800
H2041	H204	0.240900	0.948800	0.928900
C4621	C462	0.301460	0.974040	0.931010
C4631	C463	0.340890	0.977940	0.915850
H2051	H205	0.364300	0.993200	0.924400
C4641	C464	0.345590	0.959450	0.888300
C4651	C465	0.311410	0.935550	0.876920
H2061	H206	0.314700	0.921300	0.858700
C4661	C466	0.272930	0.932310	0.891750
C4671	C467	0.295870	0.998300	0.959130
C4681	C468	0.386210	0.966710	0.872040
C4691	C469	0.424150	0.977000	0.886890
H2071	H207	0.424100	0.976800	0.907600
C4701	C470	0.463040	0.987870	0.871800
C4711	C471	0.463530	0.989210	0.841720
C4721	C472	0.425410	0.979530	0.826770
H2081	H208	0.425000	0.980700	0.806100
C4731	C473	0.387150	0.967950	0.842170
H2091	H209	0.361800	0.960900	0.831600
Cu231	Cu23	0.854620	0.103320	0.872220
Cu241	Cu24	0.804010	0.138940	0.832210
O1441	O144	0.852700	0.159060	0.891550
O1451	O145	0.805790	0.187190	0.859420
O1461	O146	0.911870	0.246480	0.969840
O1471	O147	0.897770	0.317790	0.970520
O1481	O148	0.625400	0.400010	0.653100
O1491	O149	0.659590	0.357780	0.685380
O1501	O150	0.651780	0.552790	0.652330
O1511	O151	0.688190	0.584550	0.689100
O1521	O152	0.800820	0.087450	0.891230
O1531	O153	0.758520	0.110600	0.854770
O1541	O154	0.740990	0.998670	0.969300
O1551	O155	0.669200	0.985180	0.969340
O1561	O156	0.760960	0.356690	0.801910
N121	N12	0.729050	0.455230	0.855280
H2101	H210	0.722600	0.477100	0.866700
C4741	C474	0.829430	0.189070	0.881640
C4751	C475	0.831240	0.231260	0.898050
C4761	C476	0.857760	0.235150	0.922030
H2111	H211	0.873200	0.210700	0.928900
C4771	C477	0.862010	0.274030	0.936050
C4781	C478	0.838600	0.310170	0.926070
H2121	H212	0.841300	0.337200	0.935700
C4791	C479	0.811620	0.305990	0.902170
C4801	C480	0.808150	0.266890	0.888500
H2131	H213	0.789600	0.264100	0.872200
C4811	C481	0.893470	0.279520	0.960620
C4821	C482	0.788030	0.345570	0.890500
C4831	C483	0.774680	0.378350	0.908180
H2141	H214	0.778700	0.375800	0.928600
C4841	C484	0.755130	0.415650	0.897010
H2151	H215	0.746100	0.437900	0.909800
C4851	C485	0.748950	0.420140	0.867110
C4861	C486	0.760650	0.384670	0.848730
C4871	C487	0.779810	0.348720	0.860710
H2161	H216	0.787600	0.325400	0.848400
C4881	C488	0.751780	0.385930	0.818050
C4891	C489	0.730990	0.425840	0.806960
C4901	C490	0.718920	0.457860	0.827100
C4911	C491	0.700140	0.496000	0.814550
H2171	H217	0.694700	0.520000	0.826900
C4921	C492	0.690010	0.499260	0.786450
H2181	H218	0.675700	0.524300	0.779500
C4931	C493	0.700550	0.465150	0.766840
C4941	C494	0.721150	0.429780	0.777740
H2191	H219	0.729000	0.407100	0.764900
C4951	C495	0.687360	0.468040	0.736230
C4961	C496	0.685490	0.507890	0.721430
H2201	H220	0.693800	0.533500	0.731300
C4971	C497	0.671610	0.510600	0.692560
C4981	C498	0.659090	0.473140	0.678180
H2211	H221	0.648800	0.474800	0.658800
C4991	C499	0.661550	0.433600	0.691890
C5001	C500	0.675860	0.430870	0.720490
H2221	H222	0.677900	0.403400	0.729600
C5011	C501	0.670550	0.552610	0.676960
C5021	C502	0.648250	0.393990	0.675160
C5031	C503	0.765310	0.090540	0.877930
C5041	C504	0.732400	0.048660	0.918800
H2231	H223	0.759100	0.051200	0.928900
C5051	C505	0.698540	0.025960	0.931010
C5061	C506	0.659110	0.022060	0.915850
H2241	H224	0.635700	0.006800	0.924400
C5071	C507	0.654410	0.040550	0.888300
C5081	C508	0.688590	0.064450	0.876920
H2251	H225	0.685300	0.078700	0.858700
C5091	C509	0.727070	0.067690	0.891750
C5101	C510	0.704130	0.001700	0.959130
C5111	C511	0.613790	0.033290	0.872040
C5121	C512	0.575850	0.023000	0.886890
H2261	H226	0.575900	0.023200	0.907600
C5131	C513	0.536960	0.012130	0.871800
C5141	C514	0.536470	0.010790	0.841720
C5151	C515	0.574590	0.020470	0.826770
H2271	H227	0.575000	0.019300	0.806100
C5161	C516	0.612850	0.032050	0.842170
H2281	H228	0.638200	0.039100	0.831600
Cu251	Cu25	0.603320	0.354620	0.627780
Cu261	Cu26	0.638940	0.304010	0.667790
O1571	O157	0.659060	0.352700	0.608450
O1581	O158	0.687190	0.305790	0.640580
O1591	O159	0.746480	0.411870	0.530160
O1601	O160	0.817790	0.397770	0.529480
O1611	O161	0.900010	0.125400	0.846900
O1621	O162	0.857780	0.159590	0.814620
O1631	O163	0.052790	0.151780	0.847670
O1641	O164	0.084550	0.188190	0.810900
O1651	O165	0.587450	0.300820	0.608770
O1661	O166	0.610600	0.258520	0.645230
O1671	O167	0.498670	0.240990	0.530700
O1681	O168	0.485180	0.169200	0.530660
O1691	O169	0.856690	0.260960	0.698090
N131	N13	0.955230	0.229050	0.644720
H2291	H229	0.977100	0.222600	0.633300
C5171	C517	0.689070	0.329430	0.618360
C5181	C518	0.731260	0.331240	0.601950
C5191	C519	0.735150	0.357760	0.577970
H2301	H230	0.710700	0.373200	0.571100
C5201	C520	0.774030	0.362010	0.563950
C5211	C521	0.810170	0.338600	0.573930
H2311	H231	0.837200	0.341300	0.564300
C5221	C522	0.805990	0.311620	0.597830
C5231	C523	0.766890	0.308150	0.611500
H2321	H232	0.764100	0.289600	0.627800
C5241	C524	0.779520	0.393470	0.539380
C5251	C525	0.845570	0.288030	0.609500
C5261	C526	0.878350	0.274680	0.591820
H2331	H233	0.875800	0.278700	0.571400
C5271	C527	0.915650	0.255130	0.602990
H2341	H234	0.937900	0.246100	0.590200
C5281	C528	0.920140	0.248950	0.632890
C5291	C529	0.884670	0.260650	0.651270
C5301	C530	0.848720	0.279810	0.639290
H2351	H235	0.825400	0.287600	0.651600
C5311	C531	0.885930	0.251780	0.681950
C5321	C532	0.925840	0.230990	0.693040
C5331	C533	0.957860	0.218920	0.672900
C5341	C534	0.996000	0.200140	0.685450
H2361	H236	0.020000	0.194700	0.673100
C5351	C535	0.999260	0.190010	0.713550
H2371	H237	0.024300	0.175700	0.720500
C5361	C536	0.965150	0.200550	0.733160
C5371	C537	0.929780	0.221150	0.722260
H2381	H238	0.907100	0.229000	0.735100
C5381	C538	0.968040	0.187360	0.763770
C5391	C539	0.007890	0.185490	0.778570
H2391	H239	0.033500	0.193800	0.768700
C5401	C540	0.010600	0.171610	0.807440
C5411	C541	0.973140	0.159090	0.821820
H2401	H240	0.974800	0.148800	0.841200
C5421	C542	0.933600	0.161550	0.808110
C5431	C543	0.930870	0.175860	0.779510
H2411	H241	0.903400	0.177900	0.770400
C5441	C544	0.052610	0.170550	0.823040
C5451	C545	0.893990	0.148250	0.824840
C5461	C546	0.590540	0.265310	0.622070
C5471	C547	0.548660	0.232400	0.581200
H2421	H242	0.551200	0.259100	0.571100
C5481	C548	0.525960	0.198540	0.568990
C5491	C549	0.522060	0.159110	0.584150
H2431	H243	0.506800	0.135700	0.575600
C5501	C550	0.540550	0.154410	0.611700
C5511	C551	0.564450	0.188590	0.623080
H2441	H244	0.578700	0.185300	0.641300
C5521	C552	0.567690	0.227070	0.608250
C5531	C553	0.501700	0.204130	0.540870
C5541	C554	0.533290	0.113790	0.627960
C5551	C555	0.523000	0.075850	0.613110
H2451	H245	0.523200	0.075900	0.592400
C5561	C556	0.512130	0.036960	0.628200
C5571	C557	0.510790	0.036470	0.658280
C5581	C558	0.520470	0.074590	0.673230
H2461	H246	0.519300	0.075000	0.693900
C5591	C559	0.532050	0.112850	0.657830
H2471	H247	0.539100	0.138200	0.668400
Cu271	Cu27	0.396680	0.645380	0.627780
Cu281	Cu28	0.361060	0.695990	0.667790
O1701	O170	0.340940	0.647300	0.608450
O1711	O171	0.312810	0.694210	0.640580
O1721	O172	0.253520	0.588130	0.530160
O1731	O173	0.182210	0.602230	0.529480
O1741	O174	0.099990	0.874600	0.846900
O1751	O175	0.142220	0.840410	0.814620
O1761	O176	0.947210	0.848220	0.847670
O1771	O177	0.915450	0.811810	0.810900
O1781	O178	0.412550	0.699180	0.608770
O1791	O179	0.389400	0.741480	0.645230
O1801	O180	0.501330	0.759010	0.530700
O1811	O181	0.514820	0.830800	0.530660
O1821	O182	0.143310	0.739040	0.698090
N141	N14	0.044770	0.770950	0.644720
H2481	H248	0.022900	0.777400	0.633300
C5601	C560	0.310930	0.670570	0.618360
C5611	C561	0.268740	0.668760	0.601950
C5621	C562	0.264850	0.642240	0.577970
H2491	H249	0.289300	0.626800	0.571100
C5631	C563	0.225970	0.637990	0.563950
C5641	C564	0.189830	0.661400	0.573930
H2501	H250	0.162800	0.658700	0.564300
C5651	C565	0.194010	0.688380	0.597830
C5661	C566	0.233110	0.691850	0.611500
H2511	H251	0.235900	0.710400	0.627800
C5671	C567	0.220480	0.606530	0.539380
C5681	C568	0.154430	0.711970	0.609500
C5691	C569	0.121650	0.725320	0.591820
H2521	H252	0.124200	0.721300	0.571400
C5701	C570	0.084350	0.744870	0.602990
H2531	H253	0.062100	0.753900	0.590200
C5711	C571	0.079860	0.751050	0.632890
C5721	C572	0.115330	0.739350	0.651270
C5731	C573	0.151280	0.720190	0.639290
H2541	H254	0.174600	0.712400	0.651600
C5741	C574	0.114070	0.748220	0.681950
C5751	C575	0.074160	0.769010	0.693040
C5761	C576	0.042140	0.781080	0.672900
C5771	C577	0.004000	0.799860	0.685450
H2551	H255	0.980000	0.805300	0.673100
C5781	C578	0.000740	0.809990	0.713550
H2561	H256	0.975700	0.824300	0.720500
C5791	C579	0.034850	0.799450	0.733160
C5801	C580	0.070220	0.778850	0.722260
H2571	H257	0.092900	0.771000	0.735100
C5811	C581	0.031960	0.812640	0.763770
C5821	C582	0.992110	0.814510	0.778570
H2581	H258	0.966500	0.806200	0.768700
C5831	C583	0.989400	0.828390	0.807440
C5841	C584	0.026860	0.840910	0.821820
H2591	H259	0.025200	0.851200	0.841200
C5851	C585	0.066400	0.838450	0.808110
C5861	C586	0.069130	0.824140	0.779510
H2601	H260	0.096600	0.822100	0.770400
C5871	C587	0.947390	0.829450	0.823040
C5881	C588	0.106010	0.851750	0.824840
C5891	C589	0.409460	0.734690	0.622070
C5901	C590	0.451340	0.767600	0.581200
H2611	H261	0.448800	0.740900	0.571100
C5911	C591	0.474040	0.801460	0.568990
C5921	C592	0.477940	0.840890	0.584150
H2621	H262	0.493200	0.864300	0.575600
C5931	C593	0.459450	0.845590	0.611700
C5941	C594	0.435550	0.811410	0.623080
H2631	H263	0.421300	0.814700	0.641300
C5951	C595	0.432310	0.772930	0.608250
C5961	C596	0.498300	0.795870	0.540870
C5971	C597	0.466710	0.886210	0.627960
C5981	C598	0.477000	0.924150	0.613110
H2641	H264	0.476800	0.924100	0.592400
C5991	C599	0.487870	0.963040	0.628200
C6001	C600	0.489210	0.963530	0.658280
C6011	C601	0.479530	0.925410	0.673230
H2651	H265	0.480700	0.925000	0.693900
C6021	C602	0.467950	0.887150	0.657830
H2661	H266	0.460900	0.861800	0.668400
Cu291	Cu29	0.354620	0.396680	0.627780
Cu301	Cu30	0.304010	0.361060	0.667790
O1831	O183	0.352700	0.340940	0.608450
O1841	O184	0.305790	0.312810	0.640580
O1851	O185	0.411870	0.253520	0.530160
O1861	O186	0.397770	0.182210	0.529480
O1871	O187	0.125400	0.099990	0.846900
O1881	O188	0.159590	0.142220	0.814620
O1891	O189	0.151780	0.947210	0.847670
O1901	O190	0.188190	0.915450	0.810900
O1911	O191	0.300820	0.412550	0.608770
O1921	O192	0.258520	0.389400	0.645230
O1931	O193	0.240990	0.501330	0.530700
O1941	O194	0.169200	0.514820	0.530660
O1951	O195	0.260960	0.143310	0.698090
N151	N15	0.229050	0.044770	0.644720
H2671	H267	0.222600	0.022900	0.633300
C6031	C603	0.329430	0.310930	0.618360
C6041	C604	0.331240	0.268740	0.601950
C6051	C605	0.357760	0.264850	0.577970
H2681	H268	0.373200	0.289300	0.571100
C6061	C606	0.362010	0.225970	0.563950
C6071	C607	0.338600	0.189830	0.573930
H2691	H269	0.341300	0.162800	0.564300
C6081	C608	0.311620	0.194010	0.597830
C6091	C609	0.308150	0.233110	0.611500
H2701	H270	0.289600	0.235900	0.627800
C6101	C610	0.393470	0.220480	0.539380
C6111	C611	0.288030	0.154430	0.609500
C6121	C612	0.274680	0.121650	0.591820
H2711	H271	0.278700	0.124200	0.571400
C6131	C613	0.255130	0.084350	0.602990
H2721	H272	0.246100	0.062100	0.590200
C6141	C614	0.248950	0.079860	0.632890
C6151	C615	0.260650	0.115330	0.651270
C6161	C616	0.279810	0.151280	0.639290
H2731	H273	0.287600	0.174600	0.651600
C6171	C617	0.251780	0.114070	0.681950
C6181	C618	0.230990	0.074160	0.693040
C6191	C619	0.218920	0.042140	0.672900
C6201	C620	0.200140	0.004000	0.685450
H2741	H274	0.194700	0.980000	0.673100
C6211	C621	0.190010	0.000740	0.713550
H2751	H275	0.175700	0.975700	0.720500
C6221	C622	0.200550	0.034850	0.733160
C6231	C623	0.221150	0.070220	0.722260
H2761	H276	0.229000	0.092900	0.735100
C6241	C624	0.187360	0.031960	0.763770
C6251	C625	0.185490	0.992110	0.778570
H2771	H277	0.193800	0.966500	0.768700
C6261	C626	0.171610	0.989400	0.807440
C6271	C627	0.159090	0.026860	0.821820
H2781	H278	0.148800	0.025200	0.841200
C6281	C628	0.161550	0.066400	0.808110
C6291	C629	0.175860	0.069130	0.779510
H2791	H279	0.177900	0.096600	0.770400
C6301	C630	0.170550	0.947390	0.823040
C6311	C631	0.148250	0.106010	0.824840
C6321	C632	0.265310	0.409460	0.622070
C6331	C633	0.232400	0.451340	0.581200
H2801	H280	0.259100	0.448800	0.571100
C6341	C634	0.198540	0.474040	0.568990
C6351	C635	0.159110	0.477940	0.584150
H2811	H281	0.135700	0.493200	0.575600
C6361	C636	0.154410	0.459450	0.611700
C6371	C637	0.188590	0.435550	0.623080
H2821	H282	0.185300	0.421300	0.641300
C6381	C638	0.227070	0.432310	0.608250
C6391	C639	0.204130	0.498300	0.540870
C6401	C640	0.113790	0.466710	0.627960
C6411	C641	0.075850	0.477000	0.613110
H2831	H283	0.075900	0.476800	0.592400
C6421	C642	0.036960	0.487870	0.628200
C6431	C643	0.036470	0.489210	0.658280
C6441	C644	0.074590	0.479530	0.673230
H2841	H284	0.075000	0.480700	0.693900
C6451	C645	0.112850	0.467950	0.657830
H2851	H285	0.138200	0.460900	0.668400
Cu311	Cu31	0.645380	0.603320	0.627780
Cu321	Cu32	0.695990	0.638940	0.667790
O1961	O196	0.647300	0.659060	0.608450
O1971	O197	0.694210	0.687190	0.640580
O1981	O198	0.588130	0.746480	0.530160
O1991	O199	0.602230	0.817790	0.529480
O2001	O200	0.874600	0.900010	0.846900
O2011	O201	0.840410	0.857780	0.814620
O2021	O202	0.848220	0.052790	0.847670
O2031	O203	0.811810	0.084550	0.810900
O2041	O204	0.699180	0.587450	0.608770
O2051	O205	0.741480	0.610600	0.645230
O2061	O206	0.759010	0.498670	0.530700
O2071	O207	0.830800	0.485180	0.530660
O2081	O208	0.739040	0.856690	0.698090
N161	N16	0.770950	0.955230	0.644720
H2861	H286	0.777400	0.977100	0.633300
C6461	C646	0.670570	0.689070	0.618360
C6471	C647	0.668760	0.731260	0.601950
C6481	C648	0.642240	0.735150	0.577970
H2871	H287	0.626800	0.710700	0.571100
C6491	C649	0.637990	0.774030	0.563950
C6501	C650	0.661400	0.810170	0.573930
H2881	H288	0.658700	0.837200	0.564300
C6511	C651	0.688380	0.805990	0.597830
C6521	C652	0.691850	0.766890	0.611500
H2891	H289	0.710400	0.764100	0.627800
C6531	C653	0.606530	0.779520	0.539380
C6541	C654	0.711970	0.845570	0.609500
C6551	C655	0.725320	0.878350	0.591820
H2901	H290	0.721300	0.875800	0.571400
C6561	C656	0.744870	0.915650	0.602990
H2911	H291	0.753900	0.937900	0.590200
C6571	C657	0.751050	0.920140	0.632890
C6581	C658	0.739350	0.884670	0.651270
C6591	C659	0.720190	0.848720	0.639290
H2921	H292	0.712400	0.825400	0.651600
C6601	C660	0.748220	0.885930	0.681950
C6611	C661	0.769010	0.925840	0.693040
C6621	C662	0.781080	0.957860	0.672900
C6631	C663	0.799860	0.996000	0.685450
H2931	H293	0.805300	0.020000	0.673100
C6641	C664	0.809990	0.999260	0.713550
H2941	H294	0.824300	0.024300	0.720500
C6651	C665	0.799450	0.965150	0.733160
C6661	C666	0.778850	0.929780	0.722260
H2951	H295	0.771000	0.907100	0.735100
C6671	C667	0.812640	0.968040	0.763770
C6681	C668	0.814510	0.007890	0.778570
H2961	H296	0.806200	0.033500	0.768700
C6691	C669	0.828390	0.010600	0.807440
C6701	C670	0.840910	0.973140	0.821820
H2971	H297	0.851200	0.974800	0.841200
C6711	C671	0.838450	0.933600	0.808110
C6721	C672	0.824140	0.930870	0.779510
H2981	H298	0.822100	0.903400	0.770400
C6731	C673	0.829450	0.052610	0.823040
C6741	C674	0.851750	0.893990	0.824840
C6751	C675	0.734690	0.590540	0.622070
C6761	C676	0.767600	0.548660	0.581200
H2991	H299	0.740900	0.551200	0.571100
C6771	C677	0.801460	0.525960	0.568990
C6781	C678	0.840890	0.522060	0.584150
H3001	H300	0.864300	0.506800	0.575600
C6791	C679	0.845590	0.540550	0.611700
C6801	C680	0.811410	0.564450	0.623080
H3011	H301	0.814700	0.578700	0.641300
C6811	C681	0.772930	0.567690	0.608250
C6821	C682	0.795870	0.501700	0.540870
C6831	C683	0.886210	0.533290	0.627960
C6841	C684	0.924150	0.523000	0.613110
H3021	H302	0.924100	0.523200	0.592400
C6851	C685	0.963040	0.512130	0.628200
C6861	C686	0.963530	0.510790	0.658280
C6871	C687	0.925410	0.520470	0.673230
H3031	H303	0.925000	0.519300	0.693900
C6881	C688	0.887150	0.532050	0.657830
H3041	H304	0.861800	0.539100	0.668400
Cu331	Cu33	0.330650	0.059010	0.000000
Cu341	Cu34	0.246040	0.043650	0.000000
Cu351	Cu35	0.669350	0.940990	0.000000
Cu361	Cu36	0.753960	0.956350	0.000000
Cu371	Cu37	0.940990	0.330650	0.000000
Cu381	Cu38	0.956350	0.246040	0.000000
Cu391	Cu39	0.059010	0.669350	0.000000
Cu401	Cu40	0.043650	0.753960	0.000000
Cu411	Cu41	0.169350	0.559010	0.500000
Cu421	Cu42	0.253960	0.543650	0.500000
Cu431	Cu43	0.830650	0.440990	0.500000
Cu441	Cu44	0.746040	0.456350	0.500000
Cu451	Cu45	0.559010	0.830650	0.500000
Cu461	Cu46	0.543650	0.746040	0.500000
Cu471	Cu47	0.440990	0.169350	0.500000
Cu481	Cu48	0.456350	0.253960	0.500000
O2091	O209	0.000000	0.500000	0.084800
N171	N17	0.000000	0.500000	0.172180
H3051	H305	0.000000	0.500000	0.191300
C6891	C689	0.000000	0.500000	0.112150
O2101	O210	0.500000	0.000000	0.084800
N181	N18	0.500000	0.000000	0.172180
H3061	H306	0.500000	0.000000	0.191300
C6901	C690	0.500000	0.000000	0.112150
O2111	O211	0.500000	0.000000	0.415200
N191	N19	0.500000	0.000000	0.327820
H3071	H307	0.500000	0.000000	0.308700
C6911	C691	0.500000	0.000000	0.387850
O2121	O212	0.000000	0.500000	0.415200
N201	N20	0.000000	0.500000	0.327820
H3081	H308	0.000000	0.500000	0.308700
C6921	C692	0.000000	0.500000	0.387850
O2131	O213	0.000000	0.500000	0.915200
N211	N21	0.000000	0.500000	0.827820
H3091	H309	0.000000	0.500000	0.808700
C6931	C693	0.000000	0.500000	0.887850
O2141	O214	0.500000	0.000000	0.915200
N221	N22	0.500000	0.000000	0.827820
H3101	H310	0.500000	0.000000	0.808700
C6941	C694	0.500000	0.000000	0.887850
O2151	O215	0.500000	0.000000	0.584800
N231	N23	0.500000	0.000000	0.672180
H3111	H311	0.500000	0.000000	0.691300
C6951	C695	0.500000	0.000000	0.612150
O2161	O216	0.000000	0.500000	0.584800
N241	N24	0.000000	0.500000	0.672180
H3121	H312	0.000000	0.500000	0.691300
C6961	C696	0.000000	0.500000	0.612150
