data_CISMEY_clean_PM
_symmetry_space_group_name_H-M	'P1'
_cell_length_a	9.179400
_cell_length_b	9.460000
_cell_length_c	11.153800
_cell_angle_alpha	90.726000
_cell_angle_beta	100.252000
_cell_angle_gamma	105.265000
_symmetry_Int_Tables_number 1

loop_
_symmetry_equiv_pos_as_xyz
'x,y,z'

loop_
_atom_site_label
_atom_site_type_symbol
_atom_site_fract_x
_atom_site_fract_y
_atom_site_fract_z
C11	C1	0.076100	0.764300	0.303400
C21	C2	0.133800	0.862500	0.417600
C31	C3	0.147900	0.804800	0.530100
H11	H1	0.126000	0.703600	0.535200
C41	C4	0.194500	0.896100	0.636800
C51	C5	0.228600	0.047100	0.628800
H21	H2	0.259400	0.109200	0.699200
C61	C6	0.216300	0.104600	0.515300
C71	C7	0.167500	0.014300	0.409900
H31	H3	0.157200	0.054300	0.334100
C81	C8	0.199300	0.830900	0.759400
C91	C9	0.353700	0.353600	0.579100
C101	C10	0.326000	0.485500	0.603300
H41	H4	0.231400	0.501700	0.571400
C111	C11	0.440000	0.594400	0.675500
H51	H5	0.422000	0.684600	0.690500
C121	C12	0.579400	0.571300	0.725300
C131	C13	0.604100	0.437200	0.699000
H61	H6	0.697900	0.419800	0.731500
C141	C14	0.491900	0.328100	0.625200
H71	H7	0.510500	0.238800	0.607300
C151	C15	0.697800	0.686900	0.804000
Cd11	Cd1	0.162760	0.866150	0.032130
Cd21	Cd2	0.996960	0.477090	0.150040
N11	N1	0.672400	0.811500	0.842400
N21	N2	0.806700	0.887200	0.911200
N31	N3	0.907700	0.811700	0.915200
N41	N4	0.842400	0.684400	0.847300
O11	O1	0.040600	0.820500	0.203900
O21	O2	0.062600	0.629100	0.314000
O31	O3	0.155600	0.693900	0.758000
O41	O4	0.246400	0.917700	0.853500
O51	O5	0.237400	0.253600	0.500000
O61	O6	0.141600	0.625100	0.031300
C161	C16	0.923900	0.235700	0.696600
C171	C17	0.866200	0.137500	0.582400
C181	C18	0.852100	0.195200	0.469900
H81	H8	0.874000	0.296400	0.464800
C191	C19	0.805500	0.103900	0.363200
C201	C20	0.771400	0.952900	0.371200
H91	H9	0.740600	0.890800	0.300800
C211	C21	0.783700	0.895400	0.484700
C221	C22	0.832500	0.985700	0.590100
H101	H10	0.842800	0.945700	0.665900
C231	C23	0.800700	0.169100	0.240600
C241	C24	0.646300	0.646400	0.420900
C251	C25	0.674000	0.514500	0.396700
H111	H11	0.768600	0.498300	0.428600
C261	C26	0.560000	0.405600	0.324500
H121	H12	0.578000	0.315400	0.309500
C271	C27	0.420600	0.428700	0.274700
C281	C28	0.395900	0.562800	0.301000
H131	H13	0.302100	0.580200	0.268500
C291	C29	0.508100	0.671900	0.374800
H141	H14	0.489500	0.761200	0.392700
C301	C30	0.302200	0.313100	0.196000
Cd31	Cd3	0.837240	0.133850	0.967870
Cd41	Cd4	0.003040	0.522910	0.849960
N51	N5	0.327600	0.188500	0.157600
N61	N6	0.193300	0.112800	0.088800
N71	N7	0.092300	0.188300	0.084800
N81	N8	0.157600	0.315600	0.152700
O71	O7	0.959400	0.179500	0.796100
O81	O8	0.937400	0.370900	0.686000
O91	O9	0.844400	0.306100	0.242000
O101	O10	0.753600	0.082300	0.146500
O111	O11	0.762600	0.746400	0.500000
O121	O12	0.858400	0.374900	0.968700
