data_CISMIC_clean_PM
_symmetry_space_group_name_H-M	'P1'
_cell_length_a	9.117000
_cell_length_b	9.452000
_cell_length_c	10.914000
_cell_angle_alpha	97.530000
_cell_angle_beta	92.110000
_cell_angle_gamma	103.250000
_symmetry_Int_Tables_number 1

loop_
_symmetry_equiv_pos_as_xyz
'x,y,z'

loop_
_atom_site_label
_atom_site_type_symbol
_atom_site_fract_x
_atom_site_fract_y
_atom_site_fract_z
C11	C1	0.690600	0.316100	0.232200
C21	C2	0.617800	0.311700	0.355800
C31	C3	0.458000	0.267400	0.355400
H11	H1	0.398500	0.233500	0.281800
C41	C4	0.393200	0.276500	0.469200
C51	C5	0.479800	0.326800	0.580900
H21	H2	0.433200	0.333400	0.655200
C61	C6	0.638200	0.367600	0.580500
C71	C7	0.707600	0.362700	0.468200
H31	H3	0.812100	0.392700	0.467600
C81	C8	0.730500	0.423400	0.703100
C91	C9	0.139700	0.129300	0.404700
C101	C10	0.178400	0.999200	0.357800
H41	H4	0.275700	0.987900	0.373700
C111	C11	0.072400	0.887500	0.287900
H51	H5	0.099400	0.801200	0.257100
C121	C12	0.925100	0.900800	0.262300
C131	C13	0.886400	0.030400	0.312600
H61	H6	0.788400	0.040800	0.298400
C141	C14	0.993700	0.145100	0.384300
H71	H7	0.967000	0.230600	0.417700
C151	C15	0.810600	0.781900	0.184300
Co11	Co1	0.643600	0.362450	0.966210
Co21	Co2	0.977790	0.492630	0.141190
N11	N1	0.675000	0.802300	0.147200
N21	N2	0.601200	0.672600	0.077700
N31	N3	0.688000	0.579100	0.073000
N41	N4	0.822300	0.643500	0.140400
O11	O1	0.875500	0.380700	0.971500
O21	O2	0.834000	0.365200	0.240800
O31	O3	0.607900	0.274900	0.132000
O41	O4	0.872700	0.435800	0.703400
O51	O5	0.662200	0.459800	0.798800
O61	O6	0.236300	0.248800	0.478700
C161	C16	0.309400	0.683900	0.767800
C171	C17	0.382200	0.688300	0.644200
C181	C18	0.542000	0.732600	0.644600
H81	H8	0.601500	0.766500	0.718200
C191	C19	0.606800	0.723500	0.530800
C201	C20	0.520200	0.673200	0.419100
H91	H9	0.566800	0.666600	0.344800
C211	C21	0.361800	0.632400	0.419500
C221	C22	0.292400	0.637300	0.531800
H101	H10	0.187900	0.607300	0.532400
C231	C23	0.269500	0.576600	0.296900
C241	C24	0.860300	0.870700	0.595300
C251	C25	0.821600	0.000800	0.642200
H111	H11	0.724300	0.012100	0.626300
C261	C26	0.927600	0.112500	0.712100
H121	H12	0.900600	0.198800	0.742900
C271	C27	0.074900	0.099200	0.737700
C281	C28	0.113600	0.969600	0.687400
H131	H13	0.211600	0.959200	0.701600
C291	C29	0.006300	0.854900	0.615700
H141	H14	0.033000	0.769400	0.582300
C301	C30	0.189400	0.218100	0.815700
Co31	Co3	0.356400	0.637550	0.033790
Co41	Co4	0.022210	0.507370	0.858810
N51	N5	0.325000	0.197700	0.852800
N61	N6	0.398800	0.327400	0.922300
N71	N7	0.312000	0.420900	0.927000
N81	N8	0.177700	0.356500	0.859600
O71	O7	0.124500	0.619300	0.028500
O81	O8	0.166000	0.634800	0.759200
O91	O9	0.392100	0.725100	0.868000
O101	O10	0.127300	0.564200	0.296600
O111	O11	0.337800	0.540200	0.201200
O121	O12	0.763700	0.751200	0.521300
