data_CITZIP_manual_PM
_symmetry_space_group_name_H-M	'P1'
_cell_length_a	10.812300
_cell_length_b	11.135700
_cell_length_c	11.135700
_cell_angle_alpha	103.708000
_cell_angle_beta	102.157000
_cell_angle_gamma	77.843100
_symmetry_Int_Tables_number 1

loop_
_symmetry_equiv_pos_as_xyz
'x,y,z'

loop_
_atom_site_label
_atom_site_type_symbol
_atom_site_fract_x
_atom_site_fract_y
_atom_site_fract_z
Co11	Co1	0.931870	0.073310	0.901830
Co21	Co2	0.565490	0.899970	0.074780
Co31	Co3	0.065530	0.926140	0.100770
Co41	Co4	0.431480	0.099230	0.927320
Co51	Co5	0.748630	0.915130	0.916640
Co61	Co6	0.248140	0.084170	0.085540
H71	H7	0.940020	0.530830	0.872710
H81	H8	0.030610	0.307610	0.856230
H91	H9	0.602670	0.463690	0.979380
H101	H10	0.557260	0.871360	0.532510
H111	H11	0.466540	0.854850	0.309270
H121	H12	0.894610	0.977780	0.465110
H131	H13	0.057000	0.468530	0.129370
H141	H14	0.966460	0.691760	0.145850
H151	H15	0.394320	0.535580	0.022560
H161	H16	0.439970	0.127870	0.469770
H171	H17	0.530590	0.144390	0.693010
H181	H18	0.102600	0.021320	0.537050
C191	C19	0.883780	0.470360	0.892560
C201	C20	0.936650	0.340380	0.882250
C211	C21	0.765490	0.524170	0.934450
C221	C22	0.695910	0.431910	0.951780
C231	C23	0.723030	0.673390	0.957490
C241	C24	0.748950	0.297170	0.932620
C251	C25	0.685310	0.187980	0.942900
C261	C26	0.613470	0.891170	0.471990
C271	C27	0.560510	0.880870	0.342020
C281	C28	0.731860	0.932920	0.525730
C291	C29	0.801340	0.950250	0.433410
C301	C30	0.774510	0.955820	0.674950
C311	C31	0.748190	0.931160	0.298700
C321	C32	0.811790	0.941470	0.189500
C331	C33	0.113240	0.528970	0.109450
C341	C34	0.060370	0.658940	0.119720
C351	C35	0.231540	0.475120	0.067600
C361	C36	0.301070	0.567370	0.050150
C371	C37	0.274020	0.325870	0.044670
C381	C38	0.248010	0.702120	0.069260
C391	C39	0.311600	0.811360	0.059050
C401	C40	0.383730	0.108050	0.530280
C411	C41	0.436620	0.118370	0.660230
C421	C42	0.265400	0.066250	0.476520
C431	C43	0.195840	0.048900	0.568800
C441	C44	0.222870	0.043260	0.327300
C451	C45	0.248920	0.068050	0.703530
C461	C46	0.185410	0.057750	0.812840
N471	N47	0.872160	0.257180	0.905340
N481	N48	0.624960	0.903890	0.258750
N491	N49	0.124850	0.742130	0.096580
N501	N50	0.372110	0.095350	0.743450
O511	O51	0.947690	0.905480	0.931160
O521	O52	0.773820	0.081130	0.955720
O531	O53	0.568480	0.190430	0.937180
O541	O54	0.760830	0.738970	0.894610
O551	O55	0.655590	0.733060	0.042570
O561	O56	0.549610	0.929470	0.906790
O571	O57	0.723260	0.954370	0.082660
O581	O58	0.928620	0.935750	0.191970
O591	O59	0.736460	0.893110	0.740500
O601	O60	0.842370	0.040590	0.734640
O611	O61	0.048650	0.095270	0.072960
O621	O62	0.223020	0.918260	0.046230
O631	O63	0.428440	0.808880	0.064870
O641	O64	0.236310	0.260330	0.107670
O651	O65	0.341380	0.266140	0.959550
O661	O66	0.447270	0.069660	0.095200
O671	O67	0.273770	0.044860	0.919560
O681	O68	0.068720	0.063600	0.810690
O691	O69	0.260530	0.106200	0.261700
O701	O70	0.155580	0.958100	0.267640
H711	H71	0.485780	0.136750	0.157930
H721	H72	0.511120	0.862350	0.844080
H731	H73	0.986290	0.842820	0.864070
