data_CIWZEP_clean_PM
_symmetry_space_group_name_H-M	'P1'
_cell_length_a	13.910000
_cell_length_b	26.110000
_cell_length_c	29.550000
_cell_angle_alpha	94.270000
_cell_angle_beta	90.000000
_cell_angle_gamma	90.000000
_symmetry_Int_Tables_number 1

loop_
_symmetry_equiv_pos_as_xyz
'x,y,z'

loop_
_atom_site_label
_atom_site_type_symbol
_atom_site_fract_x
_atom_site_fract_y
_atom_site_fract_z
Ni11	Ni1	0.334930	0.257290	0.991080
Ni21	Ni2	0.881590	0.736830	0.789990
Ni31	Ni3	0.118410	0.263170	0.210010
Ni41	Ni4	0.371550	0.498910	0.241500
Ni51	Ni5	0.834930	0.242710	0.508920
Ni61	Ni6	0.833470	0.231900	0.775320
Ni71	Ni7	0.165070	0.757290	0.491080
Ni81	Ni8	0.128450	0.998910	0.741500
Ni91	Ni9	0.871550	0.001090	0.258500
Ni101	Ni10	0.665070	0.742710	0.008920
Ni111	Ni11	0.333470	0.268100	0.724680
Ni121	Ni12	0.381590	0.763170	0.710010
Ni131	Ni13	0.628450	0.501090	0.758500
Ni141	Ni14	0.666530	0.731900	0.275320
Ni151	Ni15	0.618410	0.236830	0.289990
Ni161	Ni16	0.166530	0.768100	0.224680
Mo11	Mo1	0.961960	0.180580	0.344630
Mo21	Mo2	0.343830	0.675680	0.346840
Mo31	Mo3	0.038040	0.819420	0.655370
Mo41	Mo4	0.656170	0.324320	0.653160
Mo51	Mo5	0.461960	0.319420	0.155370
Mo61	Mo6	0.538040	0.680580	0.844630
Mo71	Mo7	0.156170	0.175680	0.846840
Mo81	Mo8	0.843830	0.824320	0.153160
H11	H1	0.410100	0.224400	0.817100
H21	H2	0.208700	0.214400	0.297500
H31	H3	0.901700	0.847000	0.440200
H41	H4	0.338500	0.181500	0.601700
H51	H5	0.578600	0.264500	0.015900
H61	H6	0.811400	0.913100	0.837000
H71	H7	0.763800	0.248200	0.903800
H81	H8	0.489700	0.779500	0.503300
H91	H9	0.558800	0.385200	0.396000
H101	H10	0.184500	0.370000	0.247300
H111	H11	0.104900	0.651400	0.241300
H121	H12	0.350100	0.156700	0.349800
H131	H13	0.418600	0.145300	0.653600
H141	H14	0.845300	0.548100	0.231000
H151	H15	0.597900	0.179900	0.989300
H161	H16	0.580500	0.286300	0.490700
H171	H17	0.015900	0.314500	0.546200
H181	H18	0.094600	0.132800	0.508500
H191	H19	0.139300	0.985000	0.269200
H201	H20	0.675100	0.460900	0.904400
H211	H21	0.468000	0.836100	0.522000
H221	H22	0.131500	0.417400	0.692300
H231	H23	0.616800	0.735300	0.590200
H241	H24	0.024300	0.697900	0.546200
H251	H25	0.296100	0.184300	0.063200
H261	H26	0.616500	0.208800	0.208300
H271	H27	0.627500	0.097200	0.526100
H281	H28	0.547900	0.882500	0.709000
H291	H29	0.526900	0.576900	0.697000
H301	H30	0.263800	0.251800	0.596200
H311	H31	0.601800	0.482100	0.300100
H321	H32	0.198000	0.460800	0.364900
H331	H33	0.684100	0.849100	0.323500
H341	H34	0.395100	0.151400	0.741300
H351	H35	0.402100	0.820100	0.010700
H361	H36	0.976200	0.024600	0.810000
H371	H37	0.277400	0.113300	0.187700
H381	H38	0.688600	0.413100	0.337000
H391	H39	0.962200	0.970000	0.375100
H401	H40	0.025300	0.076100	0.661400
H411	H41	0.398200	0.517900	0.699900
H421	H42	0.203900	0.684300	0.563200
H431	H43	0.072200	0.845100	0.359100
H441	H44	0.004000	0.761800	0.313300
H451	H45	0.164900	0.703900	0.723900
H461	H46	0.529200	0.186800	0.782200
H471	H47	0.935000	0.365900	0.123100
H481	H48	0.940900	0.057500	0.734800
H491	H49	0.883200	0.235300	0.090200
H501	H50	0.893700	0.273400	0.873500
H511	H51	0.435000	0.134100	0.376900
H521	H52	0.872500	0.597200	0.026100
H531	H53	0.941200	0.885200	0.896000
H541	H54	0.992800	0.351100	0.786200
H551	H55	0.716700	0.841500	0.754200
H561	H56	0.397800	0.974800	0.840700
H571	H57	0.798900	0.784500	0.375900
H581	H58	0.703900	0.815700	0.936800
H591	H59	0.476200	0.475400	0.690000
H601	H60	0.300900	0.298700	0.262900
H611	H61	0.698000	0.039200	0.135100
H621	H62	0.921400	0.764500	0.515900
H631	H63	0.285400	0.043700	0.605900
H641	H64	0.081400	0.645300	0.153600
H651	H65	0.997900	0.377100	0.283300
H661	H66	0.493000	0.976200	0.301900
H671	H67	0.993000	0.523800	0.198100
H681	H68	0.188600	0.086900	0.163000
H691	H69	0.283300	0.158500	0.245800
H701	H70	0.127500	0.402800	0.973900
H711	H71	0.039900	0.718800	0.185200
H721	H72	0.065100	0.846100	0.929400
H731	H73	0.532000	0.163900	0.478000
H741	H74	0.151300	0.941500	0.855300
H751	H75	0.180300	0.720400	0.801200
H761	H76	0.378600	0.869900	0.143100
H771	H77	0.121400	0.369900	0.643100
H781	H78	0.231700	0.800100	0.813800
H791	H79	0.910100	0.275600	0.682900
H801	H80	0.338800	0.873000	0.799400
H811	H81	0.768300	0.199900	0.186200
H821	H82	0.975700	0.302100	0.453800
H831	H83	0.649900	0.843300	0.650200
H841	H84	0.898200	0.982100	0.800100
H851	H85	0.717200	0.409600	0.881600
H861	H86	0.976800	0.357000	0.479100
H871	H87	0.396000	0.037000	0.648200
H881	H88	0.796300	0.841500	0.016600
H891	H89	0.117700	0.684100	0.896300
H901	H90	0.331900	0.018500	0.862800
H911	H91	0.895100	0.348600	0.758700
H921	H92	0.621400	0.130100	0.856900
H931	H93	0.203700	0.158500	0.983400
H941	H94	0.078600	0.235500	0.484100
H951	H95	0.523200	0.857000	0.979100
H961	H96	0.601800	0.185900	0.878200
H971	H97	0.217200	0.090400	0.618400
H981	H98	0.473100	0.423100	0.303000
H991	H99	0.819700	0.279600	0.198800
H1001	H100	0.478900	0.822800	0.469600
H1011	H101	0.440900	0.442500	0.765200
H1021	H102	0.654700	0.048100	0.731000
H1031	H103	0.026300	0.043300	0.261500
H1041	H104	0.684500	0.130000	0.252700
H1051	H105	0.741800	0.044700	0.544700
H1061	H106	0.905400	0.867200	0.491500
H1071	H107	0.483400	0.552500	0.651800
H1081	H108	0.507200	0.851100	0.286200
H1091	H109	0.815500	0.630000	0.752700
H1101	H110	0.603800	0.260200	0.964200
H1111	H111	0.983400	0.947500	0.848200
H1121	H112	0.263000	0.117200	0.135400
H1131	H113	0.241800	0.455300	0.955300
H1141	H114	0.161200	0.373000	0.299400
H1151	H115	0.815900	0.349100	0.823500
H1161	H116	0.796100	0.315700	0.436800
H1171	H117	0.396200	0.739800	0.035800
H1181	H118	0.691100	0.155200	0.893900
H1191	H119	0.199100	0.798700	0.762900
H1201	H120	0.007000	0.476200	0.801900
H1211	H121	0.421400	0.735500	0.984100
H1221	H122	0.191100	0.344800	0.606100
H1231	H123	0.044200	0.023800	0.330300
H1241	H124	0.236200	0.751800	0.096200
H1251	H125	0.398200	0.814100	0.121800
H1261	H126	0.475500	0.004900	0.773100
H1271	H127	0.391600	0.476800	0.840000
H1281	H128	0.661200	0.127000	0.200600
H1291	H129	0.860700	0.015000	0.730800
H1301	H130	0.544200	0.476200	0.169700
H1311	H131	0.975500	0.495100	0.726900
H1321	H132	0.308900	0.844800	0.106100
H1331	H133	0.101800	0.017900	0.199900
H1341	H134	0.957800	0.897600	0.454900
H1351	H135	0.348700	0.441500	0.355300
H1361	H136	0.047900	0.617500	0.791000
H1371	H137	0.783300	0.341500	0.254200
H1381	H138	0.831900	0.481500	0.637200
H1391	H139	0.497900	0.122900	0.216700
H1401	H140	0.237000	0.617200	0.635400
H1411	H141	0.182000	0.855000	0.367900
H1421	H142	0.098300	0.153000	0.559800
H1431	H143	0.524500	0.995100	0.226900
H1441	H144	0.708700	0.285600	0.202500
H1451	H145	0.891600	0.023200	0.660000
H1461	H146	0.523800	0.524600	0.310000
H1471	H147	0.161700	0.140700	0.028600
H1481	H148	0.465000	0.771700	0.252500
H1491	H149	0.589900	0.775600	0.182900
H1501	H150	0.439700	0.891000	0.696700
H1511	H151	0.359900	0.299400	0.869200
H1521	H152	0.311400	0.586900	0.663000
H1531	H153	0.862900	0.333100	0.523500
H1541	H154	0.507000	0.023800	0.698100
H1551	H155	0.010300	0.279500	0.003300
H1561	H156	0.973100	0.076900	0.197000
H1571	H157	0.703700	0.341500	0.516600
H1581	H158	0.800900	0.201300	0.237100
H1591	H159	0.617700	0.815900	0.603700
H1601	H160	0.097900	0.320100	0.510700
H1611	H161	0.502100	0.877100	0.783300
H1621	H162	0.737000	0.882800	0.864600
H1631	H163	0.848700	0.058500	0.144700
H1641	H164	0.405400	0.632800	0.008500
H1651	H165	0.496000	0.261800	0.813300
H1661	H166	0.634600	0.273700	0.444700
H1671	H167	0.378200	0.499800	0.360400
H1681	H168	0.542200	0.397600	0.954900
H1691	H169	0.360700	0.485000	0.769200
H1701	H170	0.598300	0.347000	0.940200
H1711	H171	0.777400	0.386700	0.312300
H1721	H172	0.029200	0.313200	0.717800
H1731	H173	0.581400	0.854700	0.346400
H1741	H174	0.315900	0.150900	0.676500
H1751	H175	0.651300	0.558500	0.644700
H1761	H176	0.515900	0.185500	0.953800
H1771	H177	0.058800	0.114800	0.104000
H1781	H178	0.095600	0.930900	0.455300
H1791	H179	0.103800	0.239800	0.535800
H1801	H180	0.896000	0.463000	0.851800
H1811	H181	0.526300	0.456700	0.238500
H1821	H182	0.026900	0.923100	0.803000
H1831	H183	0.996000	0.238200	0.686700
H1841	H184	0.023800	0.975400	0.190000
H1851	H185	0.898200	0.685900	0.378200
H1861	H186	0.960100	0.281200	0.814800
H1871	H187	0.838500	0.318500	0.898300
H1881	H188	0.952100	0.382500	0.209000
H1891	H189	0.918600	0.354700	0.846400
H1901	H190	0.606300	0.773400	0.373500
H1911	H191	0.258200	0.955300	0.455300
H1921	H192	0.604000	0.963000	0.351800
H1931	H193	0.108400	0.976800	0.340000
H1941	H194	0.089900	0.724400	0.317100
H1951	H195	0.116800	0.764700	0.909800
H1961	H196	0.024500	0.504900	0.273100
H1971	H197	0.434900	0.346100	0.429400
H1981	H198	0.393700	0.226600	0.626500
H1991	H199	0.291300	0.714400	0.797500
H2001	H200	0.007200	0.648900	0.213800
H2011	H201	0.401700	0.653000	0.059800
H2021	H202	0.365400	0.726300	0.555300
H2031	H203	0.175100	0.039100	0.595600
H2041	H204	0.690500	0.870600	0.961300
H2051	H205	0.516600	0.447500	0.348200
H2061	H206	0.452100	0.117500	0.291000
H2071	H207	0.104000	0.537000	0.148200
H2081	H208	0.965000	0.728300	0.247500
H2091	H209	0.309500	0.129400	0.038700
H2101	H210	0.510300	0.220500	0.496700
H2111	H211	0.134600	0.226300	0.055300
H2121	H212	0.319700	0.220400	0.301200
H2131	H213	0.818000	0.145000	0.632100
H2141	H214	0.594600	0.367200	0.991500
H2151	H215	0.184100	0.650900	0.176500
H2161	H216	0.016600	0.052500	0.151800
H2171	H217	0.902100	0.679900	0.489300
H2181	H218	0.382300	0.184100	0.396300
H2191	H219	0.664900	0.796100	0.776100
H2201	H220	0.362900	0.166900	0.976500
H2211	H221	0.714600	0.956300	0.394100
H2221	H222	0.765000	0.586000	0.171700
H2231	H223	0.060300	0.391000	0.196700
H2241	H224	0.722600	0.886700	0.812300
H2251	H225	0.878200	0.000200	0.139600
H2261	H226	0.808900	0.655200	0.393900
H2271	H227	0.560300	0.109000	0.303300
H2281	H228	0.524300	0.802100	0.953800
H2291	H229	0.235000	0.414000	0.828300
H2301	H230	0.802000	0.539200	0.635100
H2311	H231	0.335100	0.203900	0.223900
H2321	H232	0.850100	0.343300	0.150200
H2331	H233	0.302000	0.960800	0.864900
H2341	H234	0.968000	0.663900	0.978000
H2351	H235	0.835100	0.296100	0.276100
H2361	H236	0.338300	0.640700	0.528600
H2371	H237	0.161500	0.681500	0.101700
H2381	H238	0.265000	0.914000	0.328300
H2391	H239	0.154700	0.451900	0.769000
H2401	H240	0.631500	0.082600	0.807700
H2411	H241	0.838800	0.627000	0.700600
H2421	H242	0.736200	0.748200	0.403800
H2431	H243	0.121800	0.999800	0.860400
H2441	H244	0.216700	0.658500	0.745800
H2451	H245	0.140100	0.799400	0.369200
H2461	H246	0.002100	0.622900	0.716700
H2471	H247	0.824900	0.960900	0.404400
H2481	H248	0.116500	0.291200	0.291700
H2491	H249	0.427800	0.345100	0.859100
H2501	H250	0.934900	0.153900	0.070600
H2511	H251	0.065000	0.634100	0.876900
H2521	H252	0.680300	0.779600	0.698800
H2531	H253	0.492800	0.148900	0.713800
H2541	H254	0.460100	0.218800	0.685200
H2551	H255	0.484100	0.814500	0.046200
H2561	H256	0.149900	0.656700	0.849800
H2571	H257	0.462200	0.530000	0.124900
H2581	H258	0.763000	0.382800	0.364600
H2591	H259	0.475700	0.197900	0.046200
H2601	H260	0.296300	0.658500	0.483400
H2611	H261	0.023200	0.643000	0.520900
H2621	H262	0.758200	0.544700	0.044700
H2631	H263	0.473700	0.543300	0.761500
H2641	H264	0.731700	0.699900	0.686200
H2651	H265	0.404400	0.430900	0.955300
H2661	H266	0.572200	0.654900	0.140900
H2671	H267	0.735000	0.086000	0.671700
H2681	H268	0.661500	0.818500	0.398300
H2691	H269	0.137100	0.666900	0.476500
H2701	H270	0.190500	0.629400	0.538700
H2711	H271	0.035000	0.271700	0.752500
H2721	H272	0.504000	0.738200	0.186700
H2731	H273	0.637100	0.833100	0.023500
H2741	H274	0.214600	0.543700	0.105900
H2751	H275	0.059100	0.942500	0.265200
H2761	H276	0.455800	0.523800	0.830300
H2771	H277	0.315500	0.870000	0.747300
H2781	H278	0.565100	0.653900	0.570600
H2791	H279	0.904400	0.069100	0.544700
H2801	H280	0.955800	0.976200	0.669700
H2811	H281	0.032000	0.336100	0.022000
H2821	H282	0.101800	0.314100	0.621800
H2831	H283	0.989700	0.720500	0.996700
H2841	H284	0.978900	0.677200	0.030400
H2851	H285	0.809500	0.370600	0.461300
H2861	H286	0.859900	0.200600	0.630800
H2871	H287	0.701100	0.284500	0.875900
H2881	H288	0.383200	0.264700	0.409800
H2891	H289	0.604900	0.848600	0.258700
H2901	H290	0.939700	0.609000	0.803300
H2911	H291	0.661700	0.359300	0.471400
H2921	H292	0.896200	0.760200	0.464200
H2931	H293	0.298900	0.715500	0.124100
H2941	H294	0.602200	0.025200	0.159300
H2951	H295	0.222600	0.613300	0.687700
H2961	H296	0.565000	0.865900	0.623100
H2971	H297	0.168100	0.518500	0.362800
H2981	H298	0.268300	0.300100	0.313800
H2991	H299	0.791300	0.785600	0.702500
H3001	H300	0.782800	0.909600	0.381600
H3011	H301	0.883500	0.708800	0.708300
H3021	H302	0.042200	0.102400	0.545100
H3031	H303	0.970800	0.686800	0.282200
H3041	H304	0.324900	0.539100	0.095600
H3051	H305	0.037800	0.030000	0.624900
H3061	H306	0.682000	0.645000	0.132100
H3071	H307	0.470800	0.813200	0.217800
H3081	H308	0.102200	0.474800	0.340700
H3091	H309	0.535000	0.228300	0.747500
H3101	H310	0.984100	0.685500	0.453800
H3111	H311	0.897800	0.525200	0.659300
H3121	H312	0.201100	0.215500	0.624100
H3131	H313	0.539900	0.781200	0.314800
H3141	H314	0.521100	0.177200	0.530400
H3151	H315	0.537800	0.470000	0.875100
H3161	H316	0.368500	0.917400	0.192300
H3171	H317	0.865400	0.773700	0.944700
H3181	H318	0.474700	0.576100	0.161400
H3191	H319	0.080500	0.213700	0.009300
H3201	H320	0.419500	0.713700	0.509300
H3211	H321	0.640100	0.700600	0.130800
H3221	H322	0.021100	0.322800	0.969600
H3231	H323	0.106300	0.726600	0.126500
H3241	H324	0.441200	0.614800	0.604000
H3251	H325	0.919500	0.786300	0.990700
H3261	H326	0.318000	0.355000	0.867900
H3271	H327	0.525300	0.423900	0.838600
H3281	H328	0.476800	0.143000	0.020900
H3291	H329	0.699100	0.701300	0.737100
H3301	H330	0.282800	0.590400	0.118400
H3311	H331	0.457800	0.602400	0.045100
H3321	H332	0.621800	0.500200	0.639600
H3331	H333	0.927800	0.154900	0.640900
H3341	H334	0.882300	0.315900	0.103700
H3351	H335	0.559100	0.557500	0.234800
H3361	H336	0.868500	0.582600	0.307700
H3371	H337	0.838300	0.859300	0.971400
H3381	H338	0.345300	0.951900	0.269000
H3391	H339	0.639300	0.515000	0.230800
H3401	H340	0.383500	0.791200	0.791700
H3411	H341	0.608400	0.523200	0.160000
H3421	H342	0.973700	0.956700	0.738500
H3431	H343	0.878600	0.630100	0.356900
H3441	H344	0.974700	0.923900	0.338600
H3451	H345	0.785400	0.456300	0.894100
H3461	H346	0.668100	0.981500	0.137200
H3471	H347	0.595600	0.569100	0.044700
H3481	H348	0.372500	0.902800	0.473900
C11	C1	0.541100	0.763700	0.851200
C21	C2	0.042400	0.369300	0.260300
C31	C3	0.969000	0.167000	0.530300
C41	C4	0.162200	0.113100	0.887400
C51	C5	0.313900	0.302900	0.170200
C61	C6	0.573200	0.991900	0.248000
C71	C7	0.635600	0.668900	0.145200
C81	C8	0.554800	0.311500	0.599400
C91	C9	0.990100	0.291800	0.736000
C101	C10	0.205800	0.034500	0.662300
C111	C11	0.034300	0.679100	0.517000
C121	C12	0.509900	0.791800	0.236000
C131	C13	0.346200	0.321900	0.808100
C141	C14	0.534300	0.820900	0.983000
C151	C15	0.944600	0.255500	0.703900
C161	C16	0.052000	0.987100	0.323600
C171	C17	0.130100	0.669600	0.165000
C181	C18	0.875400	0.030600	0.160600
C191	C19	0.796900	0.794300	0.213900
C201	C20	0.968300	0.172800	0.093400
C211	C21	0.232700	0.399800	0.798500
C221	C22	0.769200	0.883900	0.836000
C231	C23	0.332600	0.985200	0.846700
C241	C24	0.660900	0.796000	0.370600
C251	C25	0.525900	0.618300	0.887800
C261	C26	0.248800	0.709100	0.397200
C271	C27	0.781400	0.149100	0.719900
C281	C28	0.965600	0.960800	0.342800
C291	C29	0.601400	0.614900	0.806900
C301	C30	0.444600	0.244500	0.796100
C311	C31	0.926800	0.491900	0.748000
C321	C32	0.572000	0.521900	0.225000
C331	C33	0.135600	0.831100	0.354800
C341	C34	0.317700	0.920000	0.261400
C351	C35	0.468300	0.327200	0.406600
C361	C36	0.957600	0.630700	0.739700
C371	C37	0.826900	0.835600	0.826500
C381	C38	0.037100	0.303200	0.515900
C391	C39	0.418900	0.634500	0.815900
C401	C40	0.835000	0.598800	0.285600
C411	C41	0.751200	0.290900	0.602800
C421	C42	0.478600	0.454900	0.321900
C431	C43	0.912000	0.793100	0.618100
C441	C44	0.212700	0.316100	0.669200
C451	C45	0.869900	0.330400	0.835000
C461	C46	0.705800	0.835100	0.966000
C471	C47	0.203100	0.205700	0.786100
C481	C48	0.440800	0.636000	0.036500
C491	C49	0.559200	0.364000	0.963500
C501	C50	0.849100	0.661700	0.368600
C511	C51	0.059200	0.136000	0.536500
C521	C52	0.205800	0.664900	0.534000
C531	C53	0.288000	0.023600	0.689400
C541	C54	0.456300	0.810500	0.497500
C551	C55	0.254100	0.285400	0.283400
C561	C56	0.326900	0.664400	0.673500
C571	C57	0.740800	0.763900	0.375100
C581	C58	0.120600	0.528400	0.177100
C591	C59	0.665000	0.098800	0.785600
C601	C60	0.458900	0.236300	0.148800
C611	C61	0.375400	0.469400	0.339400
C621	C62	0.788000	0.476400	0.810600
C631	C63	0.839100	0.296000	0.870600
C641	C64	0.144300	0.907800	0.460800
C651	C65	0.349100	0.838300	0.131400
C661	C66	0.031700	0.827200	0.906600
C671	C67	0.335000	0.901200	0.214400
C681	C68	0.788900	0.647600	0.289900
C691	C69	0.288900	0.852400	0.210100
C701	C70	0.563200	0.721700	0.603800
C711	C71	0.534200	0.490000	0.296600
C721	C72	0.025900	0.881700	0.612200
C731	C73	0.462900	0.803200	0.015900
C741	C74	0.143200	0.356600	0.270100
C751	C75	0.855700	0.092200	0.539200
C761	C76	0.832600	0.514800	0.653300
C771	C77	0.483600	0.868800	0.711700
C781	C78	0.186100	0.802900	0.670200
C791	C79	0.406600	0.681100	0.646700
C801	C80	0.630600	0.242000	0.645200
C811	C81	0.235300	0.727100	0.782300
C821	C82	0.721300	0.012700	0.197800
C831	C83	0.350200	0.799900	0.494000
C841	C84	0.650900	0.161700	0.868600
C851	C85	0.778700	0.512700	0.697800
C861	C86	0.904100	0.334800	0.130900
C871	C87	0.160900	0.704000	0.129400
C881	C88	0.943200	0.479200	0.793100
C891	C89	0.837800	0.886900	0.112600
C901	C90	0.620600	0.971600	0.322900
C911	C91	0.300400	0.667300	0.515800
C921	C92	0.469000	0.333000	0.969700
C931	C93	0.043700	0.310500	0.997500
C941	C94	0.175500	0.500700	0.261700
C951	C95	0.588000	0.293100	0.118100
C961	C96	0.979500	0.817100	0.184100
C971	C97	0.643500	0.282000	0.477000
C981	C98	0.055400	0.744500	0.296100
C991	C99	0.167400	0.485200	0.346700
C1001	C100	0.182300	0.420000	0.761400
C1011	C101	0.879400	0.471600	0.822900
C1021	C102	0.945300	0.328300	0.771500
C1031	C103	0.786200	0.659300	0.021200
C1041	C104	0.542400	0.130700	0.239700
C1051	C105	0.593400	0.318900	0.353300
C1061	C106	0.649800	0.200100	0.506000
C1071	C107	0.251200	0.209100	0.897200
C1081	C108	0.794200	0.965500	0.337700
C1091	C109	0.990800	0.249100	0.136000
C1101	C110	0.718600	0.649100	0.219900
C1111	C111	0.965800	0.990000	0.796600
C1121	C112	0.412000	0.706900	0.881900
C1131	C113	0.777600	0.946400	0.383600
C1141	C114	0.928000	0.021900	0.725000
C1151	C115	0.404100	0.165200	0.369100
C1161	C116	0.355700	0.407800	0.960800
C1171	C117	0.073200	0.508100	0.252000
C1181	C118	0.846200	0.178100	0.691900
C1191	C119	0.356500	0.718000	0.523000
C1201	C120	0.281400	0.350900	0.780100
C1211	C121	0.758000	0.077900	0.538100
C1221	C122	0.712000	0.976400	0.310600
C1231	C123	0.124600	0.969400	0.839400
C1241	C124	0.554200	0.253400	0.986000
C1251	C125	0.526500	0.803100	0.654900
C1261	C126	0.364400	0.331100	0.854800
C1271	C127	0.898600	0.114900	0.306900
C1281	C128	0.764700	0.272900	0.217700
C1291	C129	0.324500	0.000700	0.761700
C1301	C130	0.978600	0.045100	0.178100
C1311	C131	0.259200	0.236100	0.624900
C1321	C132	0.269200	0.616100	0.664000
C1331	C133	0.543700	0.189500	0.502500
C1341	C134	0.034200	0.010000	0.203400
C1351	C135	0.973500	0.303100	0.154900
C1361	C136	0.267300	0.899800	0.298500
C1371	C137	0.705800	0.465500	0.837700
C1381	C138	0.742000	0.577900	0.038100
C1391	C139	0.974100	0.118300	0.387800
C1401	C140	0.021400	0.954900	0.821900
C1411	C141	0.869400	0.742000	0.145200
C1421	C142	0.356800	0.856600	0.770100
C1431	C143	0.625600	0.641800	0.031800
C1441	C144	0.667400	0.014800	0.153300
C1451	C145	0.686100	0.697100	0.829800
C1461	C146	0.081100	0.134500	0.315900
C1471	C147	0.042100	0.148700	0.112200
C1481	C148	0.509200	0.749100	0.636000
C1491	C149	0.690800	0.108600	0.528300
C1501	C150	0.101400	0.885100	0.693100
C1511	C151	0.945200	0.811500	0.099400
C1521	C152	0.119500	0.073700	0.773700
C1531	C153	0.190800	0.391400	0.971700
C1541	C154	0.063200	0.778300	0.896200
C1551	C155	0.555400	0.755500	0.203900
C1561	C156	0.072000	0.978100	0.275000
C1571	C157	0.874400	0.141800	0.531800
C1581	C158	0.396300	0.296500	0.091100
C1591	C159	0.339100	0.204000	0.629400
C1601	C160	0.009900	0.708200	0.264000
C1611	C161	0.436800	0.278300	0.396200
C1621	C162	0.619500	0.426300	0.726300
C1631	C163	0.703400	0.858600	0.167100
C1641	C164	0.723500	0.805900	0.761200
C1651	C165	0.294200	0.534500	0.162300
C1661	C166	0.149800	0.299900	0.994000
C1671	C167	0.445200	0.688500	0.400600
C1681	C168	0.813900	0.197100	0.329800
C1691	C169	0.624600	0.530600	0.660600
C1701	C170	0.534400	0.460800	0.842800
C1711	C171	0.880500	0.926300	0.226300
C1721	C172	0.026500	0.696900	0.845100
C1731	C173	0.056800	0.520800	0.206900
C1741	C174	0.711100	0.147600	0.789900
C1751	C175	0.465800	0.510000	0.703400
C1761	C176	0.165000	0.401200	0.714400
C1771	C177	0.211100	0.352400	0.710100
C1781	C178	0.644300	0.592200	0.039200
C1791	C179	0.940800	0.864000	0.463500
C1801	C180	0.906600	0.818900	0.853300
C1811	C181	0.730800	0.383900	0.336000
C1821	C182	0.957900	0.851300	0.887800
C1831	C183	0.445800	0.746600	0.014000
C1841	C184	0.796600	0.358600	0.667100
C1851	C185	0.286200	0.840700	0.478800
C1861	C186	0.240800	0.736100	0.124900
C1871	C187	0.054700	0.671700	0.228500
C1881	C188	0.556800	0.979200	0.293100
C1891	C189	0.673100	0.335600	0.326500
C1901	C190	0.936800	0.221700	0.103800
C1911	C191	0.398600	0.385100	0.193100
C1921	C192	0.537100	0.196800	0.984100
C1931	C193	0.465600	0.539200	0.157200
C1941	C194	0.542100	0.351300	0.387800
C1951	C195	0.278700	0.987300	0.802200
C1961	C196	0.983600	0.631200	0.788300
C1971	C197	0.630100	0.830400	0.335000
C1981	C198	0.245900	0.785400	0.783400
C1991	C199	0.595900	0.834800	0.630900
C2001	C200	0.896300	0.203500	0.408900
C2011	C201	0.230800	0.116100	0.164000
C2021	C202	0.787300	0.683900	0.330800
C2031	C203	0.294200	0.164900	0.034000
C2041	C204	0.776500	0.305900	0.261200
C2051	C205	0.682300	0.080000	0.738600
C2061	C206	0.703100	0.294300	0.713900
C2071	C207	0.956300	0.689500	0.002500
C2081	C208	0.276500	0.194100	0.238800
C2091	C209	0.041100	0.736300	0.648800
C2101	C210	0.767300	0.600200	0.201500
C2111	C211	0.296600	0.141400	0.832900
C2121	C212	0.520500	0.317100	0.684100
C2131	C213	0.173100	0.164400	0.173500
C2141	C214	0.199600	0.167300	0.015800
C2151	C215	0.662200	0.386900	0.612600
C2161	C216	0.379400	0.028400	0.677100
C2171	C217	0.509600	0.706800	0.779200
C2181	C218	0.088000	0.206900	0.381900
C2191	C219	0.809200	0.608600	0.028300
C2201	C220	0.448000	0.487100	0.823600
C2211	C221	0.824500	0.499300	0.738300
C2221	C222	0.722400	0.446400	0.883600
C2231	C223	0.221300	0.487300	0.302200
C2241	C224	0.296900	0.705700	0.286100
C2251	C225	0.125600	0.858200	0.468200
C2261	C226	0.712700	0.183900	0.830800
C2271	C227	0.713800	0.159300	0.521200
C2281	C228	0.856800	0.643400	0.729900
C2291	C229	0.103700	0.796500	0.591100
C2301	C230	0.531700	0.672800	0.593400
C2311	C231	0.287300	0.816100	0.169200
C2321	C232	0.948000	0.012900	0.676400
C2331	C233	0.337800	0.613100	0.387400
C2341	C234	0.143500	0.218000	0.023000
C2351	C235	0.443200	0.020800	0.706900
C2361	C236	0.850200	0.700100	0.006000
C2371	C237	0.309200	0.891400	0.471700
C2381	C238	0.093400	0.181100	0.146700
C2391	C239	0.856500	0.782000	0.977000
C2401	C240	0.445300	0.171700	0.728500
C2411	C241	0.009200	0.750900	0.864000
C2421	C242	0.490100	0.208200	0.764000
C2431	C243	0.213800	0.340700	0.978800
C2441	C244	0.465700	0.179100	0.017000
C2451	C245	0.965700	0.320900	0.483000
C2461	C246	0.242000	0.922100	0.461900
C2471	C247	0.754100	0.214600	0.216600
C2481	C248	0.490400	0.293200	0.220800
C2491	C249	0.990400	0.206800	0.279200
C2501	C250	0.457600	0.869300	0.760300
C2511	C251	0.426800	0.008100	0.752000
C2521	C252	0.150900	0.338300	0.631400
C2531	C253	0.552000	0.512900	0.176400
C2541	C254	0.800400	0.832700	0.984200
C2551	C255	0.817700	0.580000	0.238600
C2561	C256	0.531000	0.667000	0.030300
C2571	C257	0.016400	0.368800	0.211700
C2581	C258	0.479500	0.682900	0.315900
C2591	C259	0.277600	0.553600	0.116400
C2601	C260	0.521400	0.545100	0.678100
C2611	C261	0.222400	0.053600	0.616400
C2621	C262	0.374400	0.358200	0.968200
C2631	C263	0.516400	0.131200	0.288300
C2641	C264	0.918900	0.865500	0.684100
C2651	C265	0.020500	0.182900	0.815900
C2661	C266	0.380500	0.573700	0.273700
C2671	C267	0.153800	0.821900	0.308100
C2681	C268	0.054200	0.246600	0.514000
C2691	C269	0.675500	0.999300	0.238300
C2701	C270	0.603700	0.703500	0.908900
C2711	C271	0.031000	0.833000	0.469700
C2721	C272	0.490800	0.250900	0.364000
C2731	C273	0.212000	0.523600	0.189400
C2741	C274	0.732700	0.100200	0.701500
C2751	C275	0.735300	0.772900	0.717700
C2761	C276	0.428000	0.478100	0.775000
C2771	C277	0.745900	0.714600	0.716600
C2781	C278	0.653800	0.678100	0.191900
C2791	C279	0.034400	0.039200	0.657200
C2801	C280	0.581100	0.365500	0.184100
C2811	C281	0.369900	0.169600	0.665000
C2821	C282	0.958900	0.263700	0.351200
C2831	C283	0.264700	0.227100	0.282300
C2841	C284	0.203400	0.641400	0.332900
C2851	C285	0.945800	0.753400	0.486000
C2861	C286	0.794200	0.335100	0.466000
C2871	C287	0.864400	0.168900	0.645200
C2881	C288	0.130600	0.258000	0.854800
C2891	C289	0.223500	0.694100	0.738800
C2901	C290	0.643200	0.143400	0.229900
C2911	C291	0.258000	0.422100	0.961900
C2921	C292	0.009600	0.793200	0.720800
C2931	C293	0.218600	0.850900	0.280100
C2941	C294	0.748800	0.790900	0.102800
C2951	C295	0.457900	0.648700	0.612200
C2961	C296	0.962900	0.696800	0.484100
C2971	C297	0.759200	0.263900	0.875100
C2981	C298	0.474100	0.381700	0.112200
C2991	C299	0.054800	0.188500	0.900600
C3001	C300	0.699600	0.332700	0.484200
C3011	C301	0.554700	0.828300	0.271500
C3021	C302	0.095900	0.665200	0.869100
C3031	C303	0.369400	0.758000	0.354800
C3041	C304	0.473500	0.196900	0.345100
N11	N1	0.529800	0.715400	0.023100
N21	N2	0.640600	0.391100	0.201400
N31	N3	0.500900	0.696500	0.429400
N41	N4	0.631400	0.578300	0.788500
N51	N5	0.687800	0.520300	0.700900
N61	N6	0.302100	0.228100	0.924900
N71	N7	0.303500	0.327300	0.977300
N81	N8	0.751200	0.221000	0.836100
N91	N9	0.264900	0.794800	0.677800
N101	N10	0.010500	0.225300	0.247300
N111	N11	0.802600	0.802000	0.791800
N121	N12	0.228700	0.222200	0.753400
N131	N13	0.434800	0.727800	0.655200
N141	N14	0.802100	0.271900	0.575100
N151	N15	0.735200	0.990300	0.270400
N161	N16	0.131400	0.921700	0.711500
N171	N17	0.447400	0.309700	0.700500
N181	N18	0.092400	0.705500	0.198500
N191	N19	0.986700	0.989200	0.750000
N201	N20	0.197400	0.198000	0.208200
N211	N21	0.342600	0.802000	0.770400
N221	N22	0.052600	0.809700	0.200500
N231	N23	0.382200	0.282300	0.784500
N241	N24	0.196500	0.827300	0.477300
N251	N25	0.737100	0.671500	0.260500
N261	N26	0.631100	0.814400	0.996400
N271	N27	0.197900	0.728100	0.424900
N281	N28	0.617000	0.198900	0.641800
N291	N29	0.871000	0.377600	0.672500
N301	N30	0.868900	0.314400	0.496400
N311	N31	0.844800	0.779500	0.598000
N321	N32	0.000900	0.803500	0.070600
N331	N33	0.131100	0.685600	0.503600
N341	N34	0.155200	0.220500	0.402000
N351	N35	0.947400	0.190300	0.799500
N361	N36	0.630500	0.391200	0.701000
N371	N37	0.470200	0.284600	0.976900
N381	N38	0.697900	0.771900	0.075100
N391	N39	0.248800	0.779000	0.163900
N401	N40	0.989500	0.774700	0.752700
N411	N41	0.371000	0.122400	0.827500
N421	N42	0.302600	0.698000	0.708200
N431	N43	0.842600	0.698000	0.729600
N441	N44	0.237100	0.828500	0.239500
N451	N45	0.565200	0.272200	0.344800
N461	N46	0.883000	0.698900	0.141800
N471	N47	0.629000	0.877600	0.172500
N481	N48	0.020000	0.317600	0.189000
N491	N49	0.235200	0.509700	0.229600
N501	N50	0.368900	0.185600	0.003600
N511	N51	0.029800	0.784600	0.476900
N521	N52	0.859400	0.891100	0.701400
N531	N53	0.140600	0.108900	0.298600
N541	N54	0.541200	0.808400	0.855600
N551	N55	0.882200	0.217700	0.715500
N561	N56	0.771300	0.777800	0.246600
N571	N57	0.235100	0.294800	0.177800
N581	N58	0.065200	0.227800	0.155200
N591	N59	0.803500	0.172700	0.522700
N601	N60	0.808500	0.740700	0.995900
N611	N61	0.691500	0.240700	0.495900
N621	N62	0.168400	0.079000	0.909900
N631	N63	0.369500	0.608800	0.299000
N641	N64	0.480000	0.817600	0.689000
N651	N65	0.312200	0.479700	0.299100
N661	N66	0.617800	0.717700	0.215500
N671	N67	0.519500	0.586900	0.910700
N681	N68	0.486700	0.510800	0.750000
N691	N69	0.458800	0.191600	0.144400
N701	N70	0.041200	0.691600	0.644400
N711	N71	0.407600	0.205500	0.698500
N721	N72	0.251200	0.279000	0.663900
N731	N73	0.117800	0.782300	0.284500
N741	N74	0.499100	0.303500	0.570600
N751	N75	0.625800	0.474000	0.822000
N761	N76	0.655200	0.279500	0.098000
N771	N77	0.748800	0.721000	0.336100
N781	N78	0.374200	0.526000	0.178000
N791	N79	0.489500	0.725300	0.747300
N801	N80	0.764900	0.705200	0.822200
N811	N81	0.520000	0.182400	0.311000
N821	N82	0.368600	0.421700	0.211500
N831	N83	0.262900	0.328500	0.739500
N841	N84	0.117000	0.301100	0.858200
N851	N85	0.383000	0.801100	0.358200
N861	N86	0.762900	0.171500	0.760500
N871	N87	0.980500	0.086900	0.410700
N881	N88	0.958800	0.308400	0.355600
N891	N89	0.831600	0.921000	0.090100
N901	N90	0.129000	0.622400	0.327500
N911	N91	0.970200	0.215400	0.523100
N921	N92	0.874200	0.974000	0.322000
N931	N93	0.934800	0.772200	0.844800
N941	N94	0.510500	0.274700	0.252700
N951	N95	0.869500	0.891200	0.201000
N961	N96	0.980000	0.682400	0.811000
N971	N97	0.668400	0.421000	0.590100
N981	N98	0.130500	0.108800	0.799000
N991	N99	0.191500	0.259300	0.004100
N1001	N100	0.657400	0.198000	0.229600
N1011	N101	0.868600	0.078300	0.288500
N1021	N102	0.271300	0.722200	0.253400
N1031	N103	0.735100	0.205200	0.322200
N1041	N104	0.125800	0.026000	0.678000
N1051	N105	0.157400	0.302000	0.270400
N1061	N106	0.696500	0.672700	0.022700
N1071	N107	0.331600	0.579000	0.409900
N1081	N108	0.019500	0.913100	0.589300
N1091	N109	0.513300	0.489200	0.250000
N1101	N110	0.862500	0.216900	0.442900
N1111	N111	0.359400	0.608900	0.798600
N1121	N112	0.697400	0.302000	0.291800
N1131	N113	0.187800	0.979700	0.799100
N1141	N114	0.592400	0.794500	0.301500
N1151	N115	0.264800	0.009700	0.729600
N1161	N116	0.480500	0.413100	0.089300
N1171	N117	0.552600	0.690300	0.299500
N1181	N118	0.764800	0.490300	0.770400
N1191	N119	0.308500	0.759300	0.504100
N1201	N120	0.728700	0.277800	0.746600
N1211	N121	0.907600	0.294500	0.801500
N1221	N122	0.362500	0.283100	0.057100
N1231	N123	0.637500	0.716900	0.942900
N1241	N124	0.137500	0.783100	0.557100
N1251	N125	0.013300	0.010800	0.250000
N1261	N126	0.812200	0.020300	0.200900
N1271	N127	0.344800	0.720500	0.902000
N1281	N128	0.999100	0.196500	0.929400
