data_CIWZIT_clean_PM
_symmetry_space_group_name_H-M	'P1'
_cell_length_a	13.967100
_cell_length_b	26.245700
_cell_length_c	29.811600
_cell_angle_alpha	95.311000
_cell_angle_beta	90.000000
_cell_angle_gamma	90.000000
_symmetry_Int_Tables_number 1

loop_
_symmetry_equiv_pos_as_xyz
'x,y,z'

loop_
_atom_site_label
_atom_site_type_symbol
_atom_site_fract_x
_atom_site_fract_y
_atom_site_fract_z
Ni11	Ni1	0.371890	0.500990	0.753750
Ni21	Ni2	0.833740	0.766890	0.223350
Ni31	Ni3	0.628110	0.499010	0.246250
Ni41	Ni4	0.128110	0.000990	0.253750
Ni51	Ni5	0.166260	0.233110	0.776650
Ni61	Ni6	0.834430	0.762180	0.491870
Ni71	Ni7	0.115740	0.733720	0.789950
Ni81	Ni8	0.384260	0.233720	0.289950
Ni91	Ni9	0.165570	0.237820	0.508130
Ni101	Ni10	0.334430	0.737820	0.008130
Ni111	Ni11	0.871890	0.999010	0.746250
Ni121	Ni12	0.615740	0.766280	0.710050
Ni131	Ni13	0.665570	0.262180	0.991870
Ni141	Ni14	0.666260	0.266890	0.723350
Ni151	Ni15	0.884260	0.266280	0.210050
Ni161	Ni16	0.333740	0.733110	0.276650
H11	H1	0.365900	0.268400	0.442900
H21	H2	0.597300	0.432100	0.947600
H31	H3	0.188900	0.487400	0.629400
H41	H4	0.507400	0.270100	0.820600
H51	H5	0.243800	0.542800	0.049200
H61	H6	0.666400	0.954400	0.858600
H71	H7	0.466400	0.150700	0.482900
H81	H8	0.705000	0.711100	0.129300
H91	H9	0.962900	0.716500	0.187100
H101	H10	0.573900	0.344100	0.429000
H111	H11	0.177300	0.327100	0.901900
H121	H12	0.522600	0.203400	0.048300
H131	H13	0.779500	0.660600	0.742400
H141	H14	0.688900	0.012600	0.870600
H151	H15	0.803600	0.090500	0.622300
H161	H16	0.690800	0.601200	0.636100
H171	H17	0.756200	0.457200	0.950800
H181	H18	0.635000	0.911800	0.190500
H191	H19	0.340600	0.837900	0.646100
H201	H20	0.182600	0.278000	0.199800
H211	H21	0.402700	0.567900	0.052400
H221	H22	0.554000	0.619600	0.603100
H231	H23	0.033600	0.650700	0.982900
H241	H24	0.418800	0.273500	0.014600
H251	H25	0.987900	0.290600	0.016200
H261	H26	0.897400	0.672800	0.899100
H271	H27	0.097300	0.067900	0.552400
H281	H28	0.317400	0.778000	0.699800
H291	H29	0.485300	0.192000	0.955800
H301	H30	0.082300	0.353800	0.846900
H311	H31	0.255900	0.752500	0.401300
H321	H32	0.952500	0.613500	0.789500
H331	H33	0.454900	0.389700	0.938400
H341	H34	0.223700	0.900600	0.813800
H351	H35	0.890900	0.155800	0.548500
H361	H36	0.575500	0.613400	0.011300
H371	H37	0.978800	0.972000	0.182900
H381	H38	0.784900	0.554200	0.113300
H391	H39	0.560400	0.894200	0.698300
H401	H40	0.614000	0.790800	0.791400
H411	H41	0.969500	0.406800	0.276000
H421	H42	0.862600	0.670500	0.479100
H431	H43	0.160400	0.627800	0.696000
H441	H44	0.619000	0.261300	0.410400
H451	H45	0.424500	0.386600	0.988700
H461	H46	0.439600	0.105800	0.301700
H471	H47	0.987400	0.647300	0.219200
H481	H48	0.512100	0.790600	0.516200
H491	H49	0.576100	0.125500	0.365300
H501	H50	0.361000	0.514400	0.236500
H511	H51	0.026600	0.494000	0.723400
H521	H52	0.608400	0.034600	0.648900
H531	H53	0.877100	0.362500	0.635400
H541	H54	0.954900	0.110300	0.561600
H551	H55	0.007400	0.229900	0.679400
H561	H56	0.892400	0.717900	0.112200
H571	H57	0.668900	0.206300	0.222100
H581	H58	0.200400	0.201700	0.235300
H591	H59	0.339600	0.127800	0.196000
H601	H60	0.045100	0.889700	0.438400
H611	H61	0.075500	0.886600	0.488700
H621	H62	0.622900	0.862500	0.135400
H631	H63	0.822700	0.672900	0.098100
H641	H64	0.493800	0.449900	0.355500
H651	H65	0.423900	0.874500	0.634700
H661	H66	0.107600	0.282100	0.887800
H671	H67	0.184400	0.346100	0.825700
H681	H68	0.977400	0.703400	0.548300
H691	H69	0.021200	0.028000	0.817100
H701	H70	0.688900	0.135900	0.040500
H711	H71	0.480000	0.425400	0.833600
H721	H72	0.765300	0.799300	0.814800
H731	H73	0.487900	0.209400	0.483800
H741	H74	0.374100	0.093800	0.529400
H751	H75	0.098100	0.688100	0.490100
H761	H76	0.401900	0.188100	0.990100
H771	H77	0.609100	0.655800	0.048500
H781	H78	0.420800	0.282600	0.488200
H791	H79	0.639000	0.485600	0.763500
H801	H80	0.980800	0.648900	0.521900
H811	H81	0.092400	0.267900	0.674400
H821	H82	0.980000	0.074600	0.666400
H831	H83	0.133500	0.997900	0.136400
H841	H84	0.303600	0.409500	0.877700
H851	H85	0.395500	0.688600	0.134300
H861	H86	0.602600	0.172800	0.399100
H871	H87	0.924500	0.113400	0.511300
H881	H88	0.800500	0.843300	0.368500
H891	H89	0.012100	0.709400	0.983800
H901	H90	0.485700	0.183100	0.528900
H911	H91	0.390400	0.522800	0.165000
H921	H92	0.715100	0.054200	0.613300
H931	H93	0.333600	0.045600	0.141400
H941	H94	0.122900	0.637500	0.364600
H951	H95	0.598100	0.811900	0.009900
H961	H96	0.506200	0.550100	0.644500
H971	H97	0.256200	0.042800	0.549200
H981	H98	0.397400	0.827200	0.600900
H991	H99	0.468200	0.186300	0.785500
H1001	H100	0.104500	0.188600	0.634300
H1011	H101	0.684400	0.153900	0.674300
H1021	H102	0.244100	0.252500	0.901300
H1031	H103	0.047500	0.386500	0.210500
H1041	H104	0.137400	0.329500	0.520900
H1051	H105	0.815600	0.653900	0.174300
H1061	H106	0.811100	0.635900	0.540500
H1071	H107	0.969400	0.924800	0.809300
H1081	H108	0.865900	0.231600	0.057100
H1091	H109	0.755900	0.747500	0.098700
H1101	H110	0.890700	0.655900	0.245900
H1111	H111	0.514300	0.816900	0.471100
H1121	H112	0.337100	0.555800	0.642600
H1131	H113	0.787100	0.627300	0.652600
H1141	H114	0.054000	0.880400	0.896900
H1151	H115	0.399900	0.485600	0.308800
H1161	H116	0.322700	0.827100	0.401900
H1171	H117	0.720500	0.160600	0.242400
H1181	H118	0.840600	0.662100	0.853900
H1191	H119	0.891600	0.534600	0.148900
H1201	H120	0.398300	0.266300	0.962700
H1211	H121	0.743800	0.957200	0.450800
H1221	H122	0.060400	0.605800	0.801700
H1231	H123	0.811100	0.512600	0.370600
H1241	H124	0.196400	0.909500	0.377700
H1251	H125	0.199500	0.156700	0.631500
H1261	H126	0.545100	0.610300	0.061600
H1271	H127	0.607600	0.217900	0.612200
H1281	H128	0.108400	0.465400	0.851100
H1291	H129	0.600100	0.514400	0.691200
H1301	H130	0.215100	0.445800	0.886700
H1311	H131	0.499200	0.849700	0.775200
H1321	H132	0.135000	0.588200	0.309500
H1331	H133	0.076100	0.374500	0.134700
H1341	H134	0.968200	0.313700	0.714500
H1351	H135	0.206600	0.783800	0.703000
H1361	H136	0.898300	0.233700	0.537300
H1371	H137	0.809200	0.101200	0.136100
H1381	H138	0.100100	0.985600	0.808800
H1391	H139	0.459700	0.227500	0.751600
H1401	H140	0.234700	0.200700	0.185200
H1411	H141	0.487400	0.852700	0.280800
H1421	H142	0.861000	0.985600	0.263500
H1431	H143	0.831100	0.706300	0.722100
H1441	H144	0.799600	0.162200	0.986100
H1451	H145	0.634100	0.731600	0.557100
H1461	H146	0.660400	0.872200	0.804000
H1471	H147	0.894500	0.305700	0.615900
H1481	H148	0.299600	0.701700	0.735300
H1491	H149	0.480800	0.851100	0.978100
H1501	H150	0.346800	0.052100	0.734300
H1511	H151	0.220500	0.339400	0.257600
H1521	H152	0.592400	0.232100	0.825600
H1531	H153	0.526600	0.006000	0.776600
H1541	H154	0.037100	0.283500	0.812900
H1551	H155	0.031800	0.686300	0.285500
H1561	H156	0.365000	0.088200	0.809500
H1571	H157	0.195400	0.664500	0.399300
H1581	H158	0.530500	0.906800	0.776000
H1591	H159	0.605500	0.805700	0.115900
H1601	H160	0.494300	0.024800	0.702900
H1611	H161	0.519200	0.148900	0.021900
H1621	H162	0.799600	0.798300	0.764700
H1631	H163	0.390700	0.844100	0.254100
H1641	H164	0.161500	0.853600	0.968200
H1651	H165	0.926100	0.844100	0.929000
H1661	H166	0.609600	0.477200	0.835000
H1671	H167	0.125900	0.593800	0.029400
H1681	H168	0.625900	0.906200	0.470600
H1691	H169	0.467700	0.471700	0.870300
H1701	H170	0.596600	0.996200	0.843100
H1711	H171	0.101700	0.766300	0.462700
H1721	H172	0.897400	0.869400	0.357200
H1731	H173	0.159400	0.337900	0.146100
H1741	H174	0.079200	0.782600	0.988200
H1751	H175	0.999200	0.650300	0.724800
H1761	H176	0.699500	0.343300	0.868500
H1771	H177	0.315600	0.846100	0.325700
H1781	H178	0.293400	0.283800	0.203000
H1791	H179	0.890400	0.977200	0.335000
H1801	H180	0.839600	0.372200	0.304000
H1811	H181	0.081200	0.773500	0.514600
H1821	H182	0.006200	0.949900	0.855500
H1831	H183	0.162900	0.055800	0.142600
H1841	H184	0.073900	0.155900	0.071000
H1851	H185	0.701900	0.191100	0.064300
H1861	H186	0.744100	0.247500	0.598700
H1871	H187	0.581200	0.726500	0.985400
H1881	H188	0.366500	0.497900	0.636400
H1891	H189	0.300500	0.656700	0.131500
H1901	H190	0.582300	0.146200	0.653100
H1911	H191	0.902700	0.932100	0.447600
H1921	H192	0.492600	0.729900	0.179400
H1931	H193	0.032300	0.971700	0.370300
H1941	H194	0.895500	0.811400	0.365700
H1951	H195	0.992600	0.770100	0.320600
H1961	H196	0.331100	0.793700	0.777900
H1971	H197	0.526500	0.543200	0.753600
H1981	H198	0.188900	0.364100	0.459500
H1991	H199	0.309200	0.398800	0.363900
H2001	H200	0.734700	0.299300	0.314800
H2011	H201	0.810000	0.371800	0.253200
H2021	H202	0.795000	0.211100	0.629300
H2031	H203	0.377100	0.137500	0.864600
H2041	H204	0.690000	0.871800	0.753200
H2051	H205	0.212900	0.372700	0.347400
H2061	H206	0.695400	0.835500	0.100700
H2071	H207	0.682600	0.222000	0.300200
H2081	H208	0.190800	0.898800	0.863900
H2091	H209	0.019200	0.351100	0.478100
H2101	H210	0.946000	0.119600	0.103100
H2111	H211	0.762600	0.416600	0.820200
H2121	H212	0.874100	0.406200	0.970600
H2131	H213	0.030500	0.593200	0.724000
H2141	H214	0.109300	0.344100	0.754100
H2151	H215	0.014700	0.692000	0.455800
H2161	H216	0.662900	0.444200	0.357400
H2171	H217	0.712900	0.127300	0.152600
H2181	H218	0.102600	0.130600	0.642800
H2191	H219	0.299600	0.337800	0.513900
H2201	H220	0.901900	0.311900	0.509900
H2211	H221	0.298100	0.808900	0.935700
H2221	H222	0.700400	0.298300	0.264700
H2231	H223	0.776300	0.099400	0.186200
H2241	H224	0.397400	0.630600	0.142800
H2251	H225	0.833600	0.454400	0.358600
H2261	H226	0.923900	0.625500	0.865300
H2271	H227	0.637400	0.170500	0.979100
H2281	H228	0.109600	0.022800	0.665000
H2291	H229	0.973500	0.043200	0.253600
H2301	H230	0.102600	0.327200	0.100900
H2311	H231	0.139000	0.014400	0.736500
H2321	H232	0.311100	0.864100	0.959500
H2331	H233	0.477400	0.796600	0.951700
H2341	H234	0.512600	0.147300	0.719200
H2351	H235	0.279500	0.839400	0.757600
H2361	H236	0.237400	0.583400	0.179800
H2371	H237	0.287100	0.872700	0.847400
H2381	H238	0.604500	0.311400	0.865700
H2391	H239	0.918800	0.226500	0.485400
H2401	H240	0.985700	0.316900	0.971100
H2411	H241	0.817200	0.035900	0.597000
H2421	H242	0.394500	0.194300	0.884100
H2431	H243	0.633500	0.502100	0.363600
H2441	H244	0.531800	0.813700	0.214500
H2451	H245	0.109100	0.844200	0.451500
H2461	H246	0.959700	0.272500	0.748400
H2471	H247	0.060200	0.057100	0.740800
H2481	H248	0.166400	0.545600	0.641400
H2491	H249	0.920800	0.217400	0.011800
H2501	H250	0.560200	0.442900	0.759200
H2511	H251	0.866500	0.002100	0.863600
H2521	H252	0.469400	0.575200	0.690700
H2531	H253	0.661500	0.646400	0.531800
H2541	H254	0.392400	0.782100	0.387800
H2551	H255	0.311100	0.987400	0.129400
H2561	H256	0.939800	0.942900	0.259200
H2571	H257	0.737400	0.916600	0.320200
H2581	H258	0.265300	0.700700	0.685200
H2591	H259	0.026500	0.956800	0.746400
H2601	H260	0.478800	0.528000	0.317100
H2611	H261	0.262600	0.083400	0.679800
H2621	H262	0.696400	0.590500	0.122300
H2631	H263	0.520000	0.574600	0.166400
H2641	H264	0.045300	0.975900	0.673200
H2651	H265	0.276300	0.400600	0.313800
H2661	H266	0.514700	0.808000	0.044200
H2671	H267	0.473400	0.994000	0.223400
H2681	H268	0.547500	0.113500	0.289500
H2691	H269	0.723700	0.599400	0.686200
H2701	H270	0.865000	0.411800	0.690500
H2711	H271	0.182800	0.964100	0.403000
H2721	H272	0.391600	0.965400	0.351100
H2731	H273	0.381000	0.738700	0.589600
H2741	H274	0.602600	0.369400	0.857200
H2751	H275	0.682800	0.535900	0.097000
H2761	H276	0.020000	0.925400	0.333600
H2771	H277	0.439800	0.557100	0.240800
H2781	H278	0.201900	0.308900	0.435700
H2791	H279	0.205000	0.788900	0.370700
H2801	H280	0.500800	0.150300	0.224800
H2811	H281	0.190000	0.628200	0.746800
H2821	H282	0.304600	0.164500	0.899300
H2831	H283	0.540300	0.772500	0.248400
H2841	H284	0.317200	0.464100	0.903000
H2851	H285	0.609300	0.155900	0.745900
H2861	H286	0.659400	0.162100	0.353900
H2871	H287	0.846800	0.447900	0.765700
H2881	H288	0.040300	0.727500	0.251600
H2891	H289	0.114000	0.709200	0.708600
H2901	H290	0.985300	0.308000	0.544200
H2911	H291	0.119000	0.238700	0.089600
H2921	H292	0.454700	0.475900	0.173200
H2931	H293	0.530600	0.424800	0.309300
H2941	H294	0.022600	0.296600	0.451700
H2951	H295	0.881000	0.761300	0.910400
H2961	H296	0.473500	0.456800	0.246400
H2971	H297	0.403400	0.003800	0.156900
H2981	H298	0.793400	0.216200	0.297000
H2991	H299	0.000800	0.349700	0.275200
H3001	H300	0.096600	0.503800	0.656900
H3011	H301	0.532300	0.528300	0.129700
H3021	H302	0.917700	0.646200	0.153100
H3031	H303	0.310000	0.128200	0.246800
H3041	H304	0.903400	0.496200	0.343100
H3051	H305	0.030600	0.075200	0.190700
H3061	H306	0.899900	0.014400	0.191200
H3071	H307	0.798100	0.691100	0.564300
H3081	H308	0.973400	0.506000	0.276600
H3091	H309	0.533600	0.849300	0.517100
H3101	H310	0.505700	0.975200	0.297100
H3111	H311	0.386000	0.209200	0.208600
H3121	H312	0.295000	0.288900	0.870700
H3131	H313	0.153200	0.552100	0.234300
H3141	H314	0.837100	0.944200	0.857400
H3151	H315	0.804600	0.335500	0.600700
H3161	H316	0.706600	0.716200	0.797000
H3171	H317	0.838500	0.146400	0.031800
H3181	H318	0.907600	0.732100	0.325600
H3191	H319	0.012600	0.352700	0.780800
H3201	H320	0.537100	0.216500	0.687100
H3211	H321	0.446000	0.380400	0.396900
H3221	H322	0.105500	0.694300	0.384100
H3231	H323	0.579200	0.717400	0.511800
H3241	H324	0.200400	0.837800	0.013900
H3251	H325	0.426100	0.655900	0.571000
H3261	H326	0.886000	0.290800	0.291400
H3271	H327	0.014300	0.683100	0.028900
H3281	H328	0.452500	0.886500	0.710500
H3291	H329	0.284900	0.945800	0.386700
H3301	H330	0.338500	0.353600	0.468200
H3311	H331	0.817400	0.722000	0.800200
H3321	H332	0.005700	0.524800	0.202900
H3331	H333	0.362600	0.829500	0.020900
H3341	H334	0.993800	0.050100	0.144500
H3351	H335	0.966400	0.349300	0.017100
H3361	H336	0.653200	0.947900	0.265700
H3371	H337	0.545300	0.524100	0.826800
H3381	H338	0.134100	0.768400	0.942900
H3391	H339	0.469500	0.093200	0.224000
H3401	H340	0.700400	0.662200	0.486100
H3411	H341	0.677300	0.172900	0.598100
H3421	H342	0.967700	0.028300	0.629700
H3431	H343	0.462900	0.783500	0.312900
H3441	H344	0.407600	0.767900	0.174400
H3451	H345	0.521200	0.472000	0.682900
H3461	H346	0.417700	0.853800	0.346900
H3471	H347	0.994300	0.475200	0.797100
H3481	H348	0.168900	0.293700	0.277900
H3491	H349	0.939600	0.394200	0.198300
H3501	H350	0.954700	0.024100	0.326800
H3511	H351	0.390900	0.344200	0.951500
H3521	H352	0.601700	0.733700	0.037300
W11	W1	0.960770	0.821520	0.657140
W21	W2	0.157600	0.821840	0.151980
W31	W3	0.657600	0.678160	0.348020
W41	W4	0.539230	0.321520	0.157140
W51	W5	0.342400	0.321840	0.651980
W61	W6	0.039230	0.178480	0.342860
W71	W7	0.842400	0.178160	0.848020
W81	W8	0.460770	0.678480	0.842860
C11	C1	0.162400	0.512100	0.651800
C21	C2	0.147600	0.694800	0.004200
C31	C3	0.216400	0.511100	0.693900
C41	C4	0.772900	0.696300	0.736700
C51	C5	0.973000	0.883800	0.616100
C61	C6	0.285800	0.189100	0.833800
C71	C7	0.044200	0.261300	0.351500
C81	C8	0.170200	0.831200	0.826100
C91	C9	0.488000	0.753400	0.636300
C101	C10	0.285300	0.977100	0.308900
C111	C11	0.336800	0.383500	0.609400
C121	C12	0.205300	0.793700	0.214000
C131	C13	0.427900	0.521500	0.230900
C141	C14	0.011300	0.207500	0.278200
C151	C15	0.173900	0.497800	0.736200
C161	C16	0.326100	0.997800	0.236200
C171	C17	0.087800	0.815700	0.854400
C181	C18	0.447200	0.512500	0.180600
C191	C19	0.162000	0.301000	0.877800
C201	C20	0.072100	0.021500	0.730900
C211	C21	0.240500	0.075500	0.542000
C221	C22	0.316200	0.083200	0.741800
C231	C23	0.375000	0.972500	0.322200
C241	C24	0.074600	0.491000	0.744600
C251	C25	0.213500	0.651800	0.293100
C261	C26	0.942000	0.520900	0.211000
C271	C27	0.528200	0.192500	0.345000
C281	C28	0.831400	0.396200	0.712500
C291	C29	0.846600	0.330700	0.625500
C301	C30	0.860800	0.838400	0.353300
C311	C31	0.533000	0.506800	0.695800
C321	C32	0.870200	0.671700	0.163100
C331	C33	0.844900	0.825300	0.307400
C341	C34	0.054500	0.760800	0.485700
C351	C35	0.036700	0.704300	0.485700
C361	C36	0.826100	0.502200	0.263800
C371	C37	0.299200	0.466300	0.835200
C381	C38	0.183800	0.583200	0.241800
C391	C39	0.705300	0.706300	0.286000
C401	C40	0.673900	0.002200	0.763800
C411	C41	0.971800	0.692500	0.845000
C421	C42	0.761500	0.732200	0.127000
C431	C43	0.052800	0.012500	0.680600
C441	C44	0.979500	0.185000	0.817200
C451	C45	0.412200	0.315700	0.354400
C461	C46	0.740500	0.424500	0.958000
C471	C47	0.902200	0.660400	0.867900
C481	C48	0.655100	0.325300	0.807400
C491	C49	0.957400	0.372700	0.261700
C501	C50	0.663200	0.616500	0.390600
C511	C51	0.544200	0.238700	0.148500
C521	C52	0.972200	0.956800	0.828300
C531	C53	0.214200	0.689100	0.333800
C541	C54	0.933400	0.775300	0.896700
C551	C55	0.027800	0.043200	0.171700
C561	C56	0.337600	0.012100	0.151800
C571	C57	0.994500	0.708400	0.267900
C581	C58	0.753100	0.713300	0.398500
C591	C59	0.467000	0.493200	0.304200
C601	C60	0.629800	0.171700	0.663100
C611	C61	0.527000	0.383800	0.116100
C621	C62	0.797900	0.644200	0.335600
C631	C63	0.580600	0.634500	0.812300
C641	C64	0.155100	0.174700	0.692600
C651	C65	0.398700	0.613900	0.802300
C661	C66	0.783600	0.488900	0.306100
C671	C67	0.799200	0.033700	0.664800
C681	C68	0.963500	0.153300	0.111700
C691	C69	0.512000	0.246600	0.363700
C701	C70	0.947200	0.987500	0.319400
C711	C71	0.865700	0.971800	0.842500
C721	C72	0.942200	0.133000	0.538800
C731	C73	0.716400	0.988900	0.806100
C741	C74	0.467500	0.815300	0.981000
C751	C75	0.854700	0.357800	0.273700
C761	C76	0.943500	0.673100	0.232400
C771	C77	0.801900	0.172300	0.018200
C781	C78	0.042600	0.627300	0.738300
C791	C79	0.957600	0.316500	0.000500
C801	C80	0.252100	0.715100	0.715700
C811	C81	0.366900	0.239700	0.646900
C821	C82	0.737900	0.229000	0.282100
C831	C83	0.132600	0.889200	0.197900
C841	C84	0.857700	0.222400	0.025100
C851	C85	0.747900	0.284900	0.284300
C861	C86	0.919400	0.134500	0.312300
C871	C87	0.538800	0.324500	0.407300
C881	C88	0.020500	0.815000	0.182800
C891	C89	0.542400	0.816500	0.500500
C901	C90	0.033000	0.993200	0.804200
C911	C91	0.556500	0.250100	0.804100
C921	C92	0.720100	0.350500	0.776100
C931	C93	0.601300	0.386100	0.197700
C941	C94	0.261500	0.767800	0.373000
C951	C95	0.520500	0.685000	0.317200
C961	C96	0.200800	0.966300	0.335200
C971	C97	0.168600	0.603800	0.287500
C981	C98	0.142300	0.777600	0.974900
C991	C99	0.473000	0.616200	0.883900
C1001	C100	0.836800	0.116500	0.890600
C1011	C101	0.288500	0.154800	0.519800
C1021	C102	0.642300	0.722400	0.525100
C1031	C103	0.704500	0.170900	0.035400
C1041	C104	0.294700	0.293700	0.714000
C1051	C105	0.373600	0.638500	0.032800
C1061	C106	0.204500	0.329100	0.464600
C1071	C107	0.125000	0.472500	0.822200
C1081	C108	0.057800	0.867000	0.461200
C1091	C109	0.101300	0.113900	0.302300
C1101	C110	0.188900	0.605400	0.030400
C1111	C111	0.782300	0.055600	0.620300
C1121	C112	0.222700	0.880200	0.839000
C1131	C113	0.232800	0.600000	0.208700
C1141	C114	0.670200	0.668800	0.673900
C1151	C115	0.529600	0.537900	0.161900
C1161	C116	0.272900	0.803700	0.763300
C1171	C117	0.346600	0.169300	0.874500
C1181	C118	0.555700	0.692300	0.402400
C1191	C119	0.927900	0.978500	0.269100
C1201	C120	0.479500	0.315000	0.682800
C1211	C121	0.531200	0.336100	0.969000
C1221	C122	0.444300	0.307700	0.597600
C1231	C123	0.572100	0.478500	0.769100
C1241	C124	0.527800	0.456800	0.328300
C1251	C125	0.634300	0.471800	0.342500
C1261	C126	0.711500	0.845200	0.480200
C1271	C127	0.186100	0.195000	0.329700
C1281	C128	0.202100	0.355800	0.664400
C1291	C129	0.402200	0.839600	0.632100
C1301	C130	0.785800	0.310900	0.666200
C1311	C131	0.056500	0.249900	0.695900
C1321	C132	0.301900	0.327700	0.481800
C1331	C133	0.103700	0.198900	0.407700
C1341	C134	0.055700	0.807700	0.097600
C1351	C135	0.536500	0.653300	0.611700
C1361	C136	0.767200	0.400000	0.791300
C1371	C137	0.967000	0.006800	0.195800
C1381	C138	0.031200	0.163900	0.531000
C1391	C139	0.087100	0.796200	0.619700
C1401	C140	0.779900	0.850500	0.276100
C1411	C141	0.329800	0.331200	0.326100
C1421	C142	0.133100	0.739700	0.146900
C1431	C143	0.714700	0.022900	0.691100
C1441	C144	0.396300	0.698900	0.907700
C1451	C145	0.443500	0.749900	0.195900
C1461	C146	0.702100	0.144200	0.835600
C1471	C147	0.925400	0.509000	0.255400
C1481	C148	0.852400	0.305200	0.995800
C1491	C149	0.198100	0.827700	0.981800
C1501	C150	0.516300	0.872400	0.712900
C1511	C151	0.811100	0.394600	0.969600
C1521	C152	0.331400	0.103800	0.787500
C1531	C153	0.988000	0.746600	0.863700
C1541	C154	0.283600	0.011100	0.193900
C1551	C155	0.762100	0.729000	0.782100
C1561	C156	0.442000	0.979100	0.289000
C1571	C157	0.633100	0.760300	0.353100
C1581	C158	0.129800	0.328300	0.836900
C1591	C159	0.259500	0.575500	0.042000
C1601	C160	0.163200	0.883500	0.109400
C1611	C161	0.688900	0.894600	0.469600
C1621	C162	0.668600	0.896200	0.212500
C1631	C163	0.873600	0.861500	0.467200
C1641	C164	0.597800	0.160400	0.367900
C1651	C165	0.153400	0.669300	0.374500
C1661	C166	0.097800	0.339600	0.132100
C1671	C167	0.554500	0.739200	0.014300
C1681	C168	0.866900	0.260300	0.853100
C1691	C169	0.344900	0.674700	0.192600
C1701	C170	0.717700	0.555600	0.120300
C1711	C171	0.370200	0.828300	0.336900
C1721	C172	0.463300	0.204300	0.985700
C1731	C173	0.145300	0.089700	0.544000
C1741	C174	0.145300	0.642200	0.726300
C1751	C175	0.028200	0.307500	0.155000
C1761	C176	0.277300	0.380200	0.339000
C1771	C177	0.295500	0.829100	0.964600
C1781	C178	0.058000	0.479100	0.789000
C1791	C179	0.542600	0.872700	0.761700
C1801	C180	0.425400	0.991000	0.244600
C1811	C181	0.603700	0.301100	0.092300
C1821	C182	0.700800	0.533700	0.164800
C1831	C183	0.955800	0.738700	0.648500
C1841	C184	0.626400	0.361500	0.967200
C1851	C185	0.238500	0.267800	0.873000
C1861	C186	0.557800	0.633000	0.038800
C1871	C187	0.311100	0.105400	0.530400
C1881	C188	0.483700	0.127600	0.287100
C1891	C189	0.470400	0.462100	0.838100
C1901	C190	0.983700	0.372400	0.212900
C1911	C191	0.038800	0.175500	0.092700
C1921	C192	0.066600	0.224700	0.103300
C1931	C193	0.282300	0.444400	0.879700
C1941	C194	0.777300	0.119800	0.161000
C1951	C195	0.639200	0.338400	0.853300
C1961	C196	0.220100	0.149500	0.723900
C1971	C197	0.988700	0.792500	0.721800
C1981	C198	0.247900	0.215100	0.215700
C1991	C199	0.816200	0.416800	0.758200
C2001	C200	0.134300	0.028200	0.157500
C2011	C201	0.029600	0.962100	0.338100
C2021	C202	0.838000	0.699000	0.122200
C2031	C203	0.625000	0.027500	0.677800
C2041	C204	0.898700	0.886100	0.697700
C2051	C205	0.217700	0.944400	0.379700
C2061	C206	0.227100	0.303700	0.263300
C2071	C207	0.354700	0.142200	0.226300
C2081	C208	0.139200	0.161600	0.646700
C2091	C209	0.813900	0.805000	0.670300
C2101	C210	0.662400	0.987900	0.848200
C2111	C211	0.662000	0.199000	0.622200
C2121	C212	0.126400	0.138500	0.532800
C2131	C213	0.036500	0.846700	0.888300
C2141	C214	0.505500	0.208400	0.767900
C2151	C215	0.759500	0.924500	0.458000
C2161	C216	0.746900	0.213300	0.898500
C2171	C217	0.445500	0.260800	0.985700
C2181	C218	0.961200	0.824500	0.907300
C2191	C219	0.352400	0.194800	0.504200
C2201	C220	0.365700	0.528200	0.657500
C2211	C221	0.463500	0.346700	0.388300
C2221	C222	0.246900	0.286700	0.601500
C2231	C223	0.556500	0.173100	0.732400
C2241	C224	0.027000	0.116200	0.383900
C2251	C225	0.297900	0.855800	0.164400
C2261	C226	0.785300	0.522900	0.191100
C2271	C227	0.722700	0.619800	0.661000
C2281	C228	0.354700	0.589700	0.044000
C2291	C229	0.494500	0.791600	0.232100
C2301	C230	0.788500	0.345200	0.980200
C2311	C231	0.012000	0.253400	0.136300
C2321	C232	0.433400	0.724700	0.603300
C2331	C233	0.357700	0.277600	0.474900
C2341	C234	0.360800	0.661600	0.146700
C2351	C235	0.532500	0.184700	0.019000
C2361	C236	0.963300	0.295700	0.514300
C2371	C237	0.587100	0.703800	0.880300
C2381	C238	0.786500	0.348200	0.706900
C2391	C239	0.488700	0.707500	0.778200
C2401	C240	0.471800	0.807500	0.655000
C2411	C241	0.566600	0.275300	0.396700
C2421	C242	0.683800	0.916800	0.258200
C2431	C243	0.574600	0.009000	0.755400
C2441	C244	0.313900	0.695000	0.829700
C2451	C245	0.912900	0.203800	0.380300
C2461	C246	0.267200	0.100000	0.708700
C2471	C247	0.854700	0.910300	0.456000
C2481	C248	0.714200	0.810900	0.166200
C2491	C249	0.056500	0.326900	0.767600
C2501	C250	0.461200	0.675500	0.592700
C2511	C251	0.214700	0.477100	0.808900
C2521	C252	0.042400	0.683500	0.999500
C2531	C253	0.468800	0.663900	0.031000
C2541	C254	0.647600	0.805200	0.495800
C2551	C255	0.945500	0.239200	0.514300
C2561	C256	0.795500	0.670900	0.535400
C2571	C257	0.752100	0.784900	0.784300
C2581	C258	0.262100	0.771000	0.717900
C2591	C259	0.032500	0.315300	0.481000
C2601	C260	0.732800	0.900000	0.291300
C2611	C261	0.967500	0.684700	0.519000
C2621	C262	0.457600	0.183500	0.499500
C2631	C263	0.457400	0.127300	0.238300
C2641	C264	0.698100	0.672300	0.518200
C2651	C265	0.536700	0.795700	0.014300
C2661	C266	0.279900	0.649500	0.223900
C2671	C267	0.419400	0.365500	0.187700
C2681	C268	0.794700	0.206300	0.786000
C2691	C269	0.455800	0.761300	0.851500
C2701	C270	0.472200	0.543200	0.671700
C2711	C271	0.080600	0.865500	0.687700
C2721	C272	0.367400	0.389200	0.697900
C2731	C273	0.970400	0.037900	0.661900
C2741	C274	0.552800	0.487500	0.819400
C2751	C275	0.412900	0.296200	0.119700
C2761	C276	0.686100	0.305000	0.170300
C2771	C277	0.587800	0.684300	0.645600
C2781	C278	0.829800	0.168800	0.173900
C2791	C279	0.237900	0.271000	0.217900
C2801	C280	0.442200	0.367000	0.961200
C2811	C281	0.738500	0.232200	0.627000
C2821	C282	0.912200	0.184300	0.145600
C2831	C283	0.632600	0.610800	0.302100
C2841	C284	0.645300	0.857800	0.773700
C2851	C285	0.016300	0.627600	0.787100
C2861	C286	0.558000	0.020900	0.711000
C2871	C287	0.944300	0.192300	0.902400
C2881	C288	0.727100	0.196300	0.236700
C2891	C289	0.443500	0.826900	0.267600
C2901	C290	0.005500	0.291600	0.732100
C2911	C291	0.943500	0.750100	0.304100
C2921	C292	0.867400	0.110800	0.802100
C2931	C293	0.713500	0.848200	0.206900
C2941	C294	0.253100	0.786700	0.101500
C2951	C295	0.645300	0.410300	0.956000
C2961	C296	0.896300	0.801100	0.592300
C2971	C297	0.968800	0.836100	0.469000
C2981	C298	0.875000	0.527500	0.177800
C2991	C299	0.338000	0.801000	0.377800
C3001	C300	0.211500	0.654800	0.019800
C3011	C301	0.837600	0.487900	0.348200
C3021	C302	0.653400	0.830700	0.125500
C3031	C303	0.286500	0.151800	0.793100
C3041	C304	0.511300	0.292500	0.221800
N11	N1	0.238300	0.171600	0.762000
N21	N2	0.141100	0.889700	0.704900
N31	N3	0.846700	0.218500	0.400400
N41	N4	0.698600	0.331500	0.977700
N51	N5	0.500100	0.301300	0.570100
N61	N6	0.728300	0.721300	0.252800
N71	N7	0.481100	0.178900	0.310100
N81	N8	0.968300	0.790100	0.477400
N91	N9	0.137500	0.211500	0.441700
N101	N10	0.344400	0.198200	0.229100
N111	N11	0.878600	0.074900	0.777400
N121	N12	0.877700	0.025300	0.682100
N131	N13	0.518900	0.821100	0.689900
N141	N14	0.668500	0.583100	0.412800
N151	N15	0.031700	0.209900	0.522600
N161	N16	0.763100	0.509200	0.232300
N171	N17	0.619600	0.803600	0.355900
N181	N18	0.507500	0.727100	0.747100
N191	N19	0.266600	0.201900	0.321500
N201	N20	0.880400	0.303600	0.855900
N211	N21	0.801800	0.732600	0.425600
N221	N22	0.310100	0.518900	0.695000
N231	N23	0.377700	0.474700	0.817900
N241	N24	0.771700	0.221300	0.752800
N251	N25	0.689800	0.763900	0.505200
N261	N26	0.831500	0.083100	0.912800
N271	N27	0.189900	0.018900	0.195000
N281	N28	0.228300	0.778700	0.247200
N291	N29	0.253000	0.726300	0.338000
N301	N30	0.631400	0.190100	0.005800
N311	N31	0.870300	0.922100	0.717400
N321	N32	0.236900	0.490800	0.767700
N331	N33	0.693700	0.701100	0.707000
N341	N34	0.346700	0.281500	0.099600
N351	N35	0.468300	0.709900	0.022600
N361	N36	0.007500	0.772900	0.752900
N371	N37	0.499900	0.698700	0.429900
N381	N38	0.153300	0.781500	0.599600
N391	N39	0.655600	0.801800	0.770900
N401	N40	0.766600	0.298100	0.178500
N411	N41	0.455400	0.805100	0.856200
N421	N42	0.306300	0.298900	0.293000
N431	N43	0.408900	0.796400	0.301100
N441	N44	0.698200	0.232600	0.925600
N451	N45	0.477900	0.583000	0.905900
N461	N46	0.492500	0.272900	0.252900
N471	N47	0.168500	0.916900	0.087200
N481	N48	0.358900	0.389700	0.204900
N491	N49	0.155600	0.698200	0.729100
N501	N50	0.383200	0.717800	0.215600
N511	N51	0.370300	0.577900	0.782600
N521	N52	0.247000	0.226300	0.838000
N531	N53	0.128200	0.375300	0.669200
N541	N54	0.122300	0.974700	0.317900
N551	N55	0.883200	0.782200	0.284400
N561	N56	0.761700	0.828400	0.238000
N571	N57	0.131400	0.309900	0.494200
N581	N58	0.052900	0.191500	0.802000
N591	N59	0.233400	0.701900	0.821500
N601	N60	0.736900	0.009200	0.732300
N611	N61	0.261700	0.671600	0.262000
N621	N62	0.119600	0.696400	0.144100
N631	N63	0.380400	0.196400	0.644100
N641	N64	0.868600	0.690100	0.505800
N651	N65	0.738300	0.328400	0.738000
N661	N66	0.091100	0.296400	0.801100
N671	N67	0.531700	0.290100	0.977400
N681	N68	0.193700	0.798900	0.793000
N691	N69	0.544600	0.194900	0.143800
N701	N70	0.801400	0.831500	0.477700
N711	N71	0.977900	0.917000	0.594100
N721	N72	0.198600	0.168500	0.522300
N731	N73	0.810200	0.263900	0.005200
N741	N74	0.362500	0.711500	0.941700
N751	N75	0.271700	0.278700	0.747200
N761	N76	0.121400	0.925100	0.222600
N771	N77	0.858900	0.110300	0.295100
N781	N78	0.871800	0.624700	0.330800
N791	N79	0.938000	0.231100	0.155200
N801	N80	0.862500	0.788500	0.558300
N811	N81	0.689900	0.481100	0.305000
N821	N82	0.044600	0.305100	0.356200
N831	N83	0.263100	0.990800	0.267700
N841	N84	0.368600	0.809900	0.994200
N851	N85	0.513100	0.510300	0.743100
N861	N86	0.992500	0.227100	0.247100
N871	N87	0.747000	0.273700	0.662000
N881	N88	0.301400	0.668500	0.022300
N891	N89	0.616800	0.282200	0.784400
N901	N90	0.018900	0.678900	0.810100
N911	N91	0.628200	0.124700	0.830800
N921	N92	0.062000	0.768900	0.844800
N931	N93	0.641100	0.610300	0.795100
N941	N94	0.189800	0.736100	0.994800
N951	N95	0.653300	0.718500	0.900400
N961	N96	0.810100	0.981100	0.805000
N971	N97	0.486900	0.489700	0.256900
N981	N98	0.438000	0.268900	0.344800
N991	N99	0.116800	0.217800	0.715600
N1001	N100	0.522100	0.417000	0.094100
N1011	N101	0.622300	0.525300	0.182100
N1021	N102	0.301800	0.767400	0.074400
N1031	N103	0.908900	0.703600	0.198900
N1041	N104	0.806300	0.201100	0.207000
N1051	N105	0.552900	0.308500	0.698000
N1061	N106	0.198200	0.267400	0.574400
N1071	N107	0.022100	0.083000	0.405900
N1081	N108	0.371800	0.875300	0.169200
N1091	N109	0.955400	0.694900	0.643800
N1101	N110	0.981100	0.321100	0.189900
N1111	N111	0.947100	0.808500	0.198000
N1121	N112	0.621400	0.574900	0.277400
N1131	N113	0.000100	0.198700	0.929900
N1141	N114	0.591100	0.203600	0.698900
N1151	N115	0.331500	0.416900	0.587200
N1161	N116	0.999900	0.801300	0.070100
N1171	N117	0.986900	0.010300	0.243100
N1181	N118	0.129700	0.077900	0.282600
N1191	N119	0.844400	0.301800	0.270900
N1201	N120	0.753000	0.773700	0.162000
N1211	N121	0.310200	0.236100	0.494800
N1221	N122	0.013100	0.989700	0.756900
N1231	N123	0.629700	0.422100	0.217400
N1241	N124	0.733400	0.798100	0.678500
N1251	N125	0.447100	0.691500	0.302000
N1261	N126	0.637500	0.288500	0.058300
N1271	N127	0.562000	0.731100	0.655200
N1281	N128	0.378600	0.425100	0.722600
