data_CIXBUH_clean_PM
_symmetry_space_group_name_H-M	'P1'
_cell_length_a	27.286000
_cell_length_b	13.699700
_cell_length_c	45.829000
_cell_angle_alpha	90.000000
_cell_angle_beta	90.000000
_cell_angle_gamma	90.000000
_symmetry_Int_Tables_number 1

loop_
_symmetry_equiv_pos_as_xyz
'x,y,z'

loop_
_atom_site_label
_atom_site_type_symbol
_atom_site_fract_x
_atom_site_fract_y
_atom_site_fract_z
Zn11	Zn1	0.246330	0.843400	0.311440
Zn21	Zn2	0.030190	0.641590	0.409310
Zn31	Zn3	0.048820	0.860300	0.571990
I11	I1	0.337270	0.828870	0.322770
I21	I2	0.194740	0.689530	0.304060
I31	I3	0.077700	0.725490	0.369020
I41	I4	0.014940	0.721110	0.458690
I51	I5	0.048890	0.676610	0.564240
I61	I6	0.982320	0.955440	0.598310
C11	C1	0.072500	0.450300	0.393930
H11	H1	0.068100	0.475100	0.374800
C21	C2	0.089900	0.356900	0.397460
H21	H2	0.097000	0.317600	0.380900
C31	C3	0.068900	0.473700	0.443640
H31	H3	0.062600	0.515200	0.459800
C41	C4	0.085600	0.379600	0.448630
H41	H4	0.089100	0.356000	0.468000
C51	C5	0.097000	0.320500	0.425200
C61	C6	0.113200	0.218500	0.430150
C71	C7	0.052100	0.022700	0.528650
H51	H5	0.032500	0.054900	0.542800
C81	C8	0.067300	0.073600	0.504720
H61	H6	0.058100	0.140000	0.502400
C91	C9	0.090500	0.883700	0.512200
H71	H7	0.097800	0.816400	0.514600
C101	C10	0.107700	0.931100	0.487590
H81	H8	0.127100	0.897400	0.473600
C111	C11	0.096100	0.028800	0.483730
C121	C12	0.112700	0.082000	0.457290
C131	C13	0.190800	0.876100	0.365740
H91	H9	0.189600	0.806800	0.365700
C141	C14	0.170300	0.925900	0.388810
H101	H10	0.156100	0.891100	0.404600
C151	C15	0.212600	0.019700	0.343450
H111	H11	0.227700	0.053000	0.327600
C161	C16	0.191900	0.073900	0.365550
H121	H12	0.192500	0.143200	0.364800
C171	C17	0.170400	0.026600	0.388780
C181	C18	0.146900	0.080900	0.412790
C191	C19	0.277100	0.955300	0.258950
H131	H13	0.308500	0.953300	0.267900
C201	C20	0.273400	0.990300	0.230720
H141	H14	0.301800	0.010800	0.220400
C211	C21	0.194000	0.932900	0.262270
H151	H15	0.166100	0.914400	0.273300
C221	C22	0.187300	0.968000	0.234120
H161	H16	0.155200	0.973500	0.226200
C231	C23	0.227600	0.994800	0.217880
C241	C24	0.222500	0.025600	0.187120
C251	C25	0.040500	0.089100	0.137830
H171	H17	0.011800	0.091100	0.149600
C261	C26	0.085200	0.071400	0.151260
H181	H18	0.086900	0.059400	0.171700
C271	C27	0.076400	0.100000	0.092980
H191	H19	0.073300	0.107800	0.072500
C281	C28	0.122500	0.085800	0.104620
H201	H20	0.150500	0.085800	0.092300
C291	C29	0.127400	0.071500	0.134350
C301	C30	0.175900	0.059200	0.148020
C311	C31	0.343400	0.117000	0.082290
H211	H21	0.341500	0.135700	0.062400
C321	C32	0.300600	0.101200	0.097230
H221	H22	0.269900	0.107900	0.087700
C331	C33	0.389700	0.080500	0.122650
H231	H23	0.420900	0.071700	0.131400
C341	C34	0.348600	0.065200	0.139320
H241	H24	0.351300	0.047900	0.159300
C351	C35	0.303000	0.075500	0.126300
C361	C36	0.257800	0.060700	0.143820
N11	N1	0.061560	0.507500	0.416820
N21	N2	0.063900	0.928600	0.532800
N31	N3	0.212400	0.922400	0.343290
N41	N4	0.101100	0.176900	0.455370
N51	N5	0.136500	0.031300	0.437270
N61	N6	0.135830	0.174100	0.408260
N71	N7	0.238250	0.924100	0.274320
N81	N8	0.035840	0.103300	0.109470
N91	N9	0.387730	0.107600	0.094340
N101	N10	0.177270	0.035500	0.176270
N111	N11	0.214910	0.071800	0.130590
N121	N12	0.264120	0.037900	0.171910
Zn41	Zn4	0.253670	0.156600	0.811440
Zn51	Zn5	0.469810	0.358410	0.909310
Zn61	Zn6	0.451180	0.139700	0.071990
I71	I7	0.162730	0.171130	0.822770
I81	I8	0.305260	0.310470	0.804060
I91	I9	0.422300	0.274510	0.869020
I101	I10	0.485060	0.278890	0.958690
I111	I11	0.451110	0.323390	0.064240
I121	I12	0.517680	0.044560	0.098310
C371	C37	0.427500	0.549700	0.893930
H251	H25	0.431900	0.524900	0.874800
C381	C38	0.410100	0.643100	0.897460
H261	H26	0.403000	0.682400	0.880900
C391	C39	0.431100	0.526300	0.943640
H271	H27	0.437400	0.484800	0.959800
C401	C40	0.414400	0.620400	0.948630
H281	H28	0.410900	0.644000	0.968000
C411	C41	0.403000	0.679500	0.925200
C421	C42	0.386800	0.781500	0.930150
C431	C43	0.447900	0.977300	0.028650
H291	H29	0.467500	0.945100	0.042800
C441	C44	0.432700	0.926400	0.004720
H301	H30	0.441900	0.860000	0.002400
C451	C45	0.409500	0.116300	0.012200
H311	H31	0.402200	0.183600	0.014600
C461	C46	0.392300	0.068900	0.987590
H321	H32	0.372900	0.102600	0.973600
C471	C47	0.403900	0.971200	0.983730
C481	C48	0.387300	0.918000	0.957290
C491	C49	0.309200	0.123900	0.865740
H331	H33	0.310400	0.193200	0.865700
C501	C50	0.329700	0.074100	0.888810
H341	H34	0.343900	0.108900	0.904600
C511	C51	0.287400	0.980300	0.843450
H351	H35	0.272300	0.947000	0.827600
C521	C52	0.308100	0.926100	0.865550
H361	H36	0.307500	0.856800	0.864800
C531	C53	0.329600	0.973400	0.888780
C541	C54	0.353100	0.919100	0.912790
C551	C55	0.222900	0.044700	0.758950
H371	H37	0.191500	0.046700	0.767900
C561	C56	0.226600	0.009700	0.730720
H381	H38	0.198200	0.989200	0.720400
C571	C57	0.306000	0.067100	0.762270
H391	H39	0.333900	0.085600	0.773300
C581	C58	0.312700	0.032000	0.734120
H401	H40	0.344800	0.026500	0.726200
C591	C59	0.272400	0.005200	0.717880
C601	C60	0.277500	0.974400	0.687120
C611	C61	0.459500	0.910900	0.637830
H411	H41	0.488200	0.908900	0.649600
C621	C62	0.414800	0.928600	0.651260
H421	H42	0.413100	0.940600	0.671700
C631	C63	0.423600	0.900000	0.592980
H431	H43	0.426700	0.892200	0.572500
C641	C64	0.377500	0.914200	0.604620
H441	H44	0.349500	0.914200	0.592300
C651	C65	0.372600	0.928500	0.634350
C661	C66	0.324100	0.940800	0.648020
C671	C67	0.156600	0.883000	0.582290
H451	H45	0.158500	0.864300	0.562400
C681	C68	0.199400	0.898800	0.597230
H461	H46	0.230100	0.892100	0.587700
C691	C69	0.110300	0.919500	0.622650
H471	H47	0.079100	0.928300	0.631400
C701	C70	0.151400	0.934800	0.639320
H481	H48	0.148700	0.952100	0.659300
C711	C71	0.197000	0.924500	0.626300
C721	C72	0.242200	0.939300	0.643820
N131	N13	0.438440	0.492500	0.916820
N141	N14	0.436100	0.071400	0.032800
N151	N15	0.287600	0.077600	0.843290
N161	N16	0.398900	0.823100	0.955370
N171	N17	0.363500	0.968700	0.937270
N181	N18	0.364170	0.825900	0.908260
N191	N19	0.261750	0.075900	0.774320
N201	N20	0.464160	0.896700	0.609470
N211	N21	0.112270	0.892400	0.594340
N221	N22	0.322730	0.964500	0.676270
N231	N23	0.285090	0.928200	0.630590
N241	N24	0.235880	0.962100	0.671910
Zn71	Zn7	0.753670	0.343400	0.188560
Zn81	Zn8	0.969810	0.141590	0.090690
Zn91	Zn9	0.951180	0.360300	0.928010
I131	I13	0.662730	0.328870	0.177230
I141	I14	0.805260	0.189530	0.195940
I151	I15	0.922300	0.225490	0.130980
I161	I16	0.985060	0.221110	0.041310
I171	I17	0.951110	0.176610	0.935760
I181	I18	0.017680	0.455440	0.901690
C731	C73	0.927500	0.950300	0.106070
H491	H49	0.931900	0.975100	0.125200
C741	C74	0.910100	0.856900	0.102540
H501	H50	0.903000	0.817600	0.119100
C751	C75	0.931100	0.973700	0.056360
H511	H51	0.937400	0.015200	0.040200
C761	C76	0.914400	0.879600	0.051370
H521	H52	0.910900	0.856000	0.032000
C771	C77	0.903000	0.820500	0.074800
C781	C78	0.886800	0.718500	0.069850
C791	C79	0.947900	0.522700	0.971350
H531	H53	0.967500	0.554900	0.957200
C801	C80	0.932700	0.573600	0.995280
H541	H54	0.941900	0.640000	0.997600
C811	C81	0.909500	0.383700	0.987800
H551	H55	0.902200	0.316400	0.985400
C821	C82	0.892300	0.431100	0.012410
H561	H56	0.872900	0.397400	0.026400
C831	C83	0.903900	0.528800	0.016270
C841	C84	0.887300	0.582000	0.042710
C851	C85	0.809200	0.376100	0.134260
H571	H57	0.810400	0.306800	0.134300
C861	C86	0.829700	0.425900	0.111190
H581	H58	0.843900	0.391100	0.095400
C871	C87	0.787400	0.519700	0.156550
H591	H59	0.772300	0.553000	0.172400
C881	C88	0.808100	0.573900	0.134450
H601	H60	0.807500	0.643200	0.135200
C891	C89	0.829600	0.526600	0.111220
C901	C90	0.853100	0.580900	0.087210
C911	C91	0.722900	0.455300	0.241050
H611	H61	0.691500	0.453300	0.232100
C921	C92	0.726600	0.490300	0.269280
H621	H62	0.698200	0.510800	0.279600
C931	C93	0.806000	0.432900	0.237730
H631	H63	0.833900	0.414400	0.226700
C941	C94	0.812700	0.468000	0.265880
H641	H64	0.844800	0.473500	0.273800
C951	C95	0.772400	0.494800	0.282120
C961	C96	0.777500	0.525600	0.312880
C971	C97	0.959500	0.589100	0.362170
H651	H65	0.988200	0.591100	0.350400
C981	C98	0.914800	0.571400	0.348740
H661	H66	0.913100	0.559400	0.328300
C991	C99	0.923600	0.600000	0.407020
H671	H67	0.926700	0.607800	0.427500
C1001	C100	0.877500	0.585800	0.395380
H681	H68	0.849500	0.585800	0.407700
C1011	C101	0.872600	0.571500	0.365650
C1021	C102	0.824100	0.559200	0.351980
C1031	C103	0.656600	0.617000	0.417710
H691	H69	0.658500	0.635700	0.437600
C1041	C104	0.699400	0.601200	0.402770
H701	H70	0.730100	0.607900	0.412300
C1051	C105	0.610300	0.580500	0.377350
H711	H71	0.579100	0.571700	0.368600
C1061	C106	0.651400	0.565200	0.360680
H721	H72	0.648700	0.547900	0.340700
C1071	C107	0.697000	0.575500	0.373700
C1081	C108	0.742200	0.560700	0.356180
N251	N25	0.938440	0.007500	0.083180
N261	N26	0.936100	0.428600	0.967200
N271	N27	0.787600	0.422400	0.156710
N281	N28	0.898900	0.676900	0.044630
N291	N29	0.863500	0.531300	0.062730
N301	N30	0.864170	0.674100	0.091740
N311	N31	0.761750	0.424100	0.225680
N321	N32	0.964160	0.603300	0.390530
N331	N33	0.612270	0.607600	0.405660
N341	N34	0.822730	0.535500	0.323730
N351	N35	0.785090	0.571800	0.369410
N361	N36	0.735880	0.537900	0.328090
Zn101	Zn10	0.746330	0.656600	0.688560
Zn111	Zn11	0.530190	0.858410	0.590690
Zn121	Zn12	0.548820	0.639700	0.428010
I191	I19	0.837270	0.671130	0.677230
I201	I20	0.694740	0.810470	0.695940
I211	I21	0.577700	0.774510	0.630980
I221	I22	0.514940	0.778890	0.541310
I231	I23	0.548890	0.823390	0.435760
I241	I24	0.482320	0.544560	0.401690
C1091	C109	0.572500	0.049700	0.606070
H731	H73	0.568100	0.024900	0.625200
C1101	C110	0.589900	0.143100	0.602540
H741	H74	0.597000	0.182400	0.619100
C1111	C111	0.568900	0.026300	0.556360
H751	H75	0.562600	0.984800	0.540200
C1121	C112	0.585600	0.120400	0.551370
H761	H76	0.589100	0.144000	0.532000
C1131	C113	0.597000	0.179500	0.574800
C1141	C114	0.613200	0.281500	0.569850
C1151	C115	0.552100	0.477300	0.471350
H771	H77	0.532500	0.445100	0.457200
C1161	C116	0.567300	0.426400	0.495280
H781	H78	0.558100	0.360000	0.497600
C1171	C117	0.590500	0.616300	0.487800
H791	H79	0.597800	0.683600	0.485400
C1181	C118	0.607700	0.568900	0.512410
H801	H80	0.627100	0.602600	0.526400
C1191	C119	0.596100	0.471200	0.516270
C1201	C120	0.612700	0.418000	0.542710
C1211	C121	0.690800	0.623900	0.634260
H811	H81	0.689600	0.693200	0.634300
C1221	C122	0.670300	0.574100	0.611190
H821	H82	0.656100	0.608900	0.595400
C1231	C123	0.712600	0.480300	0.656550
H831	H83	0.727700	0.447000	0.672400
C1241	C124	0.691900	0.426100	0.634450
H841	H84	0.692500	0.356800	0.635200
C1251	C125	0.670400	0.473400	0.611220
C1261	C126	0.646900	0.419100	0.587210
C1271	C127	0.777100	0.544700	0.741050
H851	H85	0.808500	0.546700	0.732100
C1281	C128	0.773400	0.509700	0.769280
H861	H86	0.801800	0.489200	0.779600
C1291	C129	0.694000	0.567100	0.737730
H871	H87	0.666100	0.585600	0.726700
C1301	C130	0.687300	0.532000	0.765880
H881	H88	0.655200	0.526500	0.773800
C1311	C131	0.727600	0.505200	0.782120
C1321	C132	0.722500	0.474400	0.812880
C1331	C133	0.540500	0.410900	0.862170
H891	H89	0.511800	0.408900	0.850400
C1341	C134	0.585200	0.428600	0.848740
H901	H90	0.586900	0.440600	0.828300
C1351	C135	0.576400	0.400000	0.907020
H911	H91	0.573300	0.392200	0.927500
C1361	C136	0.622500	0.414200	0.895380
H921	H92	0.650500	0.414200	0.907700
C1371	C137	0.627400	0.428500	0.865650
C1381	C138	0.675900	0.440800	0.851980
C1391	C139	0.843400	0.383000	0.917710
H931	H93	0.841500	0.364300	0.937600
C1401	C140	0.800600	0.398800	0.902770
H941	H94	0.769900	0.392100	0.912300
C1411	C141	0.889700	0.419500	0.877350
H951	H95	0.920900	0.428300	0.868600
C1421	C142	0.848600	0.434800	0.860680
H961	H96	0.851300	0.452100	0.840700
C1431	C143	0.803000	0.424500	0.873700
C1441	C144	0.757800	0.439300	0.856180
N371	N37	0.561560	0.992500	0.583180
N381	N38	0.563900	0.571400	0.467200
N391	N39	0.712400	0.577600	0.656710
N401	N40	0.601100	0.323100	0.544630
N411	N41	0.636500	0.468700	0.562730
N421	N42	0.635830	0.325900	0.591740
N431	N43	0.738250	0.575900	0.725680
N441	N44	0.535840	0.396700	0.890530
N451	N45	0.887730	0.392400	0.905660
N461	N46	0.677270	0.464500	0.823730
N471	N47	0.714910	0.428200	0.869410
N481	N48	0.764120	0.462100	0.828090
Zn131	Zn13	0.753670	0.156600	0.688560
Zn141	Zn14	0.969810	0.358410	0.590690
Zn151	Zn15	0.951180	0.139700	0.428010
I251	I25	0.662730	0.171130	0.677230
I261	I26	0.805260	0.310470	0.695940
I271	I27	0.922300	0.274510	0.630980
I281	I28	0.985060	0.278890	0.541310
I291	I29	0.951110	0.323390	0.435760
I301	I30	0.017680	0.044560	0.401690
C1451	C145	0.927500	0.549700	0.606070
H971	H97	0.931900	0.524900	0.625200
C1461	C146	0.910100	0.643100	0.602540
H981	H98	0.903000	0.682400	0.619100
C1471	C147	0.931100	0.526300	0.556360
H991	H99	0.937400	0.484800	0.540200
C1481	C148	0.914400	0.620400	0.551370
H1001	H100	0.910900	0.644000	0.532000
C1491	C149	0.903000	0.679500	0.574800
C1501	C150	0.886800	0.781500	0.569850
C1511	C151	0.947900	0.977300	0.471350
H1011	H101	0.967500	0.945100	0.457200
C1521	C152	0.932700	0.926400	0.495280
H1021	H102	0.941900	0.860000	0.497600
C1531	C153	0.909500	0.116300	0.487800
H1031	H103	0.902200	0.183600	0.485400
C1541	C154	0.892300	0.068900	0.512410
H1041	H104	0.872900	0.102600	0.526400
C1551	C155	0.903900	0.971200	0.516270
C1561	C156	0.887300	0.918000	0.542710
C1571	C157	0.809200	0.123900	0.634260
H1051	H105	0.810400	0.193200	0.634300
C1581	C158	0.829700	0.074100	0.611190
H1061	H106	0.843900	0.108900	0.595400
C1591	C159	0.787400	0.980300	0.656550
H1071	H107	0.772300	0.947000	0.672400
C1601	C160	0.808100	0.926100	0.634450
H1081	H108	0.807500	0.856800	0.635200
C1611	C161	0.829600	0.973400	0.611220
C1621	C162	0.853100	0.919100	0.587210
C1631	C163	0.722900	0.044700	0.741050
H1091	H109	0.691500	0.046700	0.732100
C1641	C164	0.726600	0.009700	0.769280
H1101	H110	0.698200	0.989200	0.779600
C1651	C165	0.806000	0.067100	0.737730
H1111	H111	0.833900	0.085600	0.726700
C1661	C166	0.812700	0.032000	0.765880
H1121	H112	0.844800	0.026500	0.773800
C1671	C167	0.772400	0.005200	0.782120
C1681	C168	0.777500	0.974400	0.812880
C1691	C169	0.959500	0.910900	0.862170
H1131	H113	0.988200	0.908900	0.850400
C1701	C170	0.914800	0.928600	0.848740
H1141	H114	0.913100	0.940600	0.828300
C1711	C171	0.923600	0.900000	0.907020
H1151	H115	0.926700	0.892200	0.927500
C1721	C172	0.877500	0.914200	0.895380
H1161	H116	0.849500	0.914200	0.907700
C1731	C173	0.872600	0.928500	0.865650
C1741	C174	0.824100	0.940800	0.851980
C1751	C175	0.656600	0.883000	0.917710
H1171	H117	0.658500	0.864300	0.937600
C1761	C176	0.699400	0.898800	0.902770
H1181	H118	0.730100	0.892100	0.912300
C1771	C177	0.610300	0.919500	0.877350
H1191	H119	0.579100	0.928300	0.868600
C1781	C178	0.651400	0.934800	0.860680
H1201	H120	0.648700	0.952100	0.840700
C1791	C179	0.697000	0.924500	0.873700
C1801	C180	0.742200	0.939300	0.856180
N491	N49	0.938440	0.492500	0.583180
N501	N50	0.936100	0.071400	0.467200
N511	N51	0.787600	0.077600	0.656710
N521	N52	0.898900	0.823100	0.544630
N531	N53	0.863500	0.968700	0.562730
N541	N54	0.864170	0.825900	0.591740
N551	N55	0.761750	0.075900	0.725680
N561	N56	0.964160	0.896700	0.890530
N571	N57	0.612270	0.892400	0.905660
N581	N58	0.822730	0.964500	0.823730
N591	N59	0.785090	0.928200	0.869410
N601	N60	0.735880	0.962100	0.828090
Zn161	Zn16	0.746330	0.843400	0.188560
Zn171	Zn17	0.530190	0.641590	0.090690
Zn181	Zn18	0.548820	0.860300	0.928010
I311	I31	0.837270	0.828870	0.177230
I321	I32	0.694740	0.689530	0.195940
I331	I33	0.577700	0.725490	0.130980
I341	I34	0.514940	0.721110	0.041310
I351	I35	0.548890	0.676610	0.935760
I361	I36	0.482320	0.955440	0.901690
C1811	C181	0.572500	0.450300	0.106070
H1211	H121	0.568100	0.475100	0.125200
C1821	C182	0.589900	0.356900	0.102540
H1221	H122	0.597000	0.317600	0.119100
C1831	C183	0.568900	0.473700	0.056360
H1231	H123	0.562600	0.515200	0.040200
C1841	C184	0.585600	0.379600	0.051370
H1241	H124	0.589100	0.356000	0.032000
C1851	C185	0.597000	0.320500	0.074800
C1861	C186	0.613200	0.218500	0.069850
C1871	C187	0.552100	0.022700	0.971350
H1251	H125	0.532500	0.054900	0.957200
C1881	C188	0.567300	0.073600	0.995280
H1261	H126	0.558100	0.140000	0.997600
C1891	C189	0.590500	0.883700	0.987800
H1271	H127	0.597800	0.816400	0.985400
C1901	C190	0.607700	0.931100	0.012410
H1281	H128	0.627100	0.897400	0.026400
C1911	C191	0.596100	0.028800	0.016270
C1921	C192	0.612700	0.082000	0.042710
C1931	C193	0.690800	0.876100	0.134260
H1291	H129	0.689600	0.806800	0.134300
C1941	C194	0.670300	0.925900	0.111190
H1301	H130	0.656100	0.891100	0.095400
C1951	C195	0.712600	0.019700	0.156550
H1311	H131	0.727700	0.053000	0.172400
C1961	C196	0.691900	0.073900	0.134450
H1321	H132	0.692500	0.143200	0.135200
C1971	C197	0.670400	0.026600	0.111220
C1981	C198	0.646900	0.080900	0.087210
C1991	C199	0.777100	0.955300	0.241050
H1331	H133	0.808500	0.953300	0.232100
C2001	C200	0.773400	0.990300	0.269280
H1341	H134	0.801800	0.010800	0.279600
C2011	C201	0.694000	0.932900	0.237730
H1351	H135	0.666100	0.914400	0.226700
C2021	C202	0.687300	0.968000	0.265880
H1361	H136	0.655200	0.973500	0.273800
C2031	C203	0.727600	0.994800	0.282120
C2041	C204	0.722500	0.025600	0.312880
C2051	C205	0.540500	0.089100	0.362170
H1371	H137	0.511800	0.091100	0.350400
C2061	C206	0.585200	0.071400	0.348740
H1381	H138	0.586900	0.059400	0.328300
C2071	C207	0.576400	0.100000	0.407020
H1391	H139	0.573300	0.107800	0.427500
C2081	C208	0.622500	0.085800	0.395380
H1401	H140	0.650500	0.085800	0.407700
C2091	C209	0.627400	0.071500	0.365650
C2101	C210	0.675900	0.059200	0.351980
C2111	C211	0.843400	0.117000	0.417710
H1411	H141	0.841500	0.135700	0.437600
C2121	C212	0.800600	0.101200	0.402770
H1421	H142	0.769900	0.107900	0.412300
C2131	C213	0.889700	0.080500	0.377350
H1431	H143	0.920900	0.071700	0.368600
C2141	C214	0.848600	0.065200	0.360680
H1441	H144	0.851300	0.047900	0.340700
C2151	C215	0.803000	0.075500	0.373700
C2161	C216	0.757800	0.060700	0.356180
N611	N61	0.561560	0.507500	0.083180
N621	N62	0.563900	0.928600	0.967200
N631	N63	0.712400	0.922400	0.156710
N641	N64	0.601100	0.176900	0.044630
N651	N65	0.636500	0.031300	0.062730
N661	N66	0.635830	0.174100	0.091740
N671	N67	0.738250	0.924100	0.225680
N681	N68	0.535840	0.103300	0.390530
N691	N69	0.887730	0.107600	0.405660
N701	N70	0.677270	0.035500	0.323730
N711	N71	0.714910	0.071800	0.369410
N721	N72	0.764120	0.037900	0.328090
Zn191	Zn19	0.246330	0.656600	0.811440
Zn201	Zn20	0.030190	0.858410	0.909310
Zn211	Zn21	0.048820	0.639700	0.071990
I371	I37	0.337270	0.671130	0.822770
I381	I38	0.194740	0.810470	0.804060
I391	I39	0.077700	0.774510	0.869020
I401	I40	0.014940	0.778890	0.958690
I411	I41	0.048890	0.823390	0.064240
I421	I42	0.982320	0.544560	0.098310
C2171	C217	0.072500	0.049700	0.893930
H1451	H145	0.068100	0.024900	0.874800
C2181	C218	0.089900	0.143100	0.897460
H1461	H146	0.097000	0.182400	0.880900
C2191	C219	0.068900	0.026300	0.943640
H1471	H147	0.062600	0.984800	0.959800
C2201	C220	0.085600	0.120400	0.948630
H1481	H148	0.089100	0.144000	0.968000
C2211	C221	0.097000	0.179500	0.925200
C2221	C222	0.113200	0.281500	0.930150
C2231	C223	0.052100	0.477300	0.028650
H1491	H149	0.032500	0.445100	0.042800
C2241	C224	0.067300	0.426400	0.004720
H1501	H150	0.058100	0.360000	0.002400
C2251	C225	0.090500	0.616300	0.012200
H1511	H151	0.097800	0.683600	0.014600
C2261	C226	0.107700	0.568900	0.987590
H1521	H152	0.127100	0.602600	0.973600
C2271	C227	0.096100	0.471200	0.983730
C2281	C228	0.112700	0.418000	0.957290
C2291	C229	0.190800	0.623900	0.865740
H1531	H153	0.189600	0.693200	0.865700
C2301	C230	0.170300	0.574100	0.888810
H1541	H154	0.156100	0.608900	0.904600
C2311	C231	0.212600	0.480300	0.843450
H1551	H155	0.227700	0.447000	0.827600
C2321	C232	0.191900	0.426100	0.865550
H1561	H156	0.192500	0.356800	0.864800
C2331	C233	0.170400	0.473400	0.888780
C2341	C234	0.146900	0.419100	0.912790
C2351	C235	0.277100	0.544700	0.758950
H1571	H157	0.308500	0.546700	0.767900
C2361	C236	0.273400	0.509700	0.730720
H1581	H158	0.301800	0.489200	0.720400
C2371	C237	0.194000	0.567100	0.762270
H1591	H159	0.166100	0.585600	0.773300
C2381	C238	0.187300	0.532000	0.734120
H1601	H160	0.155200	0.526500	0.726200
C2391	C239	0.227600	0.505200	0.717880
C2401	C240	0.222500	0.474400	0.687120
C2411	C241	0.040500	0.410900	0.637830
H1611	H161	0.011800	0.408900	0.649600
C2421	C242	0.085200	0.428600	0.651260
H1621	H162	0.086900	0.440600	0.671700
C2431	C243	0.076400	0.400000	0.592980
H1631	H163	0.073300	0.392200	0.572500
C2441	C244	0.122500	0.414200	0.604620
H1641	H164	0.150500	0.414200	0.592300
C2451	C245	0.127400	0.428500	0.634350
C2461	C246	0.175900	0.440800	0.648020
C2471	C247	0.343400	0.383000	0.582290
H1651	H165	0.341500	0.364300	0.562400
C2481	C248	0.300600	0.398800	0.597230
H1661	H166	0.269900	0.392100	0.587700
C2491	C249	0.389700	0.419500	0.622650
H1671	H167	0.420900	0.428300	0.631400
C2501	C250	0.348600	0.434800	0.639320
H1681	H168	0.351300	0.452100	0.659300
C2511	C251	0.303000	0.424500	0.626300
C2521	C252	0.257800	0.439300	0.643820
N731	N73	0.061560	0.992500	0.916820
N741	N74	0.063900	0.571400	0.032800
N751	N75	0.212400	0.577600	0.843290
N761	N76	0.101100	0.323100	0.955370
N771	N77	0.136500	0.468700	0.937270
N781	N78	0.135830	0.325900	0.908260
N791	N79	0.238250	0.575900	0.774320
N801	N80	0.035840	0.396700	0.609470
N811	N81	0.387730	0.392400	0.594340
N821	N82	0.177270	0.464500	0.676270
N831	N83	0.214910	0.428200	0.630590
N841	N84	0.264120	0.462100	0.671910
Zn221	Zn22	0.253670	0.343400	0.311440
Zn231	Zn23	0.469810	0.141590	0.409310
Zn241	Zn24	0.451180	0.360300	0.571990
I431	I43	0.162730	0.328870	0.322770
I441	I44	0.305260	0.189530	0.304060
I451	I45	0.422300	0.225490	0.369020
I461	I46	0.485060	0.221110	0.458690
I471	I47	0.451110	0.176610	0.564240
I481	I48	0.517680	0.455440	0.598310
C2531	C253	0.427500	0.950300	0.393930
H1691	H169	0.431900	0.975100	0.374800
C2541	C254	0.410100	0.856900	0.397460
H1701	H170	0.403000	0.817600	0.380900
C2551	C255	0.431100	0.973700	0.443640
H1711	H171	0.437400	0.015200	0.459800
C2561	C256	0.414400	0.879600	0.448630
H1721	H172	0.410900	0.856000	0.468000
C2571	C257	0.403000	0.820500	0.425200
C2581	C258	0.386800	0.718500	0.430150
C2591	C259	0.447900	0.522700	0.528650
H1731	H173	0.467500	0.554900	0.542800
C2601	C260	0.432700	0.573600	0.504720
H1741	H174	0.441900	0.640000	0.502400
C2611	C261	0.409500	0.383700	0.512200
H1751	H175	0.402200	0.316400	0.514600
C2621	C262	0.392300	0.431100	0.487590
H1761	H176	0.372900	0.397400	0.473600
C2631	C263	0.403900	0.528800	0.483730
C2641	C264	0.387300	0.582000	0.457290
C2651	C265	0.309200	0.376100	0.365740
H1771	H177	0.310400	0.306800	0.365700
C2661	C266	0.329700	0.425900	0.388810
H1781	H178	0.343900	0.391100	0.404600
C2671	C267	0.287400	0.519700	0.343450
H1791	H179	0.272300	0.553000	0.327600
C2681	C268	0.308100	0.573900	0.365550
H1801	H180	0.307500	0.643200	0.364800
C2691	C269	0.329600	0.526600	0.388780
C2701	C270	0.353100	0.580900	0.412790
C2711	C271	0.222900	0.455300	0.258950
H1811	H181	0.191500	0.453300	0.267900
C2721	C272	0.226600	0.490300	0.230720
H1821	H182	0.198200	0.510800	0.220400
C2731	C273	0.306000	0.432900	0.262270
H1831	H183	0.333900	0.414400	0.273300
C2741	C274	0.312700	0.468000	0.234120
H1841	H184	0.344800	0.473500	0.226200
C2751	C275	0.272400	0.494800	0.217880
C2761	C276	0.277500	0.525600	0.187120
C2771	C277	0.459500	0.589100	0.137830
H1851	H185	0.488200	0.591100	0.149600
C2781	C278	0.414800	0.571400	0.151260
H1861	H186	0.413100	0.559400	0.171700
C2791	C279	0.423600	0.600000	0.092980
H1871	H187	0.426700	0.607800	0.072500
C2801	C280	0.377500	0.585800	0.104620
H1881	H188	0.349500	0.585800	0.092300
C2811	C281	0.372600	0.571500	0.134350
C2821	C282	0.324100	0.559200	0.148020
C2831	C283	0.156600	0.617000	0.082290
H1891	H189	0.158500	0.635700	0.062400
C2841	C284	0.199400	0.601200	0.097230
H1901	H190	0.230100	0.607900	0.087700
C2851	C285	0.110300	0.580500	0.122650
H1911	H191	0.079100	0.571700	0.131400
C2861	C286	0.151400	0.565200	0.139320
H1921	H192	0.148700	0.547900	0.159300
C2871	C287	0.197000	0.575500	0.126300
C2881	C288	0.242200	0.560700	0.143820
N851	N85	0.438440	0.007500	0.416820
N861	N86	0.436100	0.428600	0.532800
N871	N87	0.287600	0.422400	0.343290
N881	N88	0.398900	0.676900	0.455370
N891	N89	0.363500	0.531300	0.437270
N901	N90	0.364170	0.674100	0.408260
N911	N91	0.261750	0.424100	0.274320
N921	N92	0.464160	0.603300	0.109470
N931	N93	0.112270	0.607600	0.094340
N941	N94	0.322730	0.535500	0.176270
N951	N95	0.285090	0.571800	0.130590
N961	N96	0.235880	0.537900	0.171910
