data_CIZMIJ_clean_PM
_symmetry_space_group_name_H-M	'P1'
_cell_length_a	7.548100
_cell_length_b	10.887800
_cell_length_c	19.046000
_cell_angle_alpha	79.948000
_cell_angle_beta	79.570000
_cell_angle_gamma	73.077000
_symmetry_Int_Tables_number 1

loop_
_symmetry_equiv_pos_as_xyz
'x,y,z'

loop_
_atom_site_label
_atom_site_type_symbol
_atom_site_fract_x
_atom_site_fract_y
_atom_site_fract_z
Zn11	Zn1	0.392810	0.784400	0.451640
Zn21	Zn2	0.716360	0.286640	0.967880
H11	H1	0.053300	0.557400	0.653300
H21	H2	0.229300	0.332700	0.183300
H31	H3	0.358200	0.246500	0.551000
H41	H4	0.452100	0.553000	0.022900
H51	H5	0.829400	0.597300	0.475600
H61	H6	0.458200	0.003600	0.855200
H71	H7	0.113400	0.506000	0.241000
H81	H8	0.082400	0.566900	0.371700
H91	H9	0.600100	0.709500	0.586000
H101	H10	0.217200	0.725400	0.053000
H111	H11	0.281300	0.969600	0.055300
H121	H12	0.362800	0.402600	0.727300
H131	H13	0.618500	0.855200	0.668700
H141	H14	0.493900	0.014100	0.731500
H151	H15	0.572600	0.038800	0.959200
H161	H16	0.136000	0.167200	0.980000
H171	H17	0.617100	0.786700	0.301400
H181	H18	0.741200	0.015100	0.083900
H191	H19	0.860400	0.890400	0.215800
H201	H20	0.564000	0.343300	0.818800
H211	H21	0.505200	0.477300	0.514200
H221	H22	0.331400	0.060900	0.512800
H231	H23	0.454800	0.193400	0.104600
H241	H24	0.051200	0.743800	0.559300
C11	C1	0.186100	0.598100	0.143100
C21	C2	0.398000	0.991100	0.541700
C31	C3	0.958900	0.615300	0.370300
C41	C4	0.552300	0.262400	0.841200
C51	C5	0.425800	0.480900	0.052200
C61	C6	0.457500	0.097000	0.706900
C71	C7	0.978400	0.696000	0.240400
C81	C8	0.817300	0.630500	0.427700
C91	C9	0.301700	0.359100	0.141600
C101	C10	0.158800	0.718500	0.100300
C111	C11	0.351600	0.341100	0.633600
C121	C12	0.425100	0.283400	0.098000
C131	C13	0.425200	0.114100	0.635700
C141	C14	0.547500	0.798600	0.581800
C151	C15	0.556800	0.878400	0.628300
C161	C16	0.699700	0.735600	0.332500
C171	C17	0.143100	0.562600	0.613300
C181	C18	0.044000	0.826700	0.129200
C191	C19	0.945300	0.818000	0.198200
C201	C20	0.491200	0.077100	0.860500
C211	C21	0.375600	0.235300	0.599100
C221	C22	0.389700	0.521100	0.536700
C231	C23	0.095700	0.586400	0.212900
C241	C24	0.073200	0.112600	0.010900
C251	C25	0.154500	0.001900	0.051500
C261	C26	0.144900	0.666300	0.561500
C271	C27	0.379900	0.329900	0.704800
C281	C28	0.558300	0.095900	0.916900
C291	C29	0.857800	0.029700	0.066800
C301	C30	0.434900	0.205200	0.741000
N11	N1	0.019700	0.948500	0.084800
N21	N2	0.453900	0.002500	0.602500
N31	N3	0.602300	0.210300	0.903100
N41	N4	0.652600	0.704500	0.401300
N51	N5	0.505500	0.358700	0.039700
N61	N6	0.301300	0.485700	0.113300
N71	N7	0.883700	0.683800	0.312300
N81	N8	0.446500	0.872200	0.527100
N91	N9	0.301200	0.640200	0.514400
N101	N10	0.480600	0.184800	0.812700
N111	N11	0.297300	0.469900	0.594500
N121	N12	0.882700	0.130600	0.022900
