data_CIZTIP_clean_PM
_symmetry_space_group_name_H-M	'P1'
_cell_length_a	26.306000
_cell_length_b	49.555000
_cell_length_c	10.710100
_cell_angle_alpha	90.000000
_cell_angle_beta	90.000000
_cell_angle_gamma	90.000000
_symmetry_Int_Tables_number 1

loop_
_symmetry_equiv_pos_as_xyz
'x,y,z'

loop_
_atom_site_label
_atom_site_type_symbol
_atom_site_fract_x
_atom_site_fract_y
_atom_site_fract_z
Ag11	Ag1	0.285760	0.172410	0.017890
Ag21	Ag2	0.396030	0.257210	0.605100
Ag31	Ag3	0.519000	0.156210	0.814020
P11	P1	0.346240	0.215910	0.812820
N11	N1	0.348850	0.186060	0.872300
P21	P2	0.393840	0.165790	0.833280
N21	N2	0.400420	0.225220	0.751300
P31	P3	0.454720	0.211170	0.780590
N31	N3	0.448350	0.180830	0.832400
N41	N4	0.323800	0.235310	0.923600
H11	H1	0.302600	0.248400	0.904000
C11	C1	0.338100	0.231540	0.053400
H21	H2	0.344600	0.249500	0.090900
H31	H3	0.370200	0.221200	0.056400
C21	C2	0.299200	0.217170	0.131500
H41	H4	0.310400	0.209500	0.207900
C31	C3	0.251700	0.214480	0.103000
H51	H5	0.239000	0.221900	0.027300
H61	H6	0.229400	0.205100	0.157600
N51	N5	0.392900	0.140950	0.932000
H71	H7	0.391800	0.124300	0.903800
C41	C4	0.393900	0.145690	0.068100
H81	H8	0.405400	0.164400	0.084300
H91	H9	0.418900	0.133300	0.106900
C51	C5	0.342700	0.141460	0.128400
H101	H10	0.337700	0.150100	0.206600
C61	C6	0.304600	0.127520	0.086900
H111	H11	0.307200	0.118400	0.009200
H121	H12	0.274100	0.126400	0.134100
N61	N6	0.492510	0.225790	0.881100
H131	H13	0.515400	0.237200	0.853000
C71	C7	0.490200	0.220790	0.014500
H141	H14	0.462200	0.207900	0.031300
H151	H15	0.481800	0.237900	0.057400
C81	C8	0.538900	0.209580	0.070400
H161	H16	0.539400	0.206800	0.158100
C91	C9	0.580700	0.203390	0.007100
H171	H17	0.581800	0.205900	0.919200
H181	H18	0.609500	0.196500	0.049800
N71	N7	0.304000	0.220640	0.702600
H191	H19	0.275400	0.229000	0.719900
C101	C10	0.313600	0.211040	0.575300
H201	H20	0.283700	0.200700	0.546600
H211	H21	0.343000	0.198600	0.577000
C111	C11	0.324300	0.233270	0.482100
H221	H22	0.341200	0.228500	0.406800
C121	C12	0.311600	0.259630	0.498800
H231	H23	0.294700	0.265100	0.573000
H241	H24	0.319500	0.272500	0.436200
N81	N8	0.385100	0.153830	0.693700
H251	H25	0.411300	0.153400	0.643000
C131	C13	0.335900	0.143710	0.646400
H261	H26	0.338100	0.141300	0.554800
H271	H27	0.309100	0.157200	0.663800
C141	C14	0.321900	0.117470	0.705800
H281	H28	0.345700	0.103100	0.701600
C151	C15	0.278500	0.113160	0.763400
H291	H29	0.254000	0.127200	0.769100
H301	H30	0.271700	0.096000	0.799400
N91	N9	0.485800	0.215060	0.648900
H311	H31	0.470500	0.223300	0.586600
C161	C16	0.538200	0.205270	0.630700
H321	H32	0.559000	0.211200	0.702600
H331	H33	0.552300	0.213900	0.554900
C171	C17	0.543400	0.175070	0.617300
H341	H34	0.516500	0.165600	0.577400
C181	C18	0.582700	0.160910	0.657200
H351	H35	0.610300	0.169700	0.697500
H361	H36	0.583500	0.141900	0.645600
Ag41	Ag4	0.285760	0.672410	0.517890
Ag51	Ag5	0.396030	0.757210	0.105100
Ag61	Ag6	0.519000	0.656210	0.314020
P41	P4	0.346240	0.715910	0.312820
N101	N10	0.348850	0.686060	0.372300
P51	P5	0.393840	0.665790	0.333280
N111	N11	0.400420	0.725220	0.251300
P61	P6	0.454720	0.711170	0.280590
N121	N12	0.448350	0.680830	0.332400
N131	N13	0.323800	0.735310	0.423600
H371	H37	0.302600	0.748400	0.404000
C191	C19	0.338100	0.731540	0.553400
H381	H38	0.344600	0.749500	0.590900
H391	H39	0.370200	0.721200	0.556400
C201	C20	0.299200	0.717170	0.631500
H401	H40	0.310400	0.709500	0.707900
C211	C21	0.251700	0.714480	0.603000
H411	H41	0.239000	0.721900	0.527300
H421	H42	0.229400	0.705100	0.657600
N141	N14	0.392900	0.640950	0.432000
H431	H43	0.391800	0.624300	0.403800
C221	C22	0.393900	0.645690	0.568100
H441	H44	0.405400	0.664400	0.584300
H451	H45	0.418900	0.633300	0.606900
C231	C23	0.342700	0.641460	0.628400
H461	H46	0.337700	0.650100	0.706600
C241	C24	0.304600	0.627520	0.586900
H471	H47	0.307200	0.618400	0.509200
H481	H48	0.274100	0.626400	0.634100
N151	N15	0.492510	0.725790	0.381100
H491	H49	0.515400	0.737200	0.353000
C251	C25	0.490200	0.720790	0.514500
H501	H50	0.462200	0.707900	0.531300
H511	H51	0.481800	0.737900	0.557400
C261	C26	0.538900	0.709580	0.570400
H521	H52	0.539400	0.706800	0.658100
C271	C27	0.580700	0.703390	0.507100
H531	H53	0.581800	0.705900	0.419200
H541	H54	0.609500	0.696500	0.549800
N161	N16	0.304000	0.720640	0.202600
H551	H55	0.275400	0.729000	0.219900
C281	C28	0.313600	0.711040	0.075300
H561	H56	0.283700	0.700700	0.046600
H571	H57	0.343000	0.698600	0.077000
C291	C29	0.324300	0.733270	0.982100
H581	H58	0.341200	0.728500	0.906800
C301	C30	0.311600	0.759630	0.998800
H591	H59	0.294700	0.765100	0.073000
H601	H60	0.319500	0.772500	0.936200
N171	N17	0.385100	0.653830	0.193700
H611	H61	0.411300	0.653400	0.143000
C311	C31	0.335900	0.643710	0.146400
H621	H62	0.338100	0.641300	0.054800
H631	H63	0.309100	0.657200	0.163800
C321	C32	0.321900	0.617470	0.205800
H641	H64	0.345700	0.603100	0.201600
C331	C33	0.278500	0.613160	0.263400
H651	H65	0.254000	0.627200	0.269100
H661	H66	0.271700	0.596000	0.299400
N181	N18	0.485800	0.715060	0.148900
H671	H67	0.470500	0.723300	0.086600
C341	C34	0.538200	0.705270	0.130700
H681	H68	0.559000	0.711200	0.202600
H691	H69	0.552300	0.713900	0.054900
C351	C35	0.543400	0.675070	0.117300
H701	H70	0.516500	0.665600	0.077400
C361	C36	0.582700	0.660910	0.157200
H711	H71	0.610300	0.669700	0.197500
H721	H72	0.583500	0.641900	0.145600
Ag71	Ag7	0.785760	0.172410	0.517890
Ag81	Ag8	0.896030	0.257210	0.105100
Ag91	Ag9	0.019000	0.156210	0.314020
P71	P7	0.846240	0.215910	0.312820
N191	N19	0.848850	0.186060	0.372300
P81	P8	0.893840	0.165790	0.333280
N201	N20	0.900420	0.225220	0.251300
P91	P9	0.954720	0.211170	0.280590
N211	N21	0.948350	0.180830	0.332400
N221	N22	0.823800	0.235310	0.423600
H731	H73	0.802600	0.248400	0.404000
C371	C37	0.838100	0.231540	0.553400
H741	H74	0.844600	0.249500	0.590900
H751	H75	0.870200	0.221200	0.556400
C381	C38	0.799200	0.217170	0.631500
H761	H76	0.810400	0.209500	0.707900
C391	C39	0.751700	0.214480	0.603000
H771	H77	0.739000	0.221900	0.527300
H781	H78	0.729400	0.205100	0.657600
N231	N23	0.892900	0.140950	0.432000
H791	H79	0.891800	0.124300	0.403800
C401	C40	0.893900	0.145690	0.568100
H801	H80	0.905400	0.164400	0.584300
H811	H81	0.918900	0.133300	0.606900
C411	C41	0.842700	0.141460	0.628400
H821	H82	0.837700	0.150100	0.706600
C421	C42	0.804600	0.127520	0.586900
H831	H83	0.807200	0.118400	0.509200
H841	H84	0.774100	0.126400	0.634100
N241	N24	0.992510	0.225790	0.381100
H851	H85	0.015400	0.237200	0.353000
C431	C43	0.990200	0.220790	0.514500
H861	H86	0.962200	0.207900	0.531300
H871	H87	0.981800	0.237900	0.557400
C441	C44	0.038900	0.209580	0.570400
H881	H88	0.039400	0.206800	0.658100
C451	C45	0.080700	0.203390	0.507100
H891	H89	0.081800	0.205900	0.419200
H901	H90	0.109500	0.196500	0.549800
N251	N25	0.804000	0.220640	0.202600
H911	H91	0.775400	0.229000	0.219900
C461	C46	0.813600	0.211040	0.075300
H921	H92	0.783700	0.200700	0.046600
H931	H93	0.843000	0.198600	0.077000
C471	C47	0.824300	0.233270	0.982100
H941	H94	0.841200	0.228500	0.906800
C481	C48	0.811600	0.259630	0.998800
H951	H95	0.794700	0.265100	0.073000
H961	H96	0.819500	0.272500	0.936200
N261	N26	0.885100	0.153830	0.193700
H971	H97	0.911300	0.153400	0.143000
C491	C49	0.835900	0.143710	0.146400
H981	H98	0.838100	0.141300	0.054800
H991	H99	0.809100	0.157200	0.163800
C501	C50	0.821900	0.117470	0.205800
H1001	H100	0.845700	0.103100	0.201600
C511	C51	0.778500	0.113160	0.263400
H1011	H101	0.754000	0.127200	0.269100
H1021	H102	0.771700	0.096000	0.299400
N271	N27	0.985800	0.215060	0.148900
H1031	H103	0.970500	0.223300	0.086600
C521	C52	0.038200	0.205270	0.130700
H1041	H104	0.059000	0.211200	0.202600
H1051	H105	0.052300	0.213900	0.054900
C531	C53	0.043400	0.175070	0.117300
H1061	H106	0.016500	0.165600	0.077400
C541	C54	0.082700	0.160910	0.157200
H1071	H107	0.110300	0.169700	0.197500
H1081	H108	0.083500	0.141900	0.145600
Ag101	Ag10	0.785760	0.672410	0.017890
Ag111	Ag11	0.896030	0.757210	0.605100
Ag121	Ag12	0.019000	0.656210	0.814020
P101	P10	0.846240	0.715910	0.812820
N281	N28	0.848850	0.686060	0.872300
P111	P11	0.893840	0.665790	0.833280
N291	N29	0.900420	0.725220	0.751300
P121	P12	0.954720	0.711170	0.780590
N301	N30	0.948350	0.680830	0.832400
N311	N31	0.823800	0.735310	0.923600
H1091	H109	0.802600	0.748400	0.904000
C551	C55	0.838100	0.731540	0.053400
H1101	H110	0.844600	0.749500	0.090900
H1111	H111	0.870200	0.721200	0.056400
C561	C56	0.799200	0.717170	0.131500
H1121	H112	0.810400	0.709500	0.207900
C571	C57	0.751700	0.714480	0.103000
H1131	H113	0.739000	0.721900	0.027300
H1141	H114	0.729400	0.705100	0.157600
N321	N32	0.892900	0.640950	0.932000
H1151	H115	0.891800	0.624300	0.903800
C581	C58	0.893900	0.645690	0.068100
H1161	H116	0.905400	0.664400	0.084300
H1171	H117	0.918900	0.633300	0.106900
C591	C59	0.842700	0.641460	0.128400
H1181	H118	0.837700	0.650100	0.206600
C601	C60	0.804600	0.627520	0.086900
H1191	H119	0.807200	0.618400	0.009200
H1201	H120	0.774100	0.626400	0.134100
N331	N33	0.992510	0.725790	0.881100
H1211	H121	0.015400	0.737200	0.853000
C611	C61	0.990200	0.720790	0.014500
H1221	H122	0.962200	0.707900	0.031300
H1231	H123	0.981800	0.737900	0.057400
C621	C62	0.038900	0.709580	0.070400
H1241	H124	0.039400	0.706800	0.158100
C631	C63	0.080700	0.703390	0.007100
H1251	H125	0.081800	0.705900	0.919200
H1261	H126	0.109500	0.696500	0.049800
N341	N34	0.804000	0.720640	0.702600
H1271	H127	0.775400	0.729000	0.719900
C641	C64	0.813600	0.711040	0.575300
H1281	H128	0.783700	0.700700	0.546600
H1291	H129	0.843000	0.698600	0.577000
C651	C65	0.824300	0.733270	0.482100
H1301	H130	0.841200	0.728500	0.406800
C661	C66	0.811600	0.759630	0.498800
H1311	H131	0.794700	0.765100	0.573000
H1321	H132	0.819500	0.772500	0.436200
N351	N35	0.885100	0.653830	0.693700
H1331	H133	0.911300	0.653400	0.643000
C671	C67	0.835900	0.643710	0.646400
H1341	H134	0.838100	0.641300	0.554800
H1351	H135	0.809100	0.657200	0.663800
C681	C68	0.821900	0.617470	0.705800
H1361	H136	0.845700	0.603100	0.701600
C691	C69	0.778500	0.613160	0.763400
H1371	H137	0.754000	0.627200	0.769100
H1381	H138	0.771700	0.596000	0.799400
N361	N36	0.985800	0.715060	0.648900
H1391	H139	0.970500	0.723300	0.586600
C701	C70	0.038200	0.705270	0.630700
H1401	H140	0.059000	0.711200	0.702600
H1411	H141	0.052300	0.713900	0.554900
C711	C71	0.043400	0.675070	0.617300
H1421	H142	0.016500	0.665600	0.577400
C721	C72	0.082700	0.660910	0.657200
H1431	H143	0.110300	0.669700	0.697500
H1441	H144	0.083500	0.641900	0.645600
Ag131	Ag13	0.714240	0.827590	0.017890
Ag141	Ag14	0.603970	0.742790	0.605100
Ag151	Ag15	0.481000	0.843790	0.814020
P131	P13	0.653760	0.784090	0.812820
N371	N37	0.651150	0.813940	0.872300
P141	P14	0.606160	0.834210	0.833280
N381	N38	0.599580	0.774780	0.751300
P151	P15	0.545280	0.788830	0.780590
N391	N39	0.551650	0.819170	0.832400
N401	N40	0.676200	0.764690	0.923600
H1451	H145	0.697400	0.751600	0.904000
C731	C73	0.661900	0.768460	0.053400
H1461	H146	0.655400	0.750500	0.090900
H1471	H147	0.629800	0.778800	0.056400
C741	C74	0.700800	0.782830	0.131500
H1481	H148	0.689600	0.790500	0.207900
C751	C75	0.748300	0.785520	0.103000
H1491	H149	0.761000	0.778100	0.027300
H1501	H150	0.770600	0.794900	0.157600
N411	N41	0.607100	0.859050	0.932000
H1511	H151	0.608200	0.875700	0.903800
C761	C76	0.606100	0.854310	0.068100
H1521	H152	0.594600	0.835600	0.084300
H1531	H153	0.581100	0.866700	0.106900
C771	C77	0.657300	0.858540	0.128400
H1541	H154	0.662300	0.849900	0.206600
C781	C78	0.695400	0.872480	0.086900
H1551	H155	0.692800	0.881600	0.009200
H1561	H156	0.725900	0.873600	0.134100
N421	N42	0.507490	0.774210	0.881100
H1571	H157	0.484600	0.762800	0.853000
C791	C79	0.509800	0.779210	0.014500
H1581	H158	0.537800	0.792100	0.031300
H1591	H159	0.518200	0.762100	0.057400
C801	C80	0.461100	0.790420	0.070400
H1601	H160	0.460600	0.793200	0.158100
C811	C81	0.419300	0.796610	0.007100
H1611	H161	0.418200	0.794100	0.919200
H1621	H162	0.390500	0.803500	0.049800
N431	N43	0.696000	0.779360	0.702600
H1631	H163	0.724600	0.771000	0.719900
C821	C82	0.686400	0.788960	0.575300
H1641	H164	0.716300	0.799300	0.546600
H1651	H165	0.657000	0.801400	0.577000
C831	C83	0.675700	0.766730	0.482100
H1661	H166	0.658800	0.771500	0.406800
C841	C84	0.688400	0.740370	0.498800
H1671	H167	0.705300	0.734900	0.573000
H1681	H168	0.680500	0.727500	0.436200
N441	N44	0.614900	0.846170	0.693700
H1691	H169	0.588700	0.846600	0.643000
C851	C85	0.664100	0.856290	0.646400
H1701	H170	0.661900	0.858700	0.554800
H1711	H171	0.690900	0.842800	0.663800
C861	C86	0.678100	0.882530	0.705800
H1721	H172	0.654300	0.896900	0.701600
C871	C87	0.721500	0.886840	0.763400
H1731	H173	0.746000	0.872800	0.769100
H1741	H174	0.728300	0.904000	0.799400
N451	N45	0.514200	0.784940	0.648900
H1751	H175	0.529500	0.776700	0.586600
C881	C88	0.461800	0.794730	0.630700
H1761	H176	0.441000	0.788800	0.702600
H1771	H177	0.447700	0.786100	0.554900
C891	C89	0.456600	0.824930	0.617300
H1781	H178	0.483500	0.834400	0.577400
C901	C90	0.417300	0.839090	0.657200
H1791	H179	0.389700	0.830300	0.697500
H1801	H180	0.416500	0.858100	0.645600
Ag161	Ag16	0.714240	0.327590	0.517890
Ag171	Ag17	0.603970	0.242790	0.105100
Ag181	Ag18	0.481000	0.343790	0.314020
P161	P16	0.653760	0.284090	0.312820
N461	N46	0.651150	0.313940	0.372300
P171	P17	0.606160	0.334210	0.333280
N471	N47	0.599580	0.274780	0.251300
P181	P18	0.545280	0.288830	0.280590
N481	N48	0.551650	0.319170	0.332400
N491	N49	0.676200	0.264690	0.423600
H1811	H181	0.697400	0.251600	0.404000
C911	C91	0.661900	0.268460	0.553400
H1821	H182	0.655400	0.250500	0.590900
H1831	H183	0.629800	0.278800	0.556400
C921	C92	0.700800	0.282830	0.631500
H1841	H184	0.689600	0.290500	0.707900
C931	C93	0.748300	0.285520	0.603000
H1851	H185	0.761000	0.278100	0.527300
H1861	H186	0.770600	0.294900	0.657600
N501	N50	0.607100	0.359050	0.432000
H1871	H187	0.608200	0.375700	0.403800
C941	C94	0.606100	0.354310	0.568100
H1881	H188	0.594600	0.335600	0.584300
H1891	H189	0.581100	0.366700	0.606900
C951	C95	0.657300	0.358540	0.628400
H1901	H190	0.662300	0.349900	0.706600
C961	C96	0.695400	0.372480	0.586900
H1911	H191	0.692800	0.381600	0.509200
H1921	H192	0.725900	0.373600	0.634100
N511	N51	0.507490	0.274210	0.381100
H1931	H193	0.484600	0.262800	0.353000
C971	C97	0.509800	0.279210	0.514500
H1941	H194	0.537800	0.292100	0.531300
H1951	H195	0.518200	0.262100	0.557400
C981	C98	0.461100	0.290420	0.570400
H1961	H196	0.460600	0.293200	0.658100
C991	C99	0.419300	0.296610	0.507100
H1971	H197	0.418200	0.294100	0.419200
H1981	H198	0.390500	0.303500	0.549800
N521	N52	0.696000	0.279360	0.202600
H1991	H199	0.724600	0.271000	0.219900
C1001	C100	0.686400	0.288960	0.075300
H2001	H200	0.716300	0.299300	0.046600
H2011	H201	0.657000	0.301400	0.077000
C1011	C101	0.675700	0.266730	0.982100
H2021	H202	0.658800	0.271500	0.906800
C1021	C102	0.688400	0.240370	0.998800
H2031	H203	0.705300	0.234900	0.073000
H2041	H204	0.680500	0.227500	0.936200
N531	N53	0.614900	0.346170	0.193700
H2051	H205	0.588700	0.346600	0.143000
C1031	C103	0.664100	0.356290	0.146400
H2061	H206	0.661900	0.358700	0.054800
H2071	H207	0.690900	0.342800	0.163800
C1041	C104	0.678100	0.382530	0.205800
H2081	H208	0.654300	0.396900	0.201600
C1051	C105	0.721500	0.386840	0.263400
H2091	H209	0.746000	0.372800	0.269100
H2101	H210	0.728300	0.404000	0.299400
N541	N54	0.514200	0.284940	0.148900
H2111	H211	0.529500	0.276700	0.086600
C1061	C106	0.461800	0.294730	0.130700
H2121	H212	0.441000	0.288800	0.202600
H2131	H213	0.447700	0.286100	0.054900
C1071	C107	0.456600	0.324930	0.117300
H2141	H214	0.483500	0.334400	0.077400
C1081	C108	0.417300	0.339090	0.157200
H2151	H215	0.389700	0.330300	0.197500
H2161	H216	0.416500	0.358100	0.145600
Ag191	Ag19	0.214240	0.827590	0.517890
Ag201	Ag20	0.103970	0.742790	0.105100
Ag211	Ag21	0.981000	0.843790	0.314020
P191	P19	0.153760	0.784090	0.312820
N551	N55	0.151150	0.813940	0.372300
P201	P20	0.106160	0.834210	0.333280
N561	N56	0.099580	0.774780	0.251300
P211	P21	0.045280	0.788830	0.280590
N571	N57	0.051650	0.819170	0.332400
N581	N58	0.176200	0.764690	0.423600
H2171	H217	0.197400	0.751600	0.404000
C1091	C109	0.161900	0.768460	0.553400
H2181	H218	0.155400	0.750500	0.590900
H2191	H219	0.129800	0.778800	0.556400
C1101	C110	0.200800	0.782830	0.631500
H2201	H220	0.189600	0.790500	0.707900
C1111	C111	0.248300	0.785520	0.603000
H2211	H221	0.261000	0.778100	0.527300
H2221	H222	0.270600	0.794900	0.657600
N591	N59	0.107100	0.859050	0.432000
H2231	H223	0.108200	0.875700	0.403800
C1121	C112	0.106100	0.854310	0.568100
H2241	H224	0.094600	0.835600	0.584300
H2251	H225	0.081100	0.866700	0.606900
C1131	C113	0.157300	0.858540	0.628400
H2261	H226	0.162300	0.849900	0.706600
C1141	C114	0.195400	0.872480	0.586900
H2271	H227	0.192800	0.881600	0.509200
H2281	H228	0.225900	0.873600	0.634100
N601	N60	0.007490	0.774210	0.381100
H2291	H229	0.984600	0.762800	0.353000
C1151	C115	0.009800	0.779210	0.514500
H2301	H230	0.037800	0.792100	0.531300
H2311	H231	0.018200	0.762100	0.557400
C1161	C116	0.961100	0.790420	0.570400
H2321	H232	0.960600	0.793200	0.658100
C1171	C117	0.919300	0.796610	0.507100
H2331	H233	0.918200	0.794100	0.419200
H2341	H234	0.890500	0.803500	0.549800
N611	N61	0.196000	0.779360	0.202600
H2351	H235	0.224600	0.771000	0.219900
C1181	C118	0.186400	0.788960	0.075300
H2361	H236	0.216300	0.799300	0.046600
H2371	H237	0.157000	0.801400	0.077000
C1191	C119	0.175700	0.766730	0.982100
H2381	H238	0.158800	0.771500	0.906800
C1201	C120	0.188400	0.740370	0.998800
H2391	H239	0.205300	0.734900	0.073000
H2401	H240	0.180500	0.727500	0.936200
N621	N62	0.114900	0.846170	0.193700
H2411	H241	0.088700	0.846600	0.143000
C1211	C121	0.164100	0.856290	0.146400
H2421	H242	0.161900	0.858700	0.054800
H2431	H243	0.190900	0.842800	0.163800
C1221	C122	0.178100	0.882530	0.205800
H2441	H244	0.154300	0.896900	0.201600
C1231	C123	0.221500	0.886840	0.263400
H2451	H245	0.246000	0.872800	0.269100
H2461	H246	0.228300	0.904000	0.299400
N631	N63	0.014200	0.784940	0.148900
H2471	H247	0.029500	0.776700	0.086600
C1241	C124	0.961800	0.794730	0.130700
H2481	H248	0.941000	0.788800	0.202600
H2491	H249	0.947700	0.786100	0.054900
C1251	C125	0.956600	0.824930	0.117300
H2501	H250	0.983500	0.834400	0.077400
C1261	C126	0.917300	0.839090	0.157200
H2511	H251	0.889700	0.830300	0.197500
H2521	H252	0.916500	0.858100	0.145600
Ag221	Ag22	0.214240	0.327590	0.017890
Ag231	Ag23	0.103970	0.242790	0.605100
Ag241	Ag24	0.981000	0.343790	0.814020
P221	P22	0.153760	0.284090	0.812820
N641	N64	0.151150	0.313940	0.872300
P231	P23	0.106160	0.334210	0.833280
N651	N65	0.099580	0.274780	0.751300
P241	P24	0.045280	0.288830	0.780590
N661	N66	0.051650	0.319170	0.832400
N671	N67	0.176200	0.264690	0.923600
H2531	H253	0.197400	0.251600	0.904000
C1271	C127	0.161900	0.268460	0.053400
H2541	H254	0.155400	0.250500	0.090900
H2551	H255	0.129800	0.278800	0.056400
C1281	C128	0.200800	0.282830	0.131500
H2561	H256	0.189600	0.290500	0.207900
C1291	C129	0.248300	0.285520	0.103000
H2571	H257	0.261000	0.278100	0.027300
H2581	H258	0.270600	0.294900	0.157600
N681	N68	0.107100	0.359050	0.932000
H2591	H259	0.108200	0.375700	0.903800
C1301	C130	0.106100	0.354310	0.068100
H2601	H260	0.094600	0.335600	0.084300
H2611	H261	0.081100	0.366700	0.106900
C1311	C131	0.157300	0.358540	0.128400
H2621	H262	0.162300	0.349900	0.206600
C1321	C132	0.195400	0.372480	0.086900
H2631	H263	0.192800	0.381600	0.009200
H2641	H264	0.225900	0.373600	0.134100
N691	N69	0.007490	0.274210	0.881100
H2651	H265	0.984600	0.262800	0.853000
C1331	C133	0.009800	0.279210	0.014500
H2661	H266	0.037800	0.292100	0.031300
H2671	H267	0.018200	0.262100	0.057400
C1341	C134	0.961100	0.290420	0.070400
H2681	H268	0.960600	0.293200	0.158100
C1351	C135	0.919300	0.296610	0.007100
H2691	H269	0.918200	0.294100	0.919200
H2701	H270	0.890500	0.303500	0.049800
N701	N70	0.196000	0.279360	0.702600
H2711	H271	0.224600	0.271000	0.719900
C1361	C136	0.186400	0.288960	0.575300
H2721	H272	0.216300	0.299300	0.546600
H2731	H273	0.157000	0.301400	0.577000
C1371	C137	0.175700	0.266730	0.482100
H2741	H274	0.158800	0.271500	0.406800
C1381	C138	0.188400	0.240370	0.498800
H2751	H275	0.205300	0.234900	0.573000
H2761	H276	0.180500	0.227500	0.436200
N711	N71	0.114900	0.346170	0.693700
H2771	H277	0.088700	0.346600	0.643000
C1391	C139	0.164100	0.356290	0.646400
H2781	H278	0.161900	0.358700	0.554800
H2791	H279	0.190900	0.342800	0.663800
C1401	C140	0.178100	0.382530	0.705800
H2801	H280	0.154300	0.396900	0.701600
C1411	C141	0.221500	0.386840	0.763400
H2811	H281	0.246000	0.372800	0.769100
H2821	H282	0.228300	0.404000	0.799400
N721	N72	0.014200	0.284940	0.648900
H2831	H283	0.029500	0.276700	0.586600
C1421	C142	0.961800	0.294730	0.630700
H2841	H284	0.941000	0.288800	0.702600
H2851	H285	0.947700	0.286100	0.554900
C1431	C143	0.956600	0.324930	0.617300
H2861	H286	0.983500	0.334400	0.577400
C1441	C144	0.917300	0.339090	0.657200
H2871	H287	0.889700	0.330300	0.697500
H2881	H288	0.916500	0.358100	0.645600
Ag251	Ag25	0.535760	0.077590	0.267890
Ag261	Ag26	0.646030	0.992790	0.855100
Ag271	Ag27	0.769000	0.093790	0.064020
P251	P25	0.596240	0.034090	0.062820
N731	N73	0.598850	0.063940	0.122300
P261	P26	0.643840	0.084210	0.083280
N741	N74	0.650420	0.024780	0.001300
P271	P27	0.704720	0.038830	0.030590
N751	N75	0.698350	0.069170	0.082400
N761	N76	0.573800	0.014690	0.173600
H2891	H289	0.552600	0.001600	0.154000
C1451	C145	0.588100	0.018460	0.303400
H2901	H290	0.594600	0.000500	0.340900
H2911	H291	0.620200	0.028800	0.306400
C1461	C146	0.549200	0.032830	0.381500
H2921	H292	0.560400	0.040500	0.457900
C1471	C147	0.501700	0.035520	0.353000
H2931	H293	0.489000	0.028100	0.277300
H2941	H294	0.479400	0.044900	0.407600
N771	N77	0.642900	0.109050	0.182000
H2951	H295	0.641800	0.125700	0.153800
C1481	C148	0.643900	0.104310	0.318100
H2961	H296	0.655400	0.085600	0.334300
H2971	H297	0.668900	0.116700	0.356900
C1491	C149	0.592700	0.108540	0.378400
H2981	H298	0.587700	0.099900	0.456600
C1501	C150	0.554600	0.122480	0.336900
H2991	H299	0.557200	0.131600	0.259200
H3001	H300	0.524100	0.123600	0.384100
N781	N78	0.742510	0.024210	0.131100
H3011	H301	0.765400	0.012800	0.103000
C1511	C151	0.740200	0.029210	0.264500
H3021	H302	0.712200	0.042100	0.281300
H3031	H303	0.731800	0.012100	0.307400
C1521	C152	0.788900	0.040420	0.320400
H3041	H304	0.789400	0.043200	0.408100
C1531	C153	0.830700	0.046610	0.257100
H3051	H305	0.831800	0.044100	0.169200
H3061	H306	0.859500	0.053500	0.299800
N791	N79	0.554000	0.029360	0.952600
H3071	H307	0.525400	0.021000	0.969900
C1541	C154	0.563600	0.038960	0.825300
H3081	H308	0.533700	0.049300	0.796600
H3091	H309	0.593000	0.051400	0.827000
C1551	C155	0.574300	0.016730	0.732100
H3101	H310	0.591200	0.021500	0.656800
C1561	C156	0.561600	0.990370	0.748800
H3111	H311	0.544700	0.984900	0.823000
H3121	H312	0.569500	0.977500	0.686200
N801	N80	0.635100	0.096170	0.943700
H3131	H313	0.661300	0.096600	0.893000
C1571	C157	0.585900	0.106290	0.896400
H3141	H314	0.588100	0.108700	0.804800
H3151	H315	0.559100	0.092800	0.913800
C1581	C158	0.571900	0.132530	0.955800
H3161	H316	0.595700	0.146900	0.951600
C1591	C159	0.528500	0.136840	0.013400
H3171	H317	0.504000	0.122800	0.019100
H3181	H318	0.521700	0.154000	0.049400
N811	N81	0.735800	0.034940	0.898900
H3191	H319	0.720500	0.026700	0.836600
C1601	C160	0.788200	0.044730	0.880700
H3201	H320	0.809000	0.038800	0.952600
H3211	H321	0.802300	0.036100	0.804900
C1611	C161	0.793400	0.074930	0.867300
H3221	H322	0.766500	0.084400	0.827400
C1621	C162	0.832700	0.089090	0.907200
H3231	H323	0.860300	0.080300	0.947500
H3241	H324	0.833500	0.108100	0.895600
Ag281	Ag28	0.535760	0.577590	0.767890
Ag291	Ag29	0.646030	0.492790	0.355100
Ag301	Ag30	0.769000	0.593790	0.564020
P281	P28	0.596240	0.534090	0.562820
N821	N82	0.598850	0.563940	0.622300
P291	P29	0.643840	0.584210	0.583280
N831	N83	0.650420	0.524780	0.501300
P301	P30	0.704720	0.538830	0.530590
N841	N84	0.698350	0.569170	0.582400
N851	N85	0.573800	0.514690	0.673600
H3251	H325	0.552600	0.501600	0.654000
C1631	C163	0.588100	0.518460	0.803400
H3261	H326	0.594600	0.500500	0.840900
H3271	H327	0.620200	0.528800	0.806400
C1641	C164	0.549200	0.532830	0.881500
H3281	H328	0.560400	0.540500	0.957900
C1651	C165	0.501700	0.535520	0.853000
H3291	H329	0.489000	0.528100	0.777300
H3301	H330	0.479400	0.544900	0.907600
N861	N86	0.642900	0.609050	0.682000
H3311	H331	0.641800	0.625700	0.653800
C1661	C166	0.643900	0.604310	0.818100
H3321	H332	0.655400	0.585600	0.834300
H3331	H333	0.668900	0.616700	0.856900
C1671	C167	0.592700	0.608540	0.878400
H3341	H334	0.587700	0.599900	0.956600
C1681	C168	0.554600	0.622480	0.836900
H3351	H335	0.557200	0.631600	0.759200
H3361	H336	0.524100	0.623600	0.884100
N871	N87	0.742510	0.524210	0.631100
H3371	H337	0.765400	0.512800	0.603000
C1691	C169	0.740200	0.529210	0.764500
H3381	H338	0.712200	0.542100	0.781300
H3391	H339	0.731800	0.512100	0.807400
C1701	C170	0.788900	0.540420	0.820400
H3401	H340	0.789400	0.543200	0.908100
C1711	C171	0.830700	0.546610	0.757100
H3411	H341	0.831800	0.544100	0.669200
H3421	H342	0.859500	0.553500	0.799800
N881	N88	0.554000	0.529360	0.452600
H3431	H343	0.525400	0.521000	0.469900
C1721	C172	0.563600	0.538960	0.325300
H3441	H344	0.533700	0.549300	0.296600
H3451	H345	0.593000	0.551400	0.327000
C1731	C173	0.574300	0.516730	0.232100
H3461	H346	0.591200	0.521500	0.156800
C1741	C174	0.561600	0.490370	0.248800
H3471	H347	0.544700	0.484900	0.323000
H3481	H348	0.569500	0.477500	0.186200
N891	N89	0.635100	0.596170	0.443700
H3491	H349	0.661300	0.596600	0.393000
C1751	C175	0.585900	0.606290	0.396400
H3501	H350	0.588100	0.608700	0.304800
H3511	H351	0.559100	0.592800	0.413800
C1761	C176	0.571900	0.632530	0.455800
H3521	H352	0.595700	0.646900	0.451600
C1771	C177	0.528500	0.636840	0.513400
H3531	H353	0.504000	0.622800	0.519100
H3541	H354	0.521700	0.654000	0.549400
N901	N90	0.735800	0.534940	0.398900
H3551	H355	0.720500	0.526700	0.336600
C1781	C178	0.788200	0.544730	0.380700
H3561	H356	0.809000	0.538800	0.452600
H3571	H357	0.802300	0.536100	0.304900
C1791	C179	0.793400	0.574930	0.367300
H3581	H358	0.766500	0.584400	0.327400
C1801	C180	0.832700	0.589090	0.407200
H3591	H359	0.860300	0.580300	0.447500
H3601	H360	0.833500	0.608100	0.395600
Ag311	Ag31	0.035760	0.077590	0.767890
Ag321	Ag32	0.146030	0.992790	0.355100
Ag331	Ag33	0.269000	0.093790	0.564020
P311	P31	0.096240	0.034090	0.562820
N911	N91	0.098850	0.063940	0.622300
P321	P32	0.143840	0.084210	0.583280
N921	N92	0.150420	0.024780	0.501300
P331	P33	0.204720	0.038830	0.530590
N931	N93	0.198350	0.069170	0.582400
N941	N94	0.073800	0.014690	0.673600
H3611	H361	0.052600	0.001600	0.654000
C1811	C181	0.088100	0.018460	0.803400
H3621	H362	0.094600	0.000500	0.840900
H3631	H363	0.120200	0.028800	0.806400
C1821	C182	0.049200	0.032830	0.881500
H3641	H364	0.060400	0.040500	0.957900
C1831	C183	0.001700	0.035520	0.853000
H3651	H365	0.989000	0.028100	0.777300
H3661	H366	0.979400	0.044900	0.907600
N951	N95	0.142900	0.109050	0.682000
H3671	H367	0.141800	0.125700	0.653800
C1841	C184	0.143900	0.104310	0.818100
H3681	H368	0.155400	0.085600	0.834300
H3691	H369	0.168900	0.116700	0.856900
C1851	C185	0.092700	0.108540	0.878400
H3701	H370	0.087700	0.099900	0.956600
C1861	C186	0.054600	0.122480	0.836900
H3711	H371	0.057200	0.131600	0.759200
H3721	H372	0.024100	0.123600	0.884100
N961	N96	0.242510	0.024210	0.631100
H3731	H373	0.265400	0.012800	0.603000
C1871	C187	0.240200	0.029210	0.764500
H3741	H374	0.212200	0.042100	0.781300
H3751	H375	0.231800	0.012100	0.807400
C1881	C188	0.288900	0.040420	0.820400
H3761	H376	0.289400	0.043200	0.908100
C1891	C189	0.330700	0.046610	0.757100
H3771	H377	0.331800	0.044100	0.669200
H3781	H378	0.359500	0.053500	0.799800
N971	N97	0.054000	0.029360	0.452600
H3791	H379	0.025400	0.021000	0.469900
C1901	C190	0.063600	0.038960	0.325300
H3801	H380	0.033700	0.049300	0.296600
H3811	H381	0.093000	0.051400	0.327000
C1911	C191	0.074300	0.016730	0.232100
H3821	H382	0.091200	0.021500	0.156800
C1921	C192	0.061600	0.990370	0.248800
H3831	H383	0.044700	0.984900	0.323000
H3841	H384	0.069500	0.977500	0.186200
N981	N98	0.135100	0.096170	0.443700
H3851	H385	0.161300	0.096600	0.393000
C1931	C193	0.085900	0.106290	0.396400
H3861	H386	0.088100	0.108700	0.304800
H3871	H387	0.059100	0.092800	0.413800
C1941	C194	0.071900	0.132530	0.455800
H3881	H388	0.095700	0.146900	0.451600
C1951	C195	0.028500	0.136840	0.513400
H3891	H389	0.004000	0.122800	0.519100
H3901	H390	0.021700	0.154000	0.549400
N991	N99	0.235800	0.034940	0.398900
H3911	H391	0.220500	0.026700	0.336600
C1961	C196	0.288200	0.044730	0.380700
H3921	H392	0.309000	0.038800	0.452600
H3931	H393	0.302300	0.036100	0.304900
C1971	C197	0.293400	0.074930	0.367300
H3941	H394	0.266500	0.084400	0.327400
C1981	C198	0.332700	0.089090	0.407200
H3951	H395	0.360300	0.080300	0.447500
H3961	H396	0.333500	0.108100	0.395600
Ag341	Ag34	0.035760	0.577590	0.267890
Ag351	Ag35	0.146030	0.492790	0.855100
Ag361	Ag36	0.269000	0.593790	0.064020
P341	P34	0.096240	0.534090	0.062820
N1001	N100	0.098850	0.563940	0.122300
P351	P35	0.143840	0.584210	0.083280
N1011	N101	0.150420	0.524780	0.001300
P361	P36	0.204720	0.538830	0.030590
N1021	N102	0.198350	0.569170	0.082400
N1031	N103	0.073800	0.514690	0.173600
H3971	H397	0.052600	0.501600	0.154000
C1991	C199	0.088100	0.518460	0.303400
H3981	H398	0.094600	0.500500	0.340900
H3991	H399	0.120200	0.528800	0.306400
C2001	C200	0.049200	0.532830	0.381500
H4001	H400	0.060400	0.540500	0.457900
C2011	C201	0.001700	0.535520	0.353000
H4011	H401	0.989000	0.528100	0.277300
H4021	H402	0.979400	0.544900	0.407600
N1041	N104	0.142900	0.609050	0.182000
H4031	H403	0.141800	0.625700	0.153800
C2021	C202	0.143900	0.604310	0.318100
H4041	H404	0.155400	0.585600	0.334300
H4051	H405	0.168900	0.616700	0.356900
C2031	C203	0.092700	0.608540	0.378400
H4061	H406	0.087700	0.599900	0.456600
C2041	C204	0.054600	0.622480	0.336900
H4071	H407	0.057200	0.631600	0.259200
H4081	H408	0.024100	0.623600	0.384100
N1051	N105	0.242510	0.524210	0.131100
H4091	H409	0.265400	0.512800	0.103000
C2051	C205	0.240200	0.529210	0.264500
H4101	H410	0.212200	0.542100	0.281300
H4111	H411	0.231800	0.512100	0.307400
C2061	C206	0.288900	0.540420	0.320400
H4121	H412	0.289400	0.543200	0.408100
C2071	C207	0.330700	0.546610	0.257100
H4131	H413	0.331800	0.544100	0.169200
H4141	H414	0.359500	0.553500	0.299800
N1061	N106	0.054000	0.529360	0.952600
H4151	H415	0.025400	0.521000	0.969900
C2081	C208	0.063600	0.538960	0.825300
H4161	H416	0.033700	0.549300	0.796600
H4171	H417	0.093000	0.551400	0.827000
C2091	C209	0.074300	0.516730	0.732100
H4181	H418	0.091200	0.521500	0.656800
C2101	C210	0.061600	0.490370	0.748800
H4191	H419	0.044700	0.484900	0.823000
H4201	H420	0.069500	0.477500	0.686200
N1071	N107	0.135100	0.596170	0.943700
H4211	H421	0.161300	0.596600	0.893000
C2111	C211	0.085900	0.606290	0.896400
H4221	H422	0.088100	0.608700	0.804800
H4231	H423	0.059100	0.592800	0.913800
C2121	C212	0.071900	0.632530	0.955800
H4241	H424	0.095700	0.646900	0.951600
C2131	C213	0.028500	0.636840	0.013400
H4251	H425	0.004000	0.622800	0.019100
H4261	H426	0.021700	0.654000	0.049400
N1081	N108	0.235800	0.534940	0.898900
H4271	H427	0.220500	0.526700	0.836600
C2141	C214	0.288200	0.544730	0.880700
H4281	H428	0.309000	0.538800	0.952600
H4291	H429	0.302300	0.536100	0.804900
C2151	C215	0.293400	0.574930	0.867300
H4301	H430	0.266500	0.584400	0.827400
C2161	C216	0.332700	0.589090	0.907200
H4311	H431	0.360300	0.580300	0.947500
H4321	H432	0.333500	0.608100	0.895600
Ag371	Ag37	0.964240	0.422410	0.267890
Ag381	Ag38	0.853970	0.507210	0.855100
Ag391	Ag39	0.731000	0.406210	0.064020
P371	P37	0.903760	0.465910	0.062820
N1091	N109	0.901150	0.436060	0.122300
P381	P38	0.856160	0.415790	0.083280
N1101	N110	0.849580	0.475220	0.001300
P391	P39	0.795280	0.461170	0.030590
N1111	N111	0.801650	0.430830	0.082400
N1121	N112	0.926200	0.485310	0.173600
H4331	H433	0.947400	0.498400	0.154000
C2171	C217	0.911900	0.481540	0.303400
H4341	H434	0.905400	0.499500	0.340900
H4351	H435	0.879800	0.471200	0.306400
C2181	C218	0.950800	0.467170	0.381500
H4361	H436	0.939600	0.459500	0.457900
C2191	C219	0.998300	0.464480	0.353000
H4371	H437	0.011000	0.471900	0.277300
H4381	H438	0.020600	0.455100	0.407600
N1131	N113	0.857100	0.390950	0.182000
H4391	H439	0.858200	0.374300	0.153800
C2201	C220	0.856100	0.395690	0.318100
H4401	H440	0.844600	0.414400	0.334300
H4411	H441	0.831100	0.383300	0.356900
C2211	C221	0.907300	0.391460	0.378400
H4421	H442	0.912300	0.400100	0.456600
C2221	C222	0.945400	0.377520	0.336900
H4431	H443	0.942800	0.368400	0.259200
H4441	H444	0.975900	0.376400	0.384100
N1141	N114	0.757490	0.475790	0.131100
H4451	H445	0.734600	0.487200	0.103000
C2231	C223	0.759800	0.470790	0.264500
H4461	H446	0.787800	0.457900	0.281300
H4471	H447	0.768200	0.487900	0.307400
C2241	C224	0.711100	0.459580	0.320400
H4481	H448	0.710600	0.456800	0.408100
C2251	C225	0.669300	0.453390	0.257100
H4491	H449	0.668200	0.455900	0.169200
H4501	H450	0.640500	0.446500	0.299800
N1151	N115	0.946000	0.470640	0.952600
H4511	H451	0.974600	0.479000	0.969900
C2261	C226	0.936400	0.461040	0.825300
H4521	H452	0.966300	0.450700	0.796600
H4531	H453	0.907000	0.448600	0.827000
C2271	C227	0.925700	0.483270	0.732100
H4541	H454	0.908800	0.478500	0.656800
C2281	C228	0.938400	0.509630	0.748800
H4551	H455	0.955300	0.515100	0.823000
H4561	H456	0.930500	0.522500	0.686200
N1161	N116	0.864900	0.403830	0.943700
H4571	H457	0.838700	0.403400	0.893000
C2291	C229	0.914100	0.393710	0.896400
H4581	H458	0.911900	0.391300	0.804800
H4591	H459	0.940900	0.407200	0.913800
C2301	C230	0.928100	0.367470	0.955800
H4601	H460	0.904300	0.353100	0.951600
C2311	C231	0.971500	0.363160	0.013400
H4611	H461	0.996000	0.377200	0.019100
H4621	H462	0.978300	0.346000	0.049400
N1171	N117	0.764200	0.465060	0.898900
H4631	H463	0.779500	0.473300	0.836600
C2321	C232	0.711800	0.455270	0.880700
H4641	H464	0.691000	0.461200	0.952600
H4651	H465	0.697700	0.463900	0.804900
C2331	C233	0.706600	0.425070	0.867300
H4661	H466	0.733500	0.415600	0.827400
C2341	C234	0.667300	0.410910	0.907200
H4671	H467	0.639700	0.419700	0.947500
H4681	H468	0.666500	0.391900	0.895600
Ag401	Ag40	0.964240	0.922410	0.767890
Ag411	Ag41	0.853970	0.007210	0.355100
Ag421	Ag42	0.731000	0.906210	0.564020
P401	P40	0.903760	0.965910	0.562820
N1181	N118	0.901150	0.936060	0.622300
P411	P41	0.856160	0.915790	0.583280
N1191	N119	0.849580	0.975220	0.501300
P421	P42	0.795280	0.961170	0.530590
N1201	N120	0.801650	0.930830	0.582400
N1211	N121	0.926200	0.985310	0.673600
H4691	H469	0.947400	0.998400	0.654000
C2351	C235	0.911900	0.981540	0.803400
H4701	H470	0.905400	0.999500	0.840900
H4711	H471	0.879800	0.971200	0.806400
C2361	C236	0.950800	0.967170	0.881500
H4721	H472	0.939600	0.959500	0.957900
C2371	C237	0.998300	0.964480	0.853000
H4731	H473	0.011000	0.971900	0.777300
H4741	H474	0.020600	0.955100	0.907600
N1221	N122	0.857100	0.890950	0.682000
H4751	H475	0.858200	0.874300	0.653800
C2381	C238	0.856100	0.895690	0.818100
H4761	H476	0.844600	0.914400	0.834300
H4771	H477	0.831100	0.883300	0.856900
C2391	C239	0.907300	0.891460	0.878400
H4781	H478	0.912300	0.900100	0.956600
C2401	C240	0.945400	0.877520	0.836900
H4791	H479	0.942800	0.868400	0.759200
H4801	H480	0.975900	0.876400	0.884100
N1231	N123	0.757490	0.975790	0.631100
H4811	H481	0.734600	0.987200	0.603000
C2411	C241	0.759800	0.970790	0.764500
H4821	H482	0.787800	0.957900	0.781300
H4831	H483	0.768200	0.987900	0.807400
C2421	C242	0.711100	0.959580	0.820400
H4841	H484	0.710600	0.956800	0.908100
C2431	C243	0.669300	0.953390	0.757100
H4851	H485	0.668200	0.955900	0.669200
H4861	H486	0.640500	0.946500	0.799800
N1241	N124	0.946000	0.970640	0.452600
H4871	H487	0.974600	0.979000	0.469900
C2441	C244	0.936400	0.961040	0.325300
H4881	H488	0.966300	0.950700	0.296600
H4891	H489	0.907000	0.948600	0.327000
C2451	C245	0.925700	0.983270	0.232100
H4901	H490	0.908800	0.978500	0.156800
C2461	C246	0.938400	0.009630	0.248800
H4911	H491	0.955300	0.015100	0.323000
H4921	H492	0.930500	0.022500	0.186200
N1251	N125	0.864900	0.903830	0.443700
H4931	H493	0.838700	0.903400	0.393000
C2471	C247	0.914100	0.893710	0.396400
H4941	H494	0.911900	0.891300	0.304800
H4951	H495	0.940900	0.907200	0.413800
C2481	C248	0.928100	0.867470	0.455800
H4961	H496	0.904300	0.853100	0.451600
C2491	C249	0.971500	0.863160	0.513400
H4971	H497	0.996000	0.877200	0.519100
H4981	H498	0.978300	0.846000	0.549400
N1261	N126	0.764200	0.965060	0.398900
H4991	H499	0.779500	0.973300	0.336600
C2501	C250	0.711800	0.955270	0.380700
H5001	H500	0.691000	0.961200	0.452600
H5011	H501	0.697700	0.963900	0.304900
C2511	C251	0.706600	0.925070	0.367300
H5021	H502	0.733500	0.915600	0.327400
C2521	C252	0.667300	0.910910	0.407200
H5031	H503	0.639700	0.919700	0.447500
H5041	H504	0.666500	0.891900	0.395600
Ag431	Ag43	0.464240	0.422410	0.767890
Ag441	Ag44	0.353970	0.507210	0.355100
Ag451	Ag45	0.231000	0.406210	0.564020
P431	P43	0.403760	0.465910	0.562820
N1271	N127	0.401150	0.436060	0.622300
P441	P44	0.356160	0.415790	0.583280
N1281	N128	0.349580	0.475220	0.501300
P451	P45	0.295280	0.461170	0.530590
N1291	N129	0.301650	0.430830	0.582400
N1301	N130	0.426200	0.485310	0.673600
H5051	H505	0.447400	0.498400	0.654000
C2531	C253	0.411900	0.481540	0.803400
H5061	H506	0.405400	0.499500	0.840900
H5071	H507	0.379800	0.471200	0.806400
C2541	C254	0.450800	0.467170	0.881500
H5081	H508	0.439600	0.459500	0.957900
C2551	C255	0.498300	0.464480	0.853000
H5091	H509	0.511000	0.471900	0.777300
H5101	H510	0.520600	0.455100	0.907600
N1311	N131	0.357100	0.390950	0.682000
H5111	H511	0.358200	0.374300	0.653800
C2561	C256	0.356100	0.395690	0.818100
H5121	H512	0.344600	0.414400	0.834300
H5131	H513	0.331100	0.383300	0.856900
C2571	C257	0.407300	0.391460	0.878400
H5141	H514	0.412300	0.400100	0.956600
C2581	C258	0.445400	0.377520	0.836900
H5151	H515	0.442800	0.368400	0.759200
H5161	H516	0.475900	0.376400	0.884100
N1321	N132	0.257490	0.475790	0.631100
H5171	H517	0.234600	0.487200	0.603000
C2591	C259	0.259800	0.470790	0.764500
H5181	H518	0.287800	0.457900	0.781300
H5191	H519	0.268200	0.487900	0.807400
C2601	C260	0.211100	0.459580	0.820400
H5201	H520	0.210600	0.456800	0.908100
C2611	C261	0.169300	0.453390	0.757100
H5211	H521	0.168200	0.455900	0.669200
H5221	H522	0.140500	0.446500	0.799800
N1331	N133	0.446000	0.470640	0.452600
H5231	H523	0.474600	0.479000	0.469900
C2621	C262	0.436400	0.461040	0.325300
H5241	H524	0.466300	0.450700	0.296600
H5251	H525	0.407000	0.448600	0.327000
C2631	C263	0.425700	0.483270	0.232100
H5261	H526	0.408800	0.478500	0.156800
C2641	C264	0.438400	0.509630	0.248800
H5271	H527	0.455300	0.515100	0.323000
H5281	H528	0.430500	0.522500	0.186200
N1341	N134	0.364900	0.403830	0.443700
H5291	H529	0.338700	0.403400	0.393000
C2651	C265	0.414100	0.393710	0.396400
H5301	H530	0.411900	0.391300	0.304800
H5311	H531	0.440900	0.407200	0.413800
C2661	C266	0.428100	0.367470	0.455800
H5321	H532	0.404300	0.353100	0.451600
C2671	C267	0.471500	0.363160	0.513400
H5331	H533	0.496000	0.377200	0.519100
H5341	H534	0.478300	0.346000	0.549400
N1351	N135	0.264200	0.465060	0.398900
H5351	H535	0.279500	0.473300	0.336600
C2681	C268	0.211800	0.455270	0.380700
H5361	H536	0.191000	0.461200	0.452600
H5371	H537	0.197700	0.463900	0.304900
C2691	C269	0.206600	0.425070	0.367300
H5381	H538	0.233500	0.415600	0.327400
C2701	C270	0.167300	0.410910	0.407200
H5391	H539	0.139700	0.419700	0.447500
H5401	H540	0.166500	0.391900	0.395600
Ag461	Ag46	0.464240	0.922410	0.267890
Ag471	Ag47	0.353970	0.007210	0.855100
Ag481	Ag48	0.231000	0.906210	0.064020
P461	P46	0.403760	0.965910	0.062820
N1361	N136	0.401150	0.936060	0.122300
P471	P47	0.356160	0.915790	0.083280
N1371	N137	0.349580	0.975220	0.001300
P481	P48	0.295280	0.961170	0.030590
N1381	N138	0.301650	0.930830	0.082400
N1391	N139	0.426200	0.985310	0.173600
H5411	H541	0.447400	0.998400	0.154000
C2711	C271	0.411900	0.981540	0.303400
H5421	H542	0.405400	0.999500	0.340900
H5431	H543	0.379800	0.971200	0.306400
C2721	C272	0.450800	0.967170	0.381500
H5441	H544	0.439600	0.959500	0.457900
C2731	C273	0.498300	0.964480	0.353000
H5451	H545	0.511000	0.971900	0.277300
H5461	H546	0.520600	0.955100	0.407600
N1401	N140	0.357100	0.890950	0.182000
H5471	H547	0.358200	0.874300	0.153800
C2741	C274	0.356100	0.895690	0.318100
H5481	H548	0.344600	0.914400	0.334300
H5491	H549	0.331100	0.883300	0.356900
C2751	C275	0.407300	0.891460	0.378400
H5501	H550	0.412300	0.900100	0.456600
C2761	C276	0.445400	0.877520	0.336900
H5511	H551	0.442800	0.868400	0.259200
H5521	H552	0.475900	0.876400	0.384100
N1411	N141	0.257490	0.975790	0.131100
H5531	H553	0.234600	0.987200	0.103000
C2771	C277	0.259800	0.970790	0.264500
H5541	H554	0.287800	0.957900	0.281300
H5551	H555	0.268200	0.987900	0.307400
C2781	C278	0.211100	0.959580	0.320400
H5561	H556	0.210600	0.956800	0.408100
C2791	C279	0.169300	0.953390	0.257100
H5571	H557	0.168200	0.955900	0.169200
H5581	H558	0.140500	0.946500	0.299800
N1421	N142	0.446000	0.970640	0.952600
H5591	H559	0.474600	0.979000	0.969900
C2801	C280	0.436400	0.961040	0.825300
H5601	H560	0.466300	0.950700	0.796600
H5611	H561	0.407000	0.948600	0.827000
C2811	C281	0.425700	0.983270	0.732100
H5621	H562	0.408800	0.978500	0.656800
C2821	C282	0.438400	0.009630	0.748800
H5631	H563	0.455300	0.015100	0.823000
H5641	H564	0.430500	0.022500	0.686200
N1431	N143	0.364900	0.903830	0.943700
H5651	H565	0.338700	0.903400	0.893000
C2831	C283	0.414100	0.893710	0.896400
H5661	H566	0.411900	0.891300	0.804800
H5671	H567	0.440900	0.907200	0.913800
C2841	C284	0.428100	0.867470	0.955800
H5681	H568	0.404300	0.853100	0.951600
C2851	C285	0.471500	0.863160	0.013400
H5691	H569	0.496000	0.877200	0.019100
H5701	H570	0.478300	0.846000	0.049400
N1441	N144	0.264200	0.965060	0.898900
H5711	H571	0.279500	0.973300	0.836600
C2861	C286	0.211800	0.955270	0.880700
H5721	H572	0.191000	0.961200	0.952600
H5731	H573	0.197700	0.963900	0.804900
C2871	C287	0.206600	0.925070	0.867300
H5741	H574	0.233500	0.915600	0.827400
C2881	C288	0.167300	0.910910	0.907200
H5751	H575	0.139700	0.919700	0.947500
H5761	H576	0.166500	0.891900	0.895600
