data_cm1008587_si_003_clean_PM
_symmetry_space_group_name_H-M	'P1'
_cell_length_a	6.889000
_cell_length_b	11.109300
_cell_length_c	11.109300
_cell_angle_alpha	119.604000
_cell_angle_beta	106.346000
_cell_angle_gamma	73.654000
_symmetry_Int_Tables_number 1

loop_
_symmetry_equiv_pos_as_xyz
'x,y,z'

loop_
_atom_site_label
_atom_site_type_symbol
_atom_site_fract_x
_atom_site_fract_y
_atom_site_fract_z
Fe11	Fe1	0.000000	0.000000	0.000000
Fe21	Fe2	0.500000	0.000000	0.000000
H11	H1	0.218600	0.599100	0.958300
H21	H2	0.656200	0.608800	0.017000
H31	H3	0.156200	0.983000	0.391200
H41	H4	0.718600	0.041700	0.400900
H51	H5	0.781400	0.400900	0.041700
H61	H6	0.343800	0.391200	0.983000
H71	H7	0.843800	0.017000	0.608800
H81	H8	0.281400	0.958300	0.599100
C11	C1	0.799500	0.563500	0.009900
C21	C2	0.200500	0.436500	0.990100
C31	C3	0.927000	0.621200	0.985600
C41	C4	0.651300	0.970200	0.751200
C51	C5	0.299500	0.990100	0.436500
C61	C6	0.700500	0.009900	0.563500
C71	C7	0.073000	0.378800	0.014400
C81	C8	0.151300	0.248800	0.029800
C91	C9	0.848700	0.751200	0.970200
C101	C10	0.127500	0.557700	0.975700
C111	C11	0.573000	0.985600	0.621200
C121	C12	0.372500	0.975700	0.557700
C131	C13	0.348700	0.029800	0.248800
C141	C14	0.627500	0.024300	0.442300
C151	C15	0.427000	0.014400	0.378800
C161	C16	0.872500	0.442300	0.024300
O11	O1	0.967200	0.805200	0.948600
O21	O2	0.837500	0.978600	0.809600
O31	O3	0.162500	0.021400	0.190400
O41	O4	0.250000	0.909200	0.909200
O51	O5	0.662500	0.809600	0.978600
O61	O6	0.532800	0.948600	0.805200
O71	O7	0.467200	0.051400	0.194800
O81	O8	0.750000	0.090800	0.090800
O91	O9	0.032800	0.194800	0.051400
O101	O10	0.337500	0.190400	0.021400
