data_cm500700z_si_003_clean_PM
_symmetry_space_group_name_H-M	'P1'
_cell_length_a	29.012800
_cell_length_b	29.012900
_cell_length_c	29.012900
_cell_angle_alpha	72.188800
_cell_angle_beta	72.188900
_cell_angle_gamma	112.845000
_symmetry_Int_Tables_number 1

loop_
_symmetry_equiv_pos_as_xyz
'x,y,z'

loop_
_atom_site_label
_atom_site_type_symbol
_atom_site_fract_x
_atom_site_fract_y
_atom_site_fract_z
In11	In1	0.837980	0.771240	0.143980
In21	In2	0.362370	0.343550	0.226740
In31	In3	0.040220	0.374500	0.380120
In41	In4	0.084780	0.518040	0.643980
In51	In5	0.137630	0.410890	0.518820
In61	In6	0.745380	0.125500	0.334280
In71	In7	0.070290	0.843550	0.018820
In81	In8	0.570290	0.089110	0.273260
In91	In9	0.245380	0.079660	0.880120
In101	In10	0.959780	0.625500	0.619880
In111	In11	0.754620	0.920340	0.119880
In121	In12	0.162020	0.228760	0.856020
In131	In13	0.540220	0.420340	0.834280
In141	In14	0.929710	0.156450	0.981180
In151	In15	0.254620	0.874500	0.665720
In161	In16	0.415220	0.271240	0.066740
In171	In17	0.429710	0.910890	0.726740
In181	In18	0.337980	0.981960	0.433260
In191	In19	0.915220	0.481960	0.356020
In201	In20	0.662020	0.018040	0.566740
In211	In21	0.459780	0.579660	0.165720
In221	In22	0.637630	0.656450	0.773260
In231	In23	0.862370	0.589110	0.481180
In241	In24	0.584780	0.728760	0.933260
H11	H1	0.358400	0.815500	0.228500
H21	H2	0.071000	0.833400	0.507400
H31	H3	0.459100	0.056300	0.178600
H41	H4	0.021000	0.869800	0.341800
H51	H5	0.054600	0.836100	0.709700
H61	H6	0.501400	0.857800	0.076000
H71	H7	0.621200	0.688400	0.517400
H81	H8	0.353600	0.313100	0.729500
H91	H9	0.840500	0.908400	0.534100
H101	H10	0.341300	0.524900	0.431200
H111	H11	0.294200	0.811600	0.067200
H121	H12	0.367700	0.936200	0.967500
H131	H13	0.713400	0.030100	0.726900
H141	H14	0.544000	0.315500	0.542900
H151	H15	0.773000	0.503200	0.141200
H161	H16	0.863500	0.856300	0.777400
H171	H17	0.615100	0.958400	0.964100
H181	H18	0.479000	0.637200	0.651200
H191	H19	0.581800	0.204300	0.791100
H201	H20	0.914100	0.408800	0.003100
H211	H21	0.240100	0.086200	0.430500
H221	H22	0.132700	0.033500	0.640400
H231	H23	0.426200	0.498400	0.585400
H241	H24	0.259900	0.329400	0.653900
H251	H25	0.853600	0.083100	0.459500
H261	H26	0.794200	0.361400	0.017400
H271	H27	0.018000	0.430400	0.070200
H281	H28	0.077500	0.920800	0.464100
H291	H29	0.554600	0.764300	0.281500
H301	H30	0.504600	0.295700	0.622500
H311	H31	0.543900	0.975100	0.183600
H321	H32	0.288400	0.630200	0.848800
H331	H33	0.583800	0.709700	0.479300
H341	H34	0.265100	0.443700	0.597200
H351	H35	0.442500	0.874600	0.965900
H361	H36	0.227000	0.496800	0.858800
H371	H37	0.495400	0.704300	0.377500
H381	H38	0.740100	0.670600	0.346100
H391	H39	0.136500	0.143700	0.222600
H401	H40	0.476900	0.371200	0.294900
H411	H41	0.145900	0.053900	0.381000
H421	H42	0.765400	0.801100	0.828500
H431	H43	0.434900	0.026900	0.119000
H441	H44	0.934900	0.553900	0.092000
H451	H45	0.115100	0.579200	0.843300
H461	H46	0.995400	0.872900	0.708900
H471	H47	0.251300	0.736700	0.928800
H481	H48	0.691300	0.833100	0.304600
H491	H49	0.334500	0.319900	0.428800
H501	H50	0.066200	0.922600	0.576000
H511	H51	0.506800	0.933800	0.136000
H521	H52	0.083800	0.511600	0.914600
H531	H53	0.445400	0.235700	0.718500
H541	H54	0.191300	0.995900	0.641800
H551	H55	0.998600	0.422600	0.143600
H561	H56	0.566200	0.642200	0.356400
H571	H57	0.403700	0.436200	0.431500
H581	H58	0.057500	0.591600	0.067900
H591	H59	0.663800	0.017100	0.085900
H601	H60	0.979000	0.130200	0.658200
H611	H61	0.666100	0.271800	0.205100
H621	H62	0.959100	0.637700	0.097200
H631	H63	0.308700	0.166900	0.695400
H641	H64	0.435500	0.622300	0.602200
H651	H65	0.234600	0.198900	0.171500
H661	H66	0.265400	0.593900	0.535700
H671	H67	0.811000	0.436900	0.979300
H681	H68	0.498600	0.142200	0.924000
H691	H69	0.456000	0.684500	0.457100
H701	H70	0.911900	0.908800	0.505300
H711	H71	0.646400	0.686900	0.270500
H721	H72	0.499400	0.411800	0.570200
H731	H73	0.411900	0.417200	0.496900
H741	H74	0.957400	0.416900	0.229500
H751	H75	0.836200	0.250300	0.146700
H761	H76	0.641600	0.184500	0.771500
H771	H77	0.840800	0.333400	0.237600
H781	H78	0.585900	0.082800	0.005300
H791	H79	0.858400	0.586900	0.957100
H801	H80	0.103000	0.249700	0.414100
H811	H81	0.040900	0.362300	0.902800
H821	H82	0.573800	0.501600	0.414600
H831	H83	0.956000	0.913100	0.728500
H841	H84	0.930200	0.857200	0.636000
H851	H85	0.982000	0.569600	0.929800
H861	H86	0.004600	0.127100	0.291100
H871	H87	0.224500	0.537700	0.897800
H881	H88	0.159500	0.091600	0.465900
H891	H89	0.862300	0.504100	0.804600
H901	H90	0.878800	0.861400	0.432800
H911	H91	0.363500	0.640900	0.492800
H921	H92	0.158700	0.227500	0.316400
H931	H93	0.189000	0.563100	0.020700
H941	H94	0.129600	0.301100	0.964300
H951	H95	0.133700	0.356300	0.007200
H961	H96	0.855600	0.996800	0.730200
H971	H97	0.748700	0.263300	0.071200
H981	H98	0.870400	0.698900	0.035700
H991	H99	0.213400	0.440300	0.816700
H1001	H100	0.542600	0.813100	0.040500
H1011	H101	0.088100	0.091200	0.494700
H1021	H102	0.929000	0.166600	0.492600
H1031	H103	0.596300	0.563800	0.568500
H1041	H104	0.173900	0.533500	0.099200
H1051	H105	0.500600	0.588200	0.429800
H1061	H106	0.454200	0.735700	0.209700
H1071	H107	0.234900	0.137700	0.321400
H1081	H108	0.922500	0.079200	0.535900
H1091	H109	0.211600	0.862800	0.158200
H1101	H110	0.788400	0.137200	0.841800
H1111	H111	0.416200	0.290300	0.520700
H1121	H112	0.711600	0.369800	0.151200
H1131	H113	0.518000	0.088200	0.912400
H1141	H114	0.633700	0.140900	0.722600
H1151	H115	0.933800	0.077400	0.424000
H1161	H116	0.493200	0.066200	0.864000
H1171	H117	0.065100	0.446100	0.908000
H1181	H118	0.248700	0.819900	0.014600
H1191	H119	0.045800	0.336100	0.218500
H1201	H120	0.418200	0.795700	0.208900
H1211	H121	0.743000	0.469900	0.316700
H1221	H122	0.983300	0.413800	0.846100
H1231	H123	0.942500	0.408400	0.932100
H1241	H124	0.557500	0.125400	0.034100
H1251	H125	0.137700	0.495900	0.195400
H1261	H126	0.999400	0.069600	0.412400
H1271	H127	0.132300	0.664800	0.931500
H1281	H128	0.765100	0.862300	0.678600
H1291	H129	0.001400	0.577400	0.856400
H1301	H130	0.569800	0.433800	0.573000
H1311	H131	0.146400	0.916900	0.540500
H1321	H132	0.751300	0.180100	0.985400
H1331	H133	0.073800	0.988400	0.427800
H1341	H134	0.945400	0.163900	0.290300
H1351	H135	0.483300	0.829400	0.930500
H1361	H136	0.397000	0.482900	0.353300
H1371	H137	0.808700	0.004100	0.358200
H1381	H138	0.918200	0.627100	0.877500
H1391	H139	0.705800	0.188400	0.932800
H1401	H140	0.457400	0.186900	0.959500
H1411	H141	0.775500	0.462300	0.102200
H1421	H142	0.326100	0.726900	0.140400
H1431	H143	0.854100	0.946100	0.619000
H1441	H144	0.521000	0.362800	0.348800
H1451	H145	0.367300	0.226900	0.599200
H1461	H146	0.000600	0.930400	0.587600
H1471	H147	0.016700	0.586200	0.153900
H1481	H148	0.673900	0.273100	0.859600
H1491	H149	0.081800	0.372900	0.122500
H1501	H150	0.571000	0.578400	0.262400
H1511	H151	0.023100	0.228200	0.605700
H1521	H152	0.867300	0.966500	0.359600
H1531	H153	0.166100	0.871200	0.105700
H1541	H154	0.629600	0.093900	0.671500
H1551	H155	0.144400	0.003200	0.269800
H1561	H156	0.632700	0.773100	0.400800
H1571	H157	0.866300	0.643700	0.992800
H1581	H158	0.340500	0.374600	0.567900
H1591	H159	0.867700	0.335200	0.068500
H1601	H160	0.422500	0.458400	0.656700
H1611	H161	0.043900	0.727500	0.931200
H1621	H162	0.370400	0.906100	0.328500
H1631	H163	0.976900	0.771800	0.394300
H1641	H164	0.085900	0.591200	0.996900
H1651	H165	0.121200	0.138600	0.567200
H1661	H166	0.757000	0.940300	0.773100
H1671	H167	0.658700	0.475100	0.568800
H1681	H168	0.935500	0.037700	0.686800
H1691	H169	0.926200	0.011600	0.572200
H1701	H170	0.993200	0.357200	0.073000
H1711	H171	0.841300	0.772500	0.683600
H1721	H172	0.064500	0.962300	0.313200
H1731	H173	0.833900	0.128800	0.894300
H1741	H174	0.336200	0.982900	0.914100
H1751	H175	0.141600	0.413100	0.042900
H1761	H176	0.583800	0.998400	0.927800
H1771	H177	0.378800	0.311600	0.482600
H1781	H178	0.903700	0.835200	0.532500
H1791	H179	0.954200	0.663900	0.781500
H1801	H180	0.916200	0.488400	0.085400
H1811	H181	0.384900	0.041600	0.035900
H1821	H182	0.257000	0.530100	0.683300
H1831	H183	0.956100	0.272500	0.068800
H1841	H184	0.637700	0.333100	0.858200
H1851	H185	0.645900	0.526900	0.408000
H1861	H186	0.416200	0.001600	0.072200
H1871	H187	0.826100	0.466500	0.900800
H1881	H188	0.523100	0.628800	0.705100
H1891	H189	0.042600	0.583100	0.770500
H1901	H190	0.603000	0.517100	0.646700
H1911	H191	0.069800	0.142800	0.364000
H1921	H192	0.897000	0.750300	0.585900
H1931	H193	0.414100	0.917200	0.994700
H1941	H194	0.159200	0.666600	0.762400
H1951	H195	0.632300	0.063800	0.032500
H1961	H196	0.636500	0.359100	0.507200
H1971	H197	0.564500	0.377700	0.397800
H1981	H198	0.430200	0.566200	0.427000
H1991	H199	0.724500	0.122300	0.813200
H2001	H200	0.482000	0.911800	0.087600
H2011	H201	0.565100	0.973100	0.881000
H2021	H202	0.355600	0.585800	0.641200
H2031	H203	0.659200	0.921600	0.007400
H2041	H204	0.665500	0.680100	0.571200
H2051	H205	0.205800	0.638600	0.982600
H2061	H206	0.786600	0.559700	0.183300
H2071	H207	0.340800	0.078400	0.992600
H2081	H208	0.044000	0.086900	0.271500
H2091	H209	0.354100	0.473100	0.592000
H2101	H210	0.366300	0.859100	0.277400
H2111	H211	0.362300	0.666900	0.141800
H2121	H212	0.433800	0.357800	0.643600
H2131	H213	0.243000	0.059700	0.226900
H2141	H214	0.884900	0.420800	0.156700
H2151	H215	0.734900	0.556300	0.402800
H2161	H216	0.163800	0.749700	0.853300
H2171	H217	0.916200	0.936900	0.374100
H2181	H218	0.516700	0.170600	0.069500
H2191	H219	0.834500	0.763300	0.485400
H2201	H220	0.096300	0.164800	0.467500
H2211	H221	0.545800	0.264300	0.790300
H2221	H222	0.456100	0.024900	0.816400
H2231	H223	0.540900	0.943700	0.821400
H2241	H224	0.286600	0.969900	0.273100
H2251	H225	0.659500	0.625400	0.432100
H2261	H226	0.588100	0.582800	0.503100
H2271	H227	0.275500	0.877700	0.186800
H2281	H228	0.644400	0.414200	0.358800
H2291	H229	0.006800	0.642800	0.927000
H2301	H230	0.727000	0.085800	0.769800
H2311	H231	0.759900	0.913800	0.569500
H2321	H232	0.689000	0.209700	0.874100
H2331	H233	0.734600	0.406100	0.464300
H2341	H234	0.165500	0.236700	0.514600
H2351	H235	0.333900	0.728200	0.794900
H2361	H236	0.311000	0.790300	0.125900
H2371	H237	0.083800	0.063100	0.625900
H2381	H238	0.429000	0.421600	0.737600
H2391	H239	0.273000	0.914200	0.230200
H2401	H240	0.577500	0.541600	0.343300
C11	C1	0.242800	0.624900	0.920700
C21	C2	0.298700	0.467200	0.562300
C31	C3	0.589400	0.037500	0.970100
C41	C4	0.058400	0.956800	0.674600
C51	C5	0.741100	0.285100	0.087600
C61	C6	0.058200	0.380800	0.475600
C71	C7	0.896400	0.858200	0.643400
C81	C8	0.428300	0.734100	0.195800
C91	C9	0.947400	0.989000	0.461000
C101	C10	0.778800	0.923300	0.776300
C111	C11	0.856400	0.033800	0.024400
C121	C12	0.873700	0.529000	0.819300
C131	C13	0.537200	0.550200	0.296800
C141	C14	0.410600	0.962500	0.029900
C151	C15	0.016600	0.217300	0.452700
C161	C16	0.338700	0.797800	0.176500
C171	C17	0.012800	0.552900	0.151900
C181	C18	0.982600	0.500600	0.200200
C191	C19	0.135500	0.664800	0.897900
C201	C20	0.003400	0.457200	0.365800
C211	C21	0.116700	0.993500	0.654600
C221	C22	0.062700	0.164800	0.470700
C231	C23	0.650900	0.118900	0.722800
C241	C24	0.299200	0.317200	0.700200
C251	C25	0.035000	0.897900	0.695300
C261	C26	0.486400	0.334700	0.454500
C271	C27	0.780800	0.146000	0.871200
C281	C28	0.462800	0.449800	0.703200
C291	C29	0.850900	0.658500	0.057400
C301	C30	0.348300	0.193000	0.680700
C311	C31	0.381800	0.986200	0.004600
C321	C32	0.873600	0.693100	0.471300
C331	C33	0.429900	0.234100	0.694200
C341	C34	0.497800	0.852100	0.046500
C351	C35	0.241100	0.828700	0.044000
C361	C36	0.192200	0.859000	0.097800
C371	C37	0.295200	0.335300	0.651900
C381	C38	0.437300	0.466600	0.397900
C391	C39	0.710800	0.165300	0.848300
C401	C40	0.849100	0.626300	0.032000
C411	C41	0.749300	0.716300	0.246400
C421	C42	0.343200	0.362100	0.600700
C431	C43	0.649100	0.674400	0.303300
C441	C44	0.161300	0.484800	0.040900
C451	C45	0.830000	0.282700	0.200700
C461	C46	0.670000	0.969300	0.047300
C471	C47	0.337000	0.585200	0.619400
C481	C48	0.677800	0.114600	0.754000
C491	C49	0.150900	0.373700	0.968000
C501	C50	0.643600	0.119200	0.322600
C511	C51	0.721200	0.444900	0.355500
C521	C52	0.962800	0.166000	0.487000
C531	C53	0.840700	0.043200	0.075500
C541	C54	0.948900	0.399500	0.391600
C551	C55	0.045600	0.124900	0.617900
C561	C56	0.823000	0.869200	0.134200
C571	C57	0.438400	0.658100	0.175300
C581	C58	0.982800	0.848000	0.371200
C591	C59	0.043700	0.191700	0.892000
C601	C60	0.976700	0.724000	0.579100
C611	C61	0.105200	0.007900	0.524300
C621	C62	0.118200	0.613600	0.895600
C631	C63	0.205300	0.190500	0.312800
C641	C64	0.562700	0.533400	0.602100
C651	C65	0.974300	0.015200	0.323500
C661	C66	0.433300	0.492000	0.350500
C671	C67	0.731900	0.176200	0.924900
C681	C68	0.954300	0.589400	0.059300
C691	C69	0.626300	0.307000	0.844700
C701	C70	0.653000	0.949800	0.013000
C711	C71	0.098900	0.242100	0.554800
C721	C72	0.126300	0.471000	0.180700
C731	C73	0.612800	0.668000	0.881400
C741	C74	0.545700	0.986400	0.864900
C751	C75	0.351300	0.486400	0.559300
C761	C76	0.795400	0.543600	0.119400
C771	C77	0.470500	0.032800	0.168500
C781	C78	0.394800	0.370500	0.597300
C791	C79	0.503300	0.018100	0.187200
C801	C80	0.470900	0.948500	0.787000
C811	C81	0.204800	0.052900	0.459900
C821	C82	0.307800	0.710000	0.833200
C831	C83	0.300400	0.944900	0.276300
C841	C84	0.967800	0.492100	0.902700
C851	C85	0.148100	0.493500	0.123200
C861	C86	0.498400	0.960200	0.143400
C871	C87	0.906800	0.602100	0.862900
C881	C88	0.561600	0.341900	0.824700
C891	C89	0.518900	0.983300	0.173000
C901	C90	0.112800	0.494200	0.555200
C911	C91	0.549400	0.994200	0.618600
C921	C92	0.529500	0.967200	0.831500
C931	C93	0.868600	0.931800	0.746000
C941	C94	0.900000	0.909300	0.624700
C951	C95	0.174600	0.365700	0.886300
C961	C96	0.881800	0.386400	0.104400
C971	C97	0.317500	0.850300	0.212800
C981	C98	0.458800	0.471700	0.655100
C991	C99	0.264500	0.242100	0.287000
C1001	C100	0.509200	0.513800	0.604400
C1011	C101	0.383300	0.228700	0.623200
C1021	C102	0.456300	0.064300	0.352000
C1031	C103	0.296900	0.742100	0.856800
C1041	C104	0.916300	0.564300	0.392000
C1051	C105	0.387200	0.332000	0.118600
C1061	C106	0.350900	0.908300	0.307600
C1071	C107	0.252000	0.560900	0.613700
C1081	C108	0.118700	0.416200	0.424500
C1091	C109	0.552600	0.591600	0.458400
C1101	C110	0.992400	0.940500	0.470100
C1111	C111	0.847000	0.334000	0.203200
C1121	C112	0.406800	0.769700	0.195300
C1131	C113	0.901100	0.757900	0.445200
C1141	C114	0.951300	0.536500	0.007800
C1151	C115	0.550000	0.091600	0.961000
C1161	C116	0.938400	0.613700	0.719700
C1171	C117	0.941800	0.619200	0.524400
C1181	C118	0.600000	0.475300	0.490700
C1191	C119	0.911600	0.587200	0.784200
C1201	C120	0.294700	0.481900	0.514800
C1211	C121	0.034000	0.409300	0.990700
C1221	C122	0.149100	0.341500	0.942600
C1231	C123	0.929900	0.124100	0.304200
C1241	C124	0.522300	0.825600	0.025300
C1251	C125	0.182500	0.469700	0.967200
C1261	C126	0.958800	0.113900	0.512900
C1271	C127	0.601100	0.676200	0.555700
C1281	C128	0.411600	0.695800	0.175600
C1291	C129	0.618700	0.543200	0.797500
C1301	C130	0.312800	0.175400	0.152200
C1311	C131	0.351900	0.728700	0.154600
C1321	C132	0.601400	0.647900	0.354300
C1331	C133	0.364500	0.966600	0.970700
C1341	C134	0.156800	0.056100	0.481100
C1351	C135	0.496600	0.630800	0.046200
C1361	C136	0.203100	0.846300	0.054800
C1371	C137	0.558400	0.733000	0.398400
C1381	C138	0.838700	0.515200	0.959100
C1391	C139	0.462700	0.216300	0.033000
C1401	C140	0.088400	0.412800	0.215800
C1411	C141	0.812800	0.465000	0.362600
C1421	C142	0.822200	0.568200	0.063200
C1431	C143	0.825400	0.634300	0.113700
C1441	C144	0.873200	0.386100	0.155100
C1451	C145	0.196900	0.776000	0.747300
C1461	C146	0.583700	0.691700	0.852000
C1471	C147	0.658300	0.381100	0.468000
C1481	C148	0.231900	0.656800	0.944300
C1491	C149	0.335600	0.806900	0.819500
C1501	C150	0.448900	0.340500	0.950600
C1511	C151	0.049400	0.168000	0.944800
C1521	C152	0.588400	0.304200	0.824400
C1531	C153	0.465000	0.269700	0.637100
C1541	C154	0.347000	0.050200	0.987000
C1551	C155	0.481100	0.016700	0.827000
C1561	C156	0.450000	0.908400	0.039000
C1571	C157	0.794700	0.809500	0.687200
C1581	C158	0.635500	0.033400	0.029300
C1591	C159	0.851900	0.506500	0.876800
C1601	C160	0.981100	0.308100	0.035600
C1611	C161	0.512800	0.164700	0.040100
C1621	C162	0.164400	0.844900	0.028700
C1631	C163	0.029500	0.361000	0.937700
C1641	C164	0.616700	0.771300	0.376800
C1651	C165	0.571700	0.265900	0.804200
C1661	C166	0.003300	0.690500	0.014800
C1671	C167	0.605200	0.629500	0.402700
C1681	C168	0.025700	0.984800	0.676500
C1691	C169	0.289200	0.834700	0.151700
C1701	C170	0.663000	0.414800	0.380600
C1711	C171	0.466000	0.975300	0.124700
C1721	C172	0.598900	0.653700	0.643200
C1731	C173	0.936900	0.969700	0.712800
C1741	C174	0.037200	0.556100	0.100700
C1751	C175	0.029100	0.742100	0.022400
C1761	C176	0.013600	0.059100	0.651700
C1771	C177	0.341700	0.618900	0.532000
C1781	C178	0.835600	0.155100	0.971300
C1791	C179	0.955700	0.963500	0.585200
C1801	C180	0.701300	0.532800	0.437700
C1811	C181	0.235500	0.448500	0.522400
C1821	C182	0.398900	0.323800	0.444300
C1831	C183	0.898900	0.843200	0.424900
C1841	C184	0.956800	0.790000	0.402200
C1851	C185	0.657500	0.008000	0.058700
C1861	C186	0.210800	0.559100	0.954500
C1871	C187	0.651700	0.807000	0.319300
C1881	C188	0.937300	0.835200	0.529300
C1891	C189	0.764500	0.551500	0.477600
C1901	C190	0.997800	0.544300	0.854300
C1911	C191	0.656300	0.483300	0.535600
C1921	C192	0.303100	0.055800	0.920900
C1931	C193	0.373600	0.344900	0.319500
C1941	C194	0.201300	0.139000	0.331500
C1951	C195	0.456800	0.359000	0.333200
C1961	C196	0.750700	0.004300	0.533000
C1971	C197	0.151700	0.971000	0.655300
C1981	C198	0.628600	0.804200	0.284200
C1991	C199	0.447400	0.408400	0.541600
C2001	C200	0.258900	0.714900	0.912400
C2011	C201	0.965000	0.102100	0.304700
C2021	C202	0.017200	0.152000	0.628800
C2031	C203	0.368600	0.767000	0.174600
C2041	C204	0.649100	0.091700	0.692400
C2051	C205	0.833400	0.113700	0.324700
C2061	C206	0.280800	0.652000	0.865200
C2071	C207	0.063100	0.030300	0.287200
C2081	C208	0.563100	0.350300	0.467200
C2091	C209	0.349100	0.881100	0.277200
C2101	C210	0.219200	0.854000	0.128800
C2111	C211	0.705300	0.518100	0.485200
C2121	C212	0.340700	0.916200	0.702500
C2131	C213	0.295400	0.914800	0.248200
C2141	C214	0.157500	0.716200	0.850500
C2151	C215	0.784100	0.841500	0.807600
C2161	C216	0.066700	0.216200	0.441300
C2171	C217	0.603600	0.460200	0.538200
C2181	C218	0.441800	0.466200	0.177400
C2191	C219	0.525700	0.702200	0.459100
C2201	C220	0.343700	0.516700	0.464400
C2211	C221	0.791100	0.840500	0.108400
C2221	C222	0.373700	0.693000	0.155300
C2231	C223	0.881300	0.583800	0.575500
C2241	C224	0.503400	0.369200	0.953800
C2251	C225	0.009200	0.113600	0.504600
C2261	C226	0.156300	0.191900	0.327000
C2271	C227	0.798700	0.861000	0.668500
C2281	C228	0.748000	0.439100	0.386300
C2291	C229	0.672400	0.035000	0.652200
C2301	C230	0.864500	0.335200	0.102100
C2311	C231	0.704800	0.664700	0.348100
C2321	C232	0.742800	0.163500	0.882100
C2331	C233	0.221200	0.076700	0.223700
C2341	C234	0.401100	0.346300	0.356800
C2351	C235	0.248000	0.134300	0.191100
C2361	C236	0.523300	0.444200	0.752700
C2371	C237	0.396400	0.539800	0.461800
C2381	C238	0.687200	0.824600	0.847800
C2391	C239	0.474300	0.297800	0.540900
C2401	C240	0.149100	0.952400	0.525300
C2411	C241	0.842500	0.283800	0.149500
C2421	C242	0.398600	0.352100	0.645700
C2431	C243	0.061600	0.386300	0.280300
C2441	C244	0.544300	0.459100	0.492200
C2451	C245	0.872700	0.785100	0.456000
C2461	C246	0.128600	0.912800	0.675600
C2471	C247	0.450600	0.005800	0.381400
C2481	C248	0.208900	0.159500	0.891600
C2491	C249	0.023300	0.276000	0.420900
C2501	C250	0.800400	0.576700	0.144500
C2511	C251	0.950000	0.489000	0.958400
C2521	C252	0.177000	0.130800	0.865800
C2531	C253	0.462800	0.862100	0.981100
C2541	C254	0.103600	0.141800	0.356600
C2551	C255	0.487200	0.835300	0.959900
C2561	C256	0.325400	0.939100	0.308900
C2571	C257	0.322200	0.885400	0.246000
C2581	C258	0.758900	0.171300	0.956000
C2591	C259	0.987200	0.447100	0.848100
C2601	C260	0.841700	0.873700	0.777200
C2611	C261	0.131400	0.456800	0.101600
C2621	C262	0.381300	0.456800	0.202500
C2631	C263	0.627300	0.671300	0.587600
C2641	C264	0.700800	0.682800	0.299800
C2651	C265	0.048700	0.463500	0.992200
C2661	C266	0.631400	0.233000	0.825400
C2671	C267	0.093200	0.397900	0.137100
C2681	C268	0.044300	0.036500	0.414800
C2691	C269	0.719200	0.348000	0.134800
C2701	C270	0.496700	0.981900	0.812800
C2711	C271	0.537200	0.137900	0.018900
C2721	C272	0.170000	0.717300	0.799300
C2731	C273	0.752000	0.865700	0.808900
C2741	C274	0.330000	0.030700	0.952700
C2751	C275	0.843200	0.943900	0.518900
C2761	C276	0.674600	0.060900	0.691100
C2771	C277	0.126800	0.613900	0.844900
C2781	C278	0.454400	0.336500	0.420700
C2791	C279	0.018900	0.691900	0.964400
C2801	C280	0.954400	0.875100	0.382100
C2811	C281	0.966000	0.590700	0.009300
C2821	C282	0.570100	0.765900	0.305800
C2831	C283	0.501600	0.039800	0.856600
C2841	C284	0.373200	0.028300	0.012900
C2851	C285	0.648700	0.513600	0.440700
C2861	C286	0.537300	0.783700	0.967000
C2871	C287	0.257200	0.836500	0.117900
C2881	C288	0.372700	0.328700	0.412400
C2891	C289	0.851300	0.910600	0.635100
C2901	C290	0.127300	0.214900	0.544000
C2911	C291	0.037300	0.504300	0.746400
C2921	C292	0.883300	0.006500	0.345400
C2931	C293	0.071700	0.375900	0.194200
C2941	C294	0.215900	0.158500	0.192400
C2951	C295	0.850900	0.047600	0.474700
C2961	C296	0.416300	0.308300	0.148000
C2971	C297	0.659300	0.083800	0.297500
C2981	C298	0.158300	0.126300	0.222800
C2991	C299	0.664400	0.193100	0.180500
C3001	C300	0.626400	0.655100	0.680500
C3011	C301	0.043200	0.210000	0.597800
C3021	C302	0.041200	0.886100	0.487100
C3031	C303	0.032200	0.507900	0.097300
C3041	C304	0.001600	0.358200	0.038200
C3051	C305	0.249300	0.995700	0.467000
C3061	C306	0.887200	0.505800	0.444800
C3071	C307	0.163000	0.043600	0.251800
C3081	C308	0.807800	0.141000	0.902200
C3091	C309	0.532200	0.129500	0.975700
C3101	C310	0.089400	0.559500	0.948100
C3111	C311	0.626800	0.971700	0.987100
C3121	C312	0.441600	0.267000	0.601600
C3131	C313	0.131400	0.068200	0.254000
C3141	C314	0.682500	0.149700	0.787200
C3151	C315	0.692200	0.290000	0.166800
C3161	C316	0.715900	0.408300	0.442600
C3171	C317	0.541200	0.528300	0.344900
C3181	C318	0.996600	0.542800	0.634200
C3191	C319	0.455700	0.540900	0.507800
C3201	C320	0.436900	0.649700	0.532800
C3211	C321	0.177800	0.431800	0.936800
C3221	C322	0.970500	0.639000	0.062300
C3231	C323	0.371400	0.195800	0.715800
C3241	C324	0.986400	0.940900	0.348300
C3251	C325	0.566700	0.508000	0.649500
C3261	C326	0.703100	0.257900	0.143200
C3271	C327	0.803100	0.224000	0.252700
C3281	C328	0.848300	0.029000	0.344700
C3291	C329	0.490800	0.486200	0.395600
C3301	C330	0.323000	0.957200	0.546200
C3311	C331	0.327600	0.965000	0.347800
C3321	C332	0.070100	0.875900	0.695800
C3331	C333	0.350900	0.325600	0.696700
C3341	C334	0.148700	0.089400	0.364900
C3351	C335	0.545600	0.663500	0.579300
C3361	C336	0.517200	0.646000	0.634800
C3371	C337	0.941600	0.043200	0.325400
C3381	C338	0.513600	0.665300	0.545500
C3391	C339	0.451300	0.959100	0.085200
C3401	C340	0.789200	0.440900	0.045500
C3411	C341	0.100000	0.090700	0.375300
C3421	C342	0.543200	0.641000	0.666800
C3431	C343	0.454300	0.013600	0.135100
C3441	C344	0.356400	0.880800	0.677400
C3451	C345	0.534000	0.024700	0.875300
C3461	C346	0.757200	0.375100	0.079300
C3471	C347	0.284100	0.591700	0.557400
C3481	C348	0.482800	0.354000	0.365200
C3491	C349	0.535000	0.730300	0.362900
C3501	C350	0.962700	0.495700	0.253600
C3511	C351	0.291100	0.899500	0.549400
C3521	C352	0.871400	0.087200	0.324400
C3531	C353	0.517400	0.817200	0.982000
C3541	C354	0.933300	0.783800	0.558700
C3551	C355	0.278800	0.555100	0.644500
C3561	C356	0.083700	0.435700	0.608000
C3571	C357	0.558200	0.533800	0.822600
C3581	C358	0.051100	0.600500	0.608400
C3591	C359	0.516600	0.469300	0.700700
C3601	C360	0.467800	0.870500	0.024300
C3611	C361	0.052600	0.011000	0.539000
C3621	C362	0.204600	0.456400	0.880600
C3631	C363	0.827600	0.675400	0.137400
C3641	C364	0.970900	0.257900	0.977600
C3651	C365	0.101400	0.955700	0.546500
C3661	C366	0.868600	0.543200	0.898400
C3671	C367	0.002200	0.455700	0.145700
C3681	C368	0.268100	0.823800	0.075100
C3691	C369	0.666600	0.841900	0.219700
C3701	C370	0.618200	0.013800	0.995400
C3711	C371	0.507600	0.537500	0.551900
C3721	C372	0.477700	0.174400	0.974700
C3731	C373	0.837000	0.956400	0.748200
C3741	C374	0.483400	0.530700	0.299300
C3751	C375	0.543700	0.935700	0.648000
C3761	C376	0.342500	0.992000	0.941300
C3771	C377	0.050000	0.511000	0.041600
C3781	C378	0.143600	0.966200	0.975600
C3791	C379	0.529100	0.051500	0.213000
C3801	C380	0.333400	0.158100	0.780300
C3811	C381	0.502200	0.147900	0.953500
C3821	C382	0.928300	0.624100	0.805800
C3831	C383	0.200800	0.000600	0.482000
C3841	C384	0.799200	0.999400	0.518000
C3851	C385	0.962800	0.443900	0.899300
C3861	C386	0.631400	0.385400	0.436800
C3871	C387	0.735500	0.757900	0.713000
C3881	C388	0.045700	0.410600	0.940700
C3891	C389	0.910600	0.440500	0.051900
C3901	C390	0.250700	0.283700	0.753600
C3911	C391	0.648100	0.271300	0.845400
C3921	C392	0.983400	0.782700	0.547300
C3931	C393	0.593200	0.230300	0.804700
C3941	C394	0.551100	0.659500	0.049400
C3951	C395	0.476700	0.555800	0.247300
C3961	C396	0.101100	0.156800	0.575100
C3971	C397	0.159300	0.956800	0.924500
C3981	C398	0.795200	0.947100	0.540100
C3991	C399	0.548700	0.040900	0.914800
C4001	C400	0.950600	0.832000	0.055200
C4011	C401	0.368600	0.614600	0.563200
C4021	C402	0.998400	0.641800	0.961800
C4031	C403	0.990800	0.886400	0.495400
C4041	C404	0.126400	0.306900	0.528700
C4051	C405	0.199600	0.423300	0.855500
C4061	C406	0.492400	0.462500	0.448100
C4071	C407	0.696900	0.944200	0.079100
C4081	C408	0.796900	0.153700	0.945200
C4091	C409	0.677000	0.042800	0.453800
C4101	C410	0.708900	0.100500	0.450600
C4111	C411	0.768100	0.343200	0.055700
C4121	C412	0.400000	0.524700	0.509300
C4131	C413	0.894800	0.992100	0.475700
C4141	C414	0.704600	0.085200	0.751800
C4151	C415	0.482600	0.182800	0.018000
C4161	C416	0.172400	0.324600	0.862600
C4171	C417	0.956300	0.808300	0.108000
C4181	C418	0.898600	0.044300	0.453500
C4191	C419	0.166600	0.886300	0.675300
C4201	C420	0.153000	0.666000	0.796800
C4211	C421	0.977700	0.452400	0.196700
C4221	C422	0.843700	0.808100	0.673000
C4231	C423	0.007600	0.059500	0.529900
C4241	C424	0.817500	0.530300	0.032800
C4251	C425	0.022300	0.547600	0.803300
C4261	C426	0.187200	0.535000	0.637400
C4271	C427	0.037200	0.834000	0.513000
C4281	C428	0.996700	0.309500	0.985200
C4291	C429	0.017400	0.499400	0.799800
C4301	C430	0.699600	0.055100	0.723700
C4311	C431	0.656800	0.637900	0.399300
C4321	C432	0.661300	0.202200	0.823500
N11	N1	0.042000	0.988600	0.436200
N21	N2	0.687500	0.194700	0.852000
N31	N3	0.458000	0.521800	0.553400
N41	N4	0.497600	0.424500	0.539500
N51	N5	0.659000	0.179500	0.790900
N61	N6	0.945200	0.941000	0.482400
N71	N7	0.041800	0.975700	0.315700
N81	N8	0.970400	0.949900	0.709100
N91	N9	0.029600	0.050100	0.290900
N101	N10	0.536000	0.075500	0.926900
N111	N11	0.187500	0.539500	0.007200
N121	N12	0.458200	0.642500	0.566100
N131	N13	0.036000	0.462900	0.039500
N141	N14	0.054800	0.059000	0.517600
N151	N15	0.312500	0.805300	0.148000
N161	N16	0.964000	0.537100	0.960500
N171	N17	0.575200	0.021800	0.936200
N181	N18	0.453300	0.305300	0.507200
N191	N19	0.046700	0.039500	0.648000
N201	N20	0.464000	0.924500	0.073100
N211	N21	0.958200	0.024300	0.684300
N221	N22	0.542000	0.478200	0.446600
N231	N23	0.791400	0.475700	0.066100
N241	N24	0.997600	0.037100	0.426900
N251	N25	0.076600	0.559000	0.995800
N261	N26	0.708600	0.142500	0.815700
N271	N27	0.470400	0.679500	0.479500
N281	N28	0.002400	0.962900	0.573100
N291	N29	0.924800	0.488600	0.053400
N301	N30	0.812500	0.460500	0.992800
N311	N31	0.423400	0.927600	0.017600
N321	N32	0.341000	0.820500	0.209100
N331	N33	0.445200	0.427600	0.495800
N341	N34	0.923400	0.441000	0.004200
N351	N35	0.841000	0.550100	0.979500
N361	N36	0.546700	0.694700	0.492800
N371	N37	0.502400	0.575500	0.460500
N381	N38	0.291400	0.857500	0.184300
N391	N39	0.576600	0.072400	0.982400
N401	N40	0.075200	0.511400	0.946600
N411	N41	0.208600	0.524300	0.933900
N421	N42	0.424800	0.978200	0.063800
N431	N43	0.554800	0.572400	0.504200
N441	N44	0.953300	0.960500	0.352000
N451	N45	0.541800	0.357500	0.433900
N461	N46	0.159000	0.449900	0.020500
N471	N47	0.958000	0.011400	0.563800
N481	N48	0.529600	0.320500	0.520500
O11	O1	0.682000	0.038200	0.414400
O21	O2	0.052100	0.379000	0.519100
O31	O3	0.338900	0.410000	0.218900
O41	O4	0.708000	0.964000	0.107600
O51	O5	0.818000	0.903600	0.143800
O61	O6	0.600500	0.695700	0.008600
O71	O7	0.393800	0.342200	0.276400
O81	O8	0.830500	0.440600	0.390500
O91	O9	0.838200	0.509600	0.314000
O101	O10	0.404000	0.616400	0.175600
O111	O11	0.360400	0.351900	0.150900
O121	O12	0.548400	0.641800	0.097600
O131	O13	0.021200	0.363900	0.462900
O141	O14	0.689800	0.755900	0.729100
O151	O15	0.979300	0.662500	0.691200
O161	O16	0.996700	0.499000	0.348900
O171	O17	0.504200	0.111400	0.312600
O181	O18	0.381400	0.829800	0.776400
O191	O19	0.661100	0.590000	0.781100
O201	O20	0.881400	0.157800	0.948400
O211	O21	0.208000	0.920400	0.675600
O221	O22	0.257000	0.275500	0.795300
O231	O23	0.667600	0.653100	0.659700
O241	O24	0.106200	0.329800	0.551600
O251	O25	0.652100	0.001000	0.502300
O261	O26	0.292000	0.116400	0.787600
O271	O27	0.521200	0.484100	0.842700
O281	O28	0.571600	0.464000	0.744000
O291	O29	0.938400	0.567600	0.344000
O301	O30	0.618600	0.170200	0.223600
O311	O31	0.980200	0.276400	0.433400
O321	O32	0.290200	0.086400	0.933400
O331	O33	0.029400	0.460500	0.743900
O341	O34	0.208000	0.815600	0.756000
O351	O35	0.398100	0.879000	0.673100
O361	O36	0.704400	0.960500	0.568900
O371	O37	0.673200	0.136100	0.342700
O381	O38	0.792000	0.079600	0.324400
O391	O39	0.429200	0.224500	0.018500
O401	O40	0.576000	0.683200	0.812600
O411	O41	0.312800	0.827300	0.840300
O421	O42	0.978800	0.636100	0.537100
O431	O43	0.502800	0.011300	0.349100
O441	O44	0.167600	0.327300	0.485500
O451	O45	0.668900	0.059400	0.610100
O461	O46	0.995800	0.183200	0.892800
O471	O47	0.552100	0.571200	0.826900
O481	O48	0.695800	0.074000	0.303200
O491	O49	0.204300	0.195700	0.904800
O501	O50	0.812800	0.153100	0.014500
O511	O51	0.353700	0.170500	0.808800
O521	O52	0.004200	0.816800	0.107200
O531	O53	0.002800	0.851900	0.008500
O541	O54	0.907500	0.828100	0.055600
O551	O55	0.076000	0.388600	0.607200
O561	O56	0.019800	0.723600	0.566600
O571	O57	0.810200	0.581100	0.433900
O581	O58	0.204400	0.273300	0.756100
O591	O59	0.832400	0.672700	0.514500
O601	O60	0.661800	0.847800	0.828600
O611	O61	0.428400	0.536000	0.256000
O621	O62	0.152100	0.154400	0.848900
O631	O63	0.924000	0.611400	0.392800
O641	O64	0.970600	0.539500	0.256100
O651	O65	0.331100	0.940600	0.389900
O661	O66	0.015000	0.744100	0.066100
O671	O67	0.547400	0.403600	0.914400
O681	O68	0.947900	0.621000	0.480900
O691	O69	0.601900	0.121000	0.326900
O701	O70	0.295600	0.039500	0.431100
O711	O71	0.452600	0.596400	0.085600
O721	O72	0.265200	0.287800	0.273200
O731	O73	0.757000	0.052300	0.518500
O741	O74	0.529400	0.773300	0.931100
O751	O75	0.616300	0.671900	0.920600
O761	O76	0.760600	0.858200	0.093400
O771	O77	0.048400	0.646000	0.593400
O781	O78	0.495800	0.888600	0.687400
O791	O79	0.146300	0.837500	0.683200
O801	O80	0.592500	0.036900	0.579400
O811	O81	0.823600	0.652200	0.186000
O821	O82	0.497200	0.988700	0.650900
O831	O83	0.330500	0.221000	0.110100
O841	O84	0.704300	0.109100	0.491400
O851	O85	0.168900	0.279000	0.890500
O861	O86	0.411600	0.067600	0.370800
O871	O87	0.092500	0.171900	0.944400
O881	O88	0.893800	0.670200	0.448400
O891	O89	0.189800	0.418900	0.566100
O901	O90	0.377200	0.499000	0.196800
O911	O91	0.596000	0.383600	0.824400
O921	O92	0.734800	0.712200	0.726800
O931	O93	0.838900	0.557800	0.571100
O941	O94	0.985000	0.255900	0.933900
O951	O95	0.588400	0.932400	0.629200
O961	O96	0.310200	0.244100	0.270900
O971	O97	0.176400	0.347800	0.814000
O981	O98	0.407500	0.963100	0.420600
O991	O99	0.790200	0.223600	0.296200
O1001	O100	0.860400	0.511300	0.491500
O1011	O101	0.795600	0.726700	0.243900
O1021	O102	0.871100	0.090000	0.071100
O1031	O103	0.161100	0.442200	0.428900
O1041	O104	0.743000	0.724500	0.204700
O1051	O105	0.795700	0.804300	0.095200
O1061	O106	0.326800	0.863900	0.657300
O1071	O107	0.118600	0.842200	0.051600
O1081	O108	0.116300	0.536900	0.555600
O1091	O109	0.739400	0.146000	0.402400
O1101	O110	0.669500	0.779000	0.889900
O1111	O111	0.292000	0.036000	0.892400
O1121	O112	0.479300	0.670500	0.183200
O1131	O113	0.071600	0.315600	0.392400
O1141	O114	0.318000	0.961800	0.585600
O1151	O115	0.209800	0.776400	0.703800
O1161	O116	0.561000	0.038400	0.226800
O1171	O117	0.708000	0.883600	0.212400
O1181	O118	0.883700	0.463100	0.444400
O1191	O119	0.676400	0.990400	0.671400
O1201	O120	0.929200	0.447700	0.295300
O1211	O121	0.101900	0.928800	0.019100
O1221	O122	0.904000	0.579600	0.712400
O1231	O123	0.187200	0.846900	0.985500
O1241	O124	0.332400	0.346900	0.340300
O1251	O125	0.383700	0.328100	0.079400
O1261	O126	0.338200	0.152200	0.171400
O1271	O127	0.439000	0.961600	0.773200
O1281	O128	0.952600	0.538200	0.643800
O1291	O129	0.096000	0.420400	0.287600
O1301	O130	0.173200	0.015900	0.962900
O1311	O131	0.898100	0.071200	0.980900
O1321	O132	0.515000	0.081100	0.229100
O1331	O133	0.070800	0.552300	0.704700
O1341	O134	0.100500	0.609100	0.595200
O1351	O135	0.347900	0.999000	0.497700
O1361	O136	0.570800	0.775500	0.981500
O1371	O137	0.003300	0.501000	0.651100
O1381	O138	0.480200	0.413600	0.796200
O1391	O139	0.853700	0.162500	0.316800
O1401	O140	0.877200	0.574000	0.621800
O1411	O141	0.606200	0.657800	0.723600
O1421	O142	0.047400	0.461800	0.356200
O1431	O143	0.831100	0.721000	0.109500
O1441	O144	0.139600	0.488700	0.508500
O1451	O145	0.304200	0.926000	0.696800
O1461	O146	0.451600	0.358200	0.902400
O1471	O147	0.485000	0.918900	0.770900
O1481	O148	0.639600	0.648100	0.849100
O1491	O149	0.561600	0.717600	0.870800
O1501	O150	0.470600	0.226700	0.068900
O1511	O151	0.899500	0.390900	0.404800
O1521	O152	0.628900	0.057800	0.281100
O1531	O153	0.804200	0.001000	0.121800
O1541	O154	0.424000	0.316800	0.187400
O1551	O155	0.997200	0.148100	0.991500
O1561	O156	0.622800	0.501000	0.803200
O1571	O157	0.195800	0.999000	0.878200
O1581	O158	0.826800	0.984100	0.037100
O1591	O159	0.646300	0.829500	0.191200
O1601	O160	0.239400	0.141800	0.906600
O1611	O161	0.939000	0.212200	0.022600
O1621	O162	0.234800	0.461600	0.477400
O1631	O163	0.399500	0.304300	0.991400
O1641	O164	0.503300	0.654400	0.997700
O1651	O165	0.371100	0.942200	0.718900
O1661	O166	0.519800	0.586400	0.203800
O1671	O167	0.122800	0.426000	0.378200
O1681	O168	0.323600	0.009600	0.328600
O1691	O169	0.061600	0.432400	0.656000
O1701	O170	0.061000	0.787800	0.977400
O1711	O171	0.088400	0.217600	0.844000
O1721	O172	0.447900	0.428800	0.173100
O1731	O173	0.928400	0.684400	0.607600
O1741	O174	0.260600	0.854000	0.597600
O1751	O175	0.243000	0.947700	0.481500
O1761	O176	0.020700	0.337500	0.308800
O1771	O177	0.182000	0.096400	0.856200
O1781	O178	0.161800	0.490400	0.686000
O1791	O179	0.520700	0.329500	0.816800
O1801	O180	0.951600	0.354000	0.406600
O1811	O181	0.687200	0.172700	0.159700
O1821	O182	0.765200	0.538400	0.522600
O1831	O183	0.295700	0.890900	0.508600
O1841	O184	0.128900	0.910000	0.928900
O1851	O185	0.792000	0.184400	0.244000
O1861	O186	0.478800	0.515900	0.157300
O1871	O187	0.169500	0.559400	0.609500
O1881	O188	0.496700	0.345600	0.002300
O1891	O189	0.847900	0.845600	0.151100
O1901	O190	0.709800	0.913600	0.066600
O1911	O191	0.911600	0.782400	0.156000
O1921	O192	0.438400	0.282400	0.129200
