data_cm503311x_alf40K_clean_PM
_symmetry_space_group_name_H-M	'P1'
_cell_length_a	6.552800
_cell_length_b	16.439100
_cell_length_c	13.138100
_cell_angle_alpha	90.000000
_cell_angle_beta	90.000000
_cell_angle_gamma	90.574900
_symmetry_Int_Tables_number 1

loop_
_symmetry_equiv_pos_as_xyz
'x,y,z'

loop_
_atom_site_label
_atom_site_type_symbol
_atom_site_fract_x
_atom_site_fract_y
_atom_site_fract_z
O11	O1	0.157700	0.174120	0.853200
O21	O2	0.818800	0.658400	0.166300
C11	C1	0.798300	0.023900	0.949900
C21	C2	0.000600	0.061500	0.945000
C31	C3	0.001100	0.137100	0.866200
C41	C4	0.195700	0.541600	0.025000
O31	O3	0.657700	0.674120	0.353200
O41	O4	0.318800	0.158400	0.666300
C51	C5	0.298300	0.523900	0.449900
C61	C6	0.500600	0.561500	0.445000
C71	C7	0.501100	0.637100	0.366200
C81	C8	0.695700	0.041600	0.525000
O51	O5	0.842300	0.325880	0.853200
O61	O6	0.181200	0.841600	0.166300
C91	C9	0.201700	0.476100	0.949900
C101	C10	0.999400	0.438500	0.945000
C111	C11	0.998900	0.362900	0.866200
C121	C12	0.804300	0.958400	0.025000
O71	O7	0.342300	0.825880	0.353200
O81	O8	0.681200	0.341600	0.666300
C131	C13	0.701700	0.976100	0.449900
C141	C14	0.499400	0.938500	0.445000
C151	C15	0.498900	0.862900	0.366200
C161	C16	0.304300	0.458400	0.525000
O91	O9	0.842300	0.825880	0.146800
O101	O10	0.181200	0.341600	0.833700
C171	C17	0.201700	0.976100	0.050100
C181	C18	0.999400	0.938500	0.055000
C191	C19	0.998900	0.862900	0.133800
C201	C20	0.804300	0.458400	0.975000
O111	O11	0.342300	0.325880	0.646800
O121	O12	0.681200	0.841600	0.333700
C211	C21	0.701700	0.476100	0.550100
C221	C22	0.499400	0.438500	0.555000
C231	C23	0.498900	0.362900	0.633800
C241	C24	0.304300	0.958400	0.475000
O131	O13	0.157700	0.674120	0.146800
O141	O14	0.818800	0.158400	0.833700
C251	C25	0.798300	0.523900	0.050100
C261	C26	0.000600	0.561500	0.055000
C271	C27	0.001100	0.637100	0.133800
C281	C28	0.195700	0.041600	0.975000
O151	O15	0.657700	0.174120	0.646800
O161	O16	0.318800	0.658400	0.333700
C291	C29	0.298300	0.023900	0.550100
C301	C30	0.500600	0.061500	0.555000
C311	C31	0.501100	0.137100	0.633800
C321	C32	0.695700	0.541600	0.475000
Al11	Al1	0.250000	0.250000	0.750000
Al21	Al2	0.750000	0.250000	0.750000
Al31	Al3	0.750000	0.750000	0.250000
Al41	Al4	0.250000	0.750000	0.250000
F11	F1	0.000000	0.250000	0.689600
F21	F2	0.500000	0.750000	0.189600
F31	F3	0.000000	0.750000	0.310400
F41	F4	0.500000	0.250000	0.810400
