data_cm503311x_alf500K_clean_PM
_symmetry_space_group_name_H-M	'P1'
_cell_length_a	6.568800
_cell_length_b	16.382800
_cell_length_c	13.172300
_cell_angle_alpha	90.000000
_cell_angle_beta	90.000000
_cell_angle_gamma	90.000000
_symmetry_Int_Tables_number 1

loop_
_symmetry_equiv_pos_as_xyz
'x,y,z'

loop_
_atom_site_label
_atom_site_type_symbol
_atom_site_fract_x
_atom_site_fract_y
_atom_site_fract_z
O11	O1	0.169300	0.168380	0.839850
C11	C1	0.806400	0.025400	0.954300
O21	O2	0.669300	0.668380	0.339850
C21	C2	0.306400	0.525400	0.454300
O31	O3	0.830700	0.331620	0.839850
C31	C3	0.193600	0.474600	0.954300
O41	O4	0.330700	0.831620	0.339850
C41	C4	0.693600	0.974600	0.454300
O51	O5	0.830700	0.668380	0.160150
C51	C5	0.193600	0.525400	0.045700
O61	O6	0.330700	0.168380	0.660150
C61	C6	0.693600	0.025400	0.545700
O71	O7	0.169300	0.831620	0.160150
C71	C7	0.806400	0.974600	0.045700
O81	O8	0.669300	0.331620	0.660150
C81	C8	0.306400	0.474600	0.545700
O91	O9	0.830700	0.831620	0.160150
C91	C9	0.193600	0.974600	0.045700
O101	O10	0.330700	0.331620	0.660150
C101	C10	0.693600	0.474600	0.545700
O111	O11	0.169300	0.668380	0.160150
C111	C11	0.806400	0.525400	0.045700
O121	O12	0.669300	0.168380	0.660150
C121	C12	0.306400	0.025400	0.545700
O131	O13	0.169300	0.331620	0.839850
C131	C13	0.806400	0.474600	0.954300
O141	O14	0.669300	0.831620	0.339850
C141	C14	0.306400	0.974600	0.454300
O151	O15	0.830700	0.168380	0.839850
C151	C15	0.193600	0.025400	0.954300
O161	O16	0.330700	0.668380	0.339850
C161	C16	0.693600	0.525400	0.454300
Al11	Al1	0.250000	0.250000	0.750000
Al21	Al2	0.750000	0.250000	0.750000
Al31	Al3	0.750000	0.750000	0.250000
Al41	Al4	0.250000	0.750000	0.250000
F11	F1	0.000000	0.250000	0.690900
F21	F2	0.500000	0.750000	0.190900
F31	F3	0.000000	0.750000	0.309100
F41	F4	0.500000	0.250000	0.809100
C171	C17	0.000000	0.064400	0.945100
C181	C18	0.000000	0.139600	0.873300
C191	C19	0.500000	0.564400	0.445100
C201	C20	0.500000	0.639600	0.373300
C211	C21	0.000000	0.435600	0.945100
C221	C22	0.000000	0.360400	0.873300
C231	C23	0.500000	0.935600	0.445100
C241	C24	0.500000	0.860400	0.373300
C251	C25	0.000000	0.564400	0.054900
C261	C26	0.000000	0.639600	0.126700
C271	C27	0.500000	0.064400	0.554900
C281	C28	0.500000	0.139600	0.626700
C291	C29	0.000000	0.935600	0.054900
C301	C30	0.000000	0.860400	0.126700
C311	C31	0.500000	0.435600	0.554900
C321	C32	0.500000	0.360400	0.626700
