data_cm503311x_alf125K_clean_PM
_symmetry_space_group_name_H-M	'P1'
_cell_length_a	6.562000
_cell_length_b	16.417100
_cell_length_c	13.171700
_cell_angle_alpha	90.000000
_cell_angle_beta	90.000000
_cell_angle_gamma	90.398300
_symmetry_Int_Tables_number 1

loop_
_symmetry_equiv_pos_as_xyz
'x,y,z'

loop_
_atom_site_label
_atom_site_type_symbol
_atom_site_fract_x
_atom_site_fract_y
_atom_site_fract_z
O11	O1	0.161800	0.172300	0.846600
O21	O2	0.825800	0.662100	0.168600
C11	C1	0.806400	0.023200	0.953300
C21	C2	0.996400	0.065900	0.943800
C31	C3	0.995200	0.135500	0.869700
C41	C4	0.200100	0.535700	0.029200
O31	O3	0.661800	0.672300	0.346600
O41	O4	0.325800	0.162100	0.668600
C51	C5	0.306400	0.523200	0.453300
C61	C6	0.496400	0.565900	0.443800
C71	C7	0.495200	0.635500	0.369700
C81	C8	0.700100	0.035700	0.529200
O51	O5	0.838200	0.327700	0.846600
O61	O6	0.174200	0.837900	0.168600
C91	C9	0.193600	0.476800	0.953300
C101	C10	0.003600	0.434100	0.943800
C111	C11	0.004800	0.364500	0.869700
C121	C12	0.799900	0.964300	0.029200
O71	O7	0.338200	0.827700	0.346600
O81	O8	0.674200	0.337900	0.668600
C131	C13	0.693600	0.976800	0.453300
C141	C14	0.503600	0.934100	0.443800
C151	C15	0.504800	0.864500	0.369700
C161	C16	0.299900	0.464300	0.529200
O91	O9	0.838200	0.827700	0.153400
O101	O10	0.174200	0.337900	0.831400
C171	C17	0.193600	0.976800	0.046700
C181	C18	0.003600	0.934100	0.056200
C191	C19	0.004800	0.864500	0.130300
C201	C20	0.799900	0.464300	0.970800
O111	O11	0.338200	0.327700	0.653400
O121	O12	0.674200	0.837900	0.331400
C211	C21	0.693600	0.476800	0.546700
C221	C22	0.503600	0.434100	0.556200
C231	C23	0.504800	0.364500	0.630300
C241	C24	0.299900	0.964300	0.470800
O131	O13	0.161800	0.672300	0.153400
O141	O14	0.825800	0.162100	0.831400
C251	C25	0.806400	0.523200	0.046700
C261	C26	0.996400	0.565900	0.056200
C271	C27	0.995200	0.635500	0.130300
C281	C28	0.200100	0.035700	0.970800
O151	O15	0.661800	0.172300	0.653400
O161	O16	0.325800	0.662100	0.331400
C291	C29	0.306400	0.023200	0.546700
C301	C30	0.496400	0.065900	0.556200
C311	C31	0.495200	0.135500	0.630300
C321	C32	0.700100	0.535700	0.470800
Al11	Al1	0.250000	0.250000	0.750000
Al21	Al2	0.750000	0.250000	0.750000
Al31	Al3	0.750000	0.750000	0.250000
Al41	Al4	0.250000	0.750000	0.250000
F11	F1	0.000000	0.250000	0.690500
F21	F2	0.500000	0.750000	0.190500
F31	F3	0.000000	0.750000	0.309500
F41	F4	0.500000	0.250000	0.809500
