data_cm503311x_alf175K_clean_PM
_symmetry_space_group_name_H-M	'P1'
_cell_length_a	6.568500
_cell_length_b	16.390400
_cell_length_c	13.209700
_cell_angle_alpha	90.000000
_cell_angle_beta	90.000000
_cell_angle_gamma	90.000000
_symmetry_Int_Tables_number 1

loop_
_symmetry_equiv_pos_as_xyz
'x,y,z'

loop_
_atom_site_label
_atom_site_type_symbol
_atom_site_fract_x
_atom_site_fract_y
_atom_site_fract_z
O11	O1	0.169900	0.167670	0.840500
C11	C1	0.803200	0.029200	0.958200
O21	O2	0.669900	0.667670	0.340500
C21	C2	0.303200	0.529200	0.458200
O31	O3	0.830100	0.332330	0.840500
C31	C3	0.196800	0.470800	0.958200
O41	O4	0.330100	0.832330	0.340500
C41	C4	0.696800	0.970800	0.458200
O51	O5	0.830100	0.667670	0.159500
C51	C5	0.196800	0.529200	0.041800
O61	O6	0.330100	0.167670	0.659500
C61	C6	0.696800	0.029200	0.541800
O71	O7	0.169900	0.832330	0.159500
C71	C7	0.803200	0.970800	0.041800
O81	O8	0.669900	0.332330	0.659500
C81	C8	0.303200	0.470800	0.541800
O91	O9	0.830100	0.832330	0.159500
C91	C9	0.196800	0.970800	0.041800
O101	O10	0.330100	0.332330	0.659500
C101	C10	0.696800	0.470800	0.541800
O111	O11	0.169900	0.667670	0.159500
C111	C11	0.803200	0.529200	0.041800
O121	O12	0.669900	0.167670	0.659500
C121	C12	0.303200	0.029200	0.541800
O131	O13	0.169900	0.332330	0.840500
C131	C13	0.803200	0.470800	0.958200
O141	O14	0.669900	0.832330	0.340500
C141	C14	0.303200	0.970800	0.458200
O151	O15	0.830100	0.167670	0.840500
C151	C15	0.196800	0.029200	0.958200
O161	O16	0.330100	0.667670	0.340500
C161	C16	0.696800	0.529200	0.458200
Al11	Al1	0.250000	0.250000	0.750000
Al21	Al2	0.750000	0.250000	0.750000
Al31	Al3	0.750000	0.750000	0.250000
Al41	Al4	0.250000	0.750000	0.250000
F11	F1	0.000000	0.250000	0.693900
F21	F2	0.500000	0.750000	0.193900
F31	F3	0.000000	0.750000	0.306100
F41	F4	0.500000	0.250000	0.806100
C171	C17	0.000000	0.064200	0.947200
C181	C18	0.000000	0.135900	0.867300
C191	C19	0.500000	0.564200	0.447200
C201	C20	0.500000	0.635900	0.367300
C211	C21	0.000000	0.435800	0.947200
C221	C22	0.000000	0.364100	0.867300
C231	C23	0.500000	0.935800	0.447200
C241	C24	0.500000	0.864100	0.367300
C251	C25	0.000000	0.564200	0.052800
C261	C26	0.000000	0.635900	0.132700
C271	C27	0.500000	0.064200	0.552800
C281	C28	0.500000	0.135900	0.632700
C291	C29	0.000000	0.935800	0.052800
C301	C30	0.000000	0.864100	0.132700
C311	C31	0.500000	0.435800	0.552800
C321	C32	0.500000	0.364100	0.632700
