data_cm501138g_si_009_clean_PM
_symmetry_space_group_name_H-M	'P1'
_cell_length_a	18.629600
_cell_length_b	18.629600
_cell_length_c	18.629600
_cell_angle_alpha	60.000000
_cell_angle_beta	60.000000
_cell_angle_gamma	60.000000
_symmetry_Int_Tables_number 1

loop_
_symmetry_equiv_pos_as_xyz
'x,y,z'

loop_
_atom_site_label
_atom_site_type_symbol
_atom_site_fract_x
_atom_site_fract_y
_atom_site_fract_z
Cu11	Cu1	0.429440	0.570560	0.000000
Cu21	Cu2	0.000000	0.429440	0.000000
Cu31	Cu3	0.570560	0.429440	0.000000
Cu41	Cu4	0.000000	0.570560	0.429440
Cu51	Cu5	0.000000	0.429440	0.570560
Cu61	Cu6	0.000000	0.570560	0.000000
Cu71	Cu7	0.570560	0.000000	0.429440
Cu81	Cu8	0.000000	0.000000	0.429440
Cu91	Cu9	0.429440	0.000000	0.570560
Cu101	Cu10	0.429440	0.000000	0.000000
Cu111	Cu11	0.570560	0.000000	0.000000
Cu121	Cu12	0.000000	0.000000	0.570560
H11	H1	0.031500	0.727900	0.512700
H21	H2	0.727900	0.727900	0.512700
H31	H3	0.272100	0.968500	0.272100
H41	H4	0.727900	0.031500	0.512700
H51	H5	0.272100	0.272100	0.487300
H61	H6	0.968500	0.487300	0.272100
H71	H7	0.031500	0.512700	0.727900
H81	H8	0.727900	0.727900	0.031500
H91	H9	0.487300	0.272100	0.272100
H101	H10	0.031500	0.727900	0.727900
H111	H11	0.272100	0.272100	0.968500
H121	H12	0.727900	0.031500	0.727900
H131	H13	0.968500	0.272100	0.487300
H141	H14	0.272100	0.487300	0.968500
H151	H15	0.272100	0.487300	0.272100
H161	H16	0.487300	0.272100	0.968500
H171	H17	0.512700	0.031500	0.727900
H181	H18	0.727900	0.512700	0.727900
H191	H19	0.512700	0.727900	0.727900
H201	H20	0.968500	0.272100	0.272100
H211	H21	0.512700	0.727900	0.031500
H221	H22	0.272100	0.968500	0.487300
H231	H23	0.487300	0.968500	0.272100
H241	H24	0.727900	0.512700	0.031500
C11	C1	0.568980	0.024480	0.568980
C21	C2	0.024480	0.568980	0.568980
C31	C3	0.031120	0.699240	0.699240
C41	C4	0.613190	0.742770	0.613190
C51	C5	0.030850	0.742770	0.613190
C61	C6	0.568980	0.837560	0.568980
C71	C7	0.568980	0.837560	0.024480
C81	C8	0.031120	0.699240	0.570400
C91	C9	0.429600	0.300760	0.968880
C101	C10	0.570400	0.031120	0.699240
C111	C11	0.570400	0.699240	0.031120
C121	C12	0.613190	0.742770	0.030850
C131	C13	0.030850	0.613190	0.742770
C141	C14	0.386810	0.257230	0.386810
C151	C15	0.031120	0.570400	0.699240
C161	C16	0.386810	0.969150	0.386810
C171	C17	0.837560	0.568980	0.024480
C181	C18	0.257230	0.386810	0.969150
C191	C19	0.699240	0.699240	0.031120
C201	C20	0.969150	0.257230	0.386810
C211	C21	0.300760	0.300760	0.968880
C221	C22	0.431020	0.162440	0.431020
C231	C23	0.429600	0.968880	0.300760
C241	C24	0.742770	0.613190	0.030850
C251	C25	0.837560	0.568980	0.568980
C261	C26	0.162440	0.431020	0.431020
C271	C27	0.742770	0.030850	0.613190
C281	C28	0.024480	0.837560	0.568980
C291	C29	0.386810	0.257230	0.969150
C301	C30	0.257230	0.386810	0.386810
C311	C31	0.613190	0.030850	0.742770
C321	C32	0.300760	0.300760	0.429600
C331	C33	0.257230	0.969150	0.386810
C341	C34	0.162440	0.431020	0.975520
C351	C35	0.968880	0.429600	0.300760
C361	C36	0.431020	0.162440	0.975520
C371	C37	0.837560	0.024480	0.568980
C381	C38	0.969150	0.386810	0.386810
C391	C39	0.300760	0.968880	0.300760
C401	C40	0.969150	0.386810	0.257230
C411	C41	0.162440	0.975520	0.431020
C421	C42	0.300760	0.968880	0.429600
C431	C43	0.699240	0.570400	0.031120
C441	C44	0.568980	0.568980	0.024480
C451	C45	0.742770	0.613190	0.613190
C461	C46	0.431020	0.431020	0.975520
C471	C47	0.429600	0.300760	0.300760
C481	C48	0.568980	0.568980	0.837560
C491	C49	0.568980	0.024480	0.837560
C501	C50	0.975520	0.431020	0.431020
C511	C51	0.975520	0.431020	0.162440
C521	C52	0.613190	0.613190	0.030850
C531	C53	0.699240	0.031120	0.570400
C541	C54	0.386810	0.969150	0.257230
C551	C55	0.975520	0.162440	0.431020
C561	C56	0.386810	0.386810	0.969150
C571	C57	0.570400	0.699240	0.699240
C581	C58	0.300760	0.429600	0.300760
C591	C59	0.968880	0.300760	0.429600
C601	C60	0.300760	0.429600	0.968880
C611	C61	0.613190	0.613190	0.742770
C621	C62	0.431020	0.431020	0.162440
C631	C63	0.431020	0.975520	0.162440
C641	C64	0.613190	0.030850	0.613190
C651	C65	0.699240	0.031120	0.699240
C661	C66	0.431020	0.975520	0.431020
C671	C67	0.030850	0.613190	0.613190
C681	C68	0.968880	0.300760	0.300760
C691	C69	0.024480	0.568980	0.837560
C701	C70	0.699240	0.699240	0.570400
C711	C71	0.386810	0.386810	0.257230
C721	C72	0.699240	0.570400	0.699240
O11	O1	0.873750	0.612670	0.020870
O21	O2	0.979130	0.126250	0.507290
O31	O3	0.020870	0.873750	0.492710
O41	O4	0.873750	0.020870	0.612670
O51	O5	0.126250	0.507290	0.979130
O61	O6	0.979130	0.126250	0.387330
O71	O7	0.126250	0.979130	0.387330
O81	O8	0.979130	0.507290	0.126250
O91	O9	0.020870	0.492710	0.873750
O101	O10	0.387330	0.126250	0.979130
O111	O11	0.492710	0.020870	0.873750
O121	O12	0.612670	0.020870	0.873750
O131	O13	0.126250	0.387330	0.979130
O141	O14	0.492710	0.612670	0.020870
O151	O15	0.492710	0.612670	0.873750
O161	O16	0.507290	0.979130	0.387330
O171	O17	0.979130	0.387330	0.507290
O181	O18	0.507290	0.387330	0.126250
O191	O19	0.873750	0.020870	0.492710
O201	O20	0.612670	0.020870	0.492710
O211	O21	0.612670	0.873750	0.492710
O221	O22	0.979130	0.507290	0.387330
O231	O23	0.873750	0.492710	0.020870
O241	O24	0.387330	0.507290	0.126250
O251	O25	0.507290	0.126250	0.979130
O261	O26	0.387330	0.979130	0.126250
O271	O27	0.492710	0.873750	0.020870
O281	O28	0.612670	0.873750	0.020870
O291	O29	0.979130	0.387330	0.126250
O301	O30	0.492710	0.873750	0.612670
O311	O31	0.020870	0.492710	0.612670
O321	O32	0.126250	0.507290	0.387330
O331	O33	0.492710	0.020870	0.612670
O341	O34	0.126250	0.387330	0.507290
O351	O35	0.387330	0.979130	0.507290
O361	O36	0.612670	0.492710	0.873750
O371	O37	0.126250	0.979130	0.507290
O381	O38	0.612670	0.492710	0.020870
O391	O39	0.387330	0.507290	0.979130
O401	O40	0.020870	0.612670	0.492710
O411	O41	0.387330	0.126250	0.507290
O421	O42	0.873750	0.612670	0.492710
O431	O43	0.020870	0.873750	0.612670
O441	O44	0.507290	0.979130	0.126250
O451	O45	0.507290	0.387330	0.979130
O461	O46	0.020870	0.612670	0.873750
O471	O47	0.507290	0.126250	0.387330
O481	O48	0.873750	0.492710	0.612670
