data_cm503311x_F-mil-53-Al-np_clean_PM
_symmetry_space_group_name_H-M	'P1'
_cell_length_a	20.672100
_cell_length_b	14.751500
_cell_length_c	13.128100
_cell_angle_alpha	90.002000
_cell_angle_beta	67.135800
_cell_angle_gamma	90.000400
_symmetry_Int_Tables_number 1

loop_
_symmetry_equiv_pos_as_xyz
'x,y,z'

loop_
_atom_site_label
_atom_site_type_symbol
_atom_site_fract_x
_atom_site_fract_y
_atom_site_fract_z
H11	H1	0.165780	0.398010	0.194270
H21	H2	0.294730	0.422570	0.142250
C11	C1	0.177970	0.361530	0.028830
C21	C2	0.203070	0.388180	0.109490
C31	C3	0.102200	0.338730	0.061930
C41	C4	0.274660	0.400840	0.080820
O11	O1	0.081270	0.317320	0.985690
O21	O2	0.063780	0.338060	0.165080
H31	H3	0.665920	0.149260	0.194180
H41	H4	0.795020	0.172580	0.142150
C51	C5	0.678000	0.112940	0.028750
C61	C6	0.703180	0.139190	0.109440
C71	C7	0.602160	0.090810	0.061860
C81	C8	0.774830	0.151120	0.080790
O31	O3	0.581170	0.069650	0.985630
O41	O4	0.563740	0.090380	0.165010
H51	H5	0.834260	0.398300	0.055740
H61	H6	0.705320	0.422820	0.107730
C91	C9	0.822040	0.361590	0.221130
C101	C10	0.796960	0.388350	0.140490
C111	C11	0.897800	0.338770	0.188050
C121	C12	0.725360	0.401000	0.169140
O51	O5	0.918730	0.317360	0.264300
O61	O6	0.936230	0.338080	0.084910
H71	H7	0.334110	0.149360	0.055790
H81	H8	0.205010	0.172670	0.107780
C131	C13	0.322000	0.112950	0.221200
C141	C14	0.296840	0.139250	0.140510
C151	C15	0.397840	0.090850	0.188120
C161	C16	0.225190	0.151180	0.169140
O71	O7	0.418820	0.069670	0.264360
O81	O8	0.436270	0.090410	0.084980
H91	H9	0.834100	0.100700	0.305800
H101	H10	0.705000	0.077350	0.357820
C171	C17	0.822000	0.137010	0.471240
C181	C18	0.796820	0.110780	0.390540
C191	C19	0.897840	0.159120	0.438140
C201	C20	0.725180	0.098820	0.419180
O91	O9	0.918850	0.180210	0.514370
O101	O10	0.936250	0.159570	0.334990
H111	H11	0.334120	0.350650	0.305860
H121	H12	0.205180	0.326100	0.357850
C211	C21	0.321920	0.387150	0.471290
C221	C22	0.296820	0.360530	0.390610
C231	C23	0.397720	0.409700	0.438150
C241	C24	0.225230	0.347880	0.419270
O111	O11	0.418760	0.430880	0.514340
O121	O12	0.436100	0.410340	0.334980
H131	H13	0.165890	0.100660	0.444070
H141	H14	0.295000	0.077350	0.392090
C251	C25	0.178000	0.137040	0.278660
C261	C26	0.203170	0.110770	0.359350
C271	C27	0.102160	0.159130	0.311800
C281	C28	0.274810	0.098840	0.330730
O131	O13	0.081150	0.180260	0.235580
O141	O14	0.063750	0.159570	0.414950
H151	H15	0.665840	0.350390	0.444030
H161	H16	0.794780	0.325900	0.392070
C291	C29	0.678060	0.387090	0.278650
C301	C30	0.703150	0.360380	0.359310
C311	C31	0.602250	0.409660	0.311800
C321	C32	0.774740	0.347750	0.330670
O151	O15	0.581230	0.430910	0.235630
O161	O16	0.563860	0.410230	0.414970
F11	F1	0.999990	0.303640	0.375020
F21	F2	0.499990	0.056190	0.375020
F31	F3	0.999990	0.193750	0.125010
F41	F4	0.499980	0.444270	0.125010
Al11	Al1	0.500010	0.001180	0.250030
Al21	Al2	0.999960	0.248780	0.249970
Al31	Al3	0.499970	0.001180	0.999980
Al41	Al4	0.000020	0.248760	0.000040
H171	H17	0.165890	0.900010	0.194210
H181	H18	0.294910	0.923970	0.142200
C331	C33	0.178020	0.863650	0.028770
C341	C34	0.203170	0.890060	0.109450
C351	C35	0.102210	0.841240	0.061880
C361	C36	0.274790	0.902380	0.080800
O171	O17	0.081210	0.820050	0.985660
O181	O18	0.063800	0.840670	0.165040
H191	H19	0.665790	0.648990	0.194280
H201	H20	0.794660	0.674000	0.142250
C371	C37	0.678000	0.612440	0.028830
C381	C38	0.703080	0.639220	0.109490
C391	C39	0.602240	0.589470	0.061950
C401	C40	0.774660	0.652150	0.080810
O191	O19	0.581270	0.568100	0.985750
O201	O20	0.563850	0.588680	0.165110
H211	H21	0.834110	0.900060	0.055760
H221	H22	0.705100	0.924010	0.107730
C411	C41	0.821960	0.863620	0.221190
C421	C42	0.796820	0.890060	0.140500
C431	C43	0.897780	0.841220	0.188100
C441	C44	0.725210	0.902390	0.169140
O211	O21	0.918770	0.820010	0.264320
O221	O22	0.936200	0.840680	0.084950
H231	H23	0.334240	0.648950	0.055660
H241	H24	0.205370	0.673940	0.107640
C451	C45	0.322020	0.612470	0.221120
C461	C46	0.296940	0.639210	0.140450
C471	C47	0.397770	0.589510	0.188030
C481	C48	0.225370	0.652110	0.169100
O231	O23	0.418740	0.568150	0.264240
O241	O24	0.436170	0.588700	0.084870
H251	H25	0.834230	0.601900	0.305740
H261	H26	0.705360	0.576870	0.357740
C491	C49	0.822000	0.638420	0.471190
C501	C50	0.796930	0.611660	0.390520
C511	C51	0.897760	0.661400	0.438070
C521	C52	0.725360	0.598730	0.419190
O251	O25	0.918730	0.682770	0.514280
O261	O26	0.936150	0.662170	0.334900
H271	H27	0.334180	0.852140	0.305760
H281	H28	0.205160	0.828130	0.357770
C531	C53	0.322040	0.888550	0.471200
C541	C54	0.296900	0.862070	0.390530
C551	C55	0.397820	0.911200	0.438080
C561	C56	0.225280	0.849720	0.419180
O271	O27	0.418780	0.932510	0.514320
O281	O28	0.436230	0.911880	0.334930
H291	H29	0.165810	0.602090	0.444150
H301	H30	0.294690	0.577090	0.392160
C571	C57	0.178040	0.638560	0.278690
C581	C58	0.203120	0.611820	0.359360
C591	C59	0.102270	0.661470	0.311820
C601	C60	0.274690	0.598920	0.330700
O291	O29	0.081300	0.682850	0.235620
O301	O30	0.063880	0.662200	0.414990
H311	H31	0.665800	0.852100	0.444130
H321	H32	0.794820	0.828120	0.392140
C611	C61	0.677950	0.888540	0.278700
C621	C62	0.703090	0.862050	0.359370
C631	C63	0.602170	0.911200	0.311850
C641	C64	0.774710	0.849700	0.330730
O311	O31	0.581210	0.932570	0.235630
O321	O32	0.563760	0.911830	0.415000
F51	F5	0.999990	0.806370	0.375010
F61	F6	0.499990	0.554370	0.375020
F71	F7	0.000000	0.696560	0.124990
F81	F8	0.499970	0.946300	0.125010
Al51	Al5	0.499970	0.499450	0.249970
Al61	Al6	0.000010	0.751440	0.249990
Al71	Al7	0.500020	0.499440	0.000040
Al81	Al8	0.999990	0.751460	0.999990
H331	H33	0.165740	0.398140	0.694270
H341	H34	0.294680	0.422700	0.642270
C651	C65	0.177940	0.361580	0.528840
C661	C66	0.203030	0.388280	0.609500
C671	C67	0.102180	0.338750	0.561950
C681	C68	0.274630	0.400940	0.580840
O331	O33	0.081250	0.317330	0.485710
O341	O34	0.063770	0.338040	0.665100
H351	H35	0.665890	0.149270	0.694150
H361	H36	0.795000	0.172600	0.642140
C691	C69	0.678000	0.112910	0.528720
C701	C70	0.703170	0.139170	0.609420
C711	C71	0.602170	0.090750	0.561840
C721	C72	0.774810	0.151130	0.580770
O351	O35	0.581160	0.069600	0.485620
O361	O36	0.563760	0.090300	0.664990
H371	H37	0.834210	0.397820	0.555800
H381	H38	0.705260	0.422400	0.607810
C731	C73	0.822020	0.361500	0.721280
C741	C74	0.796920	0.388070	0.640590
C751	C75	0.897780	0.338680	0.688160
C761	C76	0.725330	0.400740	0.669250
O371	O37	0.918740	0.317300	0.764380
O381	O38	0.936190	0.337990	0.585000
H391	H39	0.334080	0.149190	0.555940
H401	H40	0.204980	0.172530	0.607960
C771	C77	0.322000	0.112900	0.721370
C781	C78	0.296810	0.139150	0.640680
C791	C79	0.397830	0.090760	0.688220
C801	C80	0.225170	0.151090	0.669330
O391	O39	0.418840	0.069600	0.764430
O401	O40	0.436220	0.090280	0.585070
H411	H41	0.834100	0.100710	0.805830
H421	H42	0.704990	0.077400	0.857840
C811	C81	0.822010	0.137020	0.971260
C821	C82	0.796830	0.110790	0.890560
C831	C83	0.897840	0.159110	0.938160
C841	C84	0.725180	0.098860	0.919210
O411	O41	0.918830	0.180270	0.014410
O421	O42	0.936280	0.159510	0.835020
H431	H43	0.334130	0.350600	0.805830
H441	H44	0.205200	0.326060	0.857840
C851	C85	0.321950	0.387080	0.971260
C861	C86	0.296840	0.360470	0.890590
C871	C87	0.397750	0.409670	0.938140
C881	C88	0.225250	0.347830	0.919260
O431	O43	0.418760	0.430920	0.014320
O441	O44	0.436140	0.410260	0.834970
H451	H45	0.165900	0.100760	0.944310
H461	H46	0.295000	0.077430	0.892300
C891	C89	0.177990	0.137020	0.778870
C901	C90	0.203170	0.110810	0.859570
C911	C91	0.102150	0.159100	0.811930
C921	C92	0.274820	0.098880	0.830930
O451	O45	0.081170	0.180240	0.735680
O461	O46	0.063710	0.159520	0.915070
H471	H47	0.665860	0.350740	0.944310
H481	H48	0.794800	0.326190	0.892330
C931	C93	0.678050	0.387060	0.778830
C941	C94	0.703150	0.360550	0.859540
C951	C95	0.602250	0.409650	0.811930
C961	C96	0.774750	0.347890	0.830880
O471	O47	0.581240	0.430840	0.735720
O481	O48	0.563860	0.410290	0.915090
F91	F9	0.000010	0.303630	0.875010
F101	F10	0.500010	0.056190	0.874990
F111	F11	0.000010	0.193730	0.625010
F121	F12	0.500010	0.444200	0.624990
Al91	Al9	0.500040	0.001100	0.750040
Al101	Al10	0.999980	0.248730	0.750000
Al111	Al11	0.499970	0.001110	0.499980
Al121	Al12	0.000020	0.248750	0.500040
H491	H49	0.165890	0.900010	0.694170
H501	H50	0.294900	0.923980	0.642180
C971	C97	0.178030	0.863600	0.528740
C981	C98	0.203170	0.890040	0.609420
C991	C99	0.102210	0.841200	0.561860
C1001	C100	0.274790	0.902370	0.580770
O491	O49	0.081210	0.819990	0.485650
O501	O50	0.063820	0.840630	0.665020
H511	H51	0.665810	0.648800	0.694230
H521	H52	0.794680	0.673810	0.642240
C1011	C101	0.678030	0.612290	0.528780
C1021	C102	0.703110	0.639050	0.609440
C1031	C103	0.602270	0.589360	0.561890
C1041	C104	0.774680	0.651980	0.580780
O511	O51	0.581290	0.568000	0.485700
O521	O52	0.563880	0.588570	0.665050
H531	H53	0.834080	0.899900	0.555920
H541	H54	0.705060	0.923900	0.607940
C1051	C105	0.821950	0.863550	0.721350
C1061	C106	0.796790	0.889950	0.640670
C1071	C107	0.897770	0.841140	0.688200
C1081	C108	0.725180	0.902300	0.669340
O531	O53	0.918790	0.819970	0.764390
O541	O54	0.936150	0.840560	0.585030
H551	H55	0.334240	0.649010	0.555800
H561	H56	0.205370	0.674040	0.607820
C1091	C109	0.322010	0.612380	0.721220
C1101	C110	0.296940	0.639220	0.640580
C1111	C111	0.397780	0.589420	0.688090
C1121	C112	0.225370	0.652150	0.669250
O551	O55	0.418760	0.568040	0.764280
O561	O56	0.436160	0.588620	0.584930
H571	H57	0.834200	0.602000	0.805790
H581	H58	0.705320	0.576980	0.857810
C1131	C113	0.821980	0.638550	0.971230
C1141	C114	0.796900	0.611770	0.890580
C1151	C115	0.897750	0.661480	0.938110
C1161	C116	0.725330	0.598840	0.919260
O571	O57	0.918710	0.682870	0.014320
O581	O58	0.936160	0.662180	0.834950
H591	H59	0.334160	0.852220	0.805770
H601	H60	0.205140	0.828230	0.857800
C1171	C117	0.322030	0.888580	0.971220
C1181	C118	0.296890	0.862130	0.890540
C1191	C119	0.397810	0.911220	0.938110
C1201	C120	0.225260	0.849790	0.919210
O591	O59	0.418760	0.932600	0.014340
O601	O60	0.436240	0.911840	0.834960
H611	H61	0.165810	0.601890	0.944240
H621	H62	0.294680	0.576860	0.892230
C1211	C121	0.178040	0.638520	0.778820
C1221	C122	0.203110	0.611700	0.859460
C1231	C123	0.102280	0.661470	0.811930
C1241	C124	0.274680	0.598770	0.830790
O611	O61	0.081310	0.682850	0.735710
O621	O62	0.063870	0.662210	0.915090
H631	H63	0.665810	0.852150	0.944360
H641	H64	0.794830	0.828130	0.892330
C1251	C125	0.677940	0.888510	0.778910
C1261	C126	0.703090	0.862060	0.859590
C1271	C127	0.602160	0.911170	0.812010
C1281	C128	0.774710	0.849690	0.830920
O631	O63	0.581220	0.932500	0.735750
O641	O64	0.563740	0.911840	0.915150
F131	F13	0.000010	0.806390	0.874990
F141	F14	0.500020	0.554380	0.874980
F151	F15	0.000020	0.696520	0.624990
F161	F16	0.500020	0.946220	0.625000
Al131	Al13	0.500000	0.499370	0.749960
Al141	Al14	0.000030	0.751410	0.750010
Al151	Al15	0.500030	0.499370	0.500020
Al161	Al16	0.999980	0.751400	0.499980
