data_cm501138g_si_010_clean_PM
_symmetry_space_group_name_H-M	'P1'
_cell_length_a	18.616200
_cell_length_b	18.616200
_cell_length_c	18.616200
_cell_angle_alpha	60.000000
_cell_angle_beta	60.000000
_cell_angle_gamma	60.000000
_symmetry_Int_Tables_number 1

loop_
_symmetry_equiv_pos_as_xyz
'x,y,z'

loop_
_atom_site_label
_atom_site_type_symbol
_atom_site_fract_x
_atom_site_fract_y
_atom_site_fract_z
Cu11	Cu1	0.000000	0.429950	0.570050
Cu21	Cu2	0.000000	0.000000	0.570050
Cu31	Cu3	0.429950	0.000000	0.570050
Cu41	Cu4	0.000000	0.570050	0.000000
Cu51	Cu5	0.570050	0.000000	0.429950
Cu61	Cu6	0.000000	0.000000	0.429950
Cu71	Cu7	0.000000	0.570050	0.429950
Cu81	Cu8	0.570050	0.000000	0.000000
Cu91	Cu9	0.000000	0.429950	0.000000
Cu101	Cu10	0.429950	0.000000	0.000000
Cu111	Cu11	0.429950	0.570050	0.000000
Cu121	Cu12	0.570050	0.429950	0.000000
H11	H1	0.487000	0.271600	0.969800
H21	H2	0.271600	0.487000	0.271600
H31	H3	0.487000	0.271600	0.271600
H41	H4	0.969800	0.487000	0.271600
H51	H5	0.030200	0.728400	0.728400
H61	H6	0.728400	0.728400	0.513000
H71	H7	0.271600	0.271600	0.969800
H81	H8	0.513000	0.728400	0.030200
H91	H9	0.728400	0.030200	0.728400
H101	H10	0.271600	0.271600	0.487000
H111	H11	0.728400	0.728400	0.030200
H121	H12	0.487000	0.969800	0.271600
H131	H13	0.728400	0.030200	0.513000
H141	H14	0.271600	0.969800	0.487000
H151	H15	0.271600	0.969800	0.271600
H161	H16	0.513000	0.030200	0.728400
H171	H17	0.969800	0.271600	0.487000
H181	H18	0.030200	0.728400	0.513000
H191	H19	0.728400	0.513000	0.030200
H201	H20	0.728400	0.513000	0.728400
H211	H21	0.271600	0.487000	0.969800
H221	H22	0.030200	0.513000	0.728400
H231	H23	0.969800	0.271600	0.271600
H241	H24	0.513000	0.728400	0.728400
C11	C1	0.430940	0.162260	0.975860
C21	C2	0.024140	0.569060	0.569060
C31	C3	0.430940	0.430940	0.975860
C41	C4	0.569060	0.024140	0.569060
C51	C5	0.429240	0.300440	0.969880
C61	C6	0.613530	0.030130	0.613530
C71	C7	0.030120	0.699560	0.699560
C81	C8	0.699560	0.699560	0.030120
C91	C9	0.570760	0.699560	0.699560
C101	C10	0.742810	0.613530	0.030130
C111	C11	0.386470	0.969870	0.257190
C121	C12	0.430940	0.162260	0.430940
C131	C13	0.162260	0.975860	0.430940
C141	C14	0.030120	0.570760	0.699560
C151	C15	0.837740	0.569060	0.569060
C161	C16	0.975860	0.430940	0.430940
C171	C17	0.429240	0.300440	0.300440
C181	C18	0.030130	0.613530	0.742810
C191	C19	0.699560	0.570760	0.030120
C201	C20	0.386470	0.386470	0.969870
C211	C21	0.430940	0.975860	0.162260
C221	C22	0.386470	0.969870	0.386470
C231	C23	0.300440	0.429240	0.300440
C241	C24	0.613530	0.742810	0.030130
C251	C25	0.969880	0.300440	0.429240
C261	C26	0.030130	0.613530	0.613530
C271	C27	0.570760	0.699560	0.030120
C281	C28	0.024140	0.837740	0.569060
C291	C29	0.429240	0.969880	0.300440
C301	C30	0.300440	0.969880	0.300440
C311	C31	0.030120	0.699560	0.570760
C321	C32	0.569060	0.837740	0.569060
C331	C33	0.613530	0.613530	0.742810
C341	C34	0.386470	0.386470	0.257190
C351	C35	0.699560	0.030120	0.699560
C361	C36	0.613530	0.613530	0.030130
C371	C37	0.162260	0.430940	0.430940
C381	C38	0.837740	0.024140	0.569060
C391	C39	0.969880	0.300440	0.300440
C401	C40	0.570760	0.030120	0.699560
C411	C41	0.257190	0.386470	0.386470
C421	C42	0.569060	0.024140	0.837740
C431	C43	0.257190	0.969870	0.386470
C441	C44	0.699560	0.570760	0.699560
C451	C45	0.837740	0.569060	0.024140
C461	C46	0.386470	0.257190	0.969870
C471	C47	0.300440	0.300440	0.969880
C481	C48	0.569060	0.569060	0.024140
C491	C49	0.030130	0.742810	0.613530
C501	C50	0.969870	0.386470	0.257190
C511	C51	0.300440	0.969880	0.429240
C521	C52	0.430940	0.430940	0.162260
C531	C53	0.969880	0.429240	0.300440
C541	C54	0.024140	0.569060	0.837740
C551	C55	0.975860	0.430940	0.162260
C561	C56	0.613530	0.030130	0.742810
C571	C57	0.742810	0.613530	0.613530
C581	C58	0.969870	0.257190	0.386470
C591	C59	0.569060	0.837740	0.024140
C601	C60	0.300440	0.300440	0.429240
C611	C61	0.257190	0.386470	0.969870
C621	C62	0.430940	0.975860	0.430940
C631	C63	0.613530	0.742810	0.613530
C641	C64	0.699560	0.030120	0.570760
C651	C65	0.699560	0.699560	0.570760
C661	C66	0.742810	0.030130	0.613530
C671	C67	0.162260	0.430940	0.975860
C681	C68	0.969870	0.386470	0.386470
C691	C69	0.975860	0.162260	0.430940
C701	C70	0.300440	0.429240	0.969880
C711	C71	0.569060	0.569060	0.837740
C721	C72	0.386470	0.257190	0.386470
O11	O1	0.387140	0.125920	0.979360
O21	O2	0.612860	0.492420	0.874080
O31	O3	0.492420	0.020640	0.874080
O41	O4	0.387140	0.507580	0.979360
O51	O5	0.507580	0.979360	0.387140
O61	O6	0.507580	0.387140	0.125920
O71	O7	0.387140	0.125920	0.507580
O81	O8	0.020640	0.612860	0.492420
O91	O9	0.507580	0.125920	0.979360
O101	O10	0.874080	0.492420	0.020640
O111	O11	0.507580	0.387140	0.979360
O121	O12	0.020640	0.612860	0.874080
O131	O13	0.979360	0.125920	0.387140
O141	O14	0.612860	0.874080	0.020640
O151	O15	0.979360	0.507580	0.387140
O161	O16	0.979360	0.387140	0.125920
O171	O17	0.612860	0.492420	0.020640
O181	O18	0.612860	0.874080	0.492420
O191	O19	0.874080	0.020640	0.612860
O201	O20	0.125920	0.507580	0.387140
O211	O21	0.507580	0.125920	0.387140
O221	O22	0.979360	0.387140	0.507580
O231	O23	0.874080	0.612860	0.492420
O241	O24	0.020640	0.874080	0.492420
O251	O25	0.125920	0.979360	0.387140
O261	O26	0.387140	0.979360	0.125920
O271	O27	0.874080	0.020640	0.492420
O281	O28	0.874080	0.492420	0.612860
O291	O29	0.125920	0.507580	0.979360
O301	O30	0.492420	0.874080	0.612860
O311	O31	0.492420	0.874080	0.020640
O321	O32	0.979360	0.125920	0.507580
O331	O33	0.020640	0.492420	0.874080
O341	O34	0.020640	0.874080	0.612860
O351	O35	0.492420	0.612860	0.020640
O361	O36	0.387140	0.507580	0.125920
O371	O37	0.125920	0.387140	0.979360
O381	O38	0.874080	0.612860	0.020640
O391	O39	0.492420	0.020640	0.612860
O401	O40	0.612860	0.020640	0.492420
O411	O41	0.387140	0.979360	0.507580
O421	O42	0.612860	0.020640	0.874080
O431	O43	0.020640	0.492420	0.612860
O441	O44	0.979360	0.507580	0.125920
O451	O45	0.125920	0.387140	0.507580
O461	O46	0.125920	0.979360	0.507580
O471	O47	0.492420	0.612860	0.874080
O481	O48	0.507580	0.979360	0.125920
