data_cm503311x_aloh225K_clean_PM
_symmetry_space_group_name_H-M	'P1'
_cell_length_a	6.630500
_cell_length_b	16.775900
_cell_length_c	12.770300
_cell_angle_alpha	90.000000
_cell_angle_beta	90.000000
_cell_angle_gamma	90.000000
_symmetry_Int_Tables_number 1

loop_
_symmetry_equiv_pos_as_xyz
'x,y,z'

loop_
_atom_site_label
_atom_site_type_symbol
_atom_site_fract_x
_atom_site_fract_y
_atom_site_fract_z
O11	O1	0.167650	0.167900	0.842810
C11	C1	0.809100	0.035050	0.968600
O21	O2	0.667650	0.667900	0.342810
C21	C2	0.309100	0.535050	0.468600
O31	O3	0.832350	0.332100	0.842810
C31	C3	0.190900	0.464950	0.968600
O41	O4	0.332350	0.832100	0.342810
C41	C4	0.690900	0.964950	0.468600
O51	O5	0.832350	0.667900	0.157190
C51	C5	0.190900	0.535050	0.031400
O61	O6	0.332350	0.167900	0.657190
C61	C6	0.690900	0.035050	0.531400
O71	O7	0.167650	0.832100	0.157190
C71	C7	0.809100	0.964950	0.031400
O81	O8	0.667650	0.332100	0.657190
C81	C8	0.309100	0.464950	0.531400
O91	O9	0.832350	0.832100	0.157190
C91	C9	0.190900	0.964950	0.031400
O101	O10	0.332350	0.332100	0.657190
C101	C10	0.690900	0.464950	0.531400
O111	O11	0.167650	0.667900	0.157190
C111	C11	0.809100	0.535050	0.031400
O121	O12	0.667650	0.167900	0.657190
C121	C12	0.309100	0.035050	0.531400
O131	O13	0.167650	0.332100	0.842810
C131	C13	0.809100	0.464950	0.968600
O141	O14	0.667650	0.832100	0.342810
C141	C14	0.309100	0.964950	0.468600
O151	O15	0.832350	0.167900	0.842810
C151	C15	0.190900	0.035050	0.968600
O161	O16	0.332350	0.667900	0.342810
C161	C16	0.690900	0.535050	0.468600
Al11	Al1	0.250000	0.250000	0.750000
Al21	Al2	0.750000	0.250000	0.750000
Al31	Al3	0.750000	0.750000	0.250000
Al41	Al4	0.250000	0.750000	0.250000
O171	O17	0.000000	0.250000	0.684600
O181	O18	0.500000	0.750000	0.184600
O191	O19	0.000000	0.750000	0.315400
O201	O20	0.500000	0.250000	0.815400
C171	C17	0.000000	0.063660	0.945300
C181	C18	0.000000	0.138260	0.871100
C191	C19	0.500000	0.563660	0.445300
C201	C20	0.500000	0.638260	0.371100
C211	C21	0.000000	0.436340	0.945300
C221	C22	0.000000	0.361740	0.871100
C231	C23	0.500000	0.936340	0.445300
C241	C24	0.500000	0.861740	0.371100
C251	C25	0.000000	0.563660	0.054700
C261	C26	0.000000	0.638260	0.128900
C271	C27	0.500000	0.063660	0.554700
C281	C28	0.500000	0.138260	0.628900
C291	C29	0.000000	0.936340	0.054700
C301	C30	0.000000	0.861740	0.128900
C311	C31	0.500000	0.436340	0.554700
C321	C32	0.500000	0.361740	0.628900
