data_cm501138g_si_006_clean_PM
_symmetry_space_group_name_H-M	'P1'
_cell_length_a	18.613700
_cell_length_b	18.613700
_cell_length_c	18.613700
_cell_angle_alpha	60.000000
_cell_angle_beta	60.000000
_cell_angle_gamma	60.000000
_symmetry_Int_Tables_number 1

loop_
_symmetry_equiv_pos_as_xyz
'x,y,z'

loop_
_atom_site_label
_atom_site_type_symbol
_atom_site_fract_x
_atom_site_fract_y
_atom_site_fract_z
Cu11	Cu1	0.000000	0.569900	0.430100
Cu21	Cu2	0.000000	0.000000	0.430100
Cu31	Cu3	0.569900	0.000000	0.000000
Cu41	Cu4	0.430100	0.000000	0.000000
Cu51	Cu5	0.000000	0.430100	0.569900
Cu61	Cu6	0.430100	0.000000	0.569900
Cu71	Cu7	0.000000	0.569900	0.000000
Cu81	Cu8	0.000000	0.000000	0.569900
Cu91	Cu9	0.000000	0.430100	0.000000
Cu101	Cu10	0.430100	0.569900	0.000000
Cu111	Cu11	0.569900	0.000000	0.430100
Cu121	Cu12	0.569900	0.430100	0.000000
H11	H1	0.967000	0.272400	0.272400
H21	H2	0.727600	0.727600	0.033000
H31	H3	0.511800	0.033000	0.727600
H41	H4	0.272400	0.272400	0.488200
H51	H5	0.272400	0.967000	0.488200
H61	H6	0.033000	0.727600	0.511800
H71	H7	0.272400	0.488200	0.272400
H81	H8	0.727600	0.511800	0.033000
H91	H9	0.967000	0.272400	0.488200
H101	H10	0.033000	0.511800	0.727600
H111	H11	0.967000	0.488200	0.272400
H121	H12	0.727600	0.033000	0.511800
H131	H13	0.511800	0.727600	0.033000
H141	H14	0.727600	0.727600	0.511800
H151	H15	0.272400	0.272400	0.967000
H161	H16	0.488200	0.272400	0.272400
H171	H17	0.511800	0.727600	0.727600
H181	H18	0.488200	0.967000	0.272400
H191	H19	0.727600	0.511800	0.727600
H201	H20	0.488200	0.272400	0.967000
H211	H21	0.033000	0.727600	0.727600
H221	H22	0.727600	0.033000	0.727600
H231	H23	0.272400	0.967000	0.272400
H241	H24	0.272400	0.488200	0.967000
C11	C1	0.300950	0.967870	0.300950
C21	C2	0.257280	0.387140	0.387140
C31	C3	0.430230	0.300950	0.967870
C41	C4	0.568870	0.837670	0.568870
C51	C5	0.569770	0.699050	0.032130
C61	C6	0.431130	0.162330	0.975410
C71	C7	0.612860	0.612860	0.031560
C81	C8	0.032130	0.699050	0.569770
C91	C9	0.568870	0.568870	0.024590
C101	C10	0.967870	0.300950	0.430230
C111	C11	0.430230	0.967870	0.300950
C121	C12	0.162330	0.975410	0.431130
C131	C13	0.837670	0.568870	0.568870
C141	C14	0.968440	0.387140	0.257280
C151	C15	0.300950	0.430230	0.967870
C161	C16	0.612860	0.612860	0.742720
C171	C17	0.031560	0.612860	0.612860
C181	C18	0.612860	0.031560	0.742720
C191	C19	0.742720	0.612860	0.031560
C201	C20	0.967870	0.300950	0.300950
C211	C21	0.431130	0.431130	0.162330
C221	C22	0.387140	0.387140	0.968440
C231	C23	0.612860	0.742720	0.612860
C241	C24	0.568870	0.024590	0.837670
C251	C25	0.699050	0.569770	0.032130
C261	C26	0.568870	0.024590	0.568870
C271	C27	0.742720	0.031560	0.612860
C281	C28	0.968440	0.257280	0.387140
C291	C29	0.300950	0.300950	0.967870
C301	C30	0.837670	0.024590	0.568870
C311	C31	0.568870	0.568870	0.837670
C321	C32	0.024590	0.568870	0.837670
C331	C33	0.257280	0.968440	0.387140
C341	C34	0.699050	0.032130	0.699050
C351	C35	0.975410	0.162330	0.431130
C361	C36	0.162330	0.431130	0.975410
C371	C37	0.699050	0.032130	0.569770
C381	C38	0.387140	0.968440	0.257280
C391	C39	0.031560	0.612860	0.742720
C401	C40	0.300950	0.967870	0.430230
C411	C41	0.612860	0.742720	0.031560
C421	C42	0.975410	0.431130	0.431130
C431	C43	0.431130	0.975410	0.431130
C441	C44	0.742720	0.612860	0.612860
C451	C45	0.430230	0.300950	0.300950
C461	C46	0.699050	0.699050	0.569770
C471	C47	0.257280	0.387140	0.968440
C481	C48	0.387140	0.257280	0.968440
C491	C49	0.300950	0.300950	0.430230
C501	C50	0.612860	0.031560	0.612860
C511	C51	0.837670	0.568870	0.024590
C521	C52	0.162330	0.431130	0.431130
C531	C53	0.387140	0.387140	0.257280
C541	C54	0.431130	0.162330	0.431130
C551	C55	0.699050	0.699050	0.032130
C561	C56	0.032130	0.569770	0.699050
C571	C57	0.024590	0.568870	0.568870
C581	C58	0.387140	0.968440	0.387140
C591	C59	0.967870	0.430230	0.300950
C601	C60	0.699050	0.569770	0.699050
C611	C61	0.032130	0.699050	0.699050
C621	C62	0.387140	0.257280	0.387140
C631	C63	0.569770	0.699050	0.699050
C641	C64	0.568870	0.837670	0.024590
C651	C65	0.024590	0.837670	0.568870
C661	C66	0.300950	0.430230	0.300950
C671	C67	0.569770	0.032130	0.699050
C681	C68	0.031560	0.742720	0.612860
C691	C69	0.431130	0.431130	0.975410
C701	C70	0.968440	0.387140	0.387140
C711	C71	0.975410	0.431130	0.162330
C721	C72	0.431130	0.975410	0.162330
O11	O1	0.387520	0.978880	0.507560
O21	O2	0.978880	0.507560	0.387520
O31	O3	0.612480	0.021120	0.492440
O41	O4	0.507560	0.387520	0.978880
O51	O5	0.492440	0.021120	0.612480
O61	O6	0.873960	0.492440	0.021120
O71	O7	0.873960	0.021120	0.612480
O81	O8	0.021120	0.492440	0.612480
O91	O9	0.612480	0.873960	0.021120
O101	O10	0.978880	0.387520	0.507560
O111	O11	0.492440	0.612480	0.021120
O121	O12	0.507560	0.978880	0.387520
O131	O13	0.612480	0.492440	0.873960
O141	O14	0.021120	0.873960	0.612480
O151	O15	0.612480	0.492440	0.021120
O161	O16	0.492440	0.021120	0.873960
O171	O17	0.492440	0.612480	0.873960
O181	O18	0.126040	0.507560	0.978880
O191	O19	0.873960	0.612480	0.492440
O201	O20	0.126040	0.978880	0.507560
O211	O21	0.612480	0.021120	0.873960
O221	O22	0.978880	0.126040	0.507560
O231	O23	0.021120	0.492440	0.873960
O241	O24	0.492440	0.873960	0.612480
O251	O25	0.021120	0.612480	0.873960
O261	O26	0.873960	0.612480	0.021120
O271	O27	0.126040	0.507560	0.387520
O281	O28	0.492440	0.873960	0.021120
O291	O29	0.387520	0.126040	0.507560
O301	O30	0.387520	0.507560	0.126040
O311	O31	0.387520	0.126040	0.978880
O321	O32	0.126040	0.978880	0.387520
O331	O33	0.978880	0.126040	0.387520
O341	O34	0.126040	0.387520	0.507560
O351	O35	0.507560	0.978880	0.126040
O361	O36	0.126040	0.387520	0.978880
O371	O37	0.387520	0.507560	0.978880
O381	O38	0.387520	0.978880	0.126040
O391	O39	0.507560	0.387520	0.126040
O401	O40	0.873960	0.021120	0.492440
O411	O41	0.507560	0.126040	0.387520
O421	O42	0.978880	0.387520	0.126040
O431	O43	0.612480	0.873960	0.492440
O441	O44	0.507560	0.126040	0.978880
O451	O45	0.021120	0.612480	0.492440
O461	O46	0.873960	0.492440	0.612480
O471	O47	0.021120	0.873960	0.492440
O481	O48	0.978880	0.507560	0.126040
