data_cm503311x_aloh250K_clean_PM
_symmetry_space_group_name_H-M	'P1'
_cell_length_a	6.630200
_cell_length_b	16.770000
_cell_length_c	12.777800
_cell_angle_alpha	90.000000
_cell_angle_beta	90.000000
_cell_angle_gamma	90.000000
_symmetry_Int_Tables_number 1

loop_
_symmetry_equiv_pos_as_xyz
'x,y,z'

loop_
_atom_site_label
_atom_site_type_symbol
_atom_site_fract_x
_atom_site_fract_y
_atom_site_fract_z
O11	O1	0.166460	0.168150	0.843000
C11	C1	0.808900	0.035350	0.968800
O21	O2	0.666460	0.668150	0.343000
C21	C2	0.308900	0.535350	0.468800
O31	O3	0.833540	0.331850	0.843000
C31	C3	0.191100	0.464650	0.968800
O41	O4	0.333540	0.831850	0.343000
C41	C4	0.691100	0.964650	0.468800
O51	O5	0.833540	0.668150	0.157000
C51	C5	0.191100	0.535350	0.031200
O61	O6	0.333540	0.168150	0.657000
C61	C6	0.691100	0.035350	0.531200
O71	O7	0.166460	0.831850	0.157000
C71	C7	0.808900	0.964650	0.031200
O81	O8	0.666460	0.331850	0.657000
C81	C8	0.308900	0.464650	0.531200
O91	O9	0.833540	0.831850	0.157000
C91	C9	0.191100	0.964650	0.031200
O101	O10	0.333540	0.331850	0.657000
C101	C10	0.691100	0.464650	0.531200
O111	O11	0.166460	0.668150	0.157000
C111	C11	0.808900	0.535350	0.031200
O121	O12	0.666460	0.168150	0.657000
C121	C12	0.308900	0.035350	0.531200
O131	O13	0.166460	0.331850	0.843000
C131	C13	0.808900	0.464650	0.968800
O141	O14	0.666460	0.831850	0.343000
C141	C14	0.308900	0.964650	0.468800
O151	O15	0.833540	0.168150	0.843000
C151	C15	0.191100	0.035350	0.968800
O161	O16	0.333540	0.668150	0.343000
C161	C16	0.691100	0.535350	0.468800
Al11	Al1	0.250000	0.250000	0.750000
Al21	Al2	0.750000	0.250000	0.750000
Al31	Al3	0.750000	0.750000	0.250000
Al41	Al4	0.250000	0.750000	0.250000
O171	O17	0.000000	0.250000	0.685600
O181	O18	0.500000	0.750000	0.185600
O191	O19	0.000000	0.750000	0.314400
O201	O20	0.500000	0.250000	0.814400
C171	C17	0.000000	0.063000	0.945600
C181	C18	0.000000	0.137180	0.870100
C191	C19	0.500000	0.563000	0.445600
C201	C20	0.500000	0.637180	0.370100
C211	C21	0.000000	0.437000	0.945600
C221	C22	0.000000	0.362820	0.870100
C231	C23	0.500000	0.937000	0.445600
C241	C24	0.500000	0.862820	0.370100
C251	C25	0.000000	0.563000	0.054400
C261	C26	0.000000	0.637180	0.129900
C271	C27	0.500000	0.063000	0.554400
C281	C28	0.500000	0.137180	0.629900
C291	C29	0.000000	0.937000	0.054400
C301	C30	0.000000	0.862820	0.129900
C311	C31	0.500000	0.437000	0.554400
C321	C32	0.500000	0.362820	0.629900
