data_cm503311x_alf325K_clean_PM
_symmetry_space_group_name_H-M	'P1'
_cell_length_a	6.567700
_cell_length_b	16.404200
_cell_length_c	13.165700
_cell_angle_alpha	90.000000
_cell_angle_beta	90.000000
_cell_angle_gamma	90.000000
_symmetry_Int_Tables_number 1

loop_
_symmetry_equiv_pos_as_xyz
'x,y,z'

loop_
_atom_site_label
_atom_site_type_symbol
_atom_site_fract_x
_atom_site_fract_y
_atom_site_fract_z
O11	O1	0.170000	0.167650	0.839450
C11	C1	0.806700	0.028700	0.956000
O21	O2	0.670000	0.667650	0.339450
C21	C2	0.306700	0.528700	0.456000
O31	O3	0.830000	0.332350	0.839450
C31	C3	0.193300	0.471300	0.956000
O41	O4	0.330000	0.832350	0.339450
C41	C4	0.693300	0.971300	0.456000
O51	O5	0.830000	0.667650	0.160550
C51	C5	0.193300	0.528700	0.044000
O61	O6	0.330000	0.167650	0.660550
C61	C6	0.693300	0.028700	0.544000
O71	O7	0.170000	0.832350	0.160550
C71	C7	0.806700	0.971300	0.044000
O81	O8	0.670000	0.332350	0.660550
C81	C8	0.306700	0.471300	0.544000
O91	O9	0.830000	0.832350	0.160550
C91	C9	0.193300	0.971300	0.044000
O101	O10	0.330000	0.332350	0.660550
C101	C10	0.693300	0.471300	0.544000
O111	O11	0.170000	0.667650	0.160550
C111	C11	0.806700	0.528700	0.044000
O121	O12	0.670000	0.167650	0.660550
C121	C12	0.306700	0.028700	0.544000
O131	O13	0.170000	0.332350	0.839450
C131	C13	0.806700	0.471300	0.956000
O141	O14	0.670000	0.832350	0.339450
C141	C14	0.306700	0.971300	0.456000
O151	O15	0.830000	0.167650	0.839450
C151	C15	0.193300	0.028700	0.956000
O161	O16	0.330000	0.667650	0.339450
C161	C16	0.693300	0.528700	0.456000
Al11	Al1	0.250000	0.250000	0.750000
Al21	Al2	0.750000	0.250000	0.750000
Al31	Al3	0.750000	0.750000	0.250000
Al41	Al4	0.250000	0.750000	0.250000
F11	F1	0.000000	0.250000	0.693100
F21	F2	0.500000	0.750000	0.193100
F31	F3	0.000000	0.750000	0.306900
F41	F4	0.500000	0.250000	0.806900
C171	C17	0.000000	0.063300	0.948900
C181	C18	0.000000	0.138000	0.870700
C191	C19	0.500000	0.563300	0.448900
C201	C20	0.500000	0.638000	0.370700
C211	C21	0.000000	0.436700	0.948900
C221	C22	0.000000	0.362000	0.870700
C231	C23	0.500000	0.936700	0.448900
C241	C24	0.500000	0.862000	0.370700
C251	C25	0.000000	0.563300	0.051100
C261	C26	0.000000	0.638000	0.129300
C271	C27	0.500000	0.063300	0.551100
C281	C28	0.500000	0.138000	0.629300
C291	C29	0.000000	0.936700	0.051100
C301	C30	0.000000	0.862000	0.129300
C311	C31	0.500000	0.436700	0.551100
C321	C32	0.500000	0.362000	0.629300
