data_cm503311x_aloh275K_clean_PM
_symmetry_space_group_name_H-M	'P1'
_cell_length_a	6.629800
_cell_length_b	16.763800
_cell_length_c	12.785900
_cell_angle_alpha	90.000000
_cell_angle_beta	90.000000
_cell_angle_gamma	90.000000
_symmetry_Int_Tables_number 1

loop_
_symmetry_equiv_pos_as_xyz
'x,y,z'

loop_
_atom_site_label
_atom_site_type_symbol
_atom_site_fract_x
_atom_site_fract_y
_atom_site_fract_z
O11	O1	0.166310	0.168190	0.842780
C11	C1	0.809600	0.035630	0.969200
O21	O2	0.666310	0.668190	0.342780
C21	C2	0.309600	0.535630	0.469200
O31	O3	0.833690	0.331810	0.842780
C31	C3	0.190400	0.464370	0.969200
O41	O4	0.333690	0.831810	0.342780
C41	C4	0.690400	0.964370	0.469200
O51	O5	0.833690	0.668190	0.157220
C51	C5	0.190400	0.535630	0.030800
O61	O6	0.333690	0.168190	0.657220
C61	C6	0.690400	0.035630	0.530800
O71	O7	0.166310	0.831810	0.157220
C71	C7	0.809600	0.964370	0.030800
O81	O8	0.666310	0.331810	0.657220
C81	C8	0.309600	0.464370	0.530800
O91	O9	0.833690	0.831810	0.157220
C91	C9	0.190400	0.964370	0.030800
O101	O10	0.333690	0.331810	0.657220
C101	C10	0.690400	0.464370	0.530800
O111	O11	0.166310	0.668190	0.157220
C111	C11	0.809600	0.535630	0.030800
O121	O12	0.666310	0.168190	0.657220
C121	C12	0.309600	0.035630	0.530800
O131	O13	0.166310	0.331810	0.842780
C131	C13	0.809600	0.464370	0.969200
O141	O14	0.666310	0.831810	0.342780
C141	C14	0.309600	0.964370	0.469200
O151	O15	0.833690	0.168190	0.842780
C151	C15	0.190400	0.035630	0.969200
O161	O16	0.333690	0.668190	0.342780
C161	C16	0.690400	0.535630	0.469200
Al11	Al1	0.250000	0.250000	0.750000
Al21	Al2	0.750000	0.250000	0.750000
Al31	Al3	0.750000	0.750000	0.250000
Al41	Al4	0.250000	0.750000	0.250000
O171	O17	0.000000	0.250000	0.685200
O181	O18	0.500000	0.750000	0.185200
O191	O19	0.000000	0.750000	0.314800
O201	O20	0.500000	0.250000	0.814800
C171	C17	0.000000	0.063200	0.945800
C181	C18	0.000000	0.136860	0.870900
C191	C19	0.500000	0.563200	0.445800
C201	C20	0.500000	0.636860	0.370900
C211	C21	0.000000	0.436800	0.945800
C221	C22	0.000000	0.363140	0.870900
C231	C23	0.500000	0.936800	0.445800
C241	C24	0.500000	0.863140	0.370900
C251	C25	0.000000	0.563200	0.054200
C261	C26	0.000000	0.636860	0.129100
C271	C27	0.500000	0.063200	0.554200
C281	C28	0.500000	0.136860	0.629100
C291	C29	0.000000	0.936800	0.054200
C301	C30	0.000000	0.863140	0.129100
C311	C31	0.500000	0.436800	0.554200
C321	C32	0.500000	0.363140	0.629100
