data_cm901983a_si_001_clean_PM
_symmetry_space_group_name_H-M	'P1'
_cell_length_a	50.690400
_cell_length_b	50.690400
_cell_length_c	50.690400
_cell_angle_alpha	60.000000
_cell_angle_beta	60.000000
_cell_angle_gamma	60.000000
_symmetry_Int_Tables_number 1

loop_
_symmetry_equiv_pos_as_xyz
'x,y,z'

loop_
_atom_site_label
_atom_site_type_symbol
_atom_site_fract_x
_atom_site_fract_y
_atom_site_fract_z
Si11	Si1	0.670240	0.232960	0.378840
Si21	Si2	0.286060	0.581520	0.786060
Si31	Si3	0.486190	0.192790	0.782290
Si41	Si4	0.134370	0.146710	0.634370
Si51	Si5	0.415450	0.853290	0.365630
Si61	Si6	0.692790	0.538730	0.782290
Si71	Si7	0.692790	0.986190	0.782290
Si81	Si8	0.307210	0.217710	0.461270
Si91	Si9	0.513810	0.217710	0.461270
Si101	Si10	0.329760	0.621160	0.767040
Si111	Si11	0.081520	0.786060	0.786060
Si121	Si12	0.000000	0.848820	0.000000
Si131	Si13	0.038730	0.782290	0.986190
Si141	Si14	0.267040	0.829760	0.621160
Si151	Si15	0.878840	0.170240	0.717960
Si161	Si16	0.782040	0.829760	0.621160
Si171	Si17	0.961270	0.807210	0.217710
Si181	Si18	0.807880	0.307880	0.370660
Si191	Si19	0.329760	0.621160	0.282040
Si201	Si20	0.732960	0.170240	0.717960
Si211	Si21	0.878840	0.717960	0.170240
Si221	Si22	0.286060	0.786060	0.581520
Si231	Si23	0.121160	0.282040	0.767040
Si241	Si24	0.717710	0.807210	0.013810
Si251	Si25	0.013580	0.307880	0.370660
Si261	Si26	0.513810	0.807210	0.217710
Si271	Si27	0.878840	0.232960	0.170240
Si281	Si28	0.348820	0.500000	0.151180
Si291	Si29	0.732960	0.170240	0.378840
Si301	Si30	0.692790	0.782290	0.986190
Si311	Si31	0.081520	0.346360	0.786060
Si321	Si32	0.000000	0.848820	0.151180
Si331	Si33	0.217960	0.232960	0.170240
Si341	Si34	0.000000	0.151180	0.848820
Si351	Si35	0.986420	0.692120	0.629340
Si361	Si36	0.865630	0.915450	0.365630
Si371	Si37	0.878840	0.170240	0.232960
Si381	Si38	0.870660	0.513580	0.307880
Si391	Si39	0.807880	0.370660	0.513580
Si401	Si40	0.486190	0.782290	0.538730
Si411	Si41	0.282290	0.192790	0.986190
Si421	Si42	0.329760	0.282040	0.621160
Si431	Si43	0.013580	0.307880	0.307880
Si441	Si44	0.095650	0.154350	0.154350
Si451	Si45	0.353290	0.915450	0.365630
Si461	Si46	0.038730	0.192790	0.986190
Si471	Si47	0.217960	0.170240	0.232960
Si481	Si48	0.807880	0.513580	0.370660
Si491	Si49	0.865630	0.365630	0.915450
Si501	Si50	0.870660	0.307880	0.513580
Si511	Si51	0.013580	0.370660	0.307880
Si521	Si52	0.121160	0.767040	0.282040
Si531	Si53	0.732960	0.717960	0.170240
Si541	Si54	0.654350	0.154350	0.595650
Si551	Si55	0.348820	0.500000	0.000000
Si561	Si56	0.846360	0.786060	0.786060
Si571	Si57	0.345650	0.404350	0.845650
Si581	Si58	0.654350	0.595650	0.154350
Si591	Si59	0.500000	0.500000	0.848820
Si601	Si60	0.153640	0.213940	0.418480
Si611	Si61	0.267040	0.282040	0.829760
Si621	Si62	0.121160	0.829760	0.767040
Si631	Si63	0.865630	0.853290	0.365630
Si641	Si64	0.717710	0.013810	0.807210
Si651	Si65	0.670240	0.717960	0.378840
Si661	Si66	0.732960	0.378840	0.717960
Si671	Si67	0.646710	0.084550	0.634370
Si681	Si68	0.904350	0.845650	0.845650
Si691	Si69	0.670240	0.378840	0.232960
Si701	Si70	0.846360	0.581520	0.786060
Si711	Si71	0.000000	0.000000	0.151180
Si721	Si72	0.486190	0.538730	0.782290
Si731	Si73	0.865630	0.365630	0.853290
Si741	Si74	0.486190	0.782290	0.192790
Si751	Si75	0.307210	0.461270	0.217710
Si761	Si76	0.513810	0.807210	0.461270
Si771	Si77	0.584550	0.634370	0.146710
Si781	Si78	0.807880	0.307880	0.513580
Si791	Si79	0.217960	0.378840	0.170240
Si801	Si80	0.670240	0.378840	0.717960
Si811	Si81	0.782040	0.621160	0.767040
Si821	Si82	0.651180	0.848820	0.500000
Si831	Si83	0.513810	0.461270	0.807210
Si841	Si84	0.134370	0.146710	0.084550
Si851	Si85	0.918480	0.213940	0.213940
Si861	Si86	0.134370	0.084550	0.146710
Si871	Si87	0.513810	0.217710	0.807210
Si881	Si88	0.651180	0.000000	0.500000
Si891	Si89	0.192120	0.692120	0.486420
Si901	Si90	0.782040	0.829760	0.767040
Si911	Si91	0.961270	0.807210	0.013810
Si921	Si92	0.192120	0.486420	0.692120
Si931	Si93	0.500000	0.500000	0.151180
Si941	Si94	0.713940	0.213940	0.653640
Si951	Si95	0.670240	0.232960	0.717960
Si961	Si96	0.129340	0.486420	0.692120
Si971	Si97	0.986420	0.629340	0.692120
Si981	Si98	0.348820	0.000000	0.151180
Si991	Si99	0.713940	0.653640	0.213940
Si1001	Si100	0.651180	0.000000	0.848820
Si1011	Si101	0.286060	0.786060	0.346360
Si1021	Si102	0.121160	0.829760	0.282040
Si1031	Si103	0.713940	0.418480	0.213940
Si1041	Si104	0.732960	0.378840	0.170240
Si1051	Si105	0.267040	0.621160	0.282040
Si1061	Si106	0.121160	0.282040	0.829760
Si1071	Si107	0.134370	0.634370	0.084550
Si1081	Si108	0.192120	0.692120	0.629340
Si1091	Si109	0.584550	0.146710	0.634370
Si1101	Si110	0.217960	0.170240	0.378840
Si1111	Si111	0.153640	0.418480	0.213940
Si1121	Si112	0.081520	0.786060	0.346360
Si1131	Si113	0.692790	0.538730	0.986190
Si1141	Si114	0.192120	0.486420	0.629340
Si1151	Si115	0.348820	0.151180	0.000000
Si1161	Si116	0.782040	0.767040	0.829760
Si1171	Si117	0.717710	0.461270	0.807210
Si1181	Si118	0.486190	0.538730	0.192790
Si1191	Si119	0.134370	0.084550	0.634370
Si1201	Si120	0.217960	0.232960	0.378840
Si1211	Si121	0.904350	0.404350	0.845650
Si1221	Si122	0.692790	0.782290	0.538730
Si1231	Si123	0.000000	0.151180	0.000000
Si1241	Si124	0.348820	0.000000	0.500000
Si1251	Si125	0.329760	0.767040	0.621160
Si1261	Si126	0.038730	0.782290	0.192790
Si1271	Si127	0.282290	0.538730	0.192790
Si1281	Si128	0.846360	0.786060	0.581520
Si1291	Si129	0.961270	0.217710	0.013810
Si1301	Si130	0.651180	0.848820	0.000000
Si1311	Si131	0.807880	0.370660	0.307880
Si1321	Si132	0.986420	0.692120	0.692120
Si1331	Si133	0.282290	0.538730	0.986190
Si1341	Si134	0.192120	0.629340	0.692120
Si1351	Si135	0.500000	0.151180	0.848820
Si1361	Si136	0.121160	0.767040	0.829760
Si1371	Si137	0.345650	0.404350	0.404350
Si1381	Si138	0.654350	0.595650	0.595650
Si1391	Si139	0.000000	0.000000	0.848820
Si1401	Si140	0.670240	0.717960	0.232960
Si1411	Si141	0.307210	0.013810	0.461270
Si1421	Si142	0.267040	0.829760	0.282040
Si1431	Si143	0.282290	0.192790	0.538730
Si1441	Si144	0.646710	0.634370	0.634370
Si1451	Si145	0.651180	0.500000	0.848820
Si1461	Si146	0.904350	0.845650	0.404350
Si1471	Si147	0.307210	0.217710	0.013810
Si1481	Si148	0.095650	0.595650	0.154350
Si1491	Si149	0.486190	0.192790	0.538730
Si1501	Si150	0.584550	0.634370	0.634370
Si1511	Si151	0.415450	0.365630	0.853290
Si1521	Si152	0.286060	0.346360	0.786060
Si1531	Si153	0.870660	0.307880	0.307880
Si1541	Si154	0.153640	0.213940	0.213940
Si1551	Si155	0.513810	0.461270	0.217710
Si1561	Si156	0.267040	0.282040	0.621160
Si1571	Si157	0.865630	0.853290	0.915450
Si1581	Si158	0.865630	0.915450	0.853290
Si1591	Si159	0.651180	0.500000	0.000000
Si1601	Si160	0.095650	0.154350	0.595650
Si1611	Si161	0.307210	0.461270	0.013810
Si1621	Si162	0.307210	0.013810	0.217710
Si1631	Si163	0.192120	0.629340	0.486420
Si1641	Si164	0.500000	0.848820	0.500000
Si1651	Si165	0.717710	0.013810	0.461270
Si1661	Si166	0.329760	0.767040	0.282040
Si1671	Si167	0.713940	0.213940	0.418480
Si1681	Si168	0.329760	0.282040	0.767040
Si1691	Si169	0.038730	0.986190	0.192790
Si1701	Si170	0.646710	0.634370	0.084550
Si1711	Si171	0.129340	0.692120	0.692120
Si1721	Si172	0.500000	0.151180	0.500000
Si1731	Si173	0.732960	0.717960	0.378840
Si1741	Si174	0.961270	0.013810	0.807210
Si1751	Si175	0.918480	0.653640	0.213940
Si1761	Si176	0.807880	0.513580	0.307880
Si1771	Si177	0.717710	0.461270	0.013810
Si1781	Si178	0.961270	0.217710	0.807210
Si1791	Si179	0.713940	0.418480	0.653640
Si1801	Si180	0.282290	0.986190	0.192790
Si1811	Si181	0.878840	0.232960	0.717960
Si1821	Si182	0.282290	0.986190	0.538730
Si1831	Si183	0.353290	0.365630	0.915450
Si1841	Si184	0.500000	0.848820	0.151180
Si1851	Si185	0.713940	0.653640	0.418480
Si1861	Si186	0.038730	0.192790	0.782290
Si1871	Si187	0.129340	0.692120	0.486420
Si1881	Si188	0.353290	0.365630	0.365630
Si1891	Si189	0.286060	0.346360	0.581520
Si1901	Si190	0.878840	0.717960	0.232960
Si1911	Si191	0.348820	0.151180	0.500000
Si1921	Si192	0.415450	0.365630	0.365630
Si1931	Si193	0.918480	0.213940	0.653640
Si1941	Si194	0.782040	0.621160	0.829760
Si1951	Si195	0.717710	0.807210	0.461270
Si1961	Si196	0.286060	0.581520	0.346360
Si1971	Si197	0.217960	0.378840	0.232960
Si1981	Si198	0.134370	0.634370	0.146710
Si1991	Si199	0.267040	0.621160	0.829760
Si2001	Si200	0.782040	0.767040	0.621160
Si2011	Si201	0.961270	0.013810	0.217710
Si2021	Si202	0.692790	0.986190	0.538730
Si2031	Si203	0.345650	0.845650	0.404350
Si2041	Si204	0.038730	0.986190	0.782290
H11	H1	0.914300	0.105100	0.185900
H21	H2	0.068100	0.568100	0.648700
H31	H3	0.960700	0.927900	0.927900
H41	H4	0.553700	0.692300	0.200500
H51	H5	0.299500	0.946300	0.446500
H61	H6	0.402900	0.538700	0.902900
H71	H7	0.356900	0.360300	0.492900
H81	H8	0.269100	0.544100	0.275900
H91	H9	0.908500	0.953700	0.265900
H101	H10	0.705300	0.585700	0.814100
H111	H11	0.685900	0.414300	0.105100
H121	H12	0.427900	0.183500	0.460700
H131	H13	0.344500	0.097100	0.461300
H141	H14	0.294700	0.105100	0.185900
H151	H15	0.053500	0.692300	0.053700
H161	H16	0.683500	0.927900	0.927900
H171	H17	0.095000	0.297800	0.231200
H181	H18	0.731200	0.297800	0.595000
H191	H19	0.992900	0.789900	0.360300
H201	H20	0.779700	0.740500	0.200100
H211	H21	0.643100	0.639700	0.210100
H221	H22	0.091500	0.734100	0.128100
H231	H23	0.955900	0.089100	0.230900
H241	H24	0.044100	0.275900	0.910900
H251	H25	0.731200	0.595000	0.376000
H261	H26	0.710100	0.507100	0.639700
H271	H27	0.643100	0.210100	0.639700
H281	H28	0.044100	0.910900	0.769100
H291	H29	0.007100	0.639700	0.210100
H301	H30	0.344500	0.461300	0.097100
H311	H31	0.628100	0.591500	0.046300
H321	H32	0.797800	0.231200	0.595000
H331	H33	0.139700	0.507100	0.143100
H341	H34	0.931900	0.431900	0.284900
H351	H35	0.685900	0.794700	0.414300
H361	H36	0.605100	0.185900	0.414300
H371	H37	0.775900	0.910900	0.544100
H381	H38	0.705300	0.894900	0.585700
H391	H39	0.091500	0.046300	0.128100
H401	H40	0.797800	0.595000	0.376000
H411	H41	0.202200	0.405000	0.624000
H421	H42	0.765900	0.408500	0.953700
H431	H43	0.914300	0.185900	0.105100
H441	H44	0.007100	0.143100	0.210100
H451	H45	0.589100	0.230900	0.724100
H461	H46	0.628100	0.046300	0.734100
H471	H47	0.824500	0.324500	0.175900
H481	H48	0.908500	0.871900	0.265900
H491	H49	0.453700	0.265900	0.408500
H501	H50	0.824900	0.675500	0.824100
H511	H51	0.914300	0.185900	0.794700
H521	H52	0.095000	0.231200	0.297800
H531	H53	0.992900	0.856900	0.360300
H541	H54	0.139700	0.507100	0.210100
H551	H55	0.053500	0.200500	0.053700
H561	H56	0.851300	0.284900	0.431900
H571	H57	0.124000	0.702200	0.405000
H581	H58	0.731200	0.376000	0.297800
H591	H59	0.427900	0.927900	0.460700
H601	H60	0.779700	0.200100	0.279700
H611	H61	0.410900	0.544100	0.275900
H621	H62	0.038700	0.155500	0.902900
H631	H63	0.992900	0.789900	0.856900
H641	H64	0.268800	0.624000	0.405000
H651	H65	0.643100	0.507100	0.639700
H661	H66	0.955900	0.230900	0.089100
H671	H67	0.139700	0.210100	0.507100
H681	H68	0.427900	0.183500	0.927900
H691	H69	0.402900	0.902900	0.538700
H701	H70	0.931900	0.351300	0.284900
H711	H71	0.759500	0.720300	0.799900
H721	H72	0.685900	0.414300	0.794700
H731	H73	0.824900	0.824100	0.675500
H741	H74	0.220300	0.799900	0.720300
H751	H75	0.220300	0.720300	0.259500
H761	H76	0.446300	0.307700	0.446500
H771	H77	0.797800	0.595000	0.231200
H781	H78	0.139700	0.210100	0.143100
H791	H79	0.589100	0.230900	0.455900
H801	H80	0.175500	0.675500	0.324900
H811	H81	0.628100	0.734100	0.046300
H821	H82	0.700500	0.692300	0.053700
H831	H83	0.710100	0.639700	0.507100
H841	H84	0.234100	0.046300	0.591500
H851	H85	0.851300	0.431900	0.284900
H861	H86	0.224100	0.089100	0.230900
H871	H87	0.344500	0.097100	0.097100
H881	H88	0.628100	0.046300	0.591500
H891	H89	0.876000	0.595000	0.231200
H901	H90	0.784900	0.351300	0.431900
H911	H91	0.175500	0.324900	0.824100
H921	H92	0.779700	0.279700	0.740500
H931	H93	0.299500	0.446500	0.307700
H941	H94	0.192300	0.053700	0.200500
H951	H95	0.705300	0.814100	0.585700
H961	H96	0.453700	0.871900	0.265900
H971	H97	0.410900	0.769100	0.275900
H981	H98	0.730900	0.089100	0.724100
H991	H99	0.316500	0.539300	0.072100
H1001	H100	0.731200	0.595000	0.297800
H1011	H101	0.446300	0.799500	0.307700
H1021	H102	0.931900	0.284900	0.351300
H1031	H103	0.643100	0.210100	0.507100
H1041	H104	0.402900	0.902900	0.155500
H1051	H105	0.234100	0.591500	0.128100
H1061	H106	0.192300	0.200500	0.053700
H1071	H107	0.807700	0.799500	0.946300
H1081	H108	0.402900	0.155500	0.902900
H1091	H109	0.546300	0.591500	0.734100
H1101	H110	0.946500	0.307700	0.799500
H1111	H111	0.446300	0.446500	0.307700
H1121	H112	0.946500	0.799500	0.946300
H1131	H113	0.685900	0.794700	0.105100
H1141	H114	0.085700	0.894900	0.205300
H1151	H115	0.876000	0.297800	0.231200
H1161	H116	0.710100	0.143100	0.639700
H1171	H117	0.765900	0.871900	0.953700
H1181	H118	0.095000	0.376000	0.297800
H1191	H119	0.765900	0.871900	0.408500
H1201	H120	0.427900	0.460700	0.183500
H1211	H121	0.294700	0.414300	0.105100
H1221	H122	0.139700	0.143100	0.210100
H1231	H123	0.095000	0.231200	0.376000
H1241	H124	0.643100	0.507100	0.210100
H1251	H125	0.675900	0.675100	0.324500
H1261	H126	0.289900	0.856900	0.360300
H1271	H127	0.371900	0.408500	0.265900
H1281	H128	0.992900	0.856900	0.789900
H1291	H129	0.905000	0.702200	0.768800
H1301	H130	0.992900	0.360300	0.789900
H1311	H131	0.224100	0.089100	0.455900
H1321	H132	0.905000	0.768800	0.702200
H1331	H133	0.914300	0.794700	0.105100
H1341	H134	0.091500	0.128100	0.046300
H1351	H135	0.700500	0.692300	0.553500
H1361	H136	0.546300	0.591500	0.128100
H1371	H137	0.124000	0.702200	0.768800
H1381	H138	0.394900	0.814100	0.205300
H1391	H139	0.553700	0.200500	0.553500
H1401	H140	0.589100	0.455900	0.230900
H1411	H141	0.946500	0.799500	0.307700
H1421	H142	0.553700	0.200500	0.692300
H1431	H143	0.730900	0.455900	0.724100
H1441	H144	0.124000	0.405000	0.702200
H1451	H145	0.655500	0.902900	0.538700
H1461	H146	0.905000	0.702200	0.624000
H1471	H147	0.589100	0.724100	0.455900
H1481	H148	0.446300	0.446500	0.799500
H1491	H149	0.914300	0.794700	0.185900
H1501	H150	0.268800	0.702200	0.624000
H1511	H151	0.240500	0.200100	0.279700
H1521	H152	0.605100	0.794700	0.414300
H1531	H153	0.775900	0.544100	0.769100
H1541	H154	0.730900	0.455900	0.089100
H1551	H155	0.961300	0.844500	0.097100
H1561	H156	0.779700	0.740500	0.279700
H1571	H157	0.960700	0.183500	0.927900
H1581	H158	0.851300	0.431900	0.431900
H1591	H159	0.597100	0.097100	0.461300
H1601	H160	0.299900	0.720300	0.259500
H1611	H161	0.589100	0.455900	0.724100
H1621	H162	0.992900	0.360300	0.856900
H1631	H163	0.961300	0.097100	0.097100
H1641	H164	0.446300	0.799500	0.446500
H1651	H165	0.807700	0.946300	0.446500
H1661	H166	0.299500	0.307700	0.946300
H1671	H167	0.091500	0.046300	0.734100
H1681	H168	0.905000	0.624000	0.768800
H1691	H169	0.039300	0.072100	0.816500
H1701	H170	0.394900	0.205300	0.814100
H1711	H171	0.700100	0.279700	0.740500
H1721	H172	0.410900	0.275900	0.769100
H1731	H173	0.324100	0.675500	0.675500
H1741	H174	0.314100	0.894900	0.205300
H1751	H175	0.784900	0.431900	0.351300
H1761	H176	0.824500	0.675100	0.324500
H1771	H177	0.700500	0.053700	0.692300
H1781	H178	0.224100	0.455900	0.089100
H1791	H179	0.053500	0.053700	0.200500
H1801	H180	0.700500	0.553500	0.692300
H1811	H181	0.299900	0.259500	0.720300
H1821	H182	0.931900	0.284900	0.431900
H1831	H183	0.394900	0.585700	0.205300
H1841	H184	0.572100	0.072100	0.816500
H1851	H185	0.765900	0.408500	0.871900
H1861	H186	0.683500	0.927900	0.460700
H1871	H187	0.038700	0.902900	0.155500
H1881	H188	0.705300	0.814100	0.894900
H1891	H189	0.268800	0.702200	0.405000
H1901	H190	0.202200	0.768800	0.624000
H1911	H191	0.053500	0.053700	0.692300
H1921	H192	0.765900	0.953700	0.871900
H1931	H193	0.192300	0.200500	0.553500
H1941	H194	0.572100	0.816500	0.539300
H1951	H195	0.605100	0.185900	0.794700
H1961	H196	0.946500	0.946300	0.307700
H1971	H197	0.371900	0.265900	0.953700
H1981	H198	0.044100	0.769100	0.910900
H1991	H199	0.316500	0.072100	0.539300
H2001	H200	0.202200	0.768800	0.405000
H2011	H201	0.427900	0.927900	0.183500
H2021	H202	0.589100	0.724100	0.230900
H2031	H203	0.700500	0.553500	0.053700
H2041	H204	0.860300	0.856900	0.492900
H2051	H205	0.068100	0.715100	0.648700
H2061	H206	0.914300	0.105100	0.794700
H2071	H207	0.824500	0.175900	0.324500
H2081	H208	0.068100	0.648700	0.568100
H2091	H209	0.759500	0.720300	0.720300
H2101	H210	0.446300	0.307700	0.799500
H2111	H211	0.234100	0.046300	0.128100
H2121	H212	0.371900	0.265900	0.408500
H2131	H213	0.007100	0.210100	0.639700
H2141	H214	0.955900	0.724100	0.089100
H2151	H215	0.908500	0.871900	0.953700
H2161	H216	0.085700	0.205300	0.894900
H2171	H217	0.224100	0.230900	0.455900
H2181	H218	0.175100	0.175900	0.324500
H2191	H219	0.710100	0.143100	0.507100
H2201	H220	0.324100	0.675500	0.324900
H2211	H221	0.044100	0.275900	0.769100
H2221	H222	0.175500	0.324900	0.675500
H2231	H223	0.546300	0.128100	0.734100
H2241	H224	0.091500	0.734100	0.046300
H2251	H225	0.124000	0.768800	0.702200
H2261	H226	0.007100	0.143100	0.639700
H2271	H227	0.876000	0.595000	0.297800
H2281	H228	0.068100	0.715100	0.568100
H2291	H229	0.268800	0.405000	0.624000
H2301	H230	0.220300	0.720300	0.799900
H2311	H231	0.316500	0.072100	0.072100
H2321	H232	0.192300	0.053700	0.553500
H2331	H233	0.553700	0.553500	0.692300
H2341	H234	0.655500	0.902900	0.902900
H2351	H235	0.314100	0.205300	0.585700
H2361	H236	0.215100	0.568100	0.648700
H2371	H237	0.730900	0.724100	0.455900
H2381	H238	0.371900	0.408500	0.953700
H2391	H239	0.192300	0.553500	0.053700
H2401	H240	0.675900	0.324500	0.675100
H2411	H241	0.453700	0.408500	0.265900
H2421	H242	0.546300	0.734100	0.591500
H2431	H243	0.202200	0.405000	0.768800
H2441	H244	0.294700	0.185900	0.414300
H2451	H245	0.289900	0.492900	0.360300
H2461	H246	0.410900	0.769100	0.544100
H2471	H247	0.876000	0.231200	0.297800
H2481	H248	0.946500	0.946300	0.799500
H2491	H249	0.356900	0.360300	0.789900
H2501	H250	0.628100	0.591500	0.734100
H2511	H251	0.356900	0.492900	0.789900
H2521	H252	0.124000	0.405000	0.768800
H2531	H253	0.824500	0.175900	0.675100
H2541	H254	0.427900	0.460700	0.927900
H2551	H255	0.960700	0.927900	0.183500
H2561	H256	0.269100	0.275900	0.910900
H2571	H257	0.797800	0.376000	0.595000
H2581	H258	0.148700	0.715100	0.568100
H2591	H259	0.730900	0.089100	0.455900
H2601	H260	0.175500	0.824100	0.675500
H2611	H261	0.643100	0.639700	0.507100
H2621	H262	0.371900	0.953700	0.408500
H2631	H263	0.860300	0.789900	0.492900
H2641	H264	0.765900	0.953700	0.408500
H2651	H265	0.314100	0.585700	0.894900
H2661	H266	0.268800	0.405000	0.702200
H2671	H267	0.220300	0.259500	0.799900
H2681	H268	0.705300	0.585700	0.894900
H2691	H269	0.039300	0.072100	0.072100
H2701	H270	0.730900	0.724100	0.089100
H2711	H271	0.202200	0.624000	0.405000
H2721	H272	0.402900	0.538700	0.155500
H2731	H273	0.605100	0.414300	0.185900
H2741	H274	0.068100	0.568100	0.715100
H2751	H275	0.289900	0.856900	0.492900
H2761	H276	0.148700	0.568100	0.568100
H2771	H277	0.224100	0.455900	0.230900
H2781	H278	0.175500	0.675500	0.824100
H2791	H279	0.085700	0.814100	0.894900
H2801	H280	0.775900	0.910900	0.769100
H2811	H281	0.731200	0.297800	0.376000
H2821	H282	0.007100	0.210100	0.143100
H2831	H283	0.124000	0.768800	0.405000
H2841	H284	0.269100	0.910900	0.544100
H2851	H285	0.085700	0.205300	0.814100
H2861	H286	0.955900	0.089100	0.724100
H2871	H287	0.905000	0.624000	0.702200
H2881	H288	0.394900	0.814100	0.585700
H2891	H289	0.139700	0.143100	0.507100
H2901	H290	0.710100	0.639700	0.143100
H2911	H291	0.675900	0.324500	0.324500
H2921	H292	0.955900	0.724100	0.230900
H2931	H293	0.605100	0.794700	0.185900
H2941	H294	0.946500	0.307700	0.946300
H2951	H295	0.269100	0.275900	0.544100
H2961	H296	0.091500	0.128100	0.734100
H2971	H297	0.299500	0.446500	0.946300
H2981	H298	0.597100	0.097100	0.844500
H2991	H299	0.908500	0.265900	0.953700
H3001	H300	0.908500	0.953700	0.871900
H3011	H301	0.038700	0.902900	0.902900
H3021	H302	0.234100	0.128100	0.046300
H3031	H303	0.175100	0.324500	0.175900
H3041	H304	0.775900	0.544100	0.910900
H3051	H305	0.955900	0.230900	0.724100
H3061	H306	0.685900	0.105100	0.794700
H3071	H307	0.731200	0.376000	0.595000
H3081	H308	0.807700	0.799500	0.446500
H3091	H309	0.053500	0.692300	0.200500
H3101	H310	0.402900	0.155500	0.538700
H3111	H311	0.775900	0.769100	0.910900
H3121	H312	0.931900	0.351300	0.431900
H3131	H313	0.597100	0.844500	0.097100
H3141	H314	0.371900	0.953700	0.265900
H3151	H315	0.299500	0.946300	0.307700
H3161	H316	0.044100	0.910900	0.275900
H3171	H317	0.597100	0.461300	0.844500
H3181	H318	0.220300	0.259500	0.720300
H3191	H319	0.775900	0.769100	0.544100
H3201	H320	0.908500	0.265900	0.871900
H3211	H321	0.700100	0.740500	0.279700
H3221	H322	0.224100	0.230900	0.089100
H3231	H323	0.410900	0.544100	0.769100
H3241	H324	0.240500	0.279700	0.200100
H3251	H325	0.234100	0.591500	0.046300
H3261	H326	0.860300	0.492900	0.856900
H3271	H327	0.085700	0.894900	0.814100
H3281	H328	0.044100	0.769100	0.275900
H3291	H329	0.356900	0.789900	0.360300
H3301	H330	0.876000	0.231200	0.595000
H3311	H331	0.453700	0.265900	0.871900
H3321	H332	0.220300	0.799900	0.259500
H3331	H333	0.807700	0.446500	0.799500
H3341	H334	0.268800	0.624000	0.702200
H3351	H335	0.215100	0.648700	0.568100
H3361	H336	0.175500	0.824100	0.324900
H3371	H337	0.700500	0.053700	0.553500
H3381	H338	0.314100	0.894900	0.585700
H3391	H339	0.085700	0.814100	0.205300
H3401	H340	0.453700	0.408500	0.871900
H3411	H341	0.202200	0.624000	0.768800
H3421	H342	0.453700	0.871900	0.408500
H3431	H343	0.807700	0.446500	0.946300
H3441	H344	0.824500	0.675100	0.175900
H3451	H345	0.759500	0.799900	0.720300
H3461	H346	0.797800	0.231200	0.376000
H3471	H347	0.269100	0.544100	0.910900
H3481	H348	0.314100	0.205300	0.894900
H3491	H349	0.572100	0.072100	0.539300
H3501	H350	0.039300	0.816500	0.072100
H3511	H351	0.148700	0.568100	0.715100
H3521	H352	0.779700	0.200100	0.740500
H3531	H353	0.797800	0.376000	0.231200
H3541	H354	0.192300	0.553500	0.200500
H3551	H355	0.572100	0.539300	0.072100
H3561	H356	0.269100	0.910900	0.275900
H3571	H357	0.860300	0.789900	0.856900
H3581	H358	0.860300	0.492900	0.789900
H3591	H359	0.683500	0.460700	0.927900
H3601	H360	0.314100	0.585700	0.205300
H3611	H361	0.053500	0.200500	0.692300
H3621	H362	0.068100	0.648700	0.715100
H3631	H363	0.356900	0.492900	0.360300
H3641	H364	0.175100	0.324500	0.324500
H3651	H365	0.394900	0.205300	0.585700
H3661	H366	0.546300	0.734100	0.128100
H3671	H367	0.961300	0.097100	0.844500
H3681	H368	0.572100	0.539300	0.816500
H3691	H369	0.824500	0.324500	0.675100
H3701	H370	0.628100	0.734100	0.591500
H3711	H371	0.215100	0.568100	0.568100
H3721	H372	0.784900	0.431900	0.431900
H3731	H373	0.876000	0.297800	0.595000
H3741	H374	0.394900	0.585700	0.814100
H3751	H375	0.294700	0.185900	0.105100
H3761	H376	0.095000	0.297800	0.376000
H3771	H377	0.807700	0.946300	0.799500
H3781	H378	0.294700	0.105100	0.414300
H3791	H379	0.234100	0.128100	0.591500
H3801	H380	0.710100	0.507100	0.143100
H3811	H381	0.553700	0.692300	0.553500
H3821	H382	0.905000	0.768800	0.624000
H3831	H383	0.546300	0.128100	0.591500
H3841	H384	0.095000	0.376000	0.231200
H3851	H385	0.655500	0.538700	0.902900
H3861	H386	0.700100	0.279700	0.279700
H3871	H387	0.324100	0.324900	0.675500
H3881	H388	0.705300	0.894900	0.814100
H3891	H389	0.779700	0.279700	0.200100
H3901	H390	0.553700	0.553500	0.200500
H3911	H391	0.289900	0.360300	0.856900
H3921	H392	0.294700	0.414300	0.185900
H3931	H393	0.356900	0.789900	0.492900
H3941	H394	0.299500	0.307700	0.446500
H3951	H395	0.007100	0.639700	0.143100
H3961	H396	0.605100	0.414300	0.794700
H3971	H397	0.824900	0.675500	0.675500
H3981	H398	0.685900	0.105100	0.414300
H3991	H399	0.931900	0.431900	0.351300
H4001	H400	0.860300	0.856900	0.789900
H4011	H401	0.289900	0.360300	0.492900
H4021	H402	0.597100	0.461300	0.097100
H4031	H403	0.240500	0.279700	0.279700
H4041	H404	0.299900	0.720300	0.720300
H4051	H405	0.597100	0.844500	0.461300
H4061	H406	0.289900	0.492900	0.856900
H4071	H407	0.572100	0.816500	0.072100
H4081	H408	0.410900	0.275900	0.544100
C11	C1	0.106020	0.312220	0.358420
C21	C2	0.153640	0.190960	0.327700
C31	C3	0.615170	0.801270	0.163070
C41	C4	0.659520	0.450520	0.830080
C51	C5	0.384830	0.836930	0.579510
C61	C6	0.141210	0.567590	0.105010
C71	C7	0.784920	0.237800	0.739480
C81	C8	0.706000	0.872200	0.973000
C91	C9	0.022520	0.778500	0.318040
C101	C10	0.938480	0.821560	0.143620
C111	C11	0.619060	0.221500	0.681960
C121	C12	0.063900	0.610700	0.714700
C131	C13	0.172300	0.346360	0.672300
C141	C14	0.711010	0.658190	0.506610
C151	C15	0.976200	0.708700	0.223800
C161	C16	0.294000	0.027000	0.127800
C171	C17	0.085200	0.109400	0.060400
C181	C18	0.294000	0.551200	0.027000
C191	C19	0.412300	0.271100	0.404300
C201	C20	0.791300	0.776200	0.523800
C211	C21	0.706000	0.448800	0.973000
C221	C22	0.946320	0.227520	0.679080
C231	C23	0.412300	0.404300	0.912300
C241	C24	0.458800	0.499400	0.785600
C251	C25	0.089140	0.850400	0.210060
C261	C26	0.965930	0.929130	0.794670
C271	C27	0.715700	0.067460	0.712680
C281	C28	0.298220	0.336020	0.901180
C291	C29	0.172300	0.346360	0.809040
C301	C30	0.161900	0.661900	0.409540
C311	C31	0.181960	0.119060	0.477480
C321	C32	0.276200	0.523800	0.291300
C331	C33	0.602200	0.564800	0.778200
C341	C34	0.284300	0.287320	0.932540
C351	C35	0.329800	0.829800	0.235260
C361	C36	0.805870	0.201890	0.354410
C371	C37	0.389600	0.551920	0.168880
C381	C38	0.187780	0.641580	0.776660
C391	C39	0.575700	0.553700	0.794900
C401	C40	0.106020	0.312220	0.223340
C411	C41	0.340480	0.549480	0.169920
C421	C42	0.214840	0.579000	0.627160
C431	C43	0.968500	0.371100	0.289300
C441	C44	0.294000	0.027000	0.551200
C451	C45	0.161900	0.409540	0.766660
C461	C46	0.706000	0.448800	0.872200
C471	C47	0.445200	0.221800	0.435200
C481	C48	0.095700	0.087700	0.087700
C491	C49	0.605010	0.186190	0.641210
C501	C50	0.705330	0.070870	0.534070
C511	C51	0.128900	0.710700	0.531500
C521	C52	0.701890	0.354410	0.637830
C531	C53	0.380940	0.522520	0.318040
C541	C54	0.067590	0.105010	0.186190
C551	C55	0.894860	0.764740	0.170200
C561	C56	0.278100	0.730900	0.730900
C571	C57	0.721500	0.681960	0.477480
C581	C58	0.356380	0.561520	0.903660
C591	C59	0.440120	0.549480	0.840480
C601	C60	0.649600	0.789940	0.410860
C611	C61	0.266660	0.409540	0.661900
C621	C62	0.215080	0.762200	0.260520
C631	C63	0.034070	0.070870	0.689730
C641	C64	0.965930	0.794670	0.310270
C651	C65	0.705100	0.924300	0.924300
C661	C66	0.791300	0.523800	0.776200
C671	C67	0.893980	0.776660	0.687780
C681	C68	0.993390	0.875810	0.788990
C691	C69	0.627800	0.551200	0.794000
C701	C70	0.541200	0.214400	0.500600
C711	C71	0.862170	0.694130	0.645590
C721	C72	0.810270	0.794670	0.465930
C731	C73	0.727520	0.679080	0.446320
C741	C74	0.172300	0.809040	0.672300
C751	C75	0.401180	0.798220	0.336020
C761	C76	0.458800	0.256200	0.785600
C771	C77	0.932410	0.358790	0.894990
C781	C78	0.272480	0.553680	0.320920
C791	C79	0.559880	0.450520	0.830080
C801	C80	0.723340	0.312220	0.606020
C811	C81	0.298220	0.464580	0.901180
C821	C82	0.408700	0.776200	0.291300
C831	C83	0.587700	0.087700	0.595700
C841	C84	0.570870	0.689730	0.205330
C851	C85	0.827700	0.653640	0.190960
C861	C86	0.715700	0.067460	0.504160
C871	C87	0.541200	0.214400	0.743800
C881	C88	0.541200	0.500600	0.743800
C891	C89	0.210700	0.531500	0.628900
C901	C90	0.609400	0.585200	0.060400
C911	C91	0.329800	0.605140	0.829800
C921	C92	0.910860	0.789940	0.149600
C931	C93	0.965930	0.310270	0.794670
C941	C94	0.624190	0.506610	0.211010
C951	C95	0.394990	0.813810	0.432410
C961	C96	0.591300	0.223800	0.476200
C971	C97	0.812220	0.223340	0.606020
C981	C98	0.245000	0.060400	0.585200
C991	C99	0.977480	0.681960	0.119060
C1001	C100	0.610400	0.110400	0.448080
C1011	C101	0.821380	0.220800	0.737020
C1021	C102	0.663070	0.801270	0.420490
C1031	C103	0.591300	0.708700	0.223800
C1041	C104	0.846360	0.672300	0.809040
C1051	C105	0.375810	0.493390	0.788990
C1061	C106	0.458800	0.785600	0.499400
C1071	C107	0.591300	0.476200	0.223800
C1081	C108	0.721800	0.945200	0.435200
C1091	C109	0.141210	0.105010	0.186190
C1101	C110	0.189730	0.070870	0.205330
C1111	C111	0.686190	0.641210	0.105010
C1121	C112	0.279200	0.262980	0.779200
C1131	C113	0.408700	0.523800	0.291300
C1141	C114	0.237020	0.321380	0.220800
C1151	C115	0.004160	0.215700	0.712680
C1161	C116	0.858790	0.813810	0.432410
C1171	C117	0.294900	0.075700	0.075700
C1181	C118	0.294000	0.127800	0.027000
C1191	C119	0.178620	0.779200	0.262980
C1201	C120	0.818040	0.880940	0.522520
C1211	C121	0.163980	0.535420	0.201780
C1221	C122	0.668880	0.551920	0.889600
C1231	C123	0.936100	0.389300	0.389300
C1241	C124	0.278500	0.318040	0.522520
C1251	C125	0.844100	0.723500	0.806620
C1261	C126	0.278500	0.318040	0.880940
C1271	C127	0.035420	0.098820	0.201780
C1281	C128	0.698730	0.836930	0.579510
C1291	C129	0.006610	0.124190	0.658190
C1301	C130	0.288990	0.875810	0.341810
C1311	C131	0.737800	0.237800	0.739480
C1321	C132	0.294900	0.553700	0.075700
C1331	C133	0.575700	0.794900	0.553700
C1341	C134	0.051200	0.027000	0.794000
C1351	C135	0.161900	0.766660	0.661900
C1361	C136	0.006610	0.124190	0.211010
C1371	C137	0.567460	0.504160	0.215700
C1381	C138	0.854410	0.201890	0.637830
C1391	C139	0.846360	0.672300	0.672300
C1401	C140	0.473000	0.448800	0.872200
C1411	C141	0.841810	0.788990	0.875810
C1421	C142	0.791300	0.776200	0.908700
C1431	C143	0.329800	0.605140	0.235260
C1441	C144	0.022520	0.318040	0.778500
C1451	C145	0.591300	0.708700	0.476200
C1461	C146	0.624190	0.211010	0.658190
C1471	C147	0.412300	0.912300	0.271100
C1481	C148	0.294670	0.929130	0.310270
C1491	C149	0.776500	0.374220	0.655900
C1501	C150	0.619060	0.681960	0.477480
C1511	C151	0.239480	0.237800	0.237800
C1521	C152	0.004160	0.215700	0.067460
C1531	C153	0.294670	0.465930	0.310270
C1541	C154	0.784920	0.237800	0.237800
C1551	C155	0.758440	0.341400	0.558760
C1561	C156	0.643620	0.821560	0.438480
C1571	C157	0.591300	0.476200	0.708700
C1581	C158	0.179080	0.227520	0.147080
C1591	C159	0.587700	0.595700	0.728900
C1601	C160	0.787320	0.495840	0.932540
C1611	C161	0.554800	0.778200	0.102200
C1621	C162	0.137830	0.201890	0.354410
C1631	C163	0.698730	0.579510	0.836930
C1641	C164	0.212680	0.215700	0.067460
C1651	C165	0.394990	0.358790	0.432410
C1661	C166	0.106020	0.358420	0.312220
C1671	C167	0.145590	0.362170	0.798110
C1681	C168	0.946320	0.679080	0.227520
C1691	C169	0.668880	0.889600	0.889600
C1701	C170	0.993390	0.341810	0.788990
C1711	C171	0.022520	0.778500	0.880940
C1721	C172	0.137830	0.201890	0.305870
C1731	C173	0.155900	0.374220	0.276500
C1741	C174	0.276660	0.687780	0.641580
C1751	C175	0.595800	0.615400	0.693000
C1761	C176	0.331120	0.110400	0.110400
C1771	C177	0.298110	0.362170	0.645590
C1781	C178	0.587700	0.087700	0.728900
C1791	C179	0.412300	0.404300	0.271100
C1801	C180	0.769100	0.221900	0.269100
C1811	C181	0.844100	0.806620	0.723500
C1821	C182	0.663070	0.420490	0.801270
C1831	C183	0.141580	0.687780	0.776660
C1841	C184	0.004160	0.067460	0.712680
C1851	C185	0.627800	0.027000	0.551200
C1861	C186	0.701780	0.663980	0.535420
C1871	C187	0.686190	0.105010	0.567590
C1881	C188	0.921000	0.285160	0.421000
C1891	C189	0.627800	0.551200	0.027000
C1901	C190	0.670200	0.170200	0.764740
C1911	C191	0.390600	0.255000	0.414800
C1921	C192	0.239480	0.284920	0.237800
C1931	C193	0.976200	0.223800	0.091300
C1941	C194	0.330080	0.159520	0.450520
C1951	C195	0.756200	0.958800	0.785600
C1961	C196	0.721800	0.435200	0.945200
C1971	C197	0.838100	0.590460	0.338100
C1981	C198	0.158600	0.658600	0.741560
C1991	C199	0.950520	0.159520	0.059880
C2001	C200	0.609400	0.585200	0.745000
C2011	C201	0.158600	0.741560	0.658600
C2021	C202	0.306620	0.625780	0.344100
C2031	C203	0.965930	0.794670	0.929130
C2041	C204	0.239900	0.269100	0.269100
C2051	C205	0.403660	0.856380	0.561520
C2061	C206	0.858420	0.223340	0.606020
C2071	C207	0.336930	0.579510	0.884830
C2081	C208	0.827700	0.327700	0.190960
C2091	C209	0.871100	0.371100	0.468500
C2101	C210	0.541200	0.743800	0.500600
C2111	C211	0.429130	0.794670	0.465930
C2121	C212	0.298110	0.645590	0.362170
C2131	C213	0.711010	0.124190	0.658190
C2141	C214	0.053680	0.852920	0.772480
C2151	C215	0.061520	0.856380	0.178440
C2161	C216	0.266660	0.661900	0.661900
C2171	C217	0.670200	0.764740	0.170200
C2181	C218	0.352920	0.320920	0.553680
C2191	C219	0.340480	0.169920	0.940120
C2201	C220	0.964580	0.901180	0.798220
C2211	C221	0.058760	0.341400	0.258440
C2221	C222	0.693380	0.374220	0.655900
C2231	C223	0.776500	0.193380	0.655900
C2241	C224	0.243800	0.214400	0.500600
C2251	C225	0.595800	0.095800	0.615400
C2261	C226	0.649600	0.789940	0.149600
C2271	C227	0.874220	0.655900	0.276500
C2281	C228	0.995840	0.784300	0.932540
C2291	C229	0.445200	0.435200	0.897800
C2301	C230	0.350400	0.589140	0.210060
C2311	C231	0.137830	0.354410	0.201890
C2321	C232	0.006610	0.658190	0.124190
C2331	C233	0.587700	0.728900	0.595700
C2341	C234	0.570870	0.534070	0.205330
C2351	C235	0.106020	0.223340	0.312220
C2361	C236	0.049480	0.940120	0.169920
C2371	C237	0.023800	0.291300	0.776200
C2381	C238	0.701780	0.535420	0.663980
C2391	C239	0.914800	0.939600	0.890600
C2401	C240	0.384830	0.198730	0.579510
C2411	C241	0.932410	0.813810	0.358790
C2421	C242	0.527000	0.127800	0.794000
C2431	C243	0.245000	0.060400	0.109400
C2441	C244	0.559880	0.159520	0.450520
C2451	C245	0.935200	0.221800	0.945200
C2461	C246	0.187780	0.393980	0.776660
C2471	C247	0.079000	0.579000	0.714840
C2481	C248	0.690960	0.327700	0.327700
C2491	C249	0.237020	0.220800	0.220800
C2501	C250	0.698730	0.884830	0.579510
C2511	C251	0.889300	0.436100	0.389300
C2521	C252	0.128900	0.531500	0.628900
C2531	C253	0.760100	0.730900	0.730900
C2541	C254	0.241560	0.658600	0.441240
C2551	C255	0.615170	0.420490	0.801270
C2561	C256	0.432540	0.784300	0.287320
C2571	C257	0.298110	0.694130	0.362170
C2581	C258	0.023800	0.776200	0.908700
C2591	C259	0.670200	0.764740	0.394860
C2601	C260	0.079510	0.836930	0.884830
C2611	C261	0.212680	0.504160	0.067460
C2621	C262	0.194130	0.645590	0.362170
C2631	C263	0.285600	0.958800	0.499400
C2641	C264	0.208700	0.223800	0.091300
C2651	C265	0.727520	0.147080	0.679080
C2661	C266	0.262200	0.762200	0.260520
C2671	C267	0.384830	0.579510	0.198730
C2681	C268	0.278200	0.564800	0.054800
C2691	C269	0.995840	0.932540	0.784300
C2701	C270	0.384830	0.198730	0.836930
C2711	C271	0.968500	0.371100	0.371100
C2721	C272	0.755000	0.939600	0.414800
C2731	C273	0.598820	0.535420	0.201780
C2741	C274	0.760520	0.762200	0.762200
C2751	C275	0.095700	0.087700	0.728900
C2761	C276	0.340480	0.940120	0.169920
C2771	C277	0.137830	0.305870	0.354410
C2781	C278	0.659520	0.830080	0.059880
C2791	C279	0.527000	0.551200	0.794000
C2801	C280	0.721900	0.739900	0.269100
C2811	C281	0.105140	0.235260	0.829800
C2821	C282	0.527000	0.127800	0.551200
C2831	C283	0.061520	0.903660	0.178440
C2841	C284	0.051920	0.889600	0.168880
C2851	C285	0.769100	0.739900	0.269100
C2861	C286	0.079510	0.198730	0.836930
C2871	C287	0.158190	0.211010	0.124190
C2881	C288	0.294670	0.929130	0.465930
C2891	C289	0.596340	0.821560	0.438480
C2901	C290	0.787320	0.784300	0.495840
C2911	C291	0.049480	0.169920	0.840480
C2921	C292	0.723800	0.708700	0.091300
C2931	C293	0.560400	0.745000	0.585200
C2941	C294	0.262200	0.715080	0.762200
C2951	C295	0.711010	0.658190	0.124190
C2961	C296	0.298110	0.694130	0.645590
C2971	C297	0.145590	0.694130	0.362170
C2981	C298	0.946300	0.924300	0.205100
C2991	C299	0.051200	0.794000	0.027000
C3001	C300	0.862170	0.694130	0.798110
C3011	C301	0.920490	0.801270	0.163070
C3021	C302	0.239900	0.269100	0.221900
C3031	C303	0.155900	0.374220	0.193380
C3041	C304	0.893980	0.776660	0.641580
C3051	C305	0.914800	0.890600	0.939600
C3061	C306	0.439600	0.255000	0.414800
C3071	C307	0.125780	0.344100	0.723500
C3081	C308	0.394990	0.358790	0.813810
C3091	C309	0.938480	0.821560	0.096340
C3101	C310	0.827700	0.327700	0.653640
C3111	C311	0.223500	0.806620	0.625780
C3121	C312	0.230900	0.260100	0.730900
C3131	C313	0.306620	0.344100	0.625780
C3141	C314	0.053680	0.320920	0.772480
C3151	C315	0.243800	0.041200	0.214400
C3161	C316	0.352920	0.772480	0.553680
C3171	C317	0.643620	0.438480	0.821560
C3181	C318	0.737800	0.739480	0.237800
C3191	C319	0.649600	0.410860	0.149600
C3201	C320	0.893980	0.687780	0.641580
C3211	C321	0.473000	0.206000	0.448800
C3221	C322	0.705100	0.924300	0.446300
C3231	C323	0.294000	0.127800	0.551200
C3241	C324	0.125780	0.806620	0.723500
C3251	C325	0.836020	0.798220	0.901180
C3261	C326	0.330080	0.450520	0.159520
C3271	C327	0.408700	0.291300	0.776200
C3281	C328	0.276660	0.393980	0.687780
C3291	C329	0.909540	0.661900	0.766660
C3301	C330	0.721800	0.897800	0.435200
C3311	C331	0.289940	0.410860	0.149600
C3321	C332	0.329800	0.235260	0.829800
C3331	C333	0.161900	0.766660	0.409540
C3341	C334	0.301270	0.420490	0.163070
C3351	C335	0.276200	0.908700	0.523800
C3361	C336	0.397800	0.435200	0.221800
C3371	C337	0.115400	0.693000	0.095800
C3381	C338	0.445200	0.897800	0.435200
C3391	C339	0.064800	0.778200	0.102200
C3401	C340	0.812220	0.606020	0.223340
C3411	C341	0.627800	0.794000	0.551200
C3421	C342	0.194130	0.645590	0.798110
C3431	C343	0.610400	0.448080	0.110400
C3441	C344	0.921000	0.372840	0.285160
C3451	C345	0.179080	0.446320	0.227520
C3461	C346	0.158600	0.441240	0.658600
C3471	C347	0.760520	0.715080	0.762200
C3481	C348	0.278500	0.880940	0.522520
C3491	C349	0.372200	0.448800	0.206000
C3501	C350	0.288990	0.493390	0.341810
C3511	C351	0.723340	0.358420	0.606020
C3521	C352	0.158190	0.506610	0.124190
C3531	C353	0.085200	0.745000	0.109400
C3541	C354	0.000600	0.041200	0.743800
C3551	C355	0.976200	0.091300	0.223800
C3561	C356	0.893980	0.687780	0.776660
C3571	C357	0.776500	0.193380	0.374220
C3581	C358	0.715700	0.504160	0.712680
C3591	C359	0.812220	0.358420	0.606020
C3601	C360	0.189730	0.205330	0.070870
C3611	C361	0.193000	0.095800	0.095800
C3621	C362	0.758440	0.341400	0.341400
C3631	C363	0.698730	0.884830	0.836930
C3641	C364	0.053680	0.320920	0.852920
C3651	C365	0.189730	0.070870	0.534070
C3661	C366	0.458800	0.499400	0.256200
C3671	C367	0.223500	0.344100	0.806620
C3681	C368	0.372200	0.206000	0.448800
C3691	C369	0.619060	0.477480	0.681960
C3701	C370	0.762980	0.779200	0.779200
C3711	C371	0.128900	0.628900	0.531500
C3721	C372	0.760100	0.778100	0.730900
C3731	C373	0.208700	0.223800	0.476200
C3741	C374	0.760520	0.762200	0.715080
C3751	C375	0.403660	0.561520	0.178440
C3761	C376	0.871100	0.289300	0.371100
C3771	C377	0.432540	0.495840	0.287320
C3781	C378	0.698730	0.579510	0.884830
C3791	C379	0.678440	0.561520	0.856380
C3801	C380	0.756200	0.785600	0.499400
C3811	C381	0.874220	0.276500	0.193380
C3821	C382	0.874220	0.655900	0.193380
C3831	C383	0.769100	0.221900	0.739900
C3841	C384	0.401180	0.798220	0.464580
C3851	C385	0.390600	0.414800	0.255000
C3861	C386	0.278200	0.054800	0.102200
C3871	C387	0.127160	0.579000	0.579000
C3881	C388	0.172300	0.672300	0.809040
C3891	C389	0.210700	0.628900	0.628900
C3901	C390	0.380940	0.318040	0.522520
C3911	C391	0.570870	0.205330	0.689730
C3921	C392	0.155900	0.193380	0.276500
C3931	C393	0.031500	0.628900	0.628900
C3941	C394	0.214700	0.563900	0.610700
C3951	C395	0.789300	0.468500	0.371100
C3961	C396	0.309040	0.346360	0.672300
C3971	C397	0.340480	0.169920	0.549480
C3981	C398	0.705100	0.446300	0.924300
C3991	C399	0.403660	0.856380	0.178440
C4001	C400	0.805870	0.637830	0.354410
C4011	C401	0.854410	0.637830	0.201890
C4021	C402	0.904300	0.912300	0.912300
C4031	C403	0.058760	0.341400	0.341400
C4041	C404	0.000600	0.214400	0.743800
C4051	C405	0.948080	0.110400	0.831120
C4061	C406	0.587700	0.728900	0.087700
C4071	C407	0.053680	0.772480	0.320920
C4081	C408	0.871100	0.468500	0.371100
C4091	C409	0.789300	0.371100	0.468500
C4101	C410	0.031500	0.628900	0.710700
C4111	C411	0.141580	0.393980	0.687780
C4121	C412	0.889300	0.436100	0.285300
C4131	C413	0.110700	0.610700	0.714700
C4141	C414	0.356380	0.178440	0.561520
C4151	C415	0.105140	0.829800	0.829800
C4161	C416	0.313810	0.894990	0.432410
C4171	C417	0.710060	0.850400	0.589140
C4181	C418	0.914800	0.255000	0.890600
C4191	C419	0.445200	0.221800	0.897800
C4201	C420	0.285600	0.499400	0.958800
C4211	C421	0.999400	0.785600	0.256200
C4221	C422	0.193000	0.095800	0.615400
C4231	C423	0.473000	0.872200	0.206000
C4241	C424	0.276200	0.291300	0.908700
C4251	C425	0.298220	0.464580	0.336020
C4261	C426	0.278200	0.102200	0.564800
C4271	C427	0.285600	0.958800	0.256200
C4281	C428	0.570870	0.689730	0.534070
C4291	C429	0.595800	0.615400	0.095800
C4301	C430	0.284300	0.932540	0.495840
C4311	C431	0.051920	0.889600	0.889600
C4321	C432	0.061520	0.178440	0.856380
C4331	C433	0.733340	0.590460	0.338100
C4341	C434	0.541200	0.500600	0.214400
C4351	C435	0.079000	0.627160	0.714840
C4361	C436	0.615170	0.801270	0.420490
C4371	C437	0.575700	0.553700	0.075700
C4381	C438	0.179080	0.446320	0.147080
C4391	C439	0.575700	0.075700	0.794900
C4401	C440	0.605010	0.186190	0.567590
C4411	C441	0.598820	0.535420	0.663980
C4421	C442	0.690960	0.653640	0.327700
C4431	C443	0.187780	0.393980	0.641580
C4441	C444	0.610400	0.110400	0.831120
C4451	C445	0.127160	0.579000	0.714840
C4461	C446	0.841400	0.258440	0.341400
C4471	C447	0.214700	0.610700	0.563900
C4481	C448	0.663070	0.115170	0.801270
C4491	C449	0.862170	0.798110	0.694130
C4501	C450	0.858420	0.312220	0.223340
C4511	C451	0.701890	0.354410	0.305870
C4521	C452	0.805870	0.354410	0.201890
C4531	C453	0.575700	0.794900	0.075700
C4541	C454	0.705330	0.689730	0.534070
C4551	C455	0.161900	0.409540	0.661900
C4561	C456	0.329800	0.235260	0.605140
C4571	C457	0.710060	0.589140	0.850400
C4581	C458	0.941240	0.741560	0.658600
C4591	C459	0.375810	0.788990	0.341810
C4601	C460	0.619060	0.221500	0.477480
C4611	C461	0.272480	0.320920	0.553680
C4621	C462	0.807000	0.904200	0.904200
C4631	C463	0.836020	0.464580	0.901180
C4641	C464	0.560400	0.109400	0.745000
C4651	C465	0.771100	0.912300	0.404300
C4661	C466	0.243800	0.214400	0.041200
C4671	C467	0.163980	0.098820	0.201780
C4681	C468	0.678440	0.903660	0.856380
C4691	C469	0.067590	0.105010	0.641210
C4701	C470	0.397800	0.945200	0.435200
C4711	C471	0.031500	0.710700	0.628900
C4721	C472	0.187780	0.776660	0.393980
C4731	C473	0.706000	0.973000	0.448800
C4741	C474	0.262200	0.260520	0.762200
C4751	C475	0.932410	0.894990	0.813810
C4761	C476	0.964580	0.336020	0.901180
C4771	C477	0.429130	0.310270	0.465930
C4781	C478	0.720800	0.737020	0.220800
C4791	C479	0.706000	0.872200	0.448800
C4801	C480	0.701890	0.305870	0.637830
C4811	C481	0.158190	0.124190	0.506610
C4821	C482	0.735260	0.829800	0.829800
C4831	C483	0.785160	0.421000	0.372840
C4841	C484	0.408700	0.291300	0.523800
C4851	C485	0.871100	0.289300	0.468500
C4861	C486	0.701780	0.098820	0.663980
C4871	C487	0.554800	0.102200	0.564800
C4881	C488	0.223500	0.344100	0.625780
C4891	C489	0.527000	0.794000	0.551200
C4901	C490	0.805870	0.354410	0.637830
C4911	C491	0.228900	0.087700	0.087700
C4921	C492	0.776500	0.655900	0.193380
C4931	C493	0.163980	0.201780	0.098820
C4941	C494	0.181960	0.119060	0.221500
C4951	C495	0.948080	0.831120	0.110400
C4961	C496	0.163980	0.201780	0.535420
C4971	C497	0.690960	0.327700	0.653640
C4981	C498	0.298220	0.901180	0.464580
C4991	C499	0.000600	0.743800	0.214400
C5001	C500	0.356380	0.178440	0.903660
C5011	C501	0.950520	0.059880	0.830080
C5021	C502	0.404200	0.384600	0.904200
C5031	C503	0.245000	0.109400	0.060400
C5041	C504	0.051200	0.794000	0.127800
C5051	C505	0.085200	0.060400	0.745000
C5061	C506	0.403660	0.178440	0.856380
C5071	C507	0.874220	0.193380	0.276500
C5081	C508	0.541200	0.743800	0.214400
C5091	C509	0.155900	0.193380	0.374220
C5101	C510	0.602200	0.778200	0.054800
C5111	C511	0.615170	0.163070	0.801270
C5121	C512	0.331120	0.110400	0.448080
C5131	C513	0.401180	0.336020	0.798220
C5141	C514	0.445200	0.435200	0.221800
C5151	C515	0.762980	0.779200	0.678620
C5161	C516	0.720800	0.220800	0.321380
C5171	C517	0.920490	0.115170	0.801270
C5181	C518	0.838100	0.338100	0.590460
C5191	C519	0.884600	0.904200	0.307000
C5201	C520	0.821380	0.737020	0.220800
C5211	C521	0.615170	0.420490	0.163070
C5221	C522	0.079000	0.714840	0.627160
C5231	C523	0.723800	0.091300	0.708700
C5241	C524	0.298220	0.901180	0.336020
C5251	C525	0.053700	0.794900	0.075700
C5261	C526	0.678440	0.903660	0.561520
C5271	C527	0.701890	0.637830	0.305870
C5281	C528	0.935200	0.221800	0.897800
C5291	C529	0.473000	0.206000	0.872200
C5301	C530	0.284300	0.932540	0.287320
C5311	C531	0.787320	0.784300	0.932540
C5321	C532	0.976200	0.708700	0.091300
C5331	C533	0.210700	0.628900	0.531500
C5341	C534	0.872840	0.421000	0.285160
C5351	C535	0.128900	0.628900	0.710700
C5361	C536	0.051200	0.127800	0.027000
C5371	C537	0.432540	0.287320	0.784300
C5381	C538	0.701890	0.305870	0.354410
C5391	C539	0.301270	0.420490	0.115170
C5401	C540	0.330080	0.159520	0.059880
C5411	C541	0.243800	0.500600	0.041200
C5421	C542	0.181960	0.477480	0.119060
C5431	C543	0.313810	0.432410	0.894990
C5441	C544	0.993390	0.788990	0.875810
C5451	C545	0.404200	0.904200	0.307000
C5461	C546	0.179080	0.227520	0.446320
C5471	C547	0.807000	0.384600	0.904200
C5481	C548	0.921000	0.285160	0.372840
C5491	C549	0.179080	0.147080	0.446320
C5501	C550	0.352920	0.320920	0.772480
C5511	C551	0.272480	0.320920	0.852920
C5521	C552	0.935200	0.897800	0.945200
C5531	C553	0.950520	0.830080	0.159520
C5541	C554	0.596340	0.143620	0.821560
C5551	C555	0.034070	0.689730	0.205330
C5561	C556	0.298110	0.645590	0.694130
C5571	C557	0.647080	0.227520	0.446320
C5581	C558	0.686190	0.641210	0.567590
C5591	C559	0.228900	0.595700	0.087700
C5601	C560	0.596340	0.821560	0.143620
C5611	C561	0.155900	0.276500	0.193380
C5621	C562	0.999400	0.256200	0.785600
C5631	C563	0.755000	0.414800	0.890600
C5641	C564	0.715700	0.712680	0.067460
C5651	C565	0.721900	0.269100	0.269100
C5661	C566	0.053680	0.772480	0.852920
C5671	C567	0.230900	0.778100	0.730900
C5681	C568	0.720800	0.220800	0.737020
C5691	C569	0.737800	0.237800	0.284920
C5701	C570	0.380940	0.778500	0.522520
C5711	C571	0.904300	0.271100	0.912300
C5721	C572	0.321560	0.096340	0.438480
C5731	C573	0.999400	0.958800	0.256200
C5741	C574	0.560400	0.109400	0.585200
C5751	C575	0.705330	0.534070	0.689730
C5761	C576	0.977480	0.221500	0.681960
C5771	C577	0.858420	0.606020	0.312220
C5781	C578	0.721500	0.477480	0.681960
C5791	C579	0.356380	0.561520	0.178440
C5801	C580	0.390600	0.939600	0.414800
C5811	C581	0.567460	0.215700	0.712680
C5821	C582	0.336930	0.579510	0.198730
C5831	C583	0.340480	0.549480	0.940120
C5841	C584	0.560400	0.585200	0.745000
C5851	C585	0.394990	0.432410	0.813810
C5861	C586	0.705330	0.070870	0.689730
C5871	C587	0.920490	0.163070	0.801270
C5881	C588	0.110700	0.714700	0.563900
C5891	C589	0.278200	0.564800	0.102200
C5901	C590	0.999400	0.785600	0.958800
C5911	C591	0.375810	0.788990	0.493390
C5921	C592	0.306620	0.723500	0.625780
C5931	C593	0.935200	0.945200	0.221800
C5941	C594	0.560400	0.745000	0.109400
C5951	C595	0.313810	0.358790	0.432410
C5961	C596	0.820920	0.772480	0.553680
C5971	C597	0.647080	0.679080	0.446320
C5981	C598	0.079510	0.836930	0.198730
C5991	C599	0.158600	0.741560	0.441240
C6001	C600	0.321560	0.438480	0.143620
C6011	C601	0.706000	0.973000	0.872200
C6021	C602	0.714400	0.500600	0.743800
C6031	C603	0.262200	0.762200	0.715080
C6041	C604	0.714400	0.041200	0.500600
C6051	C605	0.276200	0.908700	0.291300
C6061	C606	0.380940	0.318040	0.778500
C6071	C607	0.559880	0.159520	0.830080
C6081	C608	0.619060	0.681960	0.221500
C6091	C609	0.128900	0.531500	0.710700
C6101	C610	0.424300	0.446300	0.205100
C6111	C611	0.721500	0.477480	0.119060
C6121	C612	0.812220	0.606020	0.358420
C6131	C613	0.827700	0.190960	0.653640
C6141	C614	0.686190	0.567590	0.105010
C6151	C615	0.208700	0.091300	0.476200
C6161	C616	0.649600	0.410860	0.789940
C6171	C617	0.737800	0.739480	0.284920
C6181	C618	0.424300	0.205100	0.924300
C6191	C619	0.336930	0.198730	0.884830
C6201	C620	0.306620	0.723500	0.344100
C6211	C621	0.810270	0.465930	0.929130
C6221	C622	0.841810	0.875810	0.493390
C6231	C623	0.701890	0.637830	0.354410
C6241	C624	0.288990	0.493390	0.875810
C6251	C625	0.375810	0.341810	0.788990
C6261	C626	0.935200	0.945200	0.897800
C6271	C627	0.313810	0.432410	0.358790
C6281	C628	0.723340	0.606020	0.312220
C6291	C629	0.735260	0.829800	0.605140
C6301	C630	0.241560	0.441240	0.658600
C6311	C631	0.605010	0.567590	0.641210
C6321	C632	0.212680	0.067460	0.504160
C6331	C633	0.841810	0.875810	0.788990
C6341	C634	0.854410	0.305870	0.201890
C6351	C635	0.921000	0.372840	0.421000
C6361	C636	0.023800	0.908700	0.776200
C6371	C637	0.090460	0.338100	0.233340
C6381	C638	0.838100	0.233340	0.338100
C6391	C639	0.372200	0.973000	0.206000
C6401	C640	0.858790	0.813810	0.894990
C6411	C641	0.089140	0.210060	0.850400
C6421	C642	0.624190	0.506610	0.658190
C6431	C643	0.659520	0.059880	0.450520
C6441	C644	0.440120	0.169920	0.549480
C6451	C645	0.115400	0.095800	0.095800
C6461	C646	0.022520	0.880940	0.778500
C6471	C647	0.276660	0.687780	0.393980
C6481	C648	0.946320	0.147080	0.227520
C6491	C649	0.663070	0.801270	0.115170
C6501	C650	0.909540	0.766660	0.661900
C6511	C651	0.785300	0.389300	0.436100
C6521	C652	0.977480	0.119060	0.221500
C6531	C653	0.858420	0.223340	0.312220
C6541	C654	0.401180	0.464580	0.798220
C6551	C655	0.085200	0.109400	0.745000
C6561	C656	0.993390	0.341810	0.875810
C6571	C657	0.214700	0.610700	0.610700
C6581	C658	0.598820	0.201780	0.535420
C6591	C659	0.591300	0.223800	0.708700
C6601	C660	0.889300	0.389300	0.285300
C6611	C661	0.245000	0.585200	0.060400
C6621	C662	0.714400	0.743800	0.041200
C6631	C663	0.567460	0.504160	0.712680
C6641	C664	0.647080	0.446320	0.679080
C6651	C665	0.812220	0.358420	0.223340
C6661	C666	0.720800	0.321380	0.220800
C6671	C667	0.189730	0.534070	0.070870
C6681	C668	0.279200	0.262980	0.678620
C6691	C669	0.110700	0.714700	0.610700
C6701	C670	0.659520	0.450520	0.059880
C6711	C671	0.787320	0.932540	0.495840
C6721	C672	0.264740	0.170200	0.170200
C6731	C673	0.440120	0.169920	0.840480
C6741	C674	0.284300	0.495840	0.932540
C6751	C675	0.807000	0.904200	0.384600
C6761	C676	0.153640	0.327700	0.190960
C6771	C677	0.404200	0.307000	0.904200
C6781	C678	0.245000	0.109400	0.585200
C6791	C679	0.106020	0.223340	0.358420
C6801	C680	0.941240	0.658600	0.658600
C6811	C681	0.715700	0.712680	0.504160
C6821	C682	0.649600	0.149600	0.410860
C6831	C683	0.643620	0.821560	0.096340
C6841	C684	0.301270	0.115170	0.163070
C6851	C685	0.403660	0.178440	0.561520
C6861	C686	0.403660	0.561520	0.856380
C6871	C687	0.141210	0.567590	0.186190
C6881	C688	0.964580	0.798220	0.336020
C6891	C689	0.301270	0.163070	0.115170
C6901	C690	0.264740	0.170200	0.394860
C6911	C691	0.181960	0.221500	0.119060
C6921	C692	0.755000	0.939600	0.890600
C6931	C693	0.228900	0.087700	0.595700
C6941	C694	0.871100	0.468500	0.289300
C6951	C695	0.669920	0.940120	0.840480
C6961	C696	0.932410	0.813810	0.894990
C6971	C697	0.063900	0.610700	0.610700
C6981	C698	0.372200	0.448800	0.973000
C6991	C699	0.950520	0.059880	0.159520
C7001	C700	0.627800	0.794000	0.027000
C7011	C701	0.818040	0.880940	0.778500
C7021	C702	0.932410	0.894990	0.358790
C7031	C703	0.846360	0.809040	0.672300
C7041	C704	0.668880	0.889600	0.551920
C7051	C705	0.756200	0.785600	0.958800
C7061	C706	0.894860	0.170200	0.170200
C7071	C707	0.871100	0.371100	0.289300
C7081	C708	0.155900	0.276500	0.374220
C7091	C709	0.127160	0.714840	0.579000
C7101	C710	0.079510	0.198730	0.884830
C7111	C711	0.023800	0.776200	0.291300
C7121	C712	0.727520	0.147080	0.446320
C7131	C713	0.023800	0.908700	0.291300
C7141	C714	0.909540	0.661900	0.661900
C7151	C715	0.194130	0.362170	0.798110
C7161	C716	0.723800	0.708700	0.476200
C7171	C717	0.836020	0.901180	0.798220
C7181	C718	0.554800	0.564800	0.102200
C7191	C719	0.762980	0.678620	0.779200
C7201	C720	0.733340	0.338100	0.590460
C7211	C721	0.006610	0.658190	0.211010
C7221	C722	0.936100	0.285300	0.389300
C7231	C723	0.948800	0.973000	0.206000
C7241	C724	0.178620	0.779200	0.779200
C7251	C725	0.384830	0.836930	0.198730
C7261	C726	0.756200	0.499400	0.958800
C7271	C727	0.266660	0.661900	0.409540
C7281	C728	0.771100	0.404300	0.912300
C7291	C729	0.723340	0.606020	0.358420
C7301	C730	0.278500	0.880940	0.318040
C7311	C731	0.375810	0.341810	0.493390
C7321	C732	0.820920	0.852920	0.553680
C7331	C733	0.397800	0.435200	0.945200
C7341	C734	0.649600	0.149600	0.789940
C7351	C735	0.721900	0.269100	0.739900
C7361	C736	0.889300	0.389300	0.436100
C7371	C737	0.301270	0.115170	0.420490
C7381	C738	0.663070	0.115170	0.420490
C7391	C739	0.278500	0.522520	0.318040
C7401	C740	0.805870	0.637830	0.201890
C7411	C741	0.181960	0.477480	0.221500
C7421	C742	0.330080	0.059880	0.159520
C7431	C743	0.841400	0.558760	0.341400
C7441	C744	0.527000	0.794000	0.127800
C7451	C745	0.035420	0.098820	0.663980
C7461	C746	0.035420	0.663980	0.201780
C7471	C747	0.669920	0.840480	0.940120
C7481	C748	0.439600	0.414800	0.255000
C7491	C749	0.412300	0.271100	0.912300
C7501	C750	0.723340	0.312220	0.358420
C7511	C751	0.289940	0.149600	0.410860
C7521	C752	0.993390	0.788990	0.341810
C7531	C753	0.294900	0.075700	0.553700
C7541	C754	0.821380	0.220800	0.220800
C7551	C755	0.976200	0.091300	0.708700
C7561	C756	0.737800	0.284920	0.237800
C7571	C757	0.394990	0.432410	0.358790
C7581	C758	0.049480	0.169920	0.940120
C7591	C759	0.309040	0.672300	0.346360
C7601	C760	0.264740	0.394860	0.170200
C7611	C761	0.389600	0.168880	0.889600
C7621	C762	0.141580	0.393980	0.776660
C7631	C763	0.964580	0.336020	0.798220
C7641	C764	0.602200	0.778200	0.564800
C7651	C765	0.776500	0.374220	0.193380
C7661	C766	0.141210	0.186190	0.105010
C7671	C767	0.872840	0.421000	0.421000
C7681	C768	0.602200	0.564800	0.054800
C7691	C769	0.473000	0.448800	0.206000
C7701	C770	0.067590	0.186190	0.105010
C7711	C771	0.609400	0.060400	0.585200
C7721	C772	0.932410	0.358790	0.813810
C7731	C773	0.051200	0.027000	0.127800
C7741	C774	0.262200	0.715080	0.260520
C7751	C775	0.158600	0.441240	0.741560
C7761	C776	0.064800	0.102200	0.778200
C7771	C777	0.022520	0.880940	0.318040
C7781	C778	0.432540	0.495840	0.784300
C7791	C779	0.000600	0.743800	0.041200
C7801	C780	0.570870	0.205330	0.534070
C7811	C781	0.350400	0.210060	0.589140
C7821	C782	0.964580	0.901180	0.336020
C7831	C783	0.723340	0.358420	0.312220
C7841	C784	0.787320	0.932540	0.784300
C7851	C785	0.294000	0.551200	0.127800
C7861	C786	0.022520	0.318040	0.880940
C7871	C787	0.946320	0.679080	0.147080
C7881	C788	0.223500	0.806620	0.344100
C7891	C789	0.352920	0.553680	0.320920
C7901	C790	0.276660	0.393980	0.641580
C7911	C791	0.090460	0.233340	0.338100
C7921	C792	0.844100	0.723500	0.625780
C7931	C793	0.836020	0.901180	0.464580
C7941	C794	0.301270	0.163070	0.420490
C7951	C795	0.756200	0.499400	0.785600
C7961	C796	0.769100	0.739900	0.221900
C7971	C797	0.079510	0.884830	0.198730
C7981	C798	0.141580	0.776660	0.687780
C7991	C799	0.214840	0.579000	0.579000
C8001	C800	0.587700	0.595700	0.087700
C8011	C801	0.064800	0.054800	0.778200
C8021	C802	0.701780	0.098820	0.535420
C8031	C803	0.284300	0.287320	0.495840
C8041	C804	0.841400	0.258440	0.558760
C8051	C805	0.215080	0.260520	0.762200
C8061	C806	0.336930	0.884830	0.579510
C8071	C807	0.397800	0.221800	0.435200
C8081	C808	0.710060	0.850400	0.850400
C8091	C809	0.189730	0.534070	0.205330
C8101	C810	0.061520	0.856380	0.903660
C8111	C811	0.598820	0.201780	0.663980
C8121	C812	0.429130	0.465930	0.310270
C8131	C813	0.787320	0.495840	0.784300
C8141	C814	0.595800	0.095800	0.693000
C8151	C815	0.285600	0.256200	0.958800
C8161	C816	0.313810	0.358790	0.894990
C8171	C817	0.458800	0.256200	0.499400
C8181	C818	0.187780	0.641580	0.393980
C8191	C819	0.223500	0.625780	0.344100
C8201	C820	0.854410	0.305870	0.637830
C8211	C821	0.288990	0.875810	0.493390
C8221	C822	0.429130	0.465930	0.794670
C8231	C823	0.298110	0.362170	0.694130
C8241	C824	0.948800	0.872200	0.973000
C8251	C825	0.350400	0.850400	0.210060
C8261	C826	0.329800	0.829800	0.605140
C8271	C827	0.223500	0.625780	0.806620
C8281	C828	0.723800	0.091300	0.476200
C8291	C829	0.330080	0.059880	0.450520
C8301	C830	0.278500	0.522520	0.880940
C8311	C831	0.145590	0.362170	0.694130
C8321	C832	0.105140	0.829800	0.235260
C8331	C833	0.812220	0.223340	0.358420
C8341	C834	0.067590	0.641210	0.105010
C8351	C835	0.243800	0.041200	0.500600
C8361	C836	0.110700	0.563900	0.610700
C8371	C837	0.279200	0.678620	0.779200
C8381	C838	0.085200	0.060400	0.109400
C8391	C839	0.178620	0.262980	0.779200
C8401	C840	0.153640	0.327700	0.327700
C8411	C841	0.894860	0.170200	0.764740
C8421	C842	0.596340	0.438480	0.821560
C8431	C843	0.181960	0.221500	0.477480
C8441	C844	0.670200	0.394860	0.764740
C8451	C845	0.820920	0.852920	0.772480
C8461	C846	0.172300	0.672300	0.346360
C8471	C847	0.874220	0.276500	0.655900
C8481	C848	0.424300	0.924300	0.446300
C8491	C849	0.893980	0.641580	0.687780
C8501	C850	0.785300	0.436100	0.389300
C8511	C851	0.262200	0.260520	0.715080
C8521	C852	0.760100	0.730900	0.778100
C8531	C853	0.285600	0.256200	0.499400
C8541	C854	0.693380	0.655900	0.276500
C8551	C855	0.321560	0.143620	0.438480
C8561	C856	0.085200	0.745000	0.060400
C8571	C857	0.560400	0.585200	0.109400
C8581	C858	0.340480	0.940120	0.549480
C8591	C859	0.938480	0.143620	0.096340
C8601	C860	0.161900	0.661900	0.766660
C8611	C861	0.605010	0.641210	0.567590
C8621	C862	0.624190	0.211010	0.506610
C8631	C863	0.948800	0.973000	0.872200
C8641	C864	0.854410	0.637830	0.305870
C8651	C865	0.946320	0.147080	0.679080
C8661	C866	0.889300	0.285300	0.389300
C8671	C867	0.079510	0.884830	0.836930
C8681	C868	0.350400	0.850400	0.589140
C8691	C869	0.575700	0.075700	0.553700
C8701	C870	0.714400	0.743800	0.500600
C8711	C871	0.404200	0.307000	0.384600
C8721	C872	0.678440	0.856380	0.903660
C8731	C873	0.755000	0.890600	0.939600
C8741	C874	0.844100	0.806620	0.625780
C8751	C875	0.067590	0.186190	0.641210
C8761	C876	0.723800	0.476200	0.708700
C8771	C877	0.554800	0.778200	0.564800
C8781	C878	0.158600	0.658600	0.441240
C8791	C879	0.559880	0.450520	0.159520
C8801	C880	0.408700	0.776200	0.523800
C8811	C881	0.208700	0.091300	0.223800
C8821	C882	0.609400	0.745000	0.060400
C8831	C883	0.858790	0.432410	0.813810
C8841	C884	0.276200	0.523800	0.908700
C8851	C885	0.884600	0.307000	0.904200
C8861	C886	0.610400	0.831120	0.448080
C8871	C887	0.194130	0.798110	0.645590
C8881	C888	0.914800	0.890600	0.255000
C8891	C889	0.827700	0.653640	0.327700
C8901	C890	0.089140	0.850400	0.850400
C8911	C891	0.858420	0.606020	0.223340
C8921	C892	0.977480	0.681960	0.221500
C8931	C893	0.977480	0.221500	0.119060
C8941	C894	0.758440	0.558760	0.341400
C8951	C895	0.678440	0.561520	0.903660
C8961	C896	0.609400	0.060400	0.745000
C8971	C897	0.669920	0.940120	0.549480
C8981	C898	0.965930	0.310270	0.929130
C8991	C899	0.194130	0.362170	0.645590
C9001	C900	0.237020	0.220800	0.321380
C9011	C901	0.141210	0.105010	0.567590
C9021	C902	0.189730	0.205330	0.534070
C9031	C903	0.158190	0.506610	0.211010
C9041	C904	0.053700	0.075700	0.794900
C9051	C905	0.948800	0.206000	0.872200
C9061	C906	0.390600	0.255000	0.939600
C9071	C907	0.805870	0.201890	0.637830
C9081	C908	0.408700	0.523800	0.776200
C9091	C909	0.321560	0.143620	0.096340
C9101	C910	0.429130	0.310270	0.794670
C9111	C911	0.698730	0.836930	0.884830
C9121	C912	0.820920	0.553680	0.772480
C9131	C913	0.595800	0.693000	0.615400
C9141	C914	0.049480	0.840480	0.169920
C9151	C915	0.964580	0.798220	0.901180
C9161	C916	0.285600	0.499400	0.256200
C9171	C917	0.306620	0.344100	0.723500
C9181	C918	0.858790	0.432410	0.894990
C9191	C919	0.995840	0.784300	0.287320
C9201	C920	0.948080	0.110400	0.110400
C9211	C921	0.321560	0.438480	0.096340
C9221	C922	0.841400	0.341400	0.558760
C9231	C923	0.820920	0.772480	0.852920
C9241	C924	0.921000	0.421000	0.285160
C9251	C925	0.858420	0.312220	0.606020
C9261	C926	0.874220	0.193380	0.655900
C9271	C927	0.567460	0.712680	0.504160
C9281	C928	0.440120	0.840480	0.169920
C9291	C929	0.067590	0.641210	0.186190
C9301	C930	0.872840	0.285160	0.421000
C9311	C931	0.141210	0.186190	0.567590
C9321	C932	0.145590	0.694130	0.798110
C9331	C933	0.404200	0.384600	0.307000
C9341	C934	0.920490	0.163070	0.115170
C9351	C935	0.686190	0.105010	0.641210
C9361	C936	0.372200	0.973000	0.448800
C9371	C937	0.669920	0.549480	0.840480
C9381	C938	0.598820	0.663980	0.201780
C9391	C939	0.243800	0.500600	0.214400
C9401	C940	0.791300	0.908700	0.776200
C9411	C941	0.397800	0.945200	0.221800
C9421	C942	0.771100	0.912300	0.912300
C9431	C943	0.401180	0.464580	0.336020
C9441	C944	0.214840	0.627160	0.579000
C9451	C945	0.965930	0.929130	0.310270
C9461	C946	0.914800	0.939600	0.255000
C9471	C947	0.276660	0.641580	0.687780
C9481	C948	0.158190	0.124190	0.211010
C9491	C949	0.284300	0.495840	0.287320
C9501	C950	0.006610	0.211010	0.124190
C9511	C951	0.321560	0.096340	0.143620
C9521	C952	0.278200	0.102200	0.054800
C9531	C953	0.049480	0.940120	0.840480
C9541	C954	0.279200	0.678620	0.262980
C9551	C955	0.714400	0.500600	0.041200
C9561	C956	0.615170	0.163070	0.420490
C9571	C957	0.554800	0.564800	0.778200
C9581	C958	0.596340	0.438480	0.143620
C9591	C959	0.818040	0.522520	0.778500
C9601	C960	0.727520	0.679080	0.147080
C9611	C961	0.711010	0.124190	0.506610
C9621	C962	0.356380	0.903660	0.178440
C9631	C963	0.693380	0.276500	0.374220
C9641	C964	0.125780	0.344100	0.806620
C9651	C965	0.424300	0.924300	0.205100
C9661	C966	0.791300	0.908700	0.523800
C9671	C967	0.643620	0.096340	0.438480
C9681	C968	0.230900	0.778100	0.260100
C9691	C969	0.429130	0.794670	0.310270
C9701	C970	0.352920	0.772480	0.320920
C9711	C971	0.110700	0.610700	0.563900
C9721	C972	0.993390	0.875810	0.341810
C9731	C973	0.595800	0.693000	0.095800
C9741	C974	0.356380	0.903660	0.561520
C9751	C975	0.567460	0.215700	0.504160
C9761	C976	0.721800	0.897800	0.945200
C9771	C977	0.627800	0.027000	0.794000
C9781	C978	0.208700	0.476200	0.091300
C9791	C979	0.693380	0.374220	0.276500
C9801	C980	0.810270	0.929130	0.465930
C9811	C981	0.390600	0.414800	0.939600
C9821	C982	0.818040	0.778500	0.522520
C9831	C983	0.294670	0.310270	0.465930
C9841	C984	0.401180	0.336020	0.464580
C9851	C985	0.904300	0.912300	0.271100
C9861	C986	0.380940	0.522520	0.778500
C9871	C987	0.440120	0.549480	0.169920
C9881	C988	0.838100	0.338100	0.233340
C9891	C989	0.278200	0.054800	0.564800
C9901	C990	0.350400	0.589140	0.850400
C9911	C991	0.141580	0.776660	0.393980
C9921	C992	0.755000	0.890600	0.414800
C9931	C993	0.445200	0.897800	0.221800
C9941	C994	0.647080	0.679080	0.227520
C9951	C995	0.394990	0.813810	0.358790
C9961	C996	0.064800	0.778200	0.054800
C9971	C997	0.663070	0.420490	0.115170
C9981	C998	0.841810	0.788990	0.493390
C9991	C999	0.298220	0.336020	0.464580
C10001	C1000	0.336930	0.198730	0.579510
C10011	C1001	0.230900	0.260100	0.778100
C10021	C1002	0.389600	0.551920	0.889600
C10031	C1003	0.602200	0.054800	0.564800
C10041	C1004	0.605010	0.567590	0.186190
C10051	C1005	0.208700	0.476200	0.223800
C10061	C1006	0.720800	0.737020	0.321380
C10071	C1007	0.841810	0.493390	0.788990
C10081	C1008	0.230900	0.730900	0.778100
C10091	C1009	0.619060	0.477480	0.221500
C10101	C1010	0.810270	0.794670	0.929130
C10111	C1011	0.375810	0.493390	0.341810
C10121	C1012	0.721500	0.119060	0.681960
C10131	C1013	0.350400	0.210060	0.850400
C10141	C1014	0.272480	0.852920	0.553680
C10151	C1015	0.035420	0.201780	0.663980
C10161	C1016	0.727520	0.446320	0.679080
C10171	C1017	0.643620	0.096340	0.821560
C10181	C1018	0.659520	0.830080	0.450520
C10191	C1019	0.670200	0.170200	0.394860
C10201	C1020	0.624190	0.658190	0.211010
C10211	C1021	0.789300	0.371100	0.371100
C10221	C1022	0.006610	0.211010	0.658190
C10231	C1023	0.294670	0.465930	0.929130
C10241	C1024	0.714400	0.041200	0.743800
C10251	C1025	0.278100	0.730900	0.260100
C10261	C1026	0.862170	0.798110	0.645590
C10271	C1027	0.647080	0.227520	0.679080
C10281	C1028	0.936100	0.389300	0.285300
C10291	C1029	0.145590	0.798110	0.362170
C10301	C1030	0.064800	0.102200	0.054800
C10311	C1031	0.884600	0.904200	0.904200
C10321	C1032	0.212680	0.215700	0.504160
C10331	C1033	0.527000	0.551200	0.127800
C10341	C1034	0.844100	0.625780	0.806620
C10351	C1035	0.711010	0.506610	0.124190
C10361	C1036	0.827700	0.190960	0.327700
C10371	C1037	0.810270	0.929130	0.794670
C10381	C1038	0.390600	0.939600	0.255000
C10391	C1039	0.559880	0.830080	0.159520
C10401	C1040	0.439600	0.255000	0.890600
C10411	C1041	0.785160	0.421000	0.421000
C10421	C1042	0.610400	0.448080	0.831120
C10431	C1043	0.389600	0.168880	0.551920
C10441	C1044	0.755000	0.414800	0.939600
C10451	C1045	0.776500	0.655900	0.374220
C10461	C1046	0.914800	0.255000	0.939600
C10471	C1047	0.605010	0.641210	0.186190
C10481	C1048	0.893980	0.641580	0.776660
C10491	C1049	0.995840	0.287320	0.784300
C10501	C1050	0.567460	0.712680	0.215700
C10511	C1051	0.977480	0.119060	0.681960
C10521	C1052	0.145590	0.798110	0.694130
C10531	C1053	0.910860	0.149600	0.789940
C10541	C1054	0.598820	0.663980	0.535420
C10551	C1055	0.921000	0.421000	0.372840
C10561	C1056	0.276660	0.641580	0.393980
C10571	C1057	0.389600	0.889600	0.168880
C10581	C1058	0.125780	0.723500	0.806620
C10591	C1059	0.862170	0.645590	0.798110
C10601	C1060	0.432540	0.287320	0.495840
C10611	C1061	0.647080	0.446320	0.227520
C10621	C1062	0.125780	0.723500	0.344100
C10631	C1063	0.179080	0.147080	0.227520
C10641	C1064	0.838100	0.590460	0.233340
C10651	C1065	0.701780	0.535420	0.098820
C10661	C1066	0.818040	0.522520	0.880940
C10671	C1067	0.063900	0.714700	0.610700
C10681	C1068	0.785300	0.389300	0.389300
C10691	C1069	0.079000	0.579000	0.627160
C10701	C1070	0.289940	0.149600	0.149600
C10711	C1071	0.372200	0.206000	0.973000
C10721	C1072	0.128900	0.710700	0.628900
C10731	C1073	0.769100	0.269100	0.739900
C10741	C1074	0.920490	0.115170	0.163070
C10751	C1075	0.137830	0.305870	0.201890
C10761	C1076	0.733340	0.338100	0.338100
C10771	C1077	0.309040	0.672300	0.672300
C10781	C1078	0.276200	0.291300	0.523800
C10791	C1079	0.212680	0.504160	0.215700
C10801	C1080	0.659520	0.059880	0.830080
C10811	C1081	0.836020	0.464580	0.798220
C10821	C1082	0.995840	0.287320	0.932540
C10831	C1083	0.000600	0.214400	0.041200
C10841	C1084	0.976200	0.223800	0.708700
C10851	C1085	0.769100	0.269100	0.221900
C10861	C1086	0.193000	0.615400	0.095800
C10871	C1087	0.215080	0.762200	0.762200
C10881	C1088	0.711010	0.506610	0.658190
C10891	C1089	0.163980	0.098820	0.535420
C10901	C1090	0.999400	0.256200	0.958800
C10911	C1091	0.999400	0.958800	0.785600
C10921	C1092	0.051200	0.127800	0.794000
C10931	C1093	0.720800	0.321380	0.737020
C10941	C1094	0.064800	0.054800	0.102200
C10951	C1095	0.106020	0.358420	0.223340
C10961	C1096	0.701780	0.663980	0.098820
C10971	C1097	0.272480	0.852920	0.320920
C10981	C1098	0.862170	0.645590	0.694130
C10991	C1099	0.172300	0.809040	0.346360
C11001	C1100	0.079000	0.627160	0.579000
C11011	C1101	0.784920	0.739480	0.237800
C11021	C1102	0.727520	0.446320	0.147080
C11031	C1103	0.439600	0.890600	0.414800
C11041	C1104	0.053680	0.852920	0.320920
C11051	C1105	0.288990	0.341810	0.493390
C11061	C1106	0.756200	0.958800	0.499400
C11071	C1107	0.838100	0.233340	0.590460
C11081	C1108	0.693380	0.276500	0.655900
C11091	C1109	0.439600	0.414800	0.890600
C11101	C1110	0.721800	0.435200	0.897800
C11111	C1111	0.278100	0.260100	0.730900
C11121	C1112	0.049480	0.840480	0.940120
C11131	C1113	0.948800	0.206000	0.973000
C11141	C1114	0.715700	0.504160	0.067460
C11151	C1115	0.820920	0.553680	0.852920
C11161	C1116	0.034070	0.205330	0.070870
C11171	C1117	0.079000	0.714840	0.579000
C11181	C1118	0.723800	0.476200	0.091300
C11191	C1119	0.432540	0.784300	0.495840
C11201	C1120	0.705330	0.534070	0.070870
C11211	C1121	0.424300	0.446300	0.924300
C11221	C1122	0.279200	0.779200	0.678620
C11231	C1123	0.721500	0.681960	0.119060
C11241	C1124	0.669920	0.549480	0.940120
C11251	C1125	0.670200	0.394860	0.170200
C11261	C1126	0.272480	0.553680	0.852920
C11271	C1127	0.158190	0.211010	0.506610
C11281	C1128	0.818040	0.778500	0.880940
C11291	C1129	0.678440	0.856380	0.561520
C11301	C1130	0.279200	0.779200	0.262980
C11311	C1131	0.854410	0.201890	0.305870
C11321	C1132	0.389600	0.889600	0.551920
C11331	C1133	0.889300	0.285300	0.436100
C11341	C1134	0.004160	0.712680	0.067460
C11351	C1135	0.035420	0.201780	0.098820
C11361	C1136	0.051920	0.168880	0.889600
C11371	C1137	0.841400	0.558760	0.258440
C11381	C1138	0.336930	0.884830	0.198730
C11391	C1139	0.609400	0.745000	0.585200
C11401	C1140	0.440120	0.840480	0.549480
C11411	C1141	0.686190	0.567590	0.641210
C11421	C1142	0.941240	0.658600	0.741560
C11431	C1143	0.836020	0.798220	0.464580
C11441	C1144	0.035420	0.663980	0.098820
C11451	C1145	0.163980	0.535420	0.098820
C11461	C1146	0.230900	0.730900	0.260100
C11471	C1147	0.559880	0.830080	0.450520
C11481	C1148	0.115400	0.095800	0.693000
C11491	C1149	0.810270	0.465930	0.794670
C11501	C1150	0.424300	0.205100	0.446300
C11511	C1151	0.938480	0.096340	0.821560
C11521	C1152	0.331120	0.448080	0.110400
C11531	C1153	0.946300	0.205100	0.924300
C11541	C1154	0.643620	0.438480	0.096340
C11551	C1155	0.384830	0.579510	0.836930
C11561	C1156	0.705330	0.689730	0.070870
C11571	C1157	0.090460	0.338100	0.338100
C11581	C1158	0.473000	0.872200	0.448800
C11591	C1159	0.239480	0.237800	0.284920
C11601	C1160	0.950520	0.159520	0.830080
C11611	C1161	0.288990	0.341810	0.875810
C11621	C1162	0.624190	0.658190	0.506610
C11631	C1163	0.721500	0.119060	0.477480
C11641	C1164	0.194130	0.798110	0.362170
C11651	C1165	0.938480	0.143620	0.821560
C11661	C1166	0.239900	0.221900	0.269100
C11671	C1167	0.141580	0.687780	0.393980
C11681	C1168	0.844100	0.625780	0.723500
C11691	C1169	0.125780	0.806620	0.344100
C11701	C1170	0.791300	0.523800	0.908700
C11711	C1171	0.110700	0.563900	0.714700
C11721	C1172	0.737800	0.284920	0.739480
C11731	C1173	0.313810	0.894990	0.358790
C11741	C1174	0.306620	0.625780	0.723500
C11751	C1175	0.241560	0.658600	0.658600
C11761	C1176	0.004160	0.712680	0.215700
C11771	C1177	0.910860	0.149600	0.149600
C11781	C1178	0.554800	0.102200	0.778200
C11791	C1179	0.412300	0.912300	0.404300
C11801	C1180	0.330080	0.450520	0.059880
C11811	C1181	0.946300	0.924300	0.924300
C11821	C1182	0.061520	0.178440	0.903660
C11831	C1183	0.439600	0.890600	0.255000
C11841	C1184	0.995840	0.932540	0.287320
C11851	C1185	0.187780	0.776660	0.641580
C11861	C1186	0.058760	0.258440	0.341400
C11871	C1187	0.669920	0.840480	0.549480
C11881	C1188	0.000600	0.041200	0.214400
C11891	C1189	0.735260	0.605140	0.829800
C11901	C1190	0.034070	0.689730	0.070870
C11911	C1191	0.034070	0.205330	0.689730
C11921	C1192	0.380940	0.778500	0.318040
C11931	C1193	0.596340	0.143620	0.438480
C11941	C1194	0.458800	0.785600	0.256200
C11951	C1195	0.785160	0.372840	0.421000
C11961	C1196	0.948800	0.872200	0.206000
C11971	C1197	0.061520	0.903660	0.856380
C11981	C1198	0.841400	0.341400	0.258440
C11991	C1199	0.935200	0.897800	0.221800
C12001	C1200	0.570870	0.534070	0.689730
C12011	C1201	0.095700	0.728900	0.087700
C12021	C1202	0.053700	0.075700	0.075700
C12031	C1203	0.245000	0.585200	0.109400
C12041	C1204	0.397800	0.221800	0.945200
C12051	C1205	0.968500	0.289300	0.371100
C12061	C1206	0.034070	0.070870	0.205330
C12071	C1207	0.004160	0.067460	0.215700
C12081	C1208	0.212680	0.067460	0.215700
C12091	C1209	0.950520	0.830080	0.059880
C12101	C1210	0.920490	0.801270	0.115170
C12111	C1211	0.404200	0.904200	0.384600
C12121	C1212	0.023800	0.291300	0.908700
C12131	C1213	0.858790	0.894990	0.813810
C12141	C1214	0.841810	0.493390	0.875810
C12151	C1215	0.137830	0.354410	0.305870
C12161	C1216	0.946320	0.227520	0.147080
C12171	C1217	0.938480	0.096340	0.143620
C12181	C1218	0.693380	0.655900	0.374220
C12191	C1219	0.858790	0.894990	0.432410
C12201	C1220	0.721800	0.945200	0.897800
C12211	C1221	0.602200	0.054800	0.778200
C12221	C1222	0.610400	0.831120	0.110400
C12231	C1223	0.294670	0.310270	0.929130
C12241	C1224	0.352920	0.553680	0.772480
O11	O1	0.907080	0.917460	0.822660
O21	O2	0.879000	0.871000	0.379000
O31	O3	0.735060	0.702380	0.141860
O41	O4	0.319300	0.189300	0.441220
O51	O5	0.632340	0.566200	0.181620
O61	O6	0.980730	0.291230	0.386030
O71	O7	0.689300	0.819300	0.050180
O81	O8	0.092920	0.647200	0.177340
O91	O9	0.656140	0.199580	0.388460
O101	O10	0.246140	0.207700	0.527220
O111	O11	0.941220	0.819300	0.050180
O121	O12	0.417460	0.822660	0.352800
O131	O13	0.620950	0.678890	0.622890
O141	O14	0.322660	0.917460	0.352800
O151	O15	0.941610	0.222770	0.987770
O161	O16	0.735400	0.779860	0.525760
O171	O17	0.543040	0.141320	0.468940
O181	O18	0.346700	0.468940	0.141320
O191	O19	0.941610	0.987770	0.847850
O201	O20	0.518940	0.207700	0.527220
O211	O21	0.255820	0.199580	0.388460
O221	O22	0.058780	0.810700	0.180700
O231	O23	0.319300	0.441220	0.189300
O241	O24	0.358140	0.297620	0.579300
O251	O25	0.736870	0.192830	0.334230
O261	O26	0.920700	0.141860	0.235060
O271	O27	0.092920	0.647200	0.082540
O281	O28	0.652150	0.012230	0.777230
O291	O29	0.236070	0.334230	0.192830
O301	O30	0.379050	0.377110	0.922730
O311	O31	0.422730	0.377110	0.321110
O321	O32	0.178890	0.120950	0.077270
O331	O33	0.518940	0.527220	0.746140
O341	O34	0.689300	0.050180	0.441220
O351	O35	0.543040	0.846700	0.141320
O361	O36	0.242890	0.359510	0.604390
O371	O37	0.157690	0.172310	0.447970
O381	O38	0.277230	0.558390	0.152150
O391	O39	0.820530	0.268910	0.364350
O401	O40	0.621340	0.021520	0.533400
O411	O41	0.867140	0.684780	0.176640
O421	O42	0.323360	0.315220	0.632860
O431	O43	0.641320	0.846700	0.043040
O441	O44	0.797620	0.579300	0.858140
O451	O45	0.941220	0.050180	0.819300
O461	O46	0.292300	0.981060	0.253860
O471	O47	0.705740	0.205740	0.696960
O481	O48	0.500000	0.187000	0.500000
O491	O49	0.135650	0.453790	0.679470
O501	O50	0.821110	0.879050	0.377110
O511	O51	0.877110	0.321110	0.922730
O521	O52	0.046210	0.320530	0.364350
O531	O53	0.632340	0.619840	0.181620
O541	O54	0.310700	0.180700	0.949820
O551	O55	0.140490	0.395610	0.206790
O561	O56	0.947970	0.172310	0.657690
O571	O57	0.058390	0.012230	0.152150
O581	O58	0.974240	0.764600	0.041020
O591	O59	0.880160	0.867660	0.433800
O601	O60	0.058780	0.180700	0.810700
O611	O61	0.920700	0.702380	0.141860
O621	O62	0.705740	0.205740	0.391560
O631	O63	0.000000	0.000000	0.813000
O641	O64	0.842310	0.777970	0.552030
O651	O65	0.652150	0.012230	0.558390
O661	O66	0.652150	0.777230	0.012230
O671	O67	0.046210	0.364350	0.268910
O681	O68	0.019270	0.708770	0.613970
O691	O69	0.092920	0.177340	0.082540
O701	O70	0.481060	0.472780	0.253860
O711	O71	0.422730	0.879050	0.321110
O721	O72	0.025760	0.779860	0.235400
O731	O73	0.113970	0.657990	0.708770
O741	O74	0.481060	0.792300	0.253860
O751	O75	0.358140	0.297620	0.764940
O761	O76	0.687000	0.500000	0.000000
O771	O77	0.641320	0.468940	0.846700
O781	O78	0.481060	0.792300	0.472780
O791	O79	0.113970	0.708770	0.519270
O801	O80	0.722770	0.987770	0.441610
O811	O81	0.171210	0.671210	0.486370
O821	O82	0.140490	0.257110	0.206790
O831	O83	0.834230	0.236870	0.192830
O841	O84	0.652150	0.777230	0.558390
O851	O85	0.264940	0.858140	0.579300
O861	O86	0.119840	0.181620	0.132340
O871	O87	0.157690	0.447970	0.222030
O881	O88	0.744180	0.611540	0.843860
O891	O89	0.327690	0.342310	0.552030
O901	O90	0.378660	0.176260	0.466600
O911	O91	0.157690	0.222030	0.447970
O921	O92	0.681620	0.132340	0.619840
O931	O93	0.692830	0.334230	0.236870
O941	O94	0.834230	0.236870	0.736070
O951	O95	0.632340	0.181620	0.566200
O961	O96	0.652150	0.558390	0.012230
O971	O97	0.119840	0.566200	0.132340
O981	O98	0.707700	0.527220	0.018940
O991	O99	0.842310	0.827690	0.552030
O1001	O100	0.820530	0.364350	0.546210
O1011	O101	0.367660	0.433800	0.818380
O1021	O102	0.119840	0.132340	0.181620
O1031	O103	0.294260	0.794260	0.303040
O1041	O104	0.228560	0.315220	0.632860
O1051	O105	0.202380	0.235060	0.141860
O1061	O106	0.456960	0.531060	0.153300
O1071	O107	0.880160	0.818380	0.867660
O1081	O108	0.157990	0.708770	0.519270
O1091	O109	0.735400	0.958980	0.779860
O1101	O110	0.736870	0.192830	0.736070
O1111	O111	0.358680	0.153300	0.531060
O1121	O112	0.980730	0.342010	0.386030
O1131	O113	0.422730	0.879050	0.377110
O1141	O114	0.653300	0.531060	0.956960
O1151	O115	0.318380	0.433800	0.867660
O1161	O116	0.968940	0.846700	0.043040
O1171	O117	0.184780	0.367140	0.271440
O1181	O118	0.179470	0.453790	0.731090
O1191	O119	0.735400	0.525760	0.958980
O1201	O120	0.677340	0.592920	0.647200
O1211	O121	0.867140	0.176640	0.684780
O1221	O122	0.347850	0.222770	0.987770
O1231	O123	0.264600	0.474240	0.041020
O1241	O124	0.880160	0.433800	0.867660
O1251	O125	0.178890	0.077270	0.622890
O1261	O126	0.079300	0.764940	0.858140
O1271	O127	0.722030	0.447970	0.657690
O1281	O128	0.699580	0.156140	0.755820
O1291	O129	0.864350	0.546210	0.268910
O1301	O130	0.676260	0.978480	0.878660
O1311	O131	0.966600	0.978480	0.176260
O1321	O132	0.518940	0.527220	0.207700
O1331	O133	0.676260	0.978480	0.466600
O1341	O134	0.736870	0.736070	0.192830
O1351	O135	0.079300	0.858140	0.297620
O1361	O136	0.487770	0.441610	0.847850
O1371	O137	0.791230	0.342010	0.386030
O1381	O138	0.656140	0.755820	0.388460
O1391	O139	0.933800	0.380160	0.867660
O1401	O140	0.672310	0.447970	0.657690
O1411	O141	0.947970	0.657690	0.222030
O1421	O142	0.632340	0.181620	0.619840
O1431	O143	0.797620	0.579300	0.764940
O1441	O144	0.052030	0.777970	0.827690
O1451	O145	0.147200	0.177340	0.592920
O1461	O146	0.550180	0.189300	0.441220
O1471	O147	0.031060	0.956960	0.153300
O1481	O148	0.263130	0.665770	0.807170
O1491	O149	0.033400	0.823740	0.021520
O1501	O150	0.621340	0.533400	0.021520
O1511	O151	0.888460	0.199580	0.156140
O1521	O152	0.744180	0.800420	0.843860
O1531	O153	0.279860	0.958980	0.525760
O1541	O154	0.966600	0.176260	0.978480
O1551	O155	0.744180	0.843860	0.611540
O1561	O156	0.122890	0.077270	0.678890
O1571	O157	0.319300	0.441220	0.050180
O1581	O158	0.481060	0.253860	0.472780
O1591	O159	0.864350	0.320530	0.546210
O1601	O160	0.358680	0.153300	0.956960
O1611	O161	0.456960	0.531060	0.858680
O1621	O162	0.720140	0.041020	0.764600
O1631	O163	0.512230	0.152150	0.777230
O1641	O164	0.722030	0.657690	0.172310
O1651	O165	0.577270	0.622890	0.120950
O1661	O166	0.422730	0.321110	0.879050
O1671	O167	0.179470	0.731090	0.635650
O1681	O168	0.722030	0.447970	0.172310
O1691	O169	0.968940	0.043040	0.141320
O1701	O170	0.677340	0.647200	0.592920
O1711	O171	0.246140	0.018940	0.527220
O1721	O172	0.294260	0.303040	0.794260
O1731	O173	0.031060	0.153300	0.956960
O1741	O174	0.757110	0.206790	0.640490
O1751	O175	0.692830	0.334230	0.736070
O1761	O176	0.864350	0.268910	0.546210
O1771	O177	0.771440	0.176640	0.367140
O1781	O178	0.933800	0.867660	0.380160
O1791	O179	0.891560	0.205740	0.205740
O1801	O180	0.417460	0.822660	0.407080
O1811	O181	0.512230	0.558390	0.777230
O1821	O182	0.422730	0.321110	0.377110
O1831	O183	0.879000	0.871000	0.871000
O1841	O184	0.066200	0.619840	0.132340
O1851	O185	0.323360	0.728560	0.632860
O1861	O186	0.058780	0.949820	0.180700
O1871	O187	0.880160	0.867660	0.818380
O1881	O188	0.877110	0.879050	0.922730
O1891	O189	0.689300	0.819300	0.441220
O1901	O190	0.768910	0.364350	0.320530
O1911	O191	0.079300	0.297620	0.764940
O1921	O192	0.543040	0.846700	0.468940
O1931	O193	0.641320	0.846700	0.468940
O1941	O194	0.104390	0.742890	0.793210
O1951	O195	0.323740	0.533400	0.021520
O1961	O196	0.246140	0.207700	0.018940
O1971	O197	0.458980	0.525760	0.235400
O1981	O198	0.582540	0.647200	0.592920
O1991	O199	0.500000	0.500000	0.187000
O2001	O200	0.263130	0.665770	0.263930
O2011	O201	0.864350	0.268910	0.320530
O2021	O202	0.834230	0.192830	0.236870
O2031	O203	0.791230	0.386030	0.480730
O2041	O204	0.972780	0.253860	0.981060
O2051	O205	0.119840	0.132340	0.566200
O2061	O206	0.677340	0.082540	0.592920
O2071	O207	0.378660	0.466600	0.176260
O2081	O208	0.052030	0.342310	0.777970
O2091	O209	0.953790	0.635650	0.731090
O2101	O210	0.293210	0.604390	0.742890
O2111	O211	0.487770	0.847850	0.222770
O2121	O212	0.456960	0.153300	0.858680
O2131	O213	0.111540	0.244180	0.843860
O2141	O214	0.972780	0.792300	0.981060
O2151	O215	0.656140	0.388460	0.199580
O2161	O216	0.322660	0.352800	0.917460
O2171	O217	0.815220	0.823360	0.728560
O2181	O218	0.025760	0.779860	0.958980
O2191	O219	0.157990	0.613970	0.708770
O2201	O220	0.722770	0.847850	0.987770
O2211	O221	0.058780	0.810700	0.949820
O2221	O222	0.346700	0.141320	0.043040
O2231	O223	0.791230	0.480730	0.342010
O2241	O224	0.706790	0.395610	0.640490
O2251	O225	0.313000	0.000000	0.500000
O2261	O226	0.986370	0.671210	0.671210
O2271	O227	0.478480	0.878660	0.466600
O2281	O228	0.132860	0.823360	0.728560
O2291	O229	0.347850	0.222770	0.441610
O2301	O230	0.867140	0.271440	0.684780
O2311	O231	0.108440	0.794260	0.303040
O2321	O232	0.255820	0.388460	0.199580
O2331	O233	0.231090	0.679470	0.635650
O2341	O234	0.027220	0.018940	0.207700
O2351	O235	0.720140	0.764600	0.474240
O2361	O236	0.264600	0.474240	0.220140
O2371	O237	0.797620	0.858140	0.764940
O2381	O238	0.264940	0.297620	0.858140
O2391	O239	0.122890	0.120950	0.077270
O2401	O240	0.255820	0.199580	0.156140
O2411	O241	0.079300	0.297620	0.858140
O2421	O242	0.879000	0.379000	0.871000
O2431	O243	0.543040	0.141320	0.846700
O2441	O244	0.692830	0.736070	0.236870
O2451	O245	0.246140	0.018940	0.207700
O2461	O246	0.111540	0.843860	0.800420
O2471	O247	0.677340	0.647200	0.082540
O2481	O248	0.953790	0.731090	0.679470
O2491	O249	0.888460	0.755820	0.199580
O2501	O250	0.907080	0.917460	0.352800
O2511	O251	0.000000	0.187000	0.813000
O2521	O252	0.058390	0.012230	0.777230
O2531	O253	0.378660	0.176260	0.978480
O2541	O254	0.231090	0.453790	0.635650
O2551	O255	0.292300	0.472780	0.253860
O2561	O256	0.179470	0.731090	0.453790
O2571	O257	0.541020	0.474240	0.220140
O2581	O258	0.521520	0.121340	0.823740
O2591	O259	0.672310	0.657690	0.447970
O2601	O260	0.307170	0.665770	0.763130
O2611	O261	0.966600	0.878660	0.978480
O2621	O262	0.941610	0.847850	0.987770
O2631	O263	0.941610	0.847850	0.222770
O2641	O264	0.763930	0.807170	0.665770
O2651	O265	0.953790	0.731090	0.635650
O2661	O266	0.577270	0.678890	0.622890
O2671	O267	0.620950	0.678890	0.077270
O2681	O268	0.815220	0.632860	0.823360
O2691	O269	0.641320	0.043040	0.846700
O2701	O270	0.852800	0.407080	0.917460
O2711	O271	0.877110	0.321110	0.879050
O2721	O272	0.052030	0.827690	0.777970
O2731	O273	0.676640	0.367140	0.684780
O2741	O274	0.371000	0.871000	0.379000
O2751	O275	0.886030	0.291230	0.342010
O2761	O276	0.000000	0.000000	0.187000
O2771	O277	0.753860	0.981060	0.472780
O2781	O278	0.859510	0.793210	0.604390
O2791	O279	0.744180	0.800420	0.611540
O2801	O280	0.842010	0.480730	0.291230
O2811	O281	0.293210	0.742890	0.604390
O2821	O282	0.680700	0.810700	0.558780
O2831	O283	0.358140	0.579300	0.764940
O2841	O284	0.121000	0.129000	0.621000
O2851	O285	0.346700	0.043040	0.141320
O2861	O286	0.208770	0.613970	0.657990
O2871	O287	0.165770	0.263930	0.807170
O2881	O288	0.313000	0.000000	0.187000
O2891	O289	0.300420	0.244180	0.611540
O2901	O290	0.689300	0.050180	0.819300
O2911	O291	0.033400	0.021520	0.121340
O2921	O292	0.236070	0.236870	0.192830
O2931	O293	0.132860	0.315220	0.823360
O2941	O294	0.157990	0.708770	0.613970
O2951	O295	0.255820	0.388460	0.156140
O2961	O296	0.699580	0.388460	0.156140
O2971	O297	0.322660	0.407080	0.917460
O2981	O298	0.699580	0.388460	0.755820
O2991	O299	0.358140	0.764940	0.297620
O3001	O300	0.736870	0.736070	0.334230
O3011	O301	0.294260	0.608440	0.303040
O3021	O302	0.933800	0.818380	0.380160
O3031	O303	0.310700	0.949820	0.558780
O3041	O304	0.456960	0.153300	0.531060
O3051	O305	0.228560	0.632860	0.315220
O3061	O306	0.052030	0.777970	0.342310
O3071	O307	0.263130	0.807170	0.665770
O3081	O308	0.842010	0.386030	0.480730
O3091	O309	0.689300	0.441220	0.050180
O3101	O310	0.019270	0.657990	0.708770
O3111	O311	0.113970	0.519270	0.708770
O3121	O312	0.629000	0.621000	0.621000
O3131	O313	0.815220	0.728560	0.632860
O3141	O314	0.706790	0.395610	0.257110
O3151	O315	0.895610	0.257110	0.640490
O3161	O316	0.672310	0.222030	0.657690
O3171	O317	0.178890	0.120950	0.622890
O3181	O318	0.108440	0.303040	0.794260
O3191	O319	0.641860	0.420700	0.702380
O3201	O320	0.157990	0.519270	0.613970
O3211	O321	0.676640	0.271440	0.367140
O3221	O322	0.346700	0.141320	0.468940
O3231	O323	0.478480	0.176260	0.466600
O3241	O324	0.157690	0.447970	0.172310
O3251	O325	0.621340	0.021520	0.823740
O3261	O326	0.121000	0.621000	0.129000
O3271	O327	0.500000	0.187000	0.813000
O3281	O328	0.417460	0.407080	0.352800
O3291	O329	0.119840	0.181620	0.566200
O3301	O330	0.681620	0.566200	0.132340
O3311	O331	0.208770	0.519270	0.657990
O3321	O332	0.346700	0.043040	0.468940
O3331	O333	0.046210	0.320530	0.268910
O3341	O334	0.641860	0.420700	0.235060
O3351	O335	0.744180	0.611540	0.800420
O3361	O336	0.974240	0.220140	0.764600
O3371	O337	0.842010	0.480730	0.386030
O3381	O338	0.791230	0.342010	0.480730
O3391	O339	0.577270	0.120950	0.678890
O3401	O340	0.629000	0.129000	0.621000
O3411	O341	0.184780	0.367140	0.176640
O3421	O342	0.165770	0.763130	0.263930
O3431	O343	0.771440	0.367140	0.176640
O3441	O344	0.834230	0.192830	0.736070
O3451	O345	0.735400	0.779860	0.958980
O3461	O346	0.753860	0.472780	0.792300
O3471	O347	0.941610	0.987770	0.222770
O3481	O348	0.066200	0.132340	0.619840
O3491	O349	0.417460	0.352800	0.407080
O3501	O350	0.500000	0.813000	0.187000
O3511	O351	0.864350	0.320530	0.268910
O3521	O352	0.294260	0.794260	0.608440
O3531	O353	0.202380	0.420700	0.235060
O3541	O354	0.768910	0.320530	0.364350
O3551	O355	0.178890	0.077270	0.120950
O3561	O356	0.000000	0.813000	0.187000
O3571	O357	0.877110	0.879050	0.321110
O3581	O358	0.852800	0.917460	0.407080
O3591	O359	0.263130	0.263930	0.665770
O3601	O360	0.966600	0.978480	0.878660
O3611	O361	0.202380	0.141860	0.235060
O3621	O362	0.968940	0.846700	0.141320
O3631	O363	0.046210	0.364350	0.320530
O3641	O364	0.834230	0.736070	0.236870
O3651	O365	0.791230	0.386030	0.342010
O3661	O366	0.323740	0.021520	0.533400
O3671	O367	0.699580	0.156140	0.388460
O3681	O368	0.763930	0.665770	0.763130
O3691	O369	0.632340	0.619840	0.566200
O3701	O370	0.277230	0.012230	0.152150
O3711	O371	0.720140	0.474240	0.041020
O3721	O372	0.895610	0.640490	0.206790
O3731	O373	0.543040	0.468940	0.846700
O3741	O374	0.620950	0.622890	0.678890
O3751	O375	0.620950	0.077270	0.678890
O3761	O376	0.132860	0.315220	0.728560
O3771	O377	0.852800	0.822660	0.917460
O3781	O378	0.111540	0.244180	0.800420
O3791	O379	0.968940	0.141320	0.043040
O3801	O380	0.582540	0.592920	0.177340
O3811	O381	0.171210	0.486370	0.671210
O3821	O382	0.771440	0.367140	0.684780
O3831	O383	0.066200	0.181620	0.619840
O3841	O384	0.641320	0.468940	0.043040
O3851	O385	0.318380	0.380160	0.867660
O3861	O386	0.864350	0.546210	0.320530
O3871	O387	0.512230	0.558390	0.152150
O3881	O388	0.343860	0.611540	0.244180
O3891	O389	0.147200	0.082540	0.592920
O3901	O390	0.449820	0.558780	0.810700
O3911	O391	0.886030	0.480730	0.291230
O3921	O392	0.757110	0.206790	0.395610
O3931	O393	0.179470	0.635650	0.453790
O3941	O394	0.322660	0.352800	0.407080
O3951	O395	0.550180	0.441220	0.189300
O3961	O396	0.343860	0.611540	0.800420
O3971	O397	0.753860	0.981060	0.792300
O3981	O398	0.680700	0.558780	0.810700
O3991	O399	0.449820	0.180700	0.558780
O4001	O400	0.676260	0.466600	0.978480
O4011	O401	0.122890	0.678890	0.077270
O4021	O402	0.019270	0.708770	0.657990
O4031	O403	0.379050	0.922730	0.321110
O4041	O404	0.104390	0.742890	0.359510
O4051	O405	0.132860	0.728560	0.315220
O4061	O406	0.132860	0.823360	0.315220
O4071	O407	0.621340	0.823740	0.533400
O4081	O408	0.577270	0.678890	0.120950
O4091	O409	0.886030	0.342010	0.480730
O4101	O410	0.859510	0.742890	0.604390
O4111	O411	0.550180	0.441220	0.819300
O4121	O412	0.521520	0.121340	0.533400
O4131	O413	0.941220	0.050180	0.189300
O4141	O414	0.025760	0.958980	0.779860
O4151	O415	0.111540	0.800420	0.244180
O4161	O416	0.300420	0.611540	0.244180
O4171	O417	0.277970	0.827690	0.342310
O4181	O418	0.165770	0.807170	0.263930
O4191	O419	0.264940	0.297620	0.579300
O4201	O420	0.307170	0.763130	0.263930
O4211	O421	0.933800	0.867660	0.818380
O4221	O422	0.699580	0.755820	0.388460
O4231	O423	0.512230	0.777230	0.558390
O4241	O424	0.877110	0.922730	0.879050
O4251	O425	0.202380	0.235060	0.420700
O4261	O426	0.722030	0.172310	0.447970
O4271	O427	0.620950	0.622890	0.077270
O4281	O428	0.033400	0.121340	0.823740
O4291	O429	0.027220	0.018940	0.746140
O4301	O430	0.135650	0.679470	0.453790
O4311	O431	0.768910	0.320530	0.546210
O4321	O432	0.803040	0.794260	0.608440
O4331	O433	0.246140	0.527220	0.207700
O4341	O434	0.722030	0.657690	0.447970
O4351	O435	0.972780	0.981060	0.253860
O4361	O436	0.046210	0.268910	0.364350
O4371	O437	0.358140	0.764940	0.579300
O4381	O438	0.478480	0.466600	0.878660
O4391	O439	0.941220	0.819300	0.189300
O4401	O440	0.550180	0.819300	0.441220
O4411	O441	0.066200	0.181620	0.132340
O4421	O442	0.343860	0.800420	0.611540
O4431	O443	0.735060	0.420700	0.702380
O4441	O444	0.687000	0.813000	0.000000
O4451	O445	0.481060	0.253860	0.792300
O4461	O446	0.707700	0.746140	0.018940
O4471	O447	0.313000	0.187000	0.500000
O4481	O448	0.974240	0.041020	0.220140
O4491	O449	0.147200	0.082540	0.177340
O4501	O450	0.058780	0.180700	0.949820
O4511	O451	0.828790	0.328790	0.328790
O4521	O452	0.478480	0.878660	0.176260
O4531	O453	0.346700	0.468940	0.043040
O4541	O454	0.907080	0.352800	0.822660
O4551	O455	0.202380	0.141860	0.420700
O4561	O456	0.763930	0.763130	0.665770
O4571	O457	0.279860	0.525760	0.235400
O4581	O458	0.941610	0.222770	0.847850
O4591	O459	0.842310	0.777970	0.827690
O4601	O460	0.907080	0.352800	0.917460
O4611	O461	0.058390	0.777230	0.012230
O4621	O462	0.066200	0.619840	0.181620
O4631	O463	0.907080	0.822660	0.352800
O4641	O464	0.966600	0.176260	0.878660
O4651	O465	0.277970	0.342310	0.827690
O4661	O466	0.629000	0.621000	0.129000
O4671	O467	0.672310	0.222030	0.447970
O4681	O468	0.277230	0.152150	0.558390
O4691	O469	0.313000	0.500000	0.000000
O4701	O470	0.347850	0.987770	0.222770
O4711	O471	0.676640	0.684780	0.271440
O4721	O472	0.487770	0.441610	0.222770
O4731	O473	0.327690	0.552030	0.342310
O4741	O474	0.079300	0.858140	0.764940
O4751	O475	0.676640	0.684780	0.367140
O4761	O476	0.242890	0.793210	0.359510
O4771	O477	0.722770	0.441610	0.847850
O4781	O478	0.763930	0.665770	0.807170
O4791	O479	0.323740	0.533400	0.121340
O4801	O480	0.653300	0.858680	0.531060
O4811	O481	0.653300	0.858680	0.956960
O4821	O482	0.641860	0.235060	0.420700
O4831	O483	0.720140	0.041020	0.474240
O4841	O484	0.518940	0.207700	0.746140
O4851	O485	0.815220	0.728560	0.823360
O4861	O486	0.422730	0.377110	0.879050
O4871	O487	0.676260	0.878660	0.466600
O4881	O488	0.677340	0.082540	0.647200
O4891	O489	0.196960	0.205740	0.205740
O4901	O490	0.292300	0.253860	0.981060
O4911	O491	0.577270	0.120950	0.622890
O4921	O492	0.518940	0.746140	0.207700
O4931	O493	0.582540	0.177340	0.647200
O4941	O494	0.184780	0.176640	0.367140
O4951	O495	0.672310	0.447970	0.222030
O4961	O496	0.735060	0.141860	0.420700
O4971	O497	0.621340	0.533400	0.823740
O4981	O498	0.852800	0.407080	0.822660
O4991	O499	0.135650	0.679470	0.731090
O5001	O500	0.521520	0.823740	0.121340
O5011	O501	0.140490	0.206790	0.257110
O5021	O502	0.886030	0.291230	0.480730
O5031	O503	0.300420	0.843860	0.244180
O5041	O504	0.323360	0.632860	0.728560
O5051	O505	0.379050	0.377110	0.321110
O5061	O506	0.705740	0.696960	0.391560
O5071	O507	0.307170	0.263930	0.763130
O5081	O508	0.347850	0.987770	0.441610
O5091	O509	0.255820	0.156140	0.199580
O5101	O510	0.319300	0.050180	0.441220
O5111	O511	0.135650	0.453790	0.731090
O5121	O512	0.307170	0.665770	0.263930
O5131	O513	0.541020	0.764600	0.474240
O5141	O514	0.972780	0.253860	0.792300
O5151	O515	0.842310	0.827690	0.777970
O5161	O516	0.722770	0.847850	0.441610
O5171	O517	0.722770	0.987770	0.847850
O5181	O518	0.953790	0.679470	0.635650
O5191	O519	0.735060	0.702380	0.420700
O5201	O520	0.828790	0.328790	0.513630
O5211	O521	0.111540	0.843860	0.244180
O5221	O522	0.293210	0.359510	0.742890
O5231	O523	0.541020	0.764600	0.220140
O5241	O524	0.736870	0.334230	0.192830
O5251	O525	0.620950	0.077270	0.622890
O5261	O526	0.933800	0.818380	0.867660
O5271	O527	0.681620	0.619840	0.566200
O5281	O528	0.735400	0.958980	0.525760
O5291	O529	0.157990	0.613970	0.519270
O5301	O530	0.656140	0.755820	0.199580
O5311	O531	0.582540	0.592920	0.647200
O5321	O532	0.323360	0.315220	0.728560
O5331	O533	0.310700	0.180700	0.558780
O5341	O534	0.641860	0.235060	0.702380
O5351	O535	0.104390	0.359510	0.742890
O5361	O536	0.279860	0.958980	0.235400
O5371	O537	0.797620	0.764940	0.579300
O5381	O538	0.920700	0.235060	0.702380
O5391	O539	0.019270	0.613970	0.708770
O5401	O540	0.706790	0.640490	0.257110
O5411	O541	0.031060	0.956960	0.858680
O5421	O542	0.821110	0.377110	0.879050
O5431	O543	0.768910	0.546210	0.364350
O5441	O544	0.293210	0.359510	0.604390
O5451	O545	0.941220	0.189300	0.050180
O5461	O546	0.449820	0.810700	0.558780
O5471	O547	0.458980	0.525760	0.779860
O5481	O548	0.681620	0.566200	0.619840
O5491	O549	0.771440	0.176640	0.684780
O5501	O550	0.371000	0.379000	0.871000
O5511	O551	0.707700	0.018940	0.746140
O5521	O552	0.208770	0.613970	0.519270
O5531	O553	0.310700	0.949820	0.180700
O5541	O554	0.202380	0.420700	0.141860
O5551	O555	0.980730	0.386030	0.342010
O5561	O556	0.135650	0.731090	0.453790
O5571	O557	0.735060	0.141860	0.702380
O5581	O558	0.371000	0.379000	0.379000
O5591	O559	0.880160	0.433800	0.818380
O5601	O560	0.653300	0.531060	0.858680
O5611	O561	0.500000	0.500000	0.813000
O5621	O562	0.025760	0.235400	0.779860
O5631	O563	0.859510	0.604390	0.793210
O5641	O564	0.343860	0.244180	0.611540
O5651	O565	0.842010	0.291230	0.386030
O5661	O566	0.027220	0.207700	0.746140
O5671	O567	0.025760	0.958980	0.235400
O5681	O568	0.121000	0.129000	0.129000
O5691	O569	0.680700	0.558780	0.949820
O5701	O570	0.066200	0.132340	0.181620
O5711	O571	0.184780	0.271440	0.367140
O5721	O572	0.753860	0.792300	0.472780
O5731	O573	0.019270	0.657990	0.613970
O5741	O574	0.236070	0.334230	0.236870
O5751	O575	0.687000	0.000000	0.813000
O5761	O576	0.236070	0.192830	0.334230
O5771	O577	0.449820	0.558780	0.180700
O5781	O578	0.744180	0.843860	0.800420
O5791	O579	0.147200	0.592920	0.177340
O5801	O580	0.179470	0.635650	0.731090
O5811	O581	0.771440	0.684780	0.367140
O5821	O582	0.705740	0.391560	0.696960
O5831	O583	0.820530	0.546210	0.268910
O5841	O584	0.797620	0.858140	0.579300
O5851	O585	0.753860	0.472780	0.981060
O5861	O586	0.277970	0.342310	0.552030
O5871	O587	0.676260	0.466600	0.878660
O5881	O588	0.577270	0.622890	0.678890
O5891	O589	0.920700	0.141860	0.702380
O5901	O590	0.111540	0.800420	0.843860
O5911	O591	0.379050	0.321110	0.377110
O5921	O592	0.228560	0.823360	0.632860
O5931	O593	0.677340	0.592920	0.082540
O5941	O594	0.236070	0.192830	0.236870
O5951	O595	0.157990	0.519270	0.708770
O5961	O596	0.907080	0.822660	0.917460
O5971	O597	0.327690	0.552030	0.777970
O5981	O598	0.323740	0.021520	0.121340
O5991	O599	0.834230	0.736070	0.192830
O6001	O600	0.417460	0.352800	0.822660
O6011	O601	0.621340	0.823740	0.021520
O6021	O602	0.852800	0.822660	0.407080
O6031	O603	0.264600	0.041020	0.474240
O6041	O604	0.031060	0.153300	0.858680
O6051	O605	0.027220	0.746140	0.207700
O6061	O606	0.294260	0.303040	0.608440
O6071	O607	0.689300	0.441220	0.819300
O6081	O608	0.079300	0.764940	0.297620
O6091	O609	0.968940	0.043040	0.846700
O6101	O610	0.347850	0.441610	0.987770
O6111	O611	0.735060	0.420700	0.141860
O6121	O612	0.791230	0.480730	0.386030
O6131	O613	0.456960	0.858680	0.531060
O6141	O614	0.820530	0.546210	0.364350
O6151	O615	0.264940	0.579300	0.297620
O6161	O616	0.322660	0.917460	0.407080
O6171	O617	0.264940	0.858140	0.297620
O6181	O618	0.277230	0.558390	0.012230
O6191	O619	0.947970	0.172310	0.222030
O6201	O620	0.319300	0.189300	0.050180
O6211	O621	0.895610	0.257110	0.206790
O6221	O622	0.481060	0.472780	0.792300
O6231	O623	0.705740	0.696960	0.205740
O6241	O624	0.033400	0.823740	0.121340
O6251	O625	0.292300	0.472780	0.981060
O6261	O626	0.092920	0.177340	0.647200
O6271	O627	0.092920	0.082540	0.647200
O6281	O628	0.681620	0.132340	0.566200
O6291	O629	0.692830	0.236870	0.736070
O6301	O630	0.687000	0.813000	0.500000
O6311	O631	0.582540	0.647200	0.177340
O6321	O632	0.033400	0.021520	0.823740
O6331	O633	0.500000	0.813000	0.500000
O6341	O634	0.867140	0.271440	0.176640
O6351	O635	0.828790	0.513630	0.328790
O6361	O636	0.058780	0.949820	0.810700
O6371	O637	0.104390	0.359510	0.793210
O6381	O638	0.877110	0.922730	0.321110
O6391	O639	0.058390	0.152150	0.012230
O6401	O640	0.953790	0.679470	0.731090
O6411	O641	0.641320	0.043040	0.468940
O6421	O642	0.653300	0.956960	0.858680
O6431	O643	0.242890	0.359510	0.793210
O6441	O644	0.707700	0.018940	0.527220
O6451	O645	0.264600	0.041020	0.220140
O6461	O646	0.379050	0.321110	0.922730
O6471	O647	0.104390	0.793210	0.742890
O6481	O648	0.687000	0.000000	0.500000
O6491	O649	0.706790	0.640490	0.395610
O6501	O650	0.768910	0.364350	0.546210
O6511	O651	0.184780	0.176640	0.271440
O6521	O652	0.676640	0.271440	0.684780
O6531	O653	0.358680	0.956960	0.531060
O6541	O654	0.242890	0.604390	0.359510
O6551	O655	0.972780	0.792300	0.253860
O6561	O656	0.323740	0.121340	0.021520
O6571	O657	0.058390	0.777230	0.152150
O6581	O658	0.367660	0.818380	0.433800
O6591	O659	0.319300	0.050180	0.189300
O6601	O660	0.140490	0.257110	0.395610
O6611	O661	0.966600	0.878660	0.176260
O6621	O662	0.974240	0.041020	0.764600
O6631	O663	0.165770	0.763130	0.807170
O6641	O664	0.279860	0.525760	0.958980
O6651	O665	0.264600	0.220140	0.041020
O6661	O666	0.859510	0.604390	0.742890
O6671	O667	0.980730	0.342010	0.291230
O6681	O668	0.888460	0.755820	0.156140
O6691	O669	0.378660	0.978480	0.176260
O6701	O670	0.895610	0.206790	0.257110
O6711	O671	0.541020	0.220140	0.474240
O6721	O672	0.307170	0.263930	0.665770
O6731	O673	0.178890	0.622890	0.120950
O6741	O674	0.046210	0.268910	0.320530
O6751	O675	0.891560	0.205740	0.696960
O6761	O676	0.803040	0.608440	0.794260
O6771	O677	0.165770	0.263930	0.763130
O6781	O678	0.000000	0.813000	0.000000
O6791	O679	0.417460	0.407080	0.822660
O6801	O680	0.031060	0.858680	0.153300
O6811	O681	0.518940	0.746140	0.527220
O6821	O682	0.122890	0.120950	0.678890
O6831	O683	0.968940	0.141320	0.846700
O6841	O684	0.692830	0.236870	0.334230
O6851	O685	0.367660	0.818380	0.380160
O6861	O686	0.458980	0.235400	0.525760
O6871	O687	0.707700	0.527220	0.746140
O6881	O688	0.264940	0.579300	0.858140
O6891	O689	0.246140	0.527220	0.018940
O6901	O690	0.699580	0.755820	0.156140
O6911	O691	0.104390	0.793210	0.359510
O6921	O692	0.027220	0.207700	0.018940
O6931	O693	0.980730	0.386030	0.291230
O6941	O694	0.933800	0.380160	0.818380
O6951	O695	0.720140	0.764600	0.041020
O6961	O696	0.358140	0.579300	0.297620
O6971	O697	0.279860	0.235400	0.958980
O6981	O698	0.632340	0.566200	0.619840
O6991	O699	0.852800	0.917460	0.822660
O7001	O700	0.753860	0.792300	0.981060
O7011	O701	0.920700	0.702380	0.235060
O7021	O702	0.231090	0.635650	0.453790
O7031	O703	0.656140	0.388460	0.755820
O7041	O704	0.521520	0.533400	0.823740
O7051	O705	0.706790	0.257110	0.395610
O7061	O706	0.757110	0.395610	0.206790
O7071	O707	0.277970	0.827690	0.552030
O7081	O708	0.019270	0.613970	0.657990
O7091	O709	0.867140	0.684780	0.271440
O7101	O710	0.676260	0.878660	0.978480
O7111	O711	0.277230	0.152150	0.012230
O7121	O712	0.478480	0.176260	0.878660
O7131	O713	0.140490	0.206790	0.395610
O7141	O714	0.358680	0.531060	0.153300
O7151	O715	0.307170	0.763130	0.665770
O7161	O716	0.458980	0.779860	0.525760
O7171	O717	0.310700	0.558780	0.949820
O7181	O718	0.322660	0.407080	0.352800
O7191	O719	0.000000	0.187000	0.000000
O7201	O720	0.487770	0.222770	0.441610
O7211	O721	0.842010	0.386030	0.291230
O7221	O722	0.277230	0.012230	0.558390
O7231	O723	0.147200	0.592920	0.082540
O7241	O724	0.058390	0.152150	0.777230
O7251	O725	0.292300	0.253860	0.472780
O7261	O726	0.652150	0.558390	0.777230
O7271	O727	0.947970	0.222030	0.172310
O7281	O728	0.231090	0.453790	0.679470
O7291	O729	0.736870	0.334230	0.736070
O7301	O730	0.277970	0.552030	0.342310
O7311	O731	0.705740	0.391560	0.205740
O7321	O732	0.920700	0.235060	0.141860
O7331	O733	0.228560	0.823360	0.315220
O7341	O734	0.720140	0.474240	0.764600
O7351	O735	0.820530	0.268910	0.546210
O7361	O736	0.449820	0.180700	0.810700
O7371	O737	0.953790	0.635650	0.679470
O7381	O738	0.653300	0.956960	0.531060
O7391	O739	0.458980	0.779860	0.235400
O7401	O740	0.279860	0.235400	0.525760
O7411	O741	0.196960	0.391560	0.205740
O7421	O742	0.132860	0.728560	0.823360
O7431	O743	0.277970	0.552030	0.827690
O7441	O744	0.052030	0.342310	0.827690
O7451	O745	0.449820	0.810700	0.180700
O7461	O746	0.867140	0.176640	0.271440
O7471	O747	0.343860	0.244180	0.800420
O7481	O748	0.263130	0.807170	0.263930
O7491	O749	0.888460	0.156140	0.755820
O7501	O750	0.208770	0.519270	0.613970
O7511	O751	0.821110	0.879050	0.922730
O7521	O752	0.815220	0.632860	0.728560
O7531	O753	0.300420	0.611540	0.843860
O7541	O754	0.859510	0.793210	0.742890
O7551	O755	0.550180	0.819300	0.189300
O7561	O756	0.543040	0.468940	0.141320
O7571	O757	0.157690	0.222030	0.172310
O7581	O758	0.178890	0.622890	0.077270
O7591	O759	0.300420	0.244180	0.843860
O7601	O760	0.456960	0.858680	0.153300
O7611	O761	0.676640	0.367140	0.271440
O7621	O762	0.512230	0.777230	0.152150
O7631	O763	0.379050	0.922730	0.377110
O7641	O764	0.541020	0.220140	0.764600
O7651	O765	0.692830	0.736070	0.334230
O7661	O766	0.184780	0.271440	0.176640
O7671	O767	0.947970	0.222030	0.657690
O7681	O768	0.367660	0.433800	0.380160
O7691	O769	0.722030	0.172310	0.657690
O7701	O770	0.680700	0.810700	0.949820
O7711	O771	0.757110	0.395610	0.640490
O7721	O772	0.327690	0.777970	0.342310
O7731	O773	0.821110	0.922730	0.879050
O7741	O774	0.842310	0.552030	0.777970
O7751	O775	0.680700	0.949820	0.810700
O7761	O776	0.859510	0.742890	0.793210
O7771	O777	0.763930	0.763130	0.807170
O7781	O778	0.735400	0.525760	0.779860
O7791	O779	0.706790	0.257110	0.640490
O7801	O780	0.122890	0.678890	0.120950
O7811	O781	0.358680	0.531060	0.956960
O7821	O782	0.196960	0.205740	0.391560
O7831	O783	0.722770	0.441610	0.987770
O7841	O784	0.092920	0.082540	0.177340
O7851	O785	0.656140	0.199580	0.755820
O7861	O786	0.947970	0.657690	0.172310
O7871	O787	0.318380	0.867660	0.380160
O7881	O788	0.236070	0.236870	0.334230
O7891	O789	0.367660	0.380160	0.818380
O7901	O790	0.140490	0.395610	0.257110
O7911	O791	0.171210	0.671210	0.671210
O7921	O792	0.763930	0.807170	0.763130
O7931	O793	0.293210	0.742890	0.359510
O7941	O794	0.797620	0.764940	0.858140
O7951	O795	0.487770	0.847850	0.441610
O7961	O796	0.681620	0.619840	0.132340
O7971	O797	0.842010	0.291230	0.480730
O7981	O798	0.521520	0.823740	0.533400
O7991	O799	0.521520	0.533400	0.121340
O8001	O800	0.880160	0.818380	0.433800
O8011	O801	0.803040	0.794260	0.794260
O8021	O802	0.165770	0.807170	0.763130
O8031	O803	0.318380	0.433800	0.380160
O8041	O804	0.821110	0.922730	0.377110
O8051	O805	0.888460	0.199580	0.755820
O8061	O806	0.707700	0.746140	0.527220
O8071	O807	0.031060	0.858680	0.956960
O8081	O808	0.242890	0.604390	0.793210
O8091	O809	0.458980	0.235400	0.779860
O8101	O810	0.378660	0.466600	0.978480
O8111	O811	0.886030	0.342010	0.291230
O8121	O812	0.641860	0.702380	0.420700
O8131	O813	0.300420	0.843860	0.611540
O8141	O814	0.842310	0.552030	0.827690
O8151	O815	0.888460	0.156140	0.199580
O8161	O816	0.512230	0.152150	0.558390
O8171	O817	0.323360	0.632860	0.315220
O8181	O818	0.135650	0.731090	0.679470
O8191	O819	0.113970	0.657990	0.519270
O8201	O820	0.980730	0.291230	0.342010
O8211	O821	0.895610	0.206790	0.640490
O8221	O822	0.672310	0.657690	0.222030
O8231	O823	0.972780	0.981060	0.792300
O8241	O824	0.294260	0.608440	0.794260
O8251	O825	0.157690	0.172310	0.222030
O8261	O826	0.821110	0.377110	0.922730
O8271	O827	0.347850	0.441610	0.222770
O8281	O828	0.318380	0.380160	0.433800
O8291	O829	0.358680	0.956960	0.153300
O8301	O830	0.687000	0.500000	0.813000
O8311	O831	0.895610	0.640490	0.257110
O8321	O832	0.343860	0.800420	0.244180
O8331	O833	0.313000	0.500000	0.187000
O8341	O834	0.179470	0.453790	0.635650
O8351	O835	0.582540	0.177340	0.592920
O8361	O836	0.768910	0.546210	0.320530
O8371	O837	0.757110	0.640490	0.206790
O8381	O838	0.367660	0.380160	0.433800
O8391	O839	0.327690	0.777970	0.552030
O8401	O840	0.033400	0.121340	0.021520
O8411	O841	0.541020	0.474240	0.764600
O8421	O842	0.327690	0.342310	0.777970
O8431	O843	0.641860	0.702380	0.235060
O8441	O844	0.680700	0.949820	0.558780
O8451	O845	0.974240	0.220140	0.041020
O8461	O846	0.013630	0.328790	0.328790
O8471	O847	0.974240	0.764600	0.220140
O8481	O848	0.122890	0.077270	0.120950
O8491	O849	0.119840	0.566200	0.181620
O8501	O850	0.313000	0.187000	0.000000
O8511	O851	0.310700	0.558780	0.180700
O8521	O852	0.113970	0.708770	0.657990
O8531	O853	0.886030	0.480730	0.342010
O8541	O854	0.941220	0.189300	0.819300
O8551	O855	0.113970	0.519270	0.657990
O8561	O856	0.208770	0.657990	0.613970
O8571	O857	0.771440	0.684780	0.176640
O8581	O858	0.815220	0.823360	0.632860
O8591	O859	0.323740	0.121340	0.533400
O8601	O860	0.318380	0.867660	0.433800
O8611	O861	0.891560	0.696960	0.205740
O8621	O862	0.242890	0.793210	0.604390
O8631	O863	0.757110	0.640490	0.395610
O8641	O864	0.487770	0.222770	0.847850
O8651	O865	0.264600	0.220140	0.474240
O8661	O866	0.208770	0.657990	0.519270
O8671	O867	0.378660	0.978480	0.466600
O8681	O868	0.263130	0.263930	0.807170
O8691	O869	0.027220	0.746140	0.018940
O8701	O870	0.478480	0.466600	0.176260
O8711	O871	0.228560	0.315220	0.823360
O8721	O872	0.231090	0.635650	0.679470
O8731	O873	0.108440	0.794260	0.794260
O8741	O874	0.025760	0.235400	0.958980
O8751	O875	0.255820	0.156140	0.388460
O8761	O876	0.147200	0.177340	0.082540
O8771	O877	0.052030	0.827690	0.342310
O8781	O878	0.550180	0.189300	0.819300
O8791	O879	0.231090	0.679470	0.453790
O8801	O880	0.293210	0.604390	0.359510
O8811	O881	0.292300	0.981060	0.472780
O8821	O882	0.820530	0.364350	0.268910
O8831	O883	0.228560	0.632860	0.823360
O8841	O884	0.323360	0.728560	0.315220
