data_COCMAJ_clean_PM
_symmetry_space_group_name_H-M	'P1'
_cell_length_a	13.510000
_cell_length_b	27.370000
_cell_length_c	27.991000
_cell_angle_alpha	90.000000
_cell_angle_beta	90.000000
_cell_angle_gamma	90.000000
_symmetry_Int_Tables_number 1

loop_
_symmetry_equiv_pos_as_xyz
'x,y,z'

loop_
_atom_site_label
_atom_site_type_symbol
_atom_site_fract_x
_atom_site_fract_y
_atom_site_fract_z
Zn11	Zn1	0.384020	0.503700	0.041420
Zn21	Zn2	0.591910	0.463800	0.972950
Zn31	Zn3	0.260010	0.687000	0.744800
Zn41	Zn4	0.063820	0.764780	0.784830
Zn51	Zn5	0.115980	0.496300	0.541420
Zn61	Zn6	0.908090	0.536200	0.472950
Zn71	Zn7	0.239990	0.313000	0.244800
Zn81	Zn8	0.436180	0.235220	0.284830
Zn91	Zn9	0.615980	0.003700	0.458580
Zn101	Zn10	0.408090	0.963800	0.527050
Zn111	Zn11	0.739990	0.187000	0.755200
Zn121	Zn12	0.936180	0.264780	0.715170
Zn131	Zn13	0.884020	0.996300	0.958580
Zn141	Zn14	0.091910	0.036200	0.027050
Zn151	Zn15	0.760010	0.813000	0.255200
Zn161	Zn16	0.563820	0.735220	0.215170
H11	H1	0.023000	0.681000	0.907000
H21	H2	0.280400	0.611700	0.879000
H31	H3	0.131600	0.589000	0.002600
H41	H4	0.691100	0.374300	0.075400
H51	H5	0.433700	0.389700	0.145500
H61	H6	0.627600	0.282800	0.179600
H71	H7	0.745900	0.584700	0.990200
H81	H8	0.569200	0.622100	0.100100
H91	H9	0.840000	0.683600	0.084200
H101	H10	0.505600	0.206800	0.851100
H111	H11	0.648400	0.329800	0.892700
H121	H12	0.371900	0.298700	0.937800
H131	H13	0.477000	0.319000	0.407000
H141	H14	0.219600	0.388300	0.379000
H151	H15	0.368400	0.411000	0.502600
H161	H16	0.808900	0.625700	0.575400
H171	H17	0.066300	0.610300	0.645500
H181	H18	0.872400	0.717200	0.679600
H191	H19	0.754100	0.415300	0.490200
H201	H20	0.930800	0.377900	0.600100
H211	H21	0.660000	0.316400	0.584200
H221	H22	0.994400	0.793200	0.351100
H231	H23	0.851600	0.670200	0.392700
H241	H24	0.128100	0.701300	0.437800
H251	H25	0.977000	0.181000	0.593000
H261	H26	0.719600	0.111700	0.621000
H271	H27	0.868400	0.089000	0.497400
H281	H28	0.308900	0.874300	0.424600
H291	H29	0.566300	0.889700	0.354500
H301	H30	0.372400	0.782800	0.320400
H311	H31	0.254100	0.084700	0.509800
H321	H32	0.430800	0.122100	0.399900
H331	H33	0.160000	0.183600	0.415800
H341	H34	0.494400	0.706800	0.648900
H351	H35	0.351600	0.829800	0.607300
H361	H36	0.628100	0.798700	0.562200
H371	H37	0.523000	0.819000	0.093000
H381	H38	0.780400	0.888300	0.121000
H391	H39	0.631600	0.911000	0.997400
H401	H40	0.191100	0.125700	0.924600
H411	H41	0.933700	0.110300	0.854500
H421	H42	0.127600	0.217200	0.820400
H431	H43	0.245900	0.915300	0.009800
H441	H44	0.069200	0.877900	0.899900
H451	H45	0.340000	0.816400	0.915800
H461	H46	0.005600	0.293200	0.148900
H471	H47	0.148400	0.170200	0.107300
H481	H48	0.871900	0.201300	0.062200
Pd11	Pd1	0.934920	0.637250	0.995680
Pd21	Pd2	0.799780	0.288680	0.114570
Pd31	Pd3	0.565080	0.362750	0.495680
Pd41	Pd4	0.700220	0.711320	0.614570
Pd51	Pd5	0.065080	0.137250	0.504320
Pd61	Pd6	0.200220	0.788680	0.385430
Pd71	Pd7	0.434920	0.862750	0.004320
Pd81	Pd8	0.299780	0.211320	0.885430
C11	C1	0.072600	0.658200	0.916100
C21	C2	0.152300	0.651200	0.885900
C31	C3	0.226000	0.618300	0.899500
C41	C4	0.218100	0.595500	0.943500
C51	C5	0.136000	0.604300	0.972300
C61	C6	0.156600	0.677300	0.838500
C71	C7	0.296300	0.559400	0.961300
C81	C8	0.646700	0.363500	0.099400
C91	C9	0.556400	0.388000	0.105900
C101	C10	0.494400	0.372900	0.140400
C111	C11	0.518500	0.332900	0.168500
C121	C12	0.609200	0.309900	0.160500
C131	C13	0.531200	0.430600	0.073500
C141	C14	0.452300	0.312400	0.206900
C151	C15	0.735000	0.603600	0.018200
C161	C16	0.647300	0.597800	0.042600
C171	C17	0.629600	0.625200	0.083000
C181	C18	0.702800	0.657900	0.098100
C191	C19	0.790000	0.662000	0.073100
C201	C20	0.690700	0.687000	0.143700
C211	C21	0.575700	0.559300	0.024600
C221	C22	0.506900	0.236500	0.868700
C231	C23	0.591900	0.266000	0.867600
C241	C24	0.592400	0.308800	0.893500
C251	C25	0.511000	0.320900	0.920800
C261	C26	0.428800	0.290200	0.919700
C271	C27	0.674500	0.253300	0.833000
C281	C28	0.504800	0.368600	0.947400
C291	C29	0.427400	0.341800	0.416100
C301	C30	0.347700	0.348800	0.385900
C311	C31	0.274000	0.381700	0.399500
C321	C32	0.281900	0.404500	0.443500
C331	C33	0.364000	0.395700	0.472300
C341	C34	0.343400	0.322700	0.338500
C351	C35	0.203700	0.440600	0.461300
C361	C36	0.853300	0.636500	0.599400
C371	C37	0.943600	0.612000	0.605900
C381	C38	0.005600	0.627100	0.640400
C391	C39	0.981500	0.667100	0.668500
C401	C40	0.890800	0.690100	0.660500
C411	C41	0.968800	0.569400	0.573500
C421	C42	0.047700	0.687600	0.706900
C431	C43	0.765000	0.396400	0.518200
C441	C44	0.852700	0.402200	0.542600
C451	C45	0.870400	0.374800	0.583000
C461	C46	0.797200	0.342100	0.598100
C471	C47	0.710000	0.338000	0.573100
C481	C48	0.809300	0.313000	0.643700
C491	C49	0.924300	0.440700	0.524600
C501	C50	0.993100	0.763500	0.368700
C511	C51	0.908100	0.734000	0.367600
C521	C52	0.907600	0.691200	0.393500
C531	C53	0.989000	0.679100	0.420800
C541	C54	0.071200	0.709800	0.419700
C551	C55	0.825500	0.746700	0.333000
C561	C56	0.995200	0.631400	0.447400
C571	C57	0.927400	0.158200	0.583900
C581	C58	0.847700	0.151200	0.614100
C591	C59	0.774000	0.118300	0.600500
C601	C60	0.781900	0.095500	0.556500
C611	C61	0.864000	0.104300	0.527700
C621	C62	0.843400	0.177300	0.661500
C631	C63	0.703700	0.059400	0.538700
C641	C64	0.353300	0.863500	0.400600
C651	C65	0.443600	0.888000	0.394100
C661	C66	0.505600	0.872900	0.359600
C671	C67	0.481500	0.832900	0.331500
C681	C68	0.390800	0.809900	0.339500
C691	C69	0.468800	0.930600	0.426500
C701	C70	0.547700	0.812400	0.293100
C711	C71	0.265000	0.103600	0.481800
C721	C72	0.352700	0.097800	0.457400
C731	C73	0.370400	0.125200	0.417000
C741	C74	0.297200	0.157900	0.401900
C751	C75	0.210000	0.162000	0.426900
C761	C76	0.309300	0.187000	0.356300
C771	C77	0.424300	0.059300	0.475400
C781	C78	0.493100	0.736500	0.631300
C791	C79	0.408100	0.766000	0.632400
C801	C80	0.407600	0.808800	0.606500
C811	C81	0.489000	0.820900	0.579200
C821	C82	0.571200	0.790200	0.580300
C831	C83	0.325500	0.753300	0.667000
C841	C84	0.495200	0.868600	0.552600
C851	C85	0.572600	0.841800	0.083900
C861	C86	0.652300	0.848800	0.114100
C871	C87	0.726000	0.881700	0.100500
C881	C88	0.718100	0.904500	0.056500
C891	C89	0.636000	0.895700	0.027700
C901	C90	0.656600	0.822700	0.161500
C911	C91	0.796300	0.940600	0.038700
C921	C92	0.146700	0.136500	0.900600
C931	C93	0.056400	0.112000	0.894100
C941	C94	0.994400	0.127100	0.859600
C951	C95	0.018500	0.167100	0.831500
C961	C96	0.109200	0.190100	0.839500
C971	C97	0.031200	0.069400	0.926500
C981	C98	0.952300	0.187600	0.793100
C991	C99	0.235000	0.896400	0.981800
C1001	C100	0.147300	0.902200	0.957400
C1011	C101	0.129600	0.874800	0.917000
C1021	C102	0.202800	0.842100	0.901900
C1031	C103	0.290000	0.838000	0.926900
C1041	C104	0.190700	0.813000	0.856300
C1051	C105	0.075700	0.940700	0.975400
C1061	C106	0.006900	0.263500	0.131300
C1071	C107	0.091900	0.234000	0.132400
C1081	C108	0.092400	0.191200	0.106500
C1091	C109	0.011000	0.179100	0.079200
C1101	C110	0.928800	0.209800	0.080300
C1111	C111	0.174500	0.246700	0.167000
C1121	C112	0.004800	0.131400	0.052600
N11	N1	0.061700	0.634500	0.957600
N21	N2	0.805800	0.635000	0.032100
N31	N3	0.670900	0.325600	0.126000
N41	N4	0.427500	0.249700	0.894400
N51	N5	0.438300	0.365500	0.457600
N61	N6	0.694200	0.365000	0.532100
N71	N7	0.829100	0.674400	0.626000
N81	N8	0.072500	0.750300	0.394400
N91	N9	0.938300	0.134500	0.542400
N101	N10	0.194200	0.135000	0.467900
N111	N11	0.329100	0.825600	0.374000
N121	N12	0.572500	0.749700	0.605600
N131	N13	0.561700	0.865500	0.042400
N141	N14	0.305800	0.865000	0.967900
N151	N15	0.170900	0.174400	0.874000
N161	N16	0.927500	0.250300	0.105600
Cl11	Cl1	0.847640	0.632180	0.924520
Cl21	Cl2	0.021730	0.640390	0.065910
Cl31	Cl3	0.883070	0.361100	0.105840
Cl41	Cl4	0.718100	0.216260	0.124520
Cl51	Cl5	0.652360	0.367820	0.424520
Cl61	Cl6	0.478270	0.359610	0.565910
Cl71	Cl7	0.616930	0.638900	0.605840
Cl81	Cl8	0.781900	0.783740	0.624520
Cl91	Cl9	0.152360	0.132180	0.575480
Cl101	Cl10	0.978270	0.140390	0.434090
Cl111	Cl11	0.116930	0.861100	0.394160
Cl121	Cl12	0.281900	0.716260	0.375480
Cl131	Cl13	0.347640	0.867820	0.075480
Cl141	Cl14	0.521730	0.859610	0.934090
Cl151	Cl15	0.383070	0.138900	0.894160
Cl161	Cl16	0.218100	0.283740	0.875480
O11	O1	0.087800	0.707100	0.831000
O21	O2	0.225200	0.664800	0.811110
O31	O3	0.293800	0.549800	0.004300
O41	O4	0.354300	0.543000	0.930900
O51	O5	0.451000	0.450900	0.080660
O61	O6	0.596900	0.442100	0.042840
O71	O7	0.368600	0.332700	0.211100
O81	O8	0.484900	0.276900	0.229700
O91	O9	0.606100	0.687800	0.162100
O101	O10	0.766400	0.708200	0.159000
O111	O11	0.497900	0.553800	0.047000
O121	O12	0.605500	0.535700	0.988830
O131	O13	0.673200	0.211000	0.816800
O141	O14	0.730700	0.287400	0.822500
O151	O15	0.421700	0.379400	0.965400
O161	O16	0.581600	0.393800	0.949400
O171	O17	0.436400	0.472200	0.975570
O181	O18	0.211800	0.759000	0.760400
O191	O19	0.412200	0.292900	0.331000
O201	O20	0.274800	0.335200	0.311110
O211	O21	0.206200	0.450200	0.504300
O221	O22	0.145700	0.457000	0.430900
O231	O23	0.049000	0.549100	0.580660
O241	O24	0.903100	0.557900	0.542840
O251	O25	0.131400	0.667300	0.711100
O261	O26	0.015100	0.723100	0.729700
O271	O27	0.893900	0.312200	0.662100
O281	O28	0.733600	0.291800	0.659000
O291	O29	0.002100	0.446200	0.547000
O301	O30	0.894500	0.464300	0.488830
O311	O31	0.826800	0.789000	0.316800
O321	O32	0.769300	0.712600	0.322500
O331	O33	0.078300	0.620600	0.465400
O341	O34	0.918400	0.606200	0.449400
O351	O35	0.063600	0.527800	0.475570
O361	O36	0.288200	0.241000	0.260400
O371	O37	0.912200	0.207100	0.669000
O381	O38	0.774800	0.164800	0.688890
O391	O39	0.706200	0.049800	0.495700
O401	O40	0.645700	0.043000	0.569100
O411	O41	0.549000	0.950900	0.419340
O421	O42	0.403100	0.942100	0.457160
O431	O43	0.631400	0.832700	0.288900
O441	O44	0.515100	0.776900	0.270300
O451	O45	0.393900	0.187800	0.337900
O461	O46	0.233600	0.208200	0.341000
O471	O47	0.502100	0.053800	0.453000
O481	O48	0.394500	0.035700	0.511170
O491	O49	0.326800	0.711000	0.683200
O501	O50	0.269300	0.787400	0.677500
O511	O51	0.578300	0.879400	0.534600
O521	O52	0.418400	0.893800	0.550600
O531	O53	0.563600	0.972200	0.524430
O541	O54	0.788200	0.259000	0.739600
O551	O55	0.587800	0.792900	0.169000
O561	O56	0.725200	0.835200	0.188890
O571	O57	0.793800	0.950200	0.995700
O581	O58	0.854300	0.957000	0.069100
O591	O59	0.951000	0.049100	0.919340
O601	O60	0.096900	0.057900	0.957160
O611	O61	0.868600	0.167300	0.788900
O621	O62	0.984900	0.223100	0.770300
O631	O63	0.106100	0.812200	0.837900
O641	O64	0.266400	0.791800	0.841000
O651	O65	0.997900	0.946200	0.953000
O661	O66	0.105500	0.964300	0.011170
O671	O67	0.173200	0.289000	0.183200
O681	O68	0.230700	0.212600	0.177500
O691	O69	0.921700	0.120600	0.034600
O701	O70	0.081600	0.106200	0.050600
O711	O71	0.936400	0.027800	0.024430
O721	O72	0.711800	0.741000	0.239600
