data_COCMUE_clean_PM
_symmetry_space_group_name_H-M	'P1'
_cell_length_a	36.705100
_cell_length_b	36.705100
_cell_length_c	36.705100
_cell_angle_alpha	90.000000
_cell_angle_beta	90.000000
_cell_angle_gamma	90.000000
_symmetry_Int_Tables_number 1

loop_
_symmetry_equiv_pos_as_xyz
'x,y,z'

loop_
_atom_site_label
_atom_site_type_symbol
_atom_site_fract_x
_atom_site_fract_y
_atom_site_fract_z
N11	N1	0.557800	0.490700	0.511700
N21	N2	0.579400	0.512500	0.533500
N31	N3	0.578200	0.463600	0.499700
N41	N4	0.613800	0.500000	0.536300
C11	C1	0.611500	0.469800	0.515200
C21	C2	0.646100	0.446200	0.510500
C31	C3	0.679000	0.452500	0.534200
C41	C4	0.647800	0.422600	0.483400
H11	H1	0.679900	0.471300	0.551900
C51	C5	0.707400	0.429100	0.528300
C61	C6	0.676300	0.401800	0.479800
H21	H2	0.628300	0.420800	0.466600
H31	H3	0.728400	0.431300	0.543100
C71	C7	0.706900	0.402200	0.501800
H41	H4	0.676100	0.384800	0.460300
N51	N5	0.057800	0.990700	0.011700
N61	N6	0.079400	0.012500	0.033500
N71	N7	0.078200	0.963600	0.999700
N81	N8	0.113800	0.000000	0.036300
C81	C8	0.111500	0.969800	0.015200
C91	C9	0.146100	0.946200	0.010500
C101	C10	0.179000	0.952500	0.034200
C111	C11	0.147800	0.922600	0.983400
H51	H5	0.179900	0.971300	0.051900
C121	C12	0.207400	0.929100	0.028300
C131	C13	0.176300	0.901800	0.979800
H61	H6	0.128300	0.920800	0.966600
H71	H7	0.228400	0.931300	0.043100
C141	C14	0.206900	0.902200	0.001800
H81	H8	0.176100	0.884800	0.960300
N91	N9	0.942200	0.509300	0.011700
N101	N10	0.920600	0.487500	0.033500
N111	N11	0.921800	0.536400	0.999700
N121	N12	0.886200	0.500000	0.036300
C151	C15	0.888500	0.530200	0.015200
C161	C16	0.853900	0.553800	0.010500
C171	C17	0.821000	0.547500	0.034200
C181	C18	0.852200	0.577400	0.983400
H91	H9	0.820100	0.528700	0.051900
C191	C19	0.792600	0.570900	0.028300
C201	C20	0.823700	0.598200	0.979800
H101	H10	0.871700	0.579200	0.966600
H111	H11	0.771600	0.568700	0.043100
C211	C21	0.793100	0.597800	0.001800
H121	H12	0.823900	0.615200	0.960300
N131	N13	0.442200	0.009300	0.511700
N141	N14	0.420600	0.987500	0.533500
N151	N15	0.421800	0.036400	0.499700
N161	N16	0.386200	0.000000	0.536300
C221	C22	0.388500	0.030200	0.515200
C231	C23	0.353900	0.053800	0.510500
C241	C24	0.321000	0.047500	0.534200
C251	C25	0.352200	0.077400	0.483400
H131	H13	0.320100	0.028700	0.551900
C261	C26	0.292600	0.070900	0.528300
C271	C27	0.323700	0.098200	0.479800
H141	H14	0.371700	0.079200	0.466600
H151	H15	0.271600	0.068700	0.543100
C281	C28	0.293100	0.097800	0.501800
H161	H16	0.323900	0.115200	0.460300
N171	N17	0.442200	0.990700	0.988300
N181	N18	0.420600	0.012500	0.966500
N191	N19	0.421800	0.963600	0.000300
N201	N20	0.386200	0.000000	0.963700
C291	C29	0.388500	0.969800	0.984800
C301	C30	0.353900	0.946200	0.989500
C311	C31	0.321000	0.952500	0.965800
C321	C32	0.352200	0.922600	0.016600
H171	H17	0.320100	0.971300	0.948100
C331	C33	0.292600	0.929100	0.971700
C341	C34	0.323700	0.901800	0.020200
H181	H18	0.371700	0.920800	0.033400
H191	H19	0.271600	0.931300	0.956900
C351	C35	0.293100	0.902200	0.998200
H201	H20	0.323900	0.884800	0.039700
N211	N21	0.942200	0.490700	0.488300
N221	N22	0.920600	0.512500	0.466500
N231	N23	0.921800	0.463600	0.500300
N241	N24	0.886200	0.500000	0.463700
C361	C36	0.888500	0.469800	0.484800
C371	C37	0.853900	0.446200	0.489500
C381	C38	0.821000	0.452500	0.465800
C391	C39	0.852200	0.422600	0.516600
H211	H21	0.820100	0.471300	0.448100
C401	C40	0.792600	0.429100	0.471700
C411	C41	0.823700	0.401800	0.520200
H221	H22	0.871700	0.420800	0.533400
H231	H23	0.771600	0.431300	0.456900
C421	C42	0.793100	0.402200	0.498200
H241	H24	0.823900	0.384800	0.539700
N251	N25	0.057800	0.009300	0.488300
N261	N26	0.079400	0.987500	0.466500
N271	N27	0.078200	0.036400	0.500300
N281	N28	0.113800	0.000000	0.463700
C431	C43	0.111500	0.030200	0.484800
C441	C44	0.146100	0.053800	0.489500
C451	C45	0.179000	0.047500	0.465800
C461	C46	0.147800	0.077400	0.516600
H251	H25	0.179900	0.028700	0.448100
C471	C47	0.207400	0.070900	0.471700
C481	C48	0.176300	0.098200	0.520200
H261	H26	0.128300	0.079200	0.533400
H271	H27	0.228400	0.068700	0.456900
C491	C49	0.206900	0.097800	0.498200
H281	H28	0.176100	0.115200	0.539700
N291	N29	0.557800	0.509300	0.988300
N301	N30	0.579400	0.487500	0.966500
N311	N31	0.578200	0.536400	0.000300
N321	N32	0.613800	0.500000	0.963700
C501	C50	0.611500	0.530200	0.984800
C511	C51	0.646100	0.553800	0.989500
C521	C52	0.679000	0.547500	0.965800
C531	C53	0.647800	0.577400	0.016600
H291	H29	0.679900	0.528700	0.948100
C541	C54	0.707400	0.570900	0.971700
C551	C55	0.676300	0.598200	0.020200
H301	H30	0.628300	0.579200	0.033400
H311	H31	0.728400	0.568700	0.956900
C561	C56	0.706900	0.597800	0.998200
H321	H32	0.676100	0.615200	0.039700
N331	N33	0.511700	0.557800	0.490700
N341	N34	0.533500	0.579400	0.512500
N351	N35	0.499700	0.578200	0.463600
N361	N36	0.536300	0.613800	0.500000
C571	C57	0.515200	0.611500	0.469800
C581	C58	0.510500	0.646100	0.446200
C591	C59	0.534200	0.679000	0.452500
C601	C60	0.483400	0.647800	0.422600
H331	H33	0.551900	0.679900	0.471300
C611	C61	0.528300	0.707400	0.429100
C621	C62	0.479800	0.676300	0.401800
H341	H34	0.466600	0.628300	0.420800
H351	H35	0.543100	0.728400	0.431300
C631	C63	0.501800	0.706900	0.402200
H361	H36	0.460300	0.676100	0.384800
N371	N37	0.011700	0.057800	0.990700
N381	N38	0.033500	0.079400	0.012500
N391	N39	0.999700	0.078200	0.963600
N401	N40	0.036300	0.113800	0.000000
C641	C64	0.015200	0.111500	0.969800
C651	C65	0.010500	0.146100	0.946200
C661	C66	0.034200	0.179000	0.952500
C671	C67	0.983400	0.147800	0.922600
H371	H37	0.051900	0.179900	0.971300
C681	C68	0.028300	0.207400	0.929100
C691	C69	0.979800	0.176300	0.901800
H381	H38	0.966600	0.128300	0.920800
H391	H39	0.043100	0.228400	0.931300
C701	C70	0.001800	0.206900	0.902200
H401	H40	0.960300	0.176100	0.884800
N411	N41	0.011700	0.942200	0.509300
N421	N42	0.033500	0.920600	0.487500
N431	N43	0.999700	0.921800	0.536400
N441	N44	0.036300	0.886200	0.500000
C711	C71	0.015200	0.888500	0.530200
C721	C72	0.010500	0.853900	0.553800
C731	C73	0.034200	0.821000	0.547500
C741	C74	0.983400	0.852200	0.577400
H411	H41	0.051900	0.820100	0.528700
C751	C75	0.028300	0.792600	0.570900
C761	C76	0.979800	0.823700	0.598200
H421	H42	0.966600	0.871700	0.579200
H431	H43	0.043100	0.771600	0.568700
C771	C77	0.001800	0.793100	0.597800
H441	H44	0.960300	0.823900	0.615200
N451	N45	0.511700	0.442200	0.009300
N461	N46	0.533500	0.420600	0.987500
N471	N47	0.499700	0.421800	0.036400
N481	N48	0.536300	0.386200	0.000000
C781	C78	0.515200	0.388500	0.030200
C791	C79	0.510500	0.353900	0.053800
C801	C80	0.534200	0.321000	0.047500
C811	C81	0.483400	0.352200	0.077400
H451	H45	0.551900	0.320100	0.028700
C821	C82	0.528300	0.292600	0.070900
C831	C83	0.479800	0.323700	0.098200
H461	H46	0.466600	0.371700	0.079200
H471	H47	0.543100	0.271600	0.068700
C841	C84	0.501800	0.293100	0.097800
H481	H48	0.460300	0.323900	0.115200
N491	N49	0.988300	0.442200	0.990700
N501	N50	0.966500	0.420600	0.012500
N511	N51	0.000300	0.421800	0.963600
N521	N52	0.963700	0.386200	0.000000
C851	C85	0.984800	0.388500	0.969800
C861	C86	0.989500	0.353900	0.946200
C871	C87	0.965800	0.321000	0.952500
C881	C88	0.016600	0.352200	0.922600
H491	H49	0.948100	0.320100	0.971300
C891	C89	0.971700	0.292600	0.929100
C901	C90	0.020200	0.323700	0.901800
H501	H50	0.033400	0.371700	0.920800
H511	H51	0.956900	0.271600	0.931300
C911	C91	0.998200	0.293100	0.902200
H521	H52	0.039700	0.323900	0.884800
N531	N53	0.488300	0.942200	0.490700
N541	N54	0.466500	0.920600	0.512500
N551	N55	0.500300	0.921800	0.463600
N561	N56	0.463700	0.886200	0.500000
C921	C92	0.484800	0.888500	0.469800
C931	C93	0.489500	0.853900	0.446200
C941	C94	0.465800	0.821000	0.452500
C951	C95	0.516600	0.852200	0.422600
H531	H53	0.448100	0.820100	0.471300
C961	C96	0.471700	0.792600	0.429100
C971	C97	0.520200	0.823700	0.401800
H541	H54	0.533400	0.871700	0.420800
H551	H55	0.456900	0.771600	0.431300
C981	C98	0.498200	0.793100	0.402200
H561	H56	0.539700	0.823900	0.384800
N571	N57	0.488300	0.057800	0.009300
N581	N58	0.466500	0.079400	0.987500
N591	N59	0.500300	0.078200	0.036400
N601	N60	0.463700	0.113800	0.000000
C991	C99	0.484800	0.111500	0.030200
C1001	C100	0.489500	0.146100	0.053800
C1011	C101	0.465800	0.179000	0.047500
C1021	C102	0.516600	0.147800	0.077400
H571	H57	0.448100	0.179900	0.028700
C1031	C103	0.471700	0.207400	0.070900
C1041	C104	0.520200	0.176300	0.098200
H581	H58	0.533400	0.128300	0.079200
H591	H59	0.456900	0.228400	0.068700
C1051	C105	0.498200	0.206900	0.097800
H601	H60	0.539700	0.176100	0.115200
N611	N61	0.988300	0.557800	0.509300
N621	N62	0.966500	0.579400	0.487500
N631	N63	0.000300	0.578200	0.536400
N641	N64	0.963700	0.613800	0.500000
C1061	C106	0.984800	0.611500	0.530200
C1071	C107	0.989500	0.646100	0.553800
C1081	C108	0.965800	0.679000	0.547500
C1091	C109	0.016600	0.647800	0.577400
H611	H61	0.948100	0.679900	0.528700
C1101	C110	0.971700	0.707400	0.570900
C1111	C111	0.020200	0.676300	0.598200
H621	H62	0.033400	0.628300	0.579200
H631	H63	0.956900	0.728400	0.568700
C1121	C112	0.998200	0.706900	0.597800
H641	H64	0.039700	0.676100	0.615200
N651	N65	0.490700	0.511700	0.557800
N661	N66	0.512500	0.533500	0.579400
N671	N67	0.463600	0.499700	0.578200
N681	N68	0.500000	0.536300	0.613800
C1131	C113	0.469800	0.515200	0.611500
C1141	C114	0.446200	0.510500	0.646100
C1151	C115	0.452500	0.534200	0.679000
C1161	C116	0.422600	0.483400	0.647800
H651	H65	0.471300	0.551900	0.679900
C1171	C117	0.429100	0.528300	0.707400
C1181	C118	0.401800	0.479800	0.676300
H661	H66	0.420800	0.466600	0.628300
H671	H67	0.431300	0.543100	0.728400
C1191	C119	0.402200	0.501800	0.706900
H681	H68	0.384800	0.460300	0.676100
N691	N69	0.990700	0.011700	0.057800
N701	N70	0.012500	0.033500	0.079400
N711	N71	0.963600	0.999700	0.078200
N721	N72	0.000000	0.036300	0.113800
C1201	C120	0.969800	0.015200	0.111500
C1211	C121	0.946200	0.010500	0.146100
C1221	C122	0.952500	0.034200	0.179000
C1231	C123	0.922600	0.983400	0.147800
H691	H69	0.971300	0.051900	0.179900
C1241	C124	0.929100	0.028300	0.207400
C1251	C125	0.901800	0.979800	0.176300
H701	H70	0.920800	0.966600	0.128300
H711	H71	0.931300	0.043100	0.228400
C1261	C126	0.902200	0.001800	0.206900
H721	H72	0.884800	0.960300	0.176100
N731	N73	0.509300	0.011700	0.942200
N741	N74	0.487500	0.033500	0.920600
N751	N75	0.536400	0.999700	0.921800
N761	N76	0.500000	0.036300	0.886200
C1271	C127	0.530200	0.015200	0.888500
C1281	C128	0.553800	0.010500	0.853900
C1291	C129	0.547500	0.034200	0.821000
C1301	C130	0.577400	0.983400	0.852200
H731	H73	0.528700	0.051900	0.820100
C1311	C131	0.570900	0.028300	0.792600
C1321	C132	0.598200	0.979800	0.823700
H741	H74	0.579200	0.966600	0.871700
H751	H75	0.568700	0.043100	0.771600
C1331	C133	0.597800	0.001800	0.793100
H761	H76	0.615200	0.960300	0.823900
N771	N77	0.009300	0.511700	0.442200
N781	N78	0.987500	0.533500	0.420600
N791	N79	0.036400	0.499700	0.421800
N801	N80	0.000000	0.536300	0.386200
C1341	C134	0.030200	0.515200	0.388500
C1351	C135	0.053800	0.510500	0.353900
C1361	C136	0.047500	0.534200	0.321000
C1371	C137	0.077400	0.483400	0.352200
H771	H77	0.028700	0.551900	0.320100
C1381	C138	0.070900	0.528300	0.292600
C1391	C139	0.098200	0.479800	0.323700
H781	H78	0.079200	0.466600	0.371700
H791	H79	0.068700	0.543100	0.271600
C1401	C140	0.097800	0.501800	0.293100
H801	H80	0.115200	0.460300	0.323900
N811	N81	0.990700	0.988300	0.442200
N821	N82	0.012500	0.966500	0.420600
N831	N83	0.963600	0.000300	0.421800
N841	N84	0.000000	0.963700	0.386200
C1411	C141	0.969800	0.984800	0.388500
C1421	C142	0.946200	0.989500	0.353900
C1431	C143	0.952500	0.965800	0.321000
C1441	C144	0.922600	0.016600	0.352200
H811	H81	0.971300	0.948100	0.320100
C1451	C145	0.929100	0.971700	0.292600
C1461	C146	0.901800	0.020200	0.323700
H821	H82	0.920800	0.033400	0.371700
H831	H83	0.931300	0.956900	0.271600
C1471	C147	0.902200	0.998200	0.293100
H841	H84	0.884800	0.039700	0.323900
N851	N85	0.490700	0.488300	0.942200
N861	N86	0.512500	0.466500	0.920600
N871	N87	0.463600	0.500300	0.921800
N881	N88	0.500000	0.463700	0.886200
C1481	C148	0.469800	0.484800	0.888500
C1491	C149	0.446200	0.489500	0.853900
C1501	C150	0.452500	0.465800	0.821000
C1511	C151	0.422600	0.516600	0.852200
H851	H85	0.471300	0.448100	0.820100
C1521	C152	0.429100	0.471700	0.792600
C1531	C153	0.401800	0.520200	0.823700
H861	H86	0.420800	0.533400	0.871700
H871	H87	0.431300	0.456900	0.771600
C1541	C154	0.402200	0.498200	0.793100
H881	H88	0.384800	0.539700	0.823900
N891	N89	0.009300	0.488300	0.057800
N901	N90	0.987500	0.466500	0.079400
N911	N91	0.036400	0.500300	0.078200
N921	N92	0.000000	0.463700	0.113800
C1551	C155	0.030200	0.484800	0.111500
C1561	C156	0.053800	0.489500	0.146100
C1571	C157	0.047500	0.465800	0.179000
C1581	C158	0.077400	0.516600	0.147800
H891	H89	0.028700	0.448100	0.179900
C1591	C159	0.070900	0.471700	0.207400
C1601	C160	0.098200	0.520200	0.176300
H901	H90	0.079200	0.533400	0.128300
H911	H91	0.068700	0.456900	0.228400
C1611	C161	0.097800	0.498200	0.206900
H921	H92	0.115200	0.539700	0.176100
N931	N93	0.509300	0.988300	0.557800
N941	N94	0.487500	0.966500	0.579400
N951	N95	0.536400	0.000300	0.578200
N961	N96	0.500000	0.963700	0.613800
C1621	C162	0.530200	0.984800	0.611500
C1631	C163	0.553800	0.989500	0.646100
C1641	C164	0.547500	0.965800	0.679000
C1651	C165	0.577400	0.016600	0.647800
H931	H93	0.528700	0.948100	0.679900
C1661	C166	0.570900	0.971700	0.707400
C1671	C167	0.598200	0.020200	0.676300
H941	H94	0.579200	0.033400	0.628300
H951	H95	0.568700	0.956900	0.728400
C1681	C168	0.597800	0.998200	0.706900
H961	H96	0.615200	0.039700	0.676100
N971	N97	0.240700	0.807800	0.738300
N981	N98	0.262500	0.829400	0.716500
N991	N99	0.213600	0.828200	0.750300
N1001	N100	0.250000	0.863800	0.713700
C1691	C169	0.219800	0.861500	0.734800
C1701	C170	0.196200	0.896100	0.739500
C1711	C171	0.202500	0.929000	0.715800
C1721	C172	0.172600	0.897800	0.766600
H971	H97	0.221300	0.929900	0.698100
C1731	C173	0.179100	0.957400	0.721700
C1741	C174	0.151800	0.926300	0.770200
H981	H98	0.170800	0.878300	0.783400
H991	H99	0.181300	0.978400	0.706900
C1751	C175	0.152200	0.956900	0.748200
H1001	H100	0.134800	0.926100	0.789700
N1011	N101	0.740700	0.307800	0.238300
N1021	N102	0.762500	0.329400	0.216500
N1031	N103	0.713600	0.328200	0.250300
N1041	N104	0.750000	0.363800	0.213700
C1761	C176	0.719800	0.361500	0.234800
C1771	C177	0.696200	0.396100	0.239500
C1781	C178	0.702500	0.429000	0.215800
C1791	C179	0.672600	0.397800	0.266600
H1011	H101	0.721300	0.429900	0.198100
C1801	C180	0.679100	0.457400	0.221700
C1811	C181	0.651800	0.426300	0.270200
H1021	H102	0.670800	0.378300	0.283400
H1031	H103	0.681300	0.478400	0.206900
C1821	C182	0.652200	0.456900	0.248200
H1041	H104	0.634800	0.426100	0.289700
N1051	N105	0.259300	0.192200	0.238300
N1061	N106	0.237500	0.170600	0.216500
N1071	N107	0.286400	0.171800	0.250300
N1081	N108	0.250000	0.136200	0.213700
C1831	C183	0.280200	0.138500	0.234800
C1841	C184	0.303800	0.103900	0.239500
C1851	C185	0.297500	0.071000	0.215800
C1861	C186	0.327400	0.102200	0.266600
H1051	H105	0.278700	0.070100	0.198100
C1871	C187	0.320900	0.042600	0.221700
C1881	C188	0.348200	0.073700	0.270200
H1061	H106	0.329200	0.121700	0.283400
H1071	H107	0.318700	0.021600	0.206900
C1891	C189	0.347800	0.043100	0.248200
H1081	H108	0.365200	0.073900	0.289700
N1091	N109	0.759300	0.692200	0.738300
N1101	N110	0.737500	0.670600	0.716500
N1111	N111	0.786400	0.671800	0.750300
N1121	N112	0.750000	0.636200	0.713700
C1901	C190	0.780200	0.638500	0.734800
C1911	C191	0.803800	0.603900	0.739500
C1921	C192	0.797500	0.571000	0.715800
C1931	C193	0.827400	0.602200	0.766600
H1091	H109	0.778700	0.570100	0.698100
C1941	C194	0.820900	0.542600	0.721700
C1951	C195	0.848200	0.573700	0.770200
H1101	H110	0.829200	0.621700	0.783400
H1111	H111	0.818700	0.521600	0.706900
C1961	C196	0.847800	0.543100	0.748200
H1121	H112	0.865200	0.573900	0.789700
N1131	N113	0.740700	0.692200	0.261700
N1141	N114	0.762500	0.670600	0.283500
N1151	N115	0.713600	0.671800	0.249700
N1161	N116	0.750000	0.636200	0.286300
C1971	C197	0.719800	0.638500	0.265200
C1981	C198	0.696200	0.603900	0.260500
C1991	C199	0.702500	0.571000	0.284200
C2001	C200	0.672600	0.602200	0.233400
H1131	H113	0.721300	0.570100	0.301900
C2011	C201	0.679100	0.542600	0.278300
C2021	C202	0.651800	0.573700	0.229800
H1141	H114	0.670800	0.621700	0.216600
H1151	H115	0.681300	0.521600	0.293100
C2031	C203	0.652200	0.543100	0.251800
H1161	H116	0.634800	0.573900	0.210300
N1171	N117	0.240700	0.192200	0.761700
N1181	N118	0.262500	0.170600	0.783500
N1191	N119	0.213600	0.171800	0.749700
N1201	N120	0.250000	0.136200	0.786300
C2041	C204	0.219800	0.138500	0.765200
C2051	C205	0.196200	0.103900	0.760500
C2061	C206	0.202500	0.071000	0.784200
C2071	C207	0.172600	0.102200	0.733400
H1171	H117	0.221300	0.070100	0.801900
C2081	C208	0.179100	0.042600	0.778300
C2091	C209	0.151800	0.073700	0.729800
H1181	H118	0.170800	0.121700	0.716600
H1191	H119	0.181300	0.021600	0.793100
C2101	C210	0.152200	0.043100	0.751800
H1201	H120	0.134800	0.073900	0.710300
N1211	N121	0.759300	0.307800	0.761700
N1221	N122	0.737500	0.329400	0.783500
N1231	N123	0.786400	0.328200	0.749700
N1241	N124	0.750000	0.363800	0.786300
C2111	C211	0.780200	0.361500	0.765200
C2121	C212	0.803800	0.396100	0.760500
C2131	C213	0.797500	0.429000	0.784200
C2141	C214	0.827400	0.397800	0.733400
H1211	H121	0.778700	0.429900	0.801900
C2151	C215	0.820900	0.457400	0.778300
C2161	C216	0.848200	0.426300	0.729800
H1221	H122	0.829200	0.378300	0.716600
H1231	H123	0.818700	0.478400	0.793100
C2171	C217	0.847800	0.456900	0.751800
H1241	H124	0.865200	0.426100	0.710300
N1251	N125	0.259300	0.807800	0.261700
N1261	N126	0.237500	0.829400	0.283500
N1271	N127	0.286400	0.828200	0.249700
N1281	N128	0.250000	0.863800	0.286300
C2181	C218	0.280200	0.861500	0.265200
C2191	C219	0.303800	0.896100	0.260500
C2201	C220	0.297500	0.929000	0.284200
C2211	C221	0.327400	0.897800	0.233400
H1251	H125	0.278700	0.929900	0.301900
C2221	C222	0.320900	0.957400	0.278300
C2231	C223	0.348200	0.926300	0.229800
H1261	H126	0.329200	0.878300	0.216600
H1271	H127	0.318700	0.978400	0.293100
C2241	C224	0.347800	0.956900	0.251800
H1281	H128	0.365200	0.926100	0.210300
N1291	N129	0.307800	0.761700	0.759300
N1301	N130	0.329400	0.783500	0.737500
N1311	N131	0.328200	0.749700	0.786400
N1321	N132	0.363800	0.786300	0.750000
C2251	C225	0.361500	0.765200	0.780200
C2261	C226	0.396100	0.760500	0.803800
C2271	C227	0.429000	0.784200	0.797500
C2281	C228	0.397800	0.733400	0.827400
H1291	H129	0.429900	0.801900	0.778700
C2291	C229	0.457400	0.778300	0.820900
C2301	C230	0.426300	0.729800	0.848200
H1301	H130	0.378300	0.716600	0.829200
H1311	H131	0.478400	0.793100	0.818700
C2311	C231	0.456900	0.751800	0.847800
H1321	H132	0.426100	0.710300	0.865200
N1331	N133	0.807800	0.261700	0.259300
N1341	N134	0.829400	0.283500	0.237500
N1351	N135	0.828200	0.249700	0.286400
N1361	N136	0.863800	0.286300	0.250000
C2321	C232	0.861500	0.265200	0.280200
C2331	C233	0.896100	0.260500	0.303800
C2341	C234	0.929000	0.284200	0.297500
C2351	C235	0.897800	0.233400	0.327400
H1331	H133	0.929900	0.301900	0.278700
C2361	C236	0.957400	0.278300	0.320900
C2371	C237	0.926300	0.229800	0.348200
H1341	H134	0.878300	0.216600	0.329200
H1351	H135	0.978400	0.293100	0.318700
C2381	C238	0.956900	0.251800	0.347800
H1361	H136	0.926100	0.210300	0.365200
N1371	N137	0.692200	0.261700	0.740700
N1381	N138	0.670600	0.283500	0.762500
N1391	N139	0.671800	0.249700	0.713600
N1401	N140	0.636200	0.286300	0.750000
C2391	C239	0.638500	0.265200	0.719800
C2401	C240	0.603900	0.260500	0.696200
C2411	C241	0.571000	0.284200	0.702500
C2421	C242	0.602200	0.233400	0.672600
H1371	H137	0.570100	0.301900	0.721300
C2431	C243	0.542600	0.278300	0.679100
C2441	C244	0.573700	0.229800	0.651800
H1381	H138	0.621700	0.216600	0.670800
H1391	H139	0.521600	0.293100	0.681300
C2451	C245	0.543100	0.251800	0.652200
H1401	H140	0.573900	0.210300	0.634800
N1411	N141	0.192200	0.761700	0.240700
N1421	N142	0.170600	0.783500	0.262500
N1431	N143	0.171800	0.749700	0.213600
N1441	N144	0.136200	0.786300	0.250000
C2461	C246	0.138500	0.765200	0.219800
C2471	C247	0.103900	0.760500	0.196200
C2481	C248	0.071000	0.784200	0.202500
C2491	C249	0.102200	0.733400	0.172600
H1411	H141	0.070100	0.801900	0.221300
C2501	C250	0.042600	0.778300	0.179100
C2511	C251	0.073700	0.729800	0.151800
H1421	H142	0.121700	0.716600	0.170800
H1431	H143	0.021600	0.793100	0.181300
C2521	C252	0.043100	0.751800	0.152200
H1441	H144	0.073900	0.710300	0.134800
N1451	N145	0.192200	0.238300	0.259300
N1461	N146	0.170600	0.216500	0.237500
N1471	N147	0.171800	0.250300	0.286400
N1481	N148	0.136200	0.213700	0.250000
C2531	C253	0.138500	0.234800	0.280200
C2541	C254	0.103900	0.239500	0.303800
C2551	C255	0.071000	0.215800	0.297500
C2561	C256	0.102200	0.266600	0.327400
H1451	H145	0.070100	0.198100	0.278700
C2571	C257	0.042600	0.221700	0.320900
C2581	C258	0.073700	0.270200	0.348200
H1461	H146	0.121700	0.283400	0.329200
H1471	H147	0.021600	0.206900	0.318700
C2591	C259	0.043100	0.248200	0.347800
H1481	H148	0.073900	0.289700	0.365200
N1491	N149	0.692200	0.738300	0.759300
N1501	N150	0.670600	0.716500	0.737500
N1511	N151	0.671800	0.750300	0.786400
N1521	N152	0.636200	0.713700	0.750000
C2601	C260	0.638500	0.734800	0.780200
C2611	C261	0.603900	0.739500	0.803800
C2621	C262	0.571000	0.715800	0.797500
C2631	C263	0.602200	0.766600	0.827400
H1491	H149	0.570100	0.698100	0.778700
C2641	C264	0.542600	0.721700	0.820900
C2651	C265	0.573700	0.770200	0.848200
H1501	H150	0.621700	0.783400	0.829200
H1511	H151	0.521600	0.706900	0.818700
C2661	C266	0.543100	0.748200	0.847800
H1521	H152	0.573900	0.789700	0.865200
N1531	N153	0.807800	0.738300	0.240700
N1541	N154	0.829400	0.716500	0.262500
N1551	N155	0.828200	0.750300	0.213600
N1561	N156	0.863800	0.713700	0.250000
C2671	C267	0.861500	0.734800	0.219800
C2681	C268	0.896100	0.739500	0.196200
C2691	C269	0.929000	0.715800	0.202500
C2701	C270	0.897800	0.766600	0.172600
H1531	H153	0.929900	0.698100	0.221300
C2711	C271	0.957400	0.721700	0.179100
C2721	C272	0.926300	0.770200	0.151800
H1541	H154	0.878300	0.783400	0.170800
H1551	H155	0.978400	0.706900	0.181300
C2731	C273	0.956900	0.748200	0.152200
H1561	H156	0.926100	0.789700	0.134800
N1571	N157	0.307800	0.238300	0.740700
N1581	N158	0.329400	0.216500	0.762500
N1591	N159	0.328200	0.250300	0.713600
N1601	N160	0.363800	0.213700	0.750000
C2741	C274	0.361500	0.234800	0.719800
C2751	C275	0.396100	0.239500	0.696200
C2761	C276	0.429000	0.215800	0.702500
C2771	C277	0.397800	0.266600	0.672600
H1571	H157	0.429900	0.198100	0.721300
C2781	C278	0.457400	0.221700	0.679100
C2791	C279	0.426300	0.270200	0.651800
H1581	H158	0.378300	0.283400	0.670800
H1591	H159	0.478400	0.206900	0.681300
C2801	C280	0.456900	0.248200	0.652200
H1601	H160	0.426100	0.289700	0.634800
N1611	N161	0.261700	0.740700	0.692200
N1621	N162	0.283500	0.762500	0.670600
N1631	N163	0.249700	0.713600	0.671800
N1641	N164	0.286300	0.750000	0.636200
C2811	C281	0.265200	0.719800	0.638500
C2821	C282	0.260500	0.696200	0.603900
C2831	C283	0.284200	0.702500	0.571000
C2841	C284	0.233400	0.672600	0.602200
H1611	H161	0.301900	0.721300	0.570100
C2851	C285	0.278300	0.679100	0.542600
C2861	C286	0.229800	0.651800	0.573700
H1621	H162	0.216600	0.670800	0.621700
H1631	H163	0.293100	0.681300	0.521600
C2871	C287	0.251800	0.652200	0.543100
H1641	H164	0.210300	0.634800	0.573900
N1651	N165	0.761700	0.240700	0.192200
N1661	N166	0.783500	0.262500	0.170600
N1671	N167	0.749700	0.213600	0.171800
N1681	N168	0.786300	0.250000	0.136200
C2881	C288	0.765200	0.219800	0.138500
C2891	C289	0.760500	0.196200	0.103900
C2901	C290	0.784200	0.202500	0.071000
C2911	C291	0.733400	0.172600	0.102200
H1651	H165	0.801900	0.221300	0.070100
C2921	C292	0.778300	0.179100	0.042600
C2931	C293	0.729800	0.151800	0.073700
H1661	H166	0.716600	0.170800	0.121700
H1671	H167	0.793100	0.181300	0.021600
C2941	C294	0.751800	0.152200	0.043100
H1681	H168	0.710300	0.134800	0.073900
N1691	N169	0.761700	0.759300	0.307800
N1701	N170	0.783500	0.737500	0.329400
N1711	N171	0.749700	0.786400	0.328200
N1721	N172	0.786300	0.750000	0.363800
C2951	C295	0.765200	0.780200	0.361500
C2961	C296	0.760500	0.803800	0.396100
C2971	C297	0.784200	0.797500	0.429000
C2981	C298	0.733400	0.827400	0.397800
H1691	H169	0.801900	0.778700	0.429900
C2991	C299	0.778300	0.820900	0.457400
C3001	C300	0.729800	0.848200	0.426300
H1701	H170	0.716600	0.829200	0.378300
H1711	H171	0.793100	0.818700	0.478400
C3011	C301	0.751800	0.847800	0.456900
H1721	H172	0.710300	0.865200	0.426100
N1731	N173	0.261700	0.259300	0.807800
N1741	N174	0.283500	0.237500	0.829400
N1751	N175	0.249700	0.286400	0.828200
N1761	N176	0.286300	0.250000	0.863800
C3021	C302	0.265200	0.280200	0.861500
C3031	C303	0.260500	0.303800	0.896100
C3041	C304	0.284200	0.297500	0.929000
C3051	C305	0.233400	0.327400	0.897800
H1731	H173	0.301900	0.278700	0.929900
C3061	C306	0.278300	0.320900	0.957400
C3071	C307	0.229800	0.348200	0.926300
H1741	H174	0.216600	0.329200	0.878300
H1751	H175	0.293100	0.318700	0.978400
C3081	C308	0.251800	0.347800	0.956900
H1761	H176	0.210300	0.365200	0.926100
N1771	N177	0.738300	0.240700	0.807800
N1781	N178	0.716500	0.262500	0.829400
N1791	N179	0.750300	0.213600	0.828200
N1801	N180	0.713700	0.250000	0.863800
C3091	C309	0.734800	0.219800	0.861500
C3101	C310	0.739500	0.196200	0.896100
C3111	C311	0.715800	0.202500	0.929000
C3121	C312	0.766600	0.172600	0.897800
H1771	H177	0.698100	0.221300	0.929900
C3131	C313	0.721700	0.179100	0.957400
C3141	C314	0.770200	0.151800	0.926300
H1781	H178	0.783400	0.170800	0.878300
H1791	H179	0.706900	0.181300	0.978400
C3151	C315	0.748200	0.152200	0.956900
H1801	H180	0.789700	0.134800	0.926100
N1811	N181	0.238300	0.740700	0.307800
N1821	N182	0.216500	0.762500	0.329400
N1831	N183	0.250300	0.713600	0.328200
N1841	N184	0.213700	0.750000	0.363800
C3161	C316	0.234800	0.719800	0.361500
C3171	C317	0.239500	0.696200	0.396100
C3181	C318	0.215800	0.702500	0.429000
C3191	C319	0.266600	0.672600	0.397800
H1811	H181	0.198100	0.721300	0.429900
C3201	C320	0.221700	0.679100	0.457400
C3211	C321	0.270200	0.651800	0.426300
H1821	H182	0.283400	0.670800	0.378300
H1831	H183	0.206900	0.681300	0.478400
C3221	C322	0.248200	0.652200	0.456900
H1841	H184	0.289700	0.634800	0.426100
N1851	N185	0.238300	0.259300	0.192200
N1861	N186	0.216500	0.237500	0.170600
N1871	N187	0.250300	0.286400	0.171800
N1881	N188	0.213700	0.250000	0.136200
C3231	C323	0.234800	0.280200	0.138500
C3241	C324	0.239500	0.303800	0.103900
C3251	C325	0.215800	0.297500	0.071000
C3261	C326	0.266600	0.327400	0.102200
H1851	H185	0.198100	0.278700	0.070100
C3271	C327	0.221700	0.320900	0.042600
C3281	C328	0.270200	0.348200	0.073700
H1861	H186	0.283400	0.329200	0.121700
H1871	H187	0.206900	0.318700	0.021600
C3291	C329	0.248200	0.347800	0.043100
H1881	H188	0.289700	0.365200	0.073900
N1891	N189	0.738300	0.759300	0.692200
N1901	N190	0.716500	0.737500	0.670600
N1911	N191	0.750300	0.786400	0.671800
N1921	N192	0.713700	0.750000	0.636200
C3301	C330	0.734800	0.780200	0.638500
C3311	C331	0.739500	0.803800	0.603900
C3321	C332	0.715800	0.797500	0.571000
C3331	C333	0.766600	0.827400	0.602200
H1891	H189	0.698100	0.778700	0.570100
C3341	C334	0.721700	0.820900	0.542600
C3351	C335	0.770200	0.848200	0.573700
H1901	H190	0.783400	0.829200	0.621700
H1911	H191	0.706900	0.818700	0.521600
C3361	C336	0.748200	0.847800	0.543100
H1921	H192	0.789700	0.865200	0.573900
N1931	N193	0.442200	0.509300	0.488300
N1941	N194	0.420600	0.487500	0.466500
N1951	N195	0.421800	0.536400	0.500300
N1961	N196	0.386200	0.500000	0.463700
C3371	C337	0.388500	0.530200	0.484800
C3381	C338	0.353900	0.553800	0.489500
C3391	C339	0.321000	0.547500	0.465800
C3401	C340	0.352200	0.577400	0.516600
H1931	H193	0.320100	0.528700	0.448100
C3411	C341	0.292600	0.570900	0.471700
C3421	C342	0.323700	0.598200	0.520200
H1941	H194	0.371700	0.579200	0.533400
H1951	H195	0.271600	0.568700	0.456900
C3431	C343	0.293100	0.597800	0.498200
H1961	H196	0.323900	0.615200	0.539700
N1971	N197	0.942200	0.009300	0.988300
N1981	N198	0.920600	0.987500	0.966500
N1991	N199	0.921800	0.036400	0.000300
N2001	N200	0.886200	0.000000	0.963700
C3441	C344	0.888500	0.030200	0.984800
C3451	C345	0.853900	0.053800	0.989500
C3461	C346	0.821000	0.047500	0.965800
C3471	C347	0.852200	0.077400	0.016600
H1971	H197	0.820100	0.028700	0.948100
C3481	C348	0.792600	0.070900	0.971700
C3491	C349	0.823700	0.098200	0.020200
H1981	H198	0.871700	0.079200	0.033400
H1991	H199	0.771600	0.068700	0.956900
C3501	C350	0.793100	0.097800	0.998200
H2001	H200	0.823900	0.115200	0.039700
N2011	N201	0.057800	0.490700	0.988300
N2021	N202	0.079400	0.512500	0.966500
N2031	N203	0.078200	0.463600	0.000300
N2041	N204	0.113800	0.500000	0.963700
C3511	C351	0.111500	0.469800	0.984800
C3521	C352	0.146100	0.446200	0.989500
C3531	C353	0.179000	0.452500	0.965800
C3541	C354	0.147800	0.422600	0.016600
H2011	H201	0.179900	0.471300	0.948100
C3551	C355	0.207400	0.429100	0.971700
C3561	C356	0.176300	0.401800	0.020200
H2021	H202	0.128300	0.420800	0.033400
H2031	H203	0.228400	0.431300	0.956900
C3571	C357	0.206900	0.402200	0.998200
H2041	H204	0.176100	0.384800	0.039700
N2051	N205	0.557800	0.990700	0.488300
N2061	N206	0.579400	0.012500	0.466500
N2071	N207	0.578200	0.963600	0.500300
N2081	N208	0.613800	0.000000	0.463700
C3581	C358	0.611500	0.969800	0.484800
C3591	C359	0.646100	0.946200	0.489500
C3601	C360	0.679000	0.952500	0.465800
C3611	C361	0.647800	0.922600	0.516600
H2051	H205	0.679900	0.971300	0.448100
C3621	C362	0.707400	0.929100	0.471700
C3631	C363	0.676300	0.901800	0.520200
H2061	H206	0.628300	0.920800	0.533400
H2071	H207	0.728400	0.931300	0.456900
C3641	C364	0.706900	0.902200	0.498200
H2081	H208	0.676100	0.884800	0.539700
N2091	N209	0.557800	0.009300	0.011700
N2101	N210	0.579400	0.987500	0.033500
N2111	N211	0.578200	0.036400	0.999700
N2121	N212	0.613800	0.000000	0.036300
C3651	C365	0.611500	0.030200	0.015200
C3661	C366	0.646100	0.053800	0.010500
C3671	C367	0.679000	0.047500	0.034200
C3681	C368	0.647800	0.077400	0.983400
H2091	H209	0.679900	0.028700	0.051900
C3691	C369	0.707400	0.070900	0.028300
C3701	C370	0.676300	0.098200	0.979800
H2101	H210	0.628300	0.079200	0.966600
H2111	H211	0.728400	0.068700	0.043100
C3711	C371	0.706900	0.097800	0.001800
H2121	H212	0.676100	0.115200	0.960300
N2131	N213	0.057800	0.509300	0.511700
N2141	N214	0.079400	0.487500	0.533500
N2151	N215	0.078200	0.536400	0.499700
N2161	N216	0.113800	0.500000	0.536300
C3721	C372	0.111500	0.530200	0.515200
C3731	C373	0.146100	0.553800	0.510500
C3741	C374	0.179000	0.547500	0.534200
C3751	C375	0.147800	0.577400	0.483400
H2131	H213	0.179900	0.528700	0.551900
C3761	C376	0.207400	0.570900	0.528300
C3771	C377	0.176300	0.598200	0.479800
H2141	H214	0.128300	0.579200	0.466600
H2151	H215	0.228400	0.568700	0.543100
C3781	C378	0.206900	0.597800	0.501800
H2161	H216	0.176100	0.615200	0.460300
N2171	N217	0.942200	0.990700	0.511700
N2181	N218	0.920600	0.012500	0.533500
N2191	N219	0.921800	0.963600	0.499700
N2201	N220	0.886200	0.000000	0.536300
C3791	C379	0.888500	0.969800	0.515200
C3801	C380	0.853900	0.946200	0.510500
C3811	C381	0.821000	0.952500	0.534200
C3821	C382	0.852200	0.922600	0.483400
H2171	H217	0.820100	0.971300	0.551900
C3831	C383	0.792600	0.929100	0.528300
C3841	C384	0.823700	0.901800	0.479800
H2181	H218	0.871700	0.920800	0.466600
H2191	H219	0.771600	0.931300	0.543100
C3851	C385	0.793100	0.902200	0.501800
H2201	H220	0.823900	0.884800	0.460300
N2211	N221	0.442200	0.490700	0.011700
N2221	N222	0.420600	0.512500	0.033500
N2231	N223	0.421800	0.463600	0.999700
N2241	N224	0.386200	0.500000	0.036300
C3861	C386	0.388500	0.469800	0.015200
C3871	C387	0.353900	0.446200	0.010500
C3881	C388	0.321000	0.452500	0.034200
C3891	C389	0.352200	0.422600	0.983400
H2211	H221	0.320100	0.471300	0.051900
C3901	C390	0.292600	0.429100	0.028300
C3911	C391	0.323700	0.401800	0.979800
H2221	H222	0.371700	0.420800	0.966600
H2231	H223	0.271600	0.431300	0.043100
C3921	C392	0.293100	0.402200	0.001800
H2241	H224	0.323900	0.384800	0.960300
N2251	N225	0.488300	0.442200	0.509300
N2261	N226	0.466500	0.420600	0.487500
N2271	N227	0.500300	0.421800	0.536400
N2281	N228	0.463700	0.386200	0.500000
C3931	C393	0.484800	0.388500	0.530200
C3941	C394	0.489500	0.353900	0.553800
C3951	C395	0.465800	0.321000	0.547500
C3961	C396	0.516600	0.352200	0.577400
H2251	H225	0.448100	0.320100	0.528700
C3971	C397	0.471700	0.292600	0.570900
C3981	C398	0.520200	0.323700	0.598200
H2261	H226	0.533400	0.371700	0.579200
H2271	H227	0.456900	0.271600	0.568700
C3991	C399	0.498200	0.293100	0.597800
H2281	H228	0.539700	0.323900	0.615200
N2291	N229	0.988300	0.942200	0.009300
N2301	N230	0.966500	0.920600	0.987500
N2311	N231	0.000300	0.921800	0.036400
N2321	N232	0.963700	0.886200	0.000000
C4001	C400	0.984800	0.888500	0.030200
C4011	C401	0.989500	0.853900	0.053800
C4021	C402	0.965800	0.821000	0.047500
C4031	C403	0.016600	0.852200	0.077400
H2291	H229	0.948100	0.820100	0.028700
C4041	C404	0.971700	0.792600	0.070900
C4051	C405	0.020200	0.823700	0.098200
H2301	H230	0.033400	0.871700	0.079200
H2311	H231	0.956900	0.771600	0.068700
C4061	C406	0.998200	0.793100	0.097800
H2321	H232	0.039700	0.823900	0.115200
N2331	N233	0.988300	0.057800	0.490700
N2341	N234	0.966500	0.079400	0.512500
N2351	N235	0.000300	0.078200	0.463600
N2361	N236	0.963700	0.113800	0.500000
C4071	C407	0.984800	0.111500	0.469800
C4081	C408	0.989500	0.146100	0.446200
C4091	C409	0.965800	0.179000	0.452500
C4101	C410	0.016600	0.147800	0.422600
H2331	H233	0.948100	0.179900	0.471300
C4111	C411	0.971700	0.207400	0.429100
C4121	C412	0.020200	0.176300	0.401800
H2341	H234	0.033400	0.128300	0.420800
H2351	H235	0.956900	0.228400	0.431300
C4131	C413	0.998200	0.206900	0.402200
H2361	H236	0.039700	0.176100	0.384800
N2371	N237	0.488300	0.557800	0.990700
N2381	N238	0.466500	0.579400	0.012500
N2391	N239	0.500300	0.578200	0.963600
N2401	N240	0.463700	0.613800	0.000000
C4141	C414	0.484800	0.611500	0.969800
C4151	C415	0.489500	0.646100	0.946200
C4161	C416	0.465800	0.679000	0.952500
C4171	C417	0.516600	0.647800	0.922600
H2371	H237	0.448100	0.679900	0.971300
C4181	C418	0.471700	0.707400	0.929100
C4191	C419	0.520200	0.676300	0.901800
H2381	H238	0.533400	0.628300	0.920800
H2391	H239	0.456900	0.728400	0.931300
C4201	C420	0.498200	0.706900	0.902200
H2401	H240	0.539700	0.676100	0.884800
N2411	N241	0.011700	0.557800	0.009300
N2421	N242	0.033500	0.579400	0.987500
N2431	N243	0.999700	0.578200	0.036400
N2441	N244	0.036300	0.613800	0.000000
C4211	C421	0.015200	0.611500	0.030200
C4221	C422	0.010500	0.646100	0.053800
C4231	C423	0.034200	0.679000	0.047500
C4241	C424	0.983400	0.647800	0.077400
H2411	H241	0.051900	0.679900	0.028700
C4251	C425	0.028300	0.707400	0.070900
C4261	C426	0.979800	0.676300	0.098200
H2421	H242	0.966600	0.628300	0.079200
H2431	H243	0.043100	0.728400	0.068700
C4271	C427	0.001800	0.706900	0.097800
H2441	H244	0.960300	0.676100	0.115200
N2451	N245	0.511700	0.057800	0.509300
N2461	N246	0.533500	0.079400	0.487500
N2471	N247	0.499700	0.078200	0.536400
N2481	N248	0.536300	0.113800	0.500000
C4281	C428	0.515200	0.111500	0.530200
C4291	C429	0.510500	0.146100	0.553800
C4301	C430	0.534200	0.179000	0.547500
C4311	C431	0.483400	0.147800	0.577400
H2451	H245	0.551900	0.179900	0.528700
C4321	C432	0.528300	0.207400	0.570900
C4331	C433	0.479800	0.176300	0.598200
H2461	H246	0.466600	0.128300	0.579200
H2471	H247	0.543100	0.228400	0.568700
C4341	C434	0.501800	0.206900	0.597800
H2481	H248	0.460300	0.176100	0.615200
N2491	N249	0.511700	0.942200	0.990700
N2501	N250	0.533500	0.920600	0.012500
N2511	N251	0.499700	0.921800	0.963600
N2521	N252	0.536300	0.886200	0.000000
C4351	C435	0.515200	0.888500	0.969800
C4361	C436	0.510500	0.853900	0.946200
C4371	C437	0.534200	0.821000	0.952500
C4381	C438	0.483400	0.852200	0.922600
H2491	H249	0.551900	0.820100	0.971300
C4391	C439	0.528300	0.792600	0.929100
C4401	C440	0.479800	0.823700	0.901800
H2501	H250	0.466600	0.871700	0.920800
H2511	H251	0.543100	0.771600	0.931300
C4411	C441	0.501800	0.793100	0.902200
H2521	H252	0.460300	0.823900	0.884800
N2531	N253	0.011700	0.442200	0.490700
N2541	N254	0.033500	0.420600	0.512500
N2551	N255	0.999700	0.421800	0.463600
N2561	N256	0.036300	0.386200	0.500000
C4421	C442	0.015200	0.388500	0.469800
C4431	C443	0.010500	0.353900	0.446200
C4441	C444	0.034200	0.321000	0.452500
C4451	C445	0.983400	0.352200	0.422600
H2531	H253	0.051900	0.320100	0.471300
C4461	C446	0.028300	0.292600	0.429100
C4471	C447	0.979800	0.323700	0.401800
H2541	H254	0.966600	0.371700	0.420800
H2551	H255	0.043100	0.271600	0.431300
C4481	C448	0.001800	0.293100	0.402200
H2561	H256	0.960300	0.323900	0.384800
N2571	N257	0.509300	0.488300	0.442200
N2581	N258	0.487500	0.466500	0.420600
N2591	N259	0.536400	0.500300	0.421800
N2601	N260	0.500000	0.463700	0.386200
C4491	C449	0.530200	0.484800	0.388500
C4501	C450	0.553800	0.489500	0.353900
C4511	C451	0.547500	0.465800	0.321000
C4521	C452	0.577400	0.516600	0.352200
H2571	H257	0.528700	0.448100	0.320100
C4531	C453	0.570900	0.471700	0.292600
C4541	C454	0.598200	0.520200	0.323700
H2581	H258	0.579200	0.533400	0.371700
H2591	H259	0.568700	0.456900	0.271600
C4551	C455	0.597800	0.498200	0.293100
H2601	H260	0.615200	0.539700	0.323900
N2611	N261	0.009300	0.988300	0.942200
N2621	N262	0.987500	0.966500	0.920600
N2631	N263	0.036400	0.000300	0.921800
N2641	N264	0.000000	0.963700	0.886200
C4561	C456	0.030200	0.984800	0.888500
C4571	C457	0.053800	0.989500	0.853900
C4581	C458	0.047500	0.965800	0.821000
C4591	C459	0.077400	0.016600	0.852200
H2611	H261	0.028700	0.948100	0.820100
C4601	C460	0.070900	0.971700	0.792600
C4611	C461	0.098200	0.020200	0.823700
H2621	H262	0.079200	0.033400	0.871700
H2631	H263	0.068700	0.956900	0.771600
C4621	C462	0.097800	0.998200	0.793100
H2641	H264	0.115200	0.039700	0.823900
N2651	N265	0.490700	0.988300	0.057800
N2661	N266	0.512500	0.966500	0.079400
N2671	N267	0.463600	0.000300	0.078200
N2681	N268	0.500000	0.963700	0.113800
C4631	C463	0.469800	0.984800	0.111500
C4641	C464	0.446200	0.989500	0.146100
C4651	C465	0.452500	0.965800	0.179000
C4661	C466	0.422600	0.016600	0.147800
H2651	H265	0.471300	0.948100	0.179900
C4671	C467	0.429100	0.971700	0.207400
C4681	C468	0.401800	0.020200	0.176300
H2661	H266	0.420800	0.033400	0.128300
H2671	H267	0.431300	0.956900	0.228400
C4691	C469	0.402200	0.998200	0.206900
H2681	H268	0.384800	0.039700	0.176100
N2691	N269	0.990700	0.488300	0.557800
N2701	N270	0.012500	0.466500	0.579400
N2711	N271	0.963600	0.500300	0.578200
N2721	N272	0.000000	0.463700	0.613800
C4701	C470	0.969800	0.484800	0.611500
C4711	C471	0.946200	0.489500	0.646100
C4721	C472	0.952500	0.465800	0.679000
C4731	C473	0.922600	0.516600	0.647800
H2691	H269	0.971300	0.448100	0.679900
C4741	C474	0.929100	0.471700	0.707400
C4751	C475	0.901800	0.520200	0.676300
H2701	H270	0.920800	0.533400	0.628300
H2711	H271	0.931300	0.456900	0.728400
C4761	C476	0.902200	0.498200	0.706900
H2721	H272	0.884800	0.539700	0.676100
N2731	N273	0.009300	0.011700	0.557800
N2741	N274	0.987500	0.033500	0.579400
N2751	N275	0.036400	0.999700	0.578200
N2761	N276	0.000000	0.036300	0.613800
C4771	C477	0.030200	0.015200	0.611500
C4781	C478	0.053800	0.010500	0.646100
C4791	C479	0.047500	0.034200	0.679000
C4801	C480	0.077400	0.983400	0.647800
H2731	H273	0.028700	0.051900	0.679900
C4811	C481	0.070900	0.028300	0.707400
C4821	C482	0.098200	0.979800	0.676300
H2741	H274	0.079200	0.966600	0.628300
H2751	H275	0.068700	0.043100	0.728400
C4831	C483	0.097800	0.001800	0.706900
H2761	H276	0.115200	0.960300	0.676100
N2771	N277	0.509300	0.511700	0.057800
N2781	N278	0.487500	0.533500	0.079400
N2791	N279	0.536400	0.499700	0.078200
N2801	N280	0.500000	0.536300	0.113800
C4841	C484	0.530200	0.515200	0.111500
C4851	C485	0.553800	0.510500	0.146100
C4861	C486	0.547500	0.534200	0.179000
C4871	C487	0.577400	0.483400	0.147800
H2771	H277	0.528700	0.551900	0.179900
C4881	C488	0.570900	0.528300	0.207400
C4891	C489	0.598200	0.479800	0.176300
H2781	H278	0.579200	0.466600	0.128300
H2791	H279	0.568700	0.543100	0.228400
C4901	C490	0.597800	0.501800	0.206900
H2801	H280	0.615200	0.460300	0.176100
N2811	N281	0.990700	0.511700	0.942200
N2821	N282	0.012500	0.533500	0.920600
N2831	N283	0.963600	0.499700	0.921800
N2841	N284	0.000000	0.536300	0.886200
C4911	C491	0.969800	0.515200	0.888500
C4921	C492	0.946200	0.510500	0.853900
C4931	C493	0.952500	0.534200	0.821000
C4941	C494	0.922600	0.483400	0.852200
H2811	H281	0.971300	0.551900	0.820100
C4951	C495	0.929100	0.528300	0.792600
C4961	C496	0.901800	0.479800	0.823700
H2821	H282	0.920800	0.466600	0.871700
H2831	H283	0.931300	0.543100	0.771600
C4971	C497	0.902200	0.501800	0.793100
H2841	H284	0.884800	0.460300	0.823900
N2851	N285	0.490700	0.011700	0.442200
N2861	N286	0.512500	0.033500	0.420600
N2871	N287	0.463600	0.999700	0.421800
N2881	N288	0.500000	0.036300	0.386200
C4981	C498	0.469800	0.015200	0.388500
C4991	C499	0.446200	0.010500	0.353900
C5001	C500	0.452500	0.034200	0.321000
C5011	C501	0.422600	0.983400	0.352200
H2851	H285	0.471300	0.051900	0.320100
C5021	C502	0.429100	0.028300	0.292600
C5031	C503	0.401800	0.979800	0.323700
H2861	H286	0.420800	0.966600	0.371700
H2871	H287	0.431300	0.043100	0.271600
C5041	C504	0.402200	0.001800	0.293100
H2881	H288	0.384800	0.960300	0.323900
N2891	N289	0.759300	0.192200	0.261700
N2901	N290	0.737500	0.170600	0.283500
N2911	N291	0.786400	0.171800	0.249700
N2921	N292	0.750000	0.136200	0.286300
C5051	C505	0.780200	0.138500	0.265200
C5061	C506	0.803800	0.103900	0.260500
C5071	C507	0.797500	0.071000	0.284200
C5081	C508	0.827400	0.102200	0.233400
H2891	H289	0.778700	0.070100	0.301900
C5091	C509	0.820900	0.042600	0.278300
C5101	C510	0.848200	0.073700	0.229800
H2901	H290	0.829200	0.121700	0.216600
H2911	H291	0.818700	0.021600	0.293100
C5111	C511	0.847800	0.043100	0.251800
H2921	H292	0.865200	0.073900	0.210300
N2931	N293	0.259300	0.692200	0.761700
N2941	N294	0.237500	0.670600	0.783500
N2951	N295	0.286400	0.671800	0.749700
N2961	N296	0.250000	0.636200	0.786300
C5121	C512	0.280200	0.638500	0.765200
C5131	C513	0.303800	0.603900	0.760500
C5141	C514	0.297500	0.571000	0.784200
C5151	C515	0.327400	0.602200	0.733400
H2931	H293	0.278700	0.570100	0.801900
C5161	C516	0.320900	0.542600	0.778300
C5171	C517	0.348200	0.573700	0.729800
H2941	H294	0.329200	0.621700	0.716600
H2951	H295	0.318700	0.521600	0.793100
C5181	C518	0.347800	0.543100	0.751800
H2961	H296	0.365200	0.573900	0.710300
N2971	N297	0.740700	0.807800	0.761700
N2981	N298	0.762500	0.829400	0.783500
N2991	N299	0.713600	0.828200	0.749700
N3001	N300	0.750000	0.863800	0.786300
C5191	C519	0.719800	0.861500	0.765200
C5201	C520	0.696200	0.896100	0.760500
C5211	C521	0.702500	0.929000	0.784200
C5221	C522	0.672600	0.897800	0.733400
H2971	H297	0.721300	0.929900	0.801900
C5231	C523	0.679100	0.957400	0.778300
C5241	C524	0.651800	0.926300	0.729800
H2981	H298	0.670800	0.878300	0.716600
H2991	H299	0.681300	0.978400	0.793100
C5251	C525	0.652200	0.956900	0.751800
H3001	H300	0.634800	0.926100	0.710300
N3011	N301	0.240700	0.307800	0.261700
N3021	N302	0.262500	0.329400	0.283500
N3031	N303	0.213600	0.328200	0.249700
N3041	N304	0.250000	0.363800	0.286300
C5261	C526	0.219800	0.361500	0.265200
C5271	C527	0.196200	0.396100	0.260500
C5281	C528	0.202500	0.429000	0.284200
C5291	C529	0.172600	0.397800	0.233400
H3011	H301	0.221300	0.429900	0.301900
C5301	C530	0.179100	0.457400	0.278300
C5311	C531	0.151800	0.426300	0.229800
H3021	H302	0.170800	0.378300	0.216600
H3031	H303	0.181300	0.478400	0.293100
C5321	C532	0.152200	0.456900	0.251800
H3041	H304	0.134800	0.426100	0.210300
N3051	N305	0.259300	0.307800	0.738300
N3061	N306	0.237500	0.329400	0.716500
N3071	N307	0.286400	0.328200	0.750300
N3081	N308	0.250000	0.363800	0.713700
C5331	C533	0.280200	0.361500	0.734800
C5341	C534	0.303800	0.396100	0.739500
C5351	C535	0.297500	0.429000	0.715800
C5361	C536	0.327400	0.397800	0.766600
H3051	H305	0.278700	0.429900	0.698100
C5371	C537	0.320900	0.457400	0.721700
C5381	C538	0.348200	0.426300	0.770200
H3061	H306	0.329200	0.378300	0.783400
H3071	H307	0.318700	0.478400	0.706900
C5391	C539	0.347800	0.456900	0.748200
H3081	H308	0.365200	0.426100	0.789700
N3091	N309	0.759300	0.807800	0.238300
N3101	N310	0.737500	0.829400	0.216500
N3111	N311	0.786400	0.828200	0.250300
N3121	N312	0.750000	0.863800	0.213700
C5401	C540	0.780200	0.861500	0.234800
C5411	C541	0.803800	0.896100	0.239500
C5421	C542	0.797500	0.929000	0.215800
C5431	C543	0.827400	0.897800	0.266600
H3091	H309	0.778700	0.929900	0.198100
C5441	C544	0.820900	0.957400	0.221700
C5451	C545	0.848200	0.926300	0.270200
H3101	H310	0.829200	0.878300	0.283400
H3111	H311	0.818700	0.978400	0.206900
C5461	C546	0.847800	0.956900	0.248200
H3121	H312	0.865200	0.926100	0.289700
N3131	N313	0.240700	0.692200	0.238300
N3141	N314	0.262500	0.670600	0.216500
N3151	N315	0.213600	0.671800	0.250300
N3161	N316	0.250000	0.636200	0.213700
C5471	C547	0.219800	0.638500	0.234800
C5481	C548	0.196200	0.603900	0.239500
C5491	C549	0.202500	0.571000	0.215800
C5501	C550	0.172600	0.602200	0.266600
H3131	H313	0.221300	0.570100	0.198100
C5511	C551	0.179100	0.542600	0.221700
C5521	C552	0.151800	0.573700	0.270200
H3141	H314	0.170800	0.621700	0.283400
H3151	H315	0.181300	0.521600	0.206900
C5531	C553	0.152200	0.543100	0.248200
H3161	H316	0.134800	0.573900	0.289700
N3171	N317	0.740700	0.192200	0.738300
N3181	N318	0.762500	0.170600	0.716500
N3191	N319	0.713600	0.171800	0.750300
N3201	N320	0.750000	0.136200	0.713700
C5541	C554	0.719800	0.138500	0.734800
C5551	C555	0.696200	0.103900	0.739500
C5561	C556	0.702500	0.071000	0.715800
C5571	C557	0.672600	0.102200	0.766600
H3171	H317	0.721300	0.070100	0.698100
C5581	C558	0.679100	0.042600	0.721700
C5591	C559	0.651800	0.073700	0.770200
H3181	H318	0.670800	0.121700	0.783400
H3191	H319	0.681300	0.021600	0.706900
C5601	C560	0.652200	0.043100	0.748200
H3201	H320	0.634800	0.073900	0.789700
N3211	N321	0.692200	0.238300	0.240700
N3221	N322	0.670600	0.216500	0.262500
N3231	N323	0.671800	0.250300	0.213600
N3241	N324	0.636200	0.213700	0.250000
C5611	C561	0.638500	0.234800	0.219800
C5621	C562	0.603900	0.239500	0.196200
C5631	C563	0.571000	0.215800	0.202500
C5641	C564	0.602200	0.266600	0.172600
H3211	H321	0.570100	0.198100	0.221300
C5651	C565	0.542600	0.221700	0.179100
C5661	C566	0.573700	0.270200	0.151800
H3221	H322	0.621700	0.283400	0.170800
H3231	H323	0.521600	0.206900	0.181300
C5671	C567	0.543100	0.248200	0.152200
H3241	H324	0.573900	0.289700	0.134800
N3251	N325	0.192200	0.738300	0.740700
N3261	N326	0.170600	0.716500	0.762500
N3271	N327	0.171800	0.750300	0.713600
N3281	N328	0.136200	0.713700	0.750000
C5681	C568	0.138500	0.734800	0.719800
C5691	C569	0.103900	0.739500	0.696200
C5701	C570	0.071000	0.715800	0.702500
C5711	C571	0.102200	0.766600	0.672600
H3251	H325	0.070100	0.698100	0.721300
C5721	C572	0.042600	0.721700	0.679100
C5731	C573	0.073700	0.770200	0.651800
H3261	H326	0.121700	0.783400	0.670800
H3271	H327	0.021600	0.706900	0.681300
C5741	C574	0.043100	0.748200	0.652200
H3281	H328	0.073900	0.789700	0.634800
N3291	N329	0.307800	0.738300	0.259300
N3301	N330	0.329400	0.716500	0.237500
N3311	N331	0.328200	0.750300	0.286400
N3321	N332	0.363800	0.713700	0.250000
C5751	C575	0.361500	0.734800	0.280200
C5761	C576	0.396100	0.739500	0.303800
C5771	C577	0.429000	0.715800	0.297500
C5781	C578	0.397800	0.766600	0.327400
H3291	H329	0.429900	0.698100	0.278700
C5791	C579	0.457400	0.721700	0.320900
C5801	C580	0.426300	0.770200	0.348200
H3301	H330	0.378300	0.783400	0.329200
H3311	H331	0.478400	0.706900	0.318700
C5811	C581	0.456900	0.748200	0.347800
H3321	H332	0.426100	0.789700	0.365200
N3331	N333	0.807800	0.238300	0.759300
N3341	N334	0.829400	0.216500	0.737500
N3351	N335	0.828200	0.250300	0.786400
N3361	N336	0.863800	0.213700	0.750000
C5821	C582	0.861500	0.234800	0.780200
C5831	C583	0.896100	0.239500	0.803800
C5841	C584	0.929000	0.215800	0.797500
C5851	C585	0.897800	0.266600	0.827400
H3331	H333	0.929900	0.198100	0.778700
C5861	C586	0.957400	0.221700	0.820900
C5871	C587	0.926300	0.270200	0.848200
H3341	H334	0.878300	0.283400	0.829200
H3351	H335	0.978400	0.206900	0.818700
C5881	C588	0.956900	0.248200	0.847800
H3361	H336	0.926100	0.289700	0.865200
N3371	N337	0.807800	0.761700	0.740700
N3381	N338	0.829400	0.783500	0.762500
N3391	N339	0.828200	0.749700	0.713600
N3401	N340	0.863800	0.786300	0.750000
C5891	C589	0.861500	0.765200	0.719800
C5901	C590	0.896100	0.760500	0.696200
C5911	C591	0.929000	0.784200	0.702500
C5921	C592	0.897800	0.733400	0.672600
H3371	H337	0.929900	0.801900	0.721300
C5931	C593	0.957400	0.778300	0.679100
C5941	C594	0.926300	0.729800	0.651800
H3381	H338	0.878300	0.716600	0.670800
H3391	H339	0.978400	0.793100	0.681300
C5951	C595	0.956900	0.751800	0.652200
H3401	H340	0.926100	0.710300	0.634800
N3411	N341	0.307800	0.261700	0.240700
N3421	N342	0.329400	0.283500	0.262500
N3431	N343	0.328200	0.249700	0.213600
N3441	N344	0.363800	0.286300	0.250000
C5961	C596	0.361500	0.265200	0.219800
C5971	C597	0.396100	0.260500	0.196200
C5981	C598	0.429000	0.284200	0.202500
C5991	C599	0.397800	0.233400	0.172600
H3411	H341	0.429900	0.301900	0.221300
C6001	C600	0.457400	0.278300	0.179100
C6011	C601	0.426300	0.229800	0.151800
H3421	H342	0.378300	0.216600	0.170800
H3431	H343	0.478400	0.293100	0.181300
C6021	C602	0.456900	0.251800	0.152200
H3441	H344	0.426100	0.210300	0.134800
N3451	N345	0.192200	0.261700	0.759300
N3461	N346	0.170600	0.283500	0.737500
N3471	N347	0.171800	0.249700	0.786400
N3481	N348	0.136200	0.286300	0.750000
C6031	C603	0.138500	0.265200	0.780200
C6041	C604	0.103900	0.260500	0.803800
C6051	C605	0.071000	0.284200	0.797500
C6061	C606	0.102200	0.233400	0.827400
H3451	H345	0.070100	0.301900	0.778700
C6071	C607	0.042600	0.278300	0.820900
C6081	C608	0.073700	0.229800	0.848200
H3461	H346	0.121700	0.216600	0.829200
H3471	H347	0.021600	0.293100	0.818700
C6091	C609	0.043100	0.251800	0.847800
H3481	H348	0.073900	0.210300	0.865200
N3491	N349	0.692200	0.761700	0.259300
N3501	N350	0.670600	0.783500	0.237500
N3511	N351	0.671800	0.749700	0.286400
N3521	N352	0.636200	0.786300	0.250000
C6101	C610	0.638500	0.765200	0.280200
C6111	C611	0.603900	0.760500	0.303800
C6121	C612	0.571000	0.784200	0.297500
C6131	C613	0.602200	0.733400	0.327400
H3491	H349	0.570100	0.801900	0.278700
C6141	C614	0.542600	0.778300	0.320900
C6151	C615	0.573700	0.729800	0.348200
H3501	H350	0.621700	0.716600	0.329200
H3511	H351	0.521600	0.793100	0.318700
C6161	C616	0.543100	0.751800	0.347800
H3521	H352	0.573900	0.710300	0.365200
N3531	N353	0.738300	0.259300	0.307800
N3541	N354	0.716500	0.237500	0.329400
N3551	N355	0.750300	0.286400	0.328200
N3561	N356	0.713700	0.250000	0.363800
C6171	C617	0.734800	0.280200	0.361500
C6181	C618	0.739500	0.303800	0.396100
C6191	C619	0.715800	0.297500	0.429000
C6201	C620	0.766600	0.327400	0.397800
H3531	H353	0.698100	0.278700	0.429900
C6211	C621	0.721700	0.320900	0.457400
C6221	C622	0.770200	0.348200	0.426300
H3541	H354	0.783400	0.329200	0.378300
H3551	H355	0.706900	0.318700	0.478400
C6231	C623	0.748200	0.347800	0.456900
H3561	H356	0.789700	0.365200	0.426100
N3571	N357	0.238300	0.759300	0.807800
N3581	N358	0.216500	0.737500	0.829400
N3591	N359	0.250300	0.786400	0.828200
N3601	N360	0.213700	0.750000	0.863800
C6241	C624	0.234800	0.780200	0.861500
C6251	C625	0.239500	0.803800	0.896100
C6261	C626	0.215800	0.797500	0.929000
C6271	C627	0.266600	0.827400	0.897800
H3571	H357	0.198100	0.778700	0.929900
C6281	C628	0.221700	0.820900	0.957400
C6291	C629	0.270200	0.848200	0.926300
H3581	H358	0.283400	0.829200	0.878300
H3591	H359	0.206900	0.818700	0.978400
C6301	C630	0.248200	0.847800	0.956900
H3601	H360	0.289700	0.865200	0.926100
N3611	N361	0.238300	0.240700	0.692200
N3621	N362	0.216500	0.262500	0.670600
N3631	N363	0.250300	0.213600	0.671800
N3641	N364	0.213700	0.250000	0.636200
C6311	C631	0.234800	0.219800	0.638500
C6321	C632	0.239500	0.196200	0.603900
C6331	C633	0.215800	0.202500	0.571000
C6341	C634	0.266600	0.172600	0.602200
H3611	H361	0.198100	0.221300	0.570100
C6351	C635	0.221700	0.179100	0.542600
C6361	C636	0.270200	0.151800	0.573700
H3621	H362	0.283400	0.170800	0.621700
H3631	H363	0.206900	0.181300	0.521600
C6371	C637	0.248200	0.152200	0.543100
H3641	H364	0.289700	0.134800	0.573900
N3651	N365	0.738300	0.740700	0.192200
N3661	N366	0.716500	0.762500	0.170600
N3671	N367	0.750300	0.713600	0.171800
N3681	N368	0.713700	0.750000	0.136200
C6381	C638	0.734800	0.719800	0.138500
C6391	C639	0.739500	0.696200	0.103900
C6401	C640	0.715800	0.702500	0.071000
C6411	C641	0.766600	0.672600	0.102200
H3651	H365	0.698100	0.721300	0.070100
C6421	C642	0.721700	0.679100	0.042600
C6431	C643	0.770200	0.651800	0.073700
H3661	H366	0.783400	0.670800	0.121700
H3671	H367	0.706900	0.681300	0.021600
C6441	C644	0.748200	0.652200	0.043100
H3681	H368	0.789700	0.634800	0.073900
N3691	N369	0.261700	0.759300	0.192200
N3701	N370	0.283500	0.737500	0.170600
N3711	N371	0.249700	0.786400	0.171800
N3721	N372	0.286300	0.750000	0.136200
C6451	C645	0.265200	0.780200	0.138500
C6461	C646	0.260500	0.803800	0.103900
C6471	C647	0.284200	0.797500	0.071000
C6481	C648	0.233400	0.827400	0.102200
H3691	H369	0.301900	0.778700	0.070100
C6491	C649	0.278300	0.820900	0.042600
C6501	C650	0.229800	0.848200	0.073700
H3701	H370	0.216600	0.829200	0.121700
H3711	H371	0.293100	0.818700	0.021600
C6511	C651	0.251800	0.847800	0.043100
H3721	H372	0.210300	0.865200	0.073900
N3731	N373	0.761700	0.259300	0.692200
N3741	N374	0.783500	0.237500	0.670600
N3751	N375	0.749700	0.286400	0.671800
N3761	N376	0.786300	0.250000	0.636200
C6521	C652	0.765200	0.280200	0.638500
C6531	C653	0.760500	0.303800	0.603900
C6541	C654	0.784200	0.297500	0.571000
C6551	C655	0.733400	0.327400	0.602200
H3731	H373	0.801900	0.278700	0.570100
C6561	C656	0.778300	0.320900	0.542600
C6571	C657	0.729800	0.348200	0.573700
H3741	H374	0.716600	0.329200	0.621700
H3751	H375	0.793100	0.318700	0.521600
C6581	C658	0.751800	0.347800	0.543100
H3761	H376	0.710300	0.365200	0.573900
N3771	N377	0.761700	0.740700	0.807800
N3781	N378	0.783500	0.762500	0.829400
N3791	N379	0.749700	0.713600	0.828200
N3801	N380	0.786300	0.750000	0.863800
C6591	C659	0.765200	0.719800	0.861500
C6601	C660	0.760500	0.696200	0.896100
C6611	C661	0.784200	0.702500	0.929000
C6621	C662	0.733400	0.672600	0.897800
H3771	H377	0.801900	0.721300	0.929900
C6631	C663	0.778300	0.679100	0.957400
C6641	C664	0.729800	0.651800	0.926300
H3781	H378	0.716600	0.670800	0.878300
H3791	H379	0.793100	0.681300	0.978400
C6651	C665	0.751800	0.652200	0.956900
H3801	H380	0.710300	0.634800	0.926100
N3811	N381	0.261700	0.240700	0.307800
N3821	N382	0.283500	0.262500	0.329400
N3831	N383	0.249700	0.213600	0.328200
N3841	N384	0.286300	0.250000	0.363800
C6661	C666	0.265200	0.219800	0.361500
C6671	C667	0.260500	0.196200	0.396100
C6681	C668	0.284200	0.202500	0.429000
C6691	C669	0.233400	0.172600	0.397800
H3811	H381	0.301900	0.221300	0.429900
C6701	C670	0.278300	0.179100	0.457400
C6711	C671	0.229800	0.151800	0.426300
H3821	H382	0.216600	0.170800	0.378300
H3831	H383	0.293100	0.181300	0.478400
C6721	C672	0.251800	0.152200	0.456900
H3841	H384	0.210300	0.134800	0.426100
Mn11	Mn1	0.500000	0.500000	0.500000
Mn21	Mn2	0.000000	0.000000	0.000000
Mn31	Mn3	0.000000	0.500000	0.000000
Mn41	Mn4	0.500000	0.000000	0.500000
Mn51	Mn5	0.500000	0.000000	0.000000
Mn61	Mn6	0.000000	0.500000	0.500000
Mn71	Mn7	0.000000	0.000000	0.500000
Mn81	Mn8	0.500000	0.500000	0.000000
Mn91	Mn9	0.250000	0.750000	0.750000
Mn101	Mn10	0.250000	0.250000	0.250000
Mn111	Mn11	0.750000	0.750000	0.750000
Mn121	Mn12	0.750000	0.750000	0.250000
Mn131	Mn13	0.750000	0.250000	0.750000
Mn141	Mn14	0.750000	0.250000	0.250000
Mn151	Mn15	0.250000	0.250000	0.750000
Mn161	Mn16	0.250000	0.750000	0.250000
Mn171	Mn17	0.563780	0.563780	0.563780
Mn181	Mn18	0.063780	0.063780	0.063780
Mn191	Mn19	0.936220	0.436220	0.063780
Mn201	Mn20	0.436220	0.936220	0.563780
Mn211	Mn21	0.436220	0.063780	0.936220
Mn221	Mn22	0.936220	0.563780	0.436220
Mn231	Mn23	0.063780	0.936220	0.436220
Mn241	Mn24	0.563780	0.436220	0.936220
Mn251	Mn25	0.313780	0.813780	0.686220
Mn261	Mn26	0.813780	0.313780	0.186220
Mn271	Mn27	0.186220	0.186220	0.186220
Mn281	Mn28	0.686220	0.686220	0.686220
Mn291	Mn29	0.813780	0.686220	0.313780
Mn301	Mn30	0.313780	0.186220	0.813780
Mn311	Mn31	0.686220	0.313780	0.813780
Mn321	Mn32	0.186220	0.813780	0.313780
Mn331	Mn33	0.436220	0.436220	0.436220
Mn341	Mn34	0.936220	0.936220	0.936220
Mn351	Mn35	0.063780	0.563780	0.936220
Mn361	Mn36	0.563780	0.063780	0.436220
Mn371	Mn37	0.563780	0.936220	0.063780
Mn381	Mn38	0.063780	0.436220	0.563780
Mn391	Mn39	0.936220	0.063780	0.563780
Mn401	Mn40	0.436220	0.563780	0.063780
Mn411	Mn41	0.686220	0.186220	0.313780
Mn421	Mn42	0.186220	0.686220	0.813780
Mn431	Mn43	0.813780	0.813780	0.813780
Mn441	Mn44	0.313780	0.313780	0.313780
Mn451	Mn45	0.186220	0.313780	0.686220
Mn461	Mn46	0.686220	0.813780	0.186220
Mn471	Mn47	0.313780	0.686220	0.186220
Mn481	Mn48	0.813780	0.186220	0.686220
Si11	Si1	0.750000	0.375000	0.500000
Si21	Si2	0.750000	0.625000	0.000000
Si31	Si3	0.250000	0.875000	0.000000
Si41	Si4	0.250000	0.125000	0.500000
Si51	Si5	0.500000	0.750000	0.375000
Si61	Si6	0.000000	0.750000	0.625000
Si71	Si7	0.000000	0.250000	0.875000
Si81	Si8	0.500000	0.250000	0.125000
Si91	Si9	0.375000	0.500000	0.750000
Si101	Si10	0.625000	0.000000	0.750000
Si111	Si11	0.875000	0.000000	0.250000
Si121	Si12	0.125000	0.500000	0.250000
Si131	Si13	0.125000	0.000000	0.750000
Si141	Si14	0.375000	0.000000	0.250000
Si151	Si15	0.625000	0.500000	0.250000
Si161	Si16	0.875000	0.500000	0.750000
Si171	Si17	0.500000	0.750000	0.875000
Si181	Si18	0.500000	0.250000	0.625000
Si191	Si19	0.000000	0.250000	0.375000
Si201	Si20	0.000000	0.750000	0.125000
Si211	Si21	0.250000	0.625000	0.500000
Si221	Si22	0.750000	0.875000	0.500000
Si231	Si23	0.750000	0.125000	0.000000
Si241	Si24	0.250000	0.375000	0.000000
