data_COCNAL_clean_PM
_symmetry_space_group_name_H-M	'P1'
_cell_length_a	32.020800
_cell_length_b	32.020800
_cell_length_c	32.020800
_cell_angle_alpha	109.471000
_cell_angle_beta	109.471000
_cell_angle_gamma	109.471000
_symmetry_Int_Tables_number 1

loop_
_symmetry_equiv_pos_as_xyz
'x,y,z'

loop_
_atom_site_label
_atom_site_type_symbol
_atom_site_fract_x
_atom_site_fract_y
_atom_site_fract_z
Cd11	Cd1	0.000000	0.500000	0.371660
Cd21	Cd2	0.000000	0.500000	0.871660
Cd31	Cd3	0.500000	0.871660	0.500000
Cd41	Cd4	0.500000	0.000000	0.000000
Cd51	Cd5	0.371660	0.371660	0.871660
Cd61	Cd6	0.500000	0.128340	0.500000
Cd71	Cd7	0.000000	0.000000	0.500000
Cd81	Cd8	0.000000	0.500000	0.628340
Cd91	Cd9	0.500000	0.500000	0.500000
Cd101	Cd10	0.628340	0.628340	0.128340
Cd111	Cd11	0.871660	0.871660	0.371660
Cd121	Cd12	0.371660	0.000000	0.000000
Cd131	Cd13	0.128340	0.128340	0.628340
Cd141	Cd14	0.500000	0.500000	0.000000
Cd151	Cd15	0.128340	0.000000	0.000000
Cd161	Cd16	0.500000	0.000000	0.500000
Cd171	Cd17	0.628340	0.000000	0.000000
Cd181	Cd18	0.000000	0.500000	0.000000
Cd191	Cd19	0.000000	0.500000	0.500000
Cd201	Cd20	0.871660	0.000000	0.000000
Cd211	Cd21	0.500000	0.371660	0.500000
Cd221	Cd22	0.000000	0.500000	0.128340
Cd231	Cd23	0.000000	0.000000	0.000000
Cd241	Cd24	0.500000	0.628340	0.500000
Si11	Si1	0.250000	0.375000	0.125000
Si21	Si2	0.625000	0.375000	0.250000
Si31	Si3	0.875000	0.125000	0.750000
Si41	Si4	0.125000	0.875000	0.250000
Si51	Si5	0.375000	0.625000	0.750000
Si61	Si6	0.625000	0.250000	0.875000
Si71	Si7	0.750000	0.625000	0.875000
Si81	Si8	0.750000	0.125000	0.375000
Si91	Si9	0.875000	0.750000	0.625000
Si101	Si10	0.375000	0.750000	0.125000
Si111	Si11	0.125000	0.250000	0.375000
Si121	Si12	0.250000	0.875000	0.625000
H11	H1	0.956300	0.665100	0.553200
H21	H2	0.403100	0.446800	0.111900
H31	H3	0.208700	0.616000	0.978100
H41	H4	0.521900	0.730600	0.137900
H51	H5	0.791200	0.456300	0.403100
H61	H6	0.641200	0.569200	0.846000
H71	H7	0.888100	0.834900	0.791200
H81	H8	0.120500	0.794800	0.273900
H91	H9	0.334900	0.946800	0.543700
H101	H10	0.137900	0.907300	0.116000
H111	H11	0.846600	0.726100	0.520900
H121	H12	0.154000	0.223200	0.295200
H131	H13	0.208700	0.592700	0.730600
H141	H14	0.096900	0.888100	0.553200
H151	H15	0.388100	0.791200	0.834900
H161	H16	0.930800	0.858800	0.654000
H171	H17	0.021900	0.137900	0.730600
H181	H18	0.346600	0.825700	0.120500
H191	H19	0.665100	0.611900	0.708800
H201	H20	0.769400	0.791300	0.907300
H211	H21	0.226100	0.346600	0.020900
H221	H22	0.154000	0.930800	0.358800
H231	H23	0.569200	0.346000	0.141200
H241	H24	0.153400	0.879500	0.174300
H251	H25	0.384000	0.862100	0.592700
H261	H26	0.204800	0.358800	0.428000
H271	H27	0.223200	0.795200	0.654000
H281	H28	0.928000	0.723200	0.569200
H291	H29	0.446800	0.611900	0.903100
H301	H30	0.520900	0.226100	0.846600
H311	H31	0.708800	0.596900	0.543700
H321	H32	0.294800	0.620500	0.773900
H331	H33	0.569200	0.223200	0.928000
H341	H34	0.141200	0.295200	0.072000
H351	H35	0.174300	0.794800	0.520900
H361	H36	0.276800	0.930800	0.572000
H371	H37	0.708700	0.730600	0.592700
H381	H38	0.428000	0.858800	0.204800
H391	H39	0.930800	0.072000	0.776800
H401	H40	0.269400	0.907300	0.791300
H411	H41	0.907300	0.291300	0.769400
H421	H42	0.205200	0.226100	0.379500
H431	H43	0.205200	0.979100	0.325700
H441	H44	0.111900	0.946800	0.403100
H451	H45	0.043700	0.708800	0.096900
H461	H46	0.358800	0.430800	0.154000
H471	H47	0.072000	0.276800	0.430800
H481	H48	0.637900	0.521900	0.230600
H491	H49	0.846000	0.069200	0.641200
H501	H50	0.478100	0.269400	0.862100
H511	H51	0.773900	0.120500	0.294800
H521	H52	0.230600	0.208700	0.092700
H531	H53	0.553200	0.165100	0.956300
H541	H54	0.572000	0.430800	0.276800
H551	H55	0.174300	0.379500	0.153400
H561	H56	0.362100	0.478100	0.769400
H571	H57	0.403100	0.956300	0.791200
H581	H58	0.092700	0.384000	0.362100
H591	H59	0.616000	0.137900	0.407300
H601	H60	0.137900	0.230600	0.521900
H611	H61	0.705200	0.325700	0.979100
H621	H62	0.120500	0.325700	0.346600
H631	H63	0.665100	0.053200	0.456300
H641	H64	0.611900	0.403100	0.946800
H651	H65	0.620500	0.273900	0.794800
H661	H66	0.043700	0.334900	0.446800
H671	H67	0.708700	0.978100	0.616000
H681	H68	0.362100	0.884000	0.092700
H691	H69	0.020900	0.846600	0.226100
H701	H70	0.446800	0.834900	0.043700
H711	H71	0.291200	0.403100	0.456300
H721	H72	0.325700	0.846600	0.620500
H731	H73	0.021900	0.884000	0.791300
H741	H74	0.846600	0.120500	0.825700
H751	H75	0.165100	0.708800	0.611900
H761	H76	0.521900	0.791300	0.884000
H771	H77	0.358800	0.928000	0.704800
H781	H78	0.230600	0.021900	0.637900
H791	H79	0.654000	0.295200	0.223200
H801	H80	0.879500	0.205200	0.726100
H811	H81	0.346000	0.704800	0.776800
H821	H82	0.858800	0.704800	0.928000
H831	H83	0.407300	0.769400	0.291300
H841	H84	0.888100	0.053200	0.596900
H851	H85	0.858800	0.154000	0.430800
H861	H86	0.273900	0.979100	0.653400
H871	H87	0.291300	0.021900	0.384000
H881	H88	0.294800	0.674300	0.020900
H891	H89	0.654000	0.358800	0.930800
H901	H90	0.956300	0.291200	0.903100
H911	H91	0.596900	0.043700	0.208800
H921	H92	0.346000	0.641200	0.069200
H931	H93	0.907300	0.616000	0.637900
H941	H94	0.553200	0.388100	0.096900
H951	H95	0.616000	0.478100	0.708700
H961	H96	0.478100	0.208700	0.116000
H971	H97	0.430800	0.776800	0.072000
H981	H98	0.674300	0.520900	0.794800
H991	H99	0.825700	0.620500	0.846600
H1001	H100	0.291200	0.888100	0.334900
H1011	H101	0.520900	0.294800	0.174300
H1021	H102	0.276800	0.346000	0.204800
H1031	H103	0.072000	0.795200	0.141200
H1041	H104	0.572000	0.141200	0.795200
H1051	H105	0.456300	0.553200	0.665100
H1061	H106	0.708800	0.111900	0.665100
H1071	H107	0.096900	0.208800	0.043700
H1081	H108	0.053200	0.956300	0.165100
H1091	H109	0.543700	0.446800	0.334900
H1101	H110	0.794800	0.020900	0.674300
H1111	H111	0.653400	0.174300	0.879500
H1121	H112	0.884000	0.592700	0.862100
H1131	H113	0.069200	0.928000	0.223200
H1141	H114	0.379500	0.726100	0.205200
H1151	H115	0.153400	0.273900	0.479100
H1161	H116	0.092700	0.708700	0.230600
H1171	H117	0.641200	0.072000	0.295200
H1181	H118	0.879500	0.674300	0.653400
H1191	H119	0.791200	0.334900	0.888100
H1201	H120	0.592700	0.362100	0.384000
H1211	H121	0.776800	0.204800	0.346000
H1221	H122	0.773900	0.653400	0.979100
H1231	H123	0.834900	0.291200	0.388100
H1241	H124	0.846000	0.776800	0.704800
H1251	H125	0.273900	0.294800	0.120500
H1261	H126	0.726100	0.020900	0.346600
H1271	H127	0.456300	0.903100	0.291200
H1281	H128	0.388100	0.596900	0.053200
H1291	H129	0.726100	0.705200	0.879500
H1301	H130	0.479100	0.773900	0.153400
H1311	H131	0.730600	0.637900	0.021900
H1321	H132	0.295200	0.723200	0.154000
H1331	H133	0.791300	0.407300	0.269400
H1341	H134	0.723200	0.654000	0.795200
H1351	H135	0.208800	0.665100	0.111900
H1361	H136	0.791300	0.384000	0.021900
H1371	H137	0.543700	0.096900	0.708800
H1381	H138	0.776800	0.572000	0.930800
H1391	H139	0.479100	0.705200	0.825700
H1401	H140	0.384000	0.521900	0.291300
H1411	H141	0.794800	0.773900	0.620500
H1421	H142	0.611900	0.208800	0.165100
H1431	H143	0.291300	0.269400	0.407300
H1441	H144	0.834900	0.543700	0.946800
H1451	H145	0.903100	0.791200	0.956300
H1461	H146	0.165100	0.456300	0.053200
H1471	H147	0.620500	0.346600	0.325700
H1481	H148	0.825700	0.205200	0.479100
H1491	H149	0.862100	0.769400	0.478100
H1501	H150	0.141200	0.846000	0.569200
H1511	H151	0.978100	0.116000	0.208700
H1521	H152	0.407300	0.637900	0.616000
H1531	H153	0.430800	0.654000	0.858800
H1541	H154	0.223200	0.428000	0.069200
H1551	H155	0.903100	0.111900	0.446800
H1561	H156	0.704800	0.276800	0.846000
H1571	H157	0.428000	0.569200	0.723200
H1581	H158	0.325700	0.479100	0.205200
H1591	H159	0.653400	0.479100	0.273900
H1601	H160	0.795200	0.641200	0.572000
H1611	H161	0.208800	0.543700	0.596900
H1621	H162	0.705200	0.379500	0.226100
H1631	H163	0.795200	0.154000	0.723200
H1641	H164	0.295200	0.572000	0.641200
H1651	H165	0.111900	0.165100	0.208800
H1661	H166	0.204800	0.846000	0.276800
H1671	H167	0.069200	0.141200	0.346000
H1681	H168	0.596900	0.553200	0.888100
H1691	H169	0.946800	0.903100	0.611900
H1701	H170	0.116000	0.407300	0.137900
H1711	H171	0.269400	0.362100	0.978100
H1721	H172	0.723200	0.069200	0.428000
H1731	H173	0.979100	0.825700	0.705200
H1741	H174	0.116000	0.708700	0.478100
H1751	H175	0.346600	0.520900	0.726100
H1761	H176	0.862100	0.092700	0.884000
H1771	H177	0.379500	0.653400	0.674300
H1781	H178	0.979100	0.153400	0.773900
H1791	H179	0.978100	0.862100	0.269400
H1801	H180	0.674300	0.153400	0.379500
H1811	H181	0.884000	0.291300	0.521900
H1821	H182	0.769400	0.978100	0.362100
H1831	H183	0.592700	0.230600	0.708700
H1841	H184	0.053200	0.096900	0.388100
H1851	H185	0.730600	0.092700	0.208700
H1861	H186	0.226100	0.879500	0.705200
H1871	H187	0.704800	0.428000	0.358800
H1881	H188	0.020900	0.174300	0.294800
H1891	H189	0.334900	0.388100	0.291200
H1901	H190	0.928000	0.204800	0.858800
H1911	H191	0.637900	0.116000	0.907300
H1921	H192	0.946800	0.043700	0.834900
C11	C1	0.092980	0.926050	0.366910
C21	C2	0.039740	0.867160	0.262340
C31	C3	0.777660	0.659610	0.576270
C41	C4	0.672580	0.132840	0.395180
C51	C5	0.633090	0.059140	0.226070
C61	C6	0.564330	0.405590	0.364700
C71	C7	0.672580	0.539740	0.777400
C81	C8	0.083340	0.923730	0.201390
C91	C9	0.135300	0.699630	0.540890
C101	C10	0.400380	0.612930	0.705010
C111	C11	0.598620	0.085190	0.453710
C121	C12	0.485850	0.773820	0.861930
C131	C13	0.459110	0.658740	0.094410
C141	C14	0.013430	0.098620	0.144910
C151	C15	0.387070	0.592080	0.787450
C161	C16	0.300370	0.341260	0.435670
C171	C17	0.277660	0.701390	0.118050
C181	C18	0.333070	0.926050	0.559140
C191	C19	0.635300	0.094410	0.435670
C201	C20	0.985850	0.123920	0.712030
C211	C21	0.923730	0.701390	0.583340
C221	C22	0.226180	0.588110	0.712030
C231	C23	0.887070	0.787450	0.592080
C241	C24	0.423730	0.840390	0.222340
C251	C25	0.864700	0.564330	0.905590
C261	C26	0.395180	0.762340	0.222600
C271	C27	0.273820	0.287970	0.411890
C281	C28	0.907920	0.794990	0.695370
C291	C29	0.073950	0.133090	0.407020
C301	C30	0.166930	0.726070	0.592980
C311	C31	0.900380	0.705010	0.612930
C321	C32	0.914810	0.868520	0.513430
C331	C33	0.355090	0.986570	0.401380
C341	C34	0.123920	0.911890	0.138070
C351	C35	0.277400	0.672580	0.039740
C361	C36	0.088110	0.361930	0.376080
C371	C37	0.514150	0.226180	0.138070
C381	C38	0.895180	0.672580	0.632840
C391	C39	0.773930	0.440860	0.366910
C401	C40	0.131480	0.986570	0.585190
C411	C41	0.059140	0.333070	0.426050
C421	C42	0.046290	0.401380	0.414810
C431	C43	0.166930	0.440860	0.073950
C441	C44	0.376080	0.861930	0.088110
C451	C45	0.407020	0.633090	0.073950
C461	C46	0.612930	0.205010	0.900380
C471	C47	0.085190	0.131480	0.486570
C481	C48	0.401380	0.914810	0.546290
C491	C49	0.040890	0.905590	0.341260
C501	C50	0.631480	0.046290	0.144910
C511	C51	0.327420	0.460260	0.222600
C521	C52	0.159610	0.277660	0.076270
C531	C53	0.866910	0.092980	0.426050
C541	C54	0.726180	0.014150	0.638070
C551	C55	0.623920	0.485850	0.212030
C561	C56	0.158740	0.959110	0.594410
C571	C57	0.367160	0.827420	0.104820
C581	C58	0.800370	0.435670	0.341260
C591	C59	0.907020	0.833070	0.773930
C601	C60	0.226070	0.666930	0.092980
C611	C61	0.400380	0.787450	0.195370
C621	C62	0.273930	0.907020	0.333070
C631	C63	0.644910	0.013430	0.598620
C641	C64	0.144910	0.546290	0.631480
C651	C65	0.701390	0.083340	0.423730
C661	C66	0.135300	0.435670	0.094410
C671	C67	0.294990	0.887070	0.599620
C681	C68	0.592080	0.287450	0.887070
C691	C69	0.726070	0.633090	0.559140
C701	C70	0.355090	0.368520	0.453710
C711	C71	0.440860	0.573950	0.666930
C721	C72	0.133090	0.226070	0.059140
C731	C73	0.841260	0.040890	0.405590
C741	C74	0.013430	0.914810	0.368520
C751	C75	0.085190	0.953710	0.098620
C761	C76	0.722340	0.423730	0.340390
C771	C77	0.658740	0.064330	0.199630
C781	C78	0.592080	0.304630	0.205010
C791	C79	0.911890	0.638070	0.623920
C801	C80	0.205010	0.804630	0.592080
C811	C81	0.695370	0.294990	0.907920
C821	C82	0.594410	0.459110	0.158740
C831	C83	0.277400	0.604820	0.737660
C841	C84	0.098620	0.644910	0.513430
C851	C85	0.666930	0.592980	0.726070
C861	C86	0.112930	0.900380	0.205010
C871	C87	0.712550	0.612930	0.907920
C881	C88	0.583340	0.201390	0.923730
C891	C89	0.088110	0.726180	0.212030
C901	C90	0.726070	0.092980	0.666930
C911	C91	0.585190	0.486570	0.131480
C921	C92	0.133090	0.907020	0.573950
C931	C93	0.705010	0.112930	0.400380
C941	C94	0.262340	0.367160	0.039740
C951	C95	0.599620	0.387070	0.294990
C961	C96	0.513430	0.368520	0.914810
C971	C97	0.094410	0.935670	0.135300
C981	C98	0.635300	0.540890	0.699630
C991	C99	0.273930	0.366910	0.440860
C1001	C100	0.737660	0.104820	0.277400
C1011	C101	0.513430	0.144910	0.098620
C1021	C102	0.131480	0.144910	0.046290
C1031	C103	0.118050	0.916660	0.340390
C1041	C104	0.262340	0.895180	0.722600
C1051	C105	0.867160	0.104820	0.827420
C1061	C106	0.092980	0.166930	0.226070
C1071	C107	0.416660	0.798610	0.076270
C1081	C108	0.172580	0.777400	0.539740
C1091	C109	0.416660	0.618050	0.840390
C1101	C110	0.876080	0.787970	0.514150
C1111	C111	0.138070	0.726180	0.514150
C1121	C112	0.411890	0.623920	0.638070
C1131	C113	0.159610	0.881950	0.583340
C1141	C114	0.277660	0.576270	0.659610
C1151	C115	0.327420	0.867160	0.604820
C1161	C116	0.460260	0.722600	0.827420
C1171	C117	0.158740	0.199630	0.064330
C1181	C118	0.222600	0.960260	0.327420
C1191	C119	0.573950	0.407020	0.133090
C1201	C120	0.298610	0.916660	0.576270
C1211	C121	0.014150	0.876080	0.287970
C1221	C122	0.546290	0.414810	0.401380
C1231	C123	0.633090	0.573950	0.907020
C1241	C124	0.407920	0.712550	0.112930
C1251	C125	0.773820	0.411890	0.287970
C1261	C126	0.426050	0.592980	0.866910
C1271	C127	0.798610	0.576270	0.916660
C1281	C128	0.341260	0.405590	0.040890
C1291	C129	0.435670	0.594410	0.635300
C1301	C130	0.773930	0.333070	0.907020
C1311	C131	0.588110	0.212030	0.726180
C1321	C132	0.631480	0.585190	0.986570
C1331	C133	0.222340	0.340390	0.423730
C1341	C134	0.076270	0.777660	0.159610
C1351	C135	0.985850	0.861930	0.773820
C1361	C136	0.638070	0.514150	0.726180
C1371	C137	0.118050	0.201390	0.277660
C1381	C138	0.287450	0.387070	0.092080
C1391	C139	0.959110	0.094410	0.658740
C1401	C140	0.762340	0.722600	0.895180
C1411	C141	0.583340	0.381950	0.159610
C1421	C142	0.573950	0.166930	0.940860
C1431	C143	0.222340	0.881950	0.298610
C1441	C144	0.592980	0.226070	0.166930
C1451	C145	0.827420	0.604820	0.867160
C1461	C146	0.855090	0.401380	0.986570
C1471	C147	0.940860	0.273930	0.866910
C1481	C148	0.881950	0.798610	0.722340
C1491	C149	0.787970	0.014150	0.376080
C1501	C150	0.435670	0.841260	0.300370
C1511	C151	0.014150	0.138070	0.226180
C1521	C152	0.632840	0.460260	0.237660
C1531	C153	0.381950	0.659610	0.083340
C1541	C154	0.659610	0.076270	0.277660
C1551	C155	0.935670	0.300370	0.841260
C1561	C156	0.172580	0.395180	0.132840
C1571	C157	0.132840	0.895180	0.172580
C1581	C158	0.453710	0.868520	0.355090
C1591	C159	0.273820	0.985850	0.361930
C1601	C160	0.798610	0.222340	0.381950
C1611	C161	0.407020	0.773930	0.833070
C1621	C162	0.876080	0.088110	0.861930
C1631	C163	0.901380	0.546290	0.914810
C1641	C164	0.712030	0.088110	0.226180
C1651	C165	0.300370	0.959110	0.364700
C1661	C166	0.585190	0.098620	0.953710
C1671	C167	0.777400	0.039740	0.672580
C1681	C168	0.199630	0.635300	0.040890
C1691	C169	0.287970	0.911890	0.773820
C1701	C170	0.514150	0.287970	0.876080
C1711	C171	0.414810	0.513430	0.868520
C1721	C172	0.659610	0.583340	0.881950
C1731	C173	0.953710	0.598620	0.585190
C1741	C174	0.800370	0.364700	0.959110
C1751	C175	0.039740	0.172580	0.277400
C1761	C176	0.940860	0.666930	0.573950
C1771	C177	0.083340	0.159610	0.381950
C1781	C178	0.132840	0.237660	0.460260
C1791	C179	0.195370	0.907920	0.294990
C1801	C180	0.840390	0.722340	0.923730
C1811	C181	0.916660	0.840390	0.618050
C1821	C182	0.539740	0.262340	0.867160
C1831	C183	0.212030	0.985850	0.623920
C1841	C184	0.201390	0.777660	0.618050
C1851	C185	0.722600	0.327420	0.960260
C1861	C186	0.787450	0.092080	0.387070
C1871	C187	0.405590	0.540890	0.841260
C1881	C188	0.099620	0.294990	0.387070
C1891	C189	0.604820	0.367160	0.327420
C1901	C190	0.364700	0.905590	0.564330
C1911	C191	0.381950	0.722340	0.798610
C1921	C192	0.905590	0.064330	0.864700
C1931	C193	0.212030	0.226180	0.088110
C1941	C194	0.777400	0.737660	0.604820
C1951	C195	0.623920	0.138070	0.911890
C1961	C196	0.486570	0.631480	0.085190
C1971	C197	0.576270	0.159610	0.777660
C1981	C198	0.341260	0.935670	0.800370
C1991	C199	0.411890	0.787970	0.273820
C2001	C200	0.618050	0.277660	0.201390
C2011	C201	0.460260	0.737660	0.132840
C2021	C202	0.367160	0.539740	0.762340
C2031	C203	0.564330	0.158740	0.699630
C2041	C204	0.855090	0.453710	0.368520
C2051	C205	0.064330	0.364700	0.405590
C2061	C206	0.914810	0.046290	0.901380
C2071	C207	0.123920	0.212030	0.485850
C2081	C208	0.777660	0.118050	0.701390
C2091	C209	0.773820	0.361930	0.985850
C2101	C210	0.926050	0.866910	0.592980
C2111	C211	0.986570	0.901380	0.855090
C2121	C212	0.762340	0.039740	0.367160
C2131	C213	0.405590	0.864700	0.064330
C2141	C214	0.094410	0.158740	0.459110
C2151	C215	0.073950	0.940860	0.166930
C2161	C216	0.368520	0.414810	0.013430
C2171	C217	0.298610	0.381950	0.222340
C2181	C218	0.364700	0.459110	0.300370
C2191	C219	0.726180	0.712030	0.588110
C2201	C220	0.287970	0.376080	0.014150
C2211	C221	0.804630	0.092080	0.705010
C2221	C222	0.841260	0.800370	0.935670
C2231	C223	0.953710	0.355090	0.868520
C2241	C224	0.226070	0.559140	0.633090
C2251	C225	0.712030	0.623920	0.985850
C2261	C226	0.387070	0.794990	0.099620
C2271	C227	0.827420	0.222600	0.460260
C2281	C228	0.199630	0.564330	0.658740
C2291	C229	0.794990	0.599620	0.887070
C2301	C230	0.935670	0.635300	0.594410
C2311	C231	0.366910	0.426050	0.092980
C2321	C232	0.638070	0.123920	0.411890
C2331	C233	0.916660	0.076270	0.798610
C2341	C234	0.092080	0.205010	0.304630
C2351	C235	0.559140	0.426050	0.333070
C2361	C236	0.485850	0.712030	0.123920
C2371	C237	0.559140	0.133090	0.726070
C2381	C238	0.576270	0.416660	0.298610
C2391	C239	0.546290	0.131480	0.644910
C2401	C240	0.804630	0.712550	0.599620
C2411	C241	0.104820	0.777400	0.237660
C2421	C242	0.592980	0.366910	0.926050
C2431	C243	0.294990	0.407920	0.195370
C2441	C244	0.911890	0.273820	0.787970
C2451	C245	0.868520	0.855090	0.953710
C2461	C246	0.340390	0.923730	0.722340
C2471	C247	0.861930	0.588110	0.876080
C2481	C248	0.923730	0.222340	0.840390
C2491	C249	0.864700	0.300370	0.459110
C2501	C250	0.833070	0.559140	0.926050
C2511	C251	0.695370	0.400380	0.287450
C2521	C252	0.867160	0.762340	0.539740
C2531	C253	0.632840	0.172580	0.895180
C2541	C254	0.423730	0.583340	0.701390
C2551	C255	0.699630	0.040890	0.635300
C2561	C256	0.594410	0.135300	0.935670
C2571	C257	0.304630	0.705010	0.092080
C2581	C258	0.368520	0.953710	0.855090
C2591	C259	0.064330	0.699630	0.158740
C2601	C260	0.861930	0.273820	0.485850
C2611	C261	0.881950	0.083340	0.659610
C2621	C262	0.099620	0.804630	0.212550
C2631	C263	0.666930	0.073950	0.440860
C2641	C264	0.887070	0.099620	0.794990
C2651	C265	0.361930	0.876080	0.588110
C2661	C266	0.588110	0.376080	0.361930
C2671	C267	0.407920	0.695370	0.794990
C2681	C268	0.226180	0.638070	0.014150
C2691	C269	0.604820	0.237660	0.777400
C2701	C270	0.787450	0.695370	0.900380
C2711	C271	0.960260	0.132840	0.737660
C2721	C272	0.059140	0.726070	0.133090
C2731	C273	0.868520	0.013430	0.414810
C2741	C274	0.237660	0.277400	0.104820
C2751	C275	0.076270	0.298610	0.416660
C2761	C276	0.212550	0.304630	0.099620
C2771	C277	0.205010	0.400380	0.112930
C2781	C278	0.599620	0.212550	0.804630
C2791	C279	0.866910	0.773930	0.940860
C2801	C280	0.453710	0.585190	0.598620
C2811	C281	0.304630	0.599620	0.712550
C2821	C282	0.907020	0.073950	0.633090
C2831	C283	0.907920	0.112930	0.712550
C2841	C284	0.414810	0.901380	0.046290
C2851	C285	0.986570	0.085190	0.631480
C2861	C286	0.840390	0.118050	0.416660
C2871	C287	0.098620	0.453710	0.085190
C2881	C288	0.959110	0.864700	0.800370
C2891	C289	0.598620	0.513430	0.644910
C2901	C290	0.794990	0.195370	0.407920
C2911	C291	0.705010	0.592080	0.804630
C2921	C292	0.376080	0.514150	0.787970
C2931	C293	0.138070	0.411890	0.123920
C2941	C294	0.287450	0.900380	0.695370
C2951	C295	0.701390	0.618050	0.777660
C2961	C296	0.440860	0.866910	0.273930
C2971	C297	0.895180	0.222600	0.762340
C2981	C298	0.540890	0.199630	0.135300
C2991	C299	0.960260	0.827420	0.722600
C3001	C300	0.222600	0.262340	0.395180
C3011	C301	0.644910	0.631480	0.546290
C3021	C302	0.737660	0.632840	0.960260
C3031	C303	0.395180	0.632840	0.672580
C3041	C304	0.104820	0.327420	0.367160
C3051	C305	0.046290	0.644910	0.131480
C3061	C306	0.722340	0.298610	0.881950
C3071	C307	0.333070	0.407020	0.273930
C3081	C308	0.237660	0.960260	0.632840
C3091	C309	0.833070	0.273930	0.407020
C3101	C310	0.459110	0.800370	0.864700
C3111	C311	0.901380	0.355090	0.486570
C3121	C312	0.900380	0.195370	0.787450
C3131	C313	0.658740	0.594410	0.959110
C3141	C314	0.040890	0.135300	0.199630
C3151	C315	0.699630	0.658740	0.564330
C3161	C316	0.712550	0.099620	0.304630
C3171	C317	0.340390	0.416660	0.118050
C3181	C318	0.540890	0.341260	0.905590
C3191	C319	0.212550	0.907920	0.612930
C3201	C320	0.426050	0.833070	0.059140
C3211	C321	0.401380	0.486570	0.355090
C3221	C322	0.486570	0.855090	0.901380
C3231	C323	0.618050	0.340390	0.916660
C3241	C324	0.612930	0.407920	0.212550
C3251	C325	0.361930	0.485850	0.273820
C3261	C326	0.195370	0.287450	0.400380
C3271	C327	0.539740	0.277400	0.172580
C3281	C328	0.112930	0.212550	0.407920
C3291	C329	0.787970	0.773820	0.911890
C3301	C330	0.366910	0.940860	0.773930
C3311	C331	0.201390	0.423730	0.083340
C3321	C332	0.722600	0.395180	0.262340
C3331	C333	0.926050	0.059140	0.833070
C3341	C334	0.144910	0.598620	0.013430
C3351	C335	0.905590	0.841260	0.540890
C3361	C336	0.092080	0.887070	0.287450
N11	N1	0.035230	0.082450	0.118400
N21	N2	0.074630	0.003860	0.553910
N31	N3	0.077620	0.615550	0.463030
N41	N4	0.521760	0.406030	0.452730
N51	N5	0.479280	0.925370	0.429230
N61	N6	0.881600	0.417550	0.964770
N71	N7	0.569030	0.953300	0.547270
N81	N8	0.583170	0.035950	0.118400
N91	N9	0.422380	0.885410	0.537930
N101	N10	0.615730	0.021760	0.069030
N111	N11	0.547220	0.082450	0.964050
N121	N12	0.115550	0.577620	0.963030
N131	N13	0.446090	0.949950	0.020720
N141	N14	0.416830	0.452780	0.035230
N151	N15	0.537930	0.385410	0.422380
N161	N16	0.118400	0.582450	0.035230
N171	N17	0.930970	0.478240	0.384270
N181	N18	0.952780	0.916830	0.535230
N191	N19	0.047220	0.083170	0.464770
N201	N20	0.884270	0.953300	0.406030
N211	N21	0.496140	0.070770	0.050050
N221	N22	0.152520	0.115550	0.037930
N231	N23	0.115550	0.537930	0.652520
N241	N24	0.449950	0.946090	0.520720
N251	N25	0.906030	0.021760	0.952730
N261	N26	0.093970	0.115730	0.546700
N271	N27	0.884450	0.422380	0.036970
N281	N28	0.614590	0.077620	0.962070
N291	N29	0.037930	0.422380	0.385410
N301	N30	0.083170	0.964770	0.547220
N311	N31	0.077620	0.462070	0.114590
N321	N32	0.550050	0.053910	0.479280
N331	N33	0.449950	0.503860	0.429230
N341	N34	0.553910	0.503860	0.074630
N351	N35	0.884270	0.930970	0.978240
N361	N36	0.537930	0.152520	0.615550
N371	N37	0.535950	0.452780	0.417550
N381	N38	0.520720	0.446090	0.449950
N391	N39	0.021760	0.569030	0.115730
N401	N40	0.083170	0.118400	0.035950
N411	N41	0.385410	0.463030	0.847480
N421	N42	0.978240	0.430970	0.884270
N431	N43	0.964050	0.582450	0.547220
N441	N44	0.582450	0.535230	0.618400
N451	N45	0.520720	0.074630	0.570770
N461	N46	0.535230	0.118400	0.082450
N471	N47	0.885410	0.037930	0.922380
N481	N48	0.925370	0.996140	0.446090
N491	N49	0.446090	0.496140	0.925370
N501	N50	0.021760	0.452730	0.406030
N511	N51	0.881600	0.464050	0.416830
N521	N52	0.452780	0.535230	0.916830
N531	N53	0.535950	0.083170	0.618400
N541	N54	0.952780	0.035950	0.917550
N551	N55	0.847480	0.884450	0.962070
N561	N56	0.963030	0.077620	0.115550
N571	N57	0.503860	0.574630	0.053910
N581	N58	0.953300	0.047270	0.069030
N591	N59	0.929230	0.479280	0.425370
N601	N60	0.593970	0.047270	0.978240
N611	N61	0.082450	0.618400	0.535230
N621	N62	0.536970	0.884450	0.922380
N631	N63	0.953300	0.906030	0.384270
N641	N64	0.046700	0.093970	0.615730
N651	N65	0.429230	0.425370	0.479280
N661	N66	0.384270	0.406030	0.953300
N671	N67	0.115730	0.046700	0.593970
N681	N68	0.452730	0.546700	0.430970
N691	N69	0.952730	0.430970	0.546700
N701	N70	0.053910	0.074630	0.503860
N711	N71	0.003860	0.053910	0.574630
N721	N72	0.381600	0.964770	0.417550
N731	N73	0.615730	0.593970	0.046700
N741	N74	0.036970	0.922380	0.884450
N751	N75	0.115730	0.069030	0.021760
N761	N76	0.925370	0.929230	0.979280
N771	N77	0.570770	0.574630	0.520720
N781	N78	0.916830	0.035230	0.452780
N791	N79	0.569030	0.615730	0.521760
N801	N80	0.152520	0.036970	0.614590
N811	N81	0.546700	0.930970	0.952730
N821	N82	0.652520	0.037930	0.115550
N831	N83	0.930970	0.452730	0.046700
N841	N84	0.917550	0.381600	0.464770
N851	N85	0.917550	0.535950	0.952780
N861	N86	0.979280	0.429230	0.925370
N871	N87	0.453300	0.069030	0.047270
N881	N88	0.464770	0.881600	0.917550
N891	N89	0.922380	0.537930	0.885410
N901	N90	0.536970	0.652520	0.114590
N911	N91	0.996140	0.050050	0.070770
N921	N92	0.422380	0.536970	0.384450
N931	N93	0.406030	0.952730	0.021760
N941	N94	0.053910	0.979280	0.050050
N951	N95	0.996140	0.946090	0.425370
N961	N96	0.462070	0.614590	0.577620
N971	N97	0.047270	0.569030	0.453300
N981	N98	0.429230	0.003860	0.449950
N991	N99	0.047270	0.478240	0.093970
N1001	N100	0.535230	0.416830	0.952780
N1011	N101	0.577620	0.463030	0.615550
N1021	N102	0.906030	0.884270	0.453300
N1031	N103	0.922380	0.384450	0.536970
N1041	N104	0.521760	0.115730	0.569030
N1051	N105	0.546700	0.615730	0.093970
N1061	N106	0.050050	0.479280	0.053910
N1071	N107	0.037930	0.615550	0.152520
N1081	N108	0.615550	0.652520	0.537930
N1091	N109	0.978240	0.547270	0.593970
N1101	N110	0.082450	0.464050	0.047220
N1111	N111	0.496140	0.425370	0.946090
N1121	N112	0.430970	0.384270	0.478240
N1131	N113	0.118400	0.535950	0.583170
N1141	N114	0.574630	0.553910	0.003860
N1151	N115	0.963030	0.885410	0.347480
N1161	N116	0.884450	0.462070	0.347480
N1171	N117	0.952730	0.521760	0.906030
N1181	N118	0.962070	0.384450	0.847480
N1191	N119	0.964050	0.381600	0.916830
N1201	N120	0.003860	0.949950	0.929230
N1211	N121	0.347480	0.962070	0.884450
N1221	N122	0.547220	0.464770	0.083170
N1231	N123	0.478240	0.884270	0.430970
N1241	N124	0.847480	0.963030	0.385410
N1251	N125	0.381600	0.416830	0.464050
N1261	N126	0.114590	0.152520	0.536970
N1271	N127	0.479280	0.553910	0.550050
N1281	N128	0.962070	0.577620	0.614590
N1291	N129	0.946090	0.925370	0.496140
N1301	N130	0.035950	0.417550	0.452780
N1311	N131	0.618400	0.035230	0.582450
N1321	N132	0.885410	0.847480	0.463030
N1331	N133	0.929230	0.449950	0.003860
N1341	N134	0.916830	0.881600	0.964050
N1351	N135	0.582450	0.047220	0.464050
N1361	N136	0.946090	0.020720	0.949950
N1371	N137	0.964770	0.047220	0.583170
N1381	N138	0.035950	0.618400	0.083170
N1391	N139	0.464770	0.583170	0.047220
N1401	N140	0.074630	0.070770	0.020720
N1411	N141	0.453300	0.384270	0.906030
N1421	N142	0.347480	0.385410	0.963030
N1431	N143	0.114590	0.962070	0.077620
N1441	N144	0.417550	0.464770	0.381600
N1451	N145	0.574630	0.020720	0.070770
N1461	N146	0.979280	0.550050	0.553910
N1471	N147	0.462070	0.847480	0.384450
N1481	N148	0.547270	0.453300	0.569030
N1491	N149	0.430970	0.046700	0.452730
N1501	N150	0.384450	0.347480	0.462070
N1511	N151	0.464050	0.916830	0.381600
N1521	N152	0.047220	0.964050	0.082450
N1531	N153	0.069030	0.547270	0.953300
N1541	N154	0.583170	0.547220	0.964770
N1551	N155	0.615550	0.963030	0.577620
N1561	N156	0.036970	0.114590	0.652520
N1571	N157	0.503860	0.929230	0.949950
N1581	N158	0.384270	0.978240	0.930970
N1591	N159	0.577620	0.114590	0.462070
N1601	N160	0.050050	0.570770	0.496140
N1611	N161	0.425370	0.446090	0.996140
N1621	N162	0.417550	0.952780	0.535950
N1631	N163	0.046700	0.952730	0.930970
N1641	N164	0.618400	0.583170	0.535950
N1651	N165	0.949950	0.520720	0.946090
N1661	N166	0.553910	0.050050	0.979280
N1671	N167	0.593970	0.546700	0.115730
N1681	N168	0.547270	0.093970	0.478240
N1691	N169	0.452730	0.906030	0.521760
N1701	N170	0.463030	0.115550	0.077620
N1711	N171	0.463030	0.347480	0.885410
N1721	N172	0.570770	0.996140	0.550050
N1731	N173	0.069030	0.521760	0.615730
N1741	N174	0.070770	0.550050	0.996140
N1751	N175	0.478240	0.593970	0.547270
N1761	N176	0.464050	0.547220	0.582450
N1771	N177	0.452780	0.917550	0.035950
N1781	N178	0.020720	0.570770	0.074630
N1791	N179	0.070770	0.520720	0.574630
N1801	N180	0.385410	0.922380	0.037930
N1811	N181	0.406030	0.453300	0.884270
N1821	N182	0.020720	0.449950	0.446090
N1831	N183	0.652520	0.614590	0.036970
N1841	N184	0.384450	0.036970	0.422380
N1851	N185	0.949950	0.429230	0.503860
N1861	N186	0.964770	0.917550	0.881600
N1871	N187	0.614590	0.536970	0.152520
N1881	N188	0.035230	0.952780	0.416830
N1891	N189	0.425370	0.979280	0.929230
N1901	N190	0.416830	0.964050	0.881600
N1911	N191	0.093970	0.978240	0.047270
N1921	N192	0.550050	0.496140	0.570770
