data_COCNEP_clean_PM
_symmetry_space_group_name_H-M	'P1'
_cell_length_a	36.190600
_cell_length_b	36.190600
_cell_length_c	36.190600
_cell_angle_alpha	90.000000
_cell_angle_beta	90.000000
_cell_angle_gamma	90.000000
_symmetry_Int_Tables_number 1

loop_
_symmetry_equiv_pos_as_xyz
'x,y,z'

loop_
_atom_site_label
_atom_site_type_symbol
_atom_site_fract_x
_atom_site_fract_y
_atom_site_fract_z
C11	C1	0.029600	0.486000	0.113200
C21	C2	0.052180	0.490050	0.145640
C31	C3	0.044040	0.469520	0.177100
H11	H1	0.023700	0.453000	0.177000
C41	C4	0.065700	0.473210	0.208560
H21	H2	0.060100	0.459200	0.230000
C51	C5	0.095530	0.497420	0.208630
C61	C6	0.103670	0.517950	0.177200
H31	H3	0.124000	0.534500	0.177300
C71	C7	0.082000	0.514260	0.145710
H41	H4	0.087600	0.528300	0.124200
N11	N1	0.985900	0.466700	0.077600
N21	N2	0.008100	0.489300	0.058500
N31	N3	0.035500	0.500600	0.079800
N41	N4	0.999300	0.465300	0.112800
C81	C8	0.529600	0.986000	0.613200
C91	C9	0.552180	0.990050	0.645640
C101	C10	0.544040	0.969520	0.677100
H51	H5	0.523700	0.953000	0.677000
C111	C11	0.565700	0.973210	0.708560
H61	H6	0.560100	0.959200	0.730000
C121	C12	0.595530	0.997420	0.708630
C131	C13	0.603670	0.017950	0.677200
H71	H7	0.624000	0.034500	0.677300
C141	C14	0.582000	0.014260	0.645710
H81	H8	0.587600	0.028300	0.624200
N51	N5	0.485900	0.966700	0.577600
N61	N6	0.508100	0.989300	0.558500
N71	N7	0.535500	0.000600	0.579800
N81	N8	0.499300	0.965300	0.612800
C151	C15	0.470400	0.514000	0.613200
C161	C16	0.447820	0.509950	0.645640
C171	C17	0.455960	0.530480	0.677100
H91	H9	0.476300	0.547000	0.677000
C181	C18	0.434300	0.526790	0.708560
H101	H10	0.439900	0.540800	0.730000
C191	C19	0.404470	0.502580	0.708630
C201	C20	0.396330	0.482050	0.677200
H111	H11	0.376000	0.465500	0.677300
C211	C21	0.418000	0.485740	0.645710
H121	H12	0.412400	0.471700	0.624200
N91	N9	0.514100	0.533300	0.577600
N101	N10	0.491900	0.510700	0.558500
N111	N11	0.464500	0.499400	0.579800
N121	N12	0.500700	0.534700	0.612800
C221	C22	0.970400	0.014000	0.113200
C231	C23	0.947820	0.009950	0.145640
C241	C24	0.955960	0.030480	0.177100
H131	H13	0.976300	0.047000	0.177000
C251	C25	0.934300	0.026790	0.208560
H141	H14	0.939900	0.040800	0.230000
C261	C26	0.904470	0.002580	0.208630
C271	C27	0.896330	0.982050	0.177200
H151	H15	0.876000	0.965500	0.177300
C281	C28	0.918000	0.985740	0.145710
H161	H16	0.912400	0.971700	0.124200
N131	N13	0.014100	0.033300	0.077600
N141	N14	0.991900	0.010700	0.058500
N151	N15	0.964500	0.999400	0.079800
N161	N16	0.000700	0.034700	0.112800
C291	C29	0.970400	0.986000	0.386800
C301	C30	0.947820	0.990050	0.354360
C311	C31	0.955960	0.969520	0.322900
H171	H17	0.976300	0.953000	0.323000
C321	C32	0.934300	0.973210	0.291440
H181	H18	0.939900	0.959200	0.270000
C331	C33	0.904470	0.997420	0.291370
C341	C34	0.896330	0.017950	0.322800
H191	H19	0.876000	0.034500	0.322700
C351	C35	0.918000	0.014260	0.354290
H201	H20	0.912400	0.028300	0.375800
N171	N17	0.014100	0.966700	0.422400
N181	N18	0.991900	0.989300	0.441500
N191	N19	0.964500	0.000600	0.420200
N201	N20	0.000700	0.965300	0.387200
C361	C36	0.470400	0.486000	0.886800
C371	C37	0.447820	0.490050	0.854360
C381	C38	0.455960	0.469520	0.822900
H211	H21	0.476300	0.453000	0.823000
C391	C39	0.434300	0.473210	0.791440
H221	H22	0.439900	0.459200	0.770000
C401	C40	0.404470	0.497420	0.791370
C411	C41	0.396330	0.517950	0.822800
H231	H23	0.376000	0.534500	0.822700
C421	C42	0.418000	0.514260	0.854290
H241	H24	0.412400	0.528300	0.875800
N211	N21	0.514100	0.466700	0.922400
N221	N22	0.491900	0.489300	0.941500
N231	N23	0.464500	0.500600	0.920200
N241	N24	0.500700	0.465300	0.887200
C431	C43	0.529600	0.014000	0.886800
C441	C44	0.552180	0.009950	0.854360
C451	C45	0.544040	0.030480	0.822900
H251	H25	0.523700	0.047000	0.823000
C461	C46	0.565700	0.026790	0.791440
H261	H26	0.560100	0.040800	0.770000
C471	C47	0.595530	0.002580	0.791370
C481	C48	0.603670	0.982050	0.822800
H271	H27	0.624000	0.965500	0.822700
C491	C49	0.582000	0.985740	0.854290
H281	H28	0.587600	0.971700	0.875800
N251	N25	0.485900	0.033300	0.922400
N261	N26	0.508100	0.010700	0.941500
N271	N27	0.535500	0.999400	0.920200
N281	N28	0.499300	0.034700	0.887200
C501	C50	0.029600	0.514000	0.386800
C511	C51	0.052180	0.509950	0.354360
C521	C52	0.044040	0.530480	0.322900
H291	H29	0.023700	0.547000	0.323000
C531	C53	0.065700	0.526790	0.291440
H301	H30	0.060100	0.540800	0.270000
C541	C54	0.095530	0.502580	0.291370
C551	C55	0.103670	0.482050	0.322800
H311	H31	0.124000	0.465500	0.322700
C561	C56	0.082000	0.485740	0.354290
H321	H32	0.087600	0.471700	0.375800
N291	N29	0.985900	0.533300	0.422400
N301	N30	0.008100	0.510700	0.441500
N311	N31	0.035500	0.499400	0.420200
N321	N32	0.999300	0.534700	0.387200
C571	C57	0.113200	0.029600	0.486000
C581	C58	0.145640	0.052180	0.490050
C591	C59	0.177100	0.044040	0.469520
H331	H33	0.177000	0.023700	0.453000
C601	C60	0.208560	0.065700	0.473210
H341	H34	0.230000	0.060100	0.459200
C611	C61	0.208630	0.095530	0.497420
C621	C62	0.177200	0.103670	0.517950
H351	H35	0.177300	0.124000	0.534500
C631	C63	0.145710	0.082000	0.514260
H361	H36	0.124200	0.087600	0.528300
N331	N33	0.077600	0.985900	0.466700
N341	N34	0.058500	0.008100	0.489300
N351	N35	0.079800	0.035500	0.500600
N361	N36	0.112800	0.999300	0.465300
C641	C64	0.613200	0.529600	0.986000
C651	C65	0.645640	0.552180	0.990050
C661	C66	0.677100	0.544040	0.969520
H371	H37	0.677000	0.523700	0.953000
C671	C67	0.708560	0.565700	0.973210
H381	H38	0.730000	0.560100	0.959200
C681	C68	0.708630	0.595530	0.997420
C691	C69	0.677200	0.603670	0.017950
H391	H39	0.677300	0.624000	0.034500
C701	C70	0.645710	0.582000	0.014260
H401	H40	0.624200	0.587600	0.028300
N371	N37	0.577600	0.485900	0.966700
N381	N38	0.558500	0.508100	0.989300
N391	N39	0.579800	0.535500	0.000600
N401	N40	0.612800	0.499300	0.965300
C711	C71	0.613200	0.470400	0.514000
C721	C72	0.645640	0.447820	0.509950
C731	C73	0.677100	0.455960	0.530480
H411	H41	0.677000	0.476300	0.547000
C741	C74	0.708560	0.434300	0.526790
H421	H42	0.730000	0.439900	0.540800
C751	C75	0.708630	0.404470	0.502580
C761	C76	0.677200	0.396330	0.482050
H431	H43	0.677300	0.376000	0.465500
C771	C77	0.645710	0.418000	0.485740
H441	H44	0.624200	0.412400	0.471700
N411	N41	0.577600	0.514100	0.533300
N421	N42	0.558500	0.491900	0.510700
N431	N43	0.579800	0.464500	0.499400
N441	N44	0.612800	0.500700	0.534700
C781	C78	0.113200	0.970400	0.014000
C791	C79	0.145640	0.947820	0.009950
C801	C80	0.177100	0.955960	0.030480
H451	H45	0.177000	0.976300	0.047000
C811	C81	0.208560	0.934300	0.026790
H461	H46	0.230000	0.939900	0.040800
C821	C82	0.208630	0.904470	0.002580
C831	C83	0.177200	0.896330	0.982050
H471	H47	0.177300	0.876000	0.965500
C841	C84	0.145710	0.918000	0.985740
H481	H48	0.124200	0.912400	0.971700
N451	N45	0.077600	0.014100	0.033300
N461	N46	0.058500	0.991900	0.010700
N471	N47	0.079800	0.964500	0.999400
N481	N48	0.112800	0.000700	0.034700
C851	C85	0.386800	0.970400	0.986000
C861	C86	0.354360	0.947820	0.990050
C871	C87	0.322900	0.955960	0.969520
H491	H49	0.323000	0.976300	0.953000
C881	C88	0.291440	0.934300	0.973210
H501	H50	0.270000	0.939900	0.959200
C891	C89	0.291370	0.904470	0.997420
C901	C90	0.322800	0.896330	0.017950
H511	H51	0.322700	0.876000	0.034500
C911	C91	0.354290	0.918000	0.014260
H521	H52	0.375800	0.912400	0.028300
N491	N49	0.422400	0.014100	0.966700
N501	N50	0.441500	0.991900	0.989300
N511	N51	0.420200	0.964500	0.000600
N521	N52	0.387200	0.000700	0.965300
C921	C92	0.886800	0.470400	0.486000
C931	C93	0.854360	0.447820	0.490050
C941	C94	0.822900	0.455960	0.469520
H531	H53	0.823000	0.476300	0.453000
C951	C95	0.791440	0.434300	0.473210
H541	H54	0.770000	0.439900	0.459200
C961	C96	0.791370	0.404470	0.497420
C971	C97	0.822800	0.396330	0.517950
H551	H55	0.822700	0.376000	0.534500
C981	C98	0.854290	0.418000	0.514260
H561	H56	0.875800	0.412400	0.528300
N531	N53	0.922400	0.514100	0.466700
N541	N54	0.941500	0.491900	0.489300
N551	N55	0.920200	0.464500	0.500600
N561	N56	0.887200	0.500700	0.465300
C991	C99	0.886800	0.529600	0.014000
C1001	C100	0.854360	0.552180	0.009950
C1011	C101	0.822900	0.544040	0.030480
H571	H57	0.823000	0.523700	0.047000
C1021	C102	0.791440	0.565700	0.026790
H581	H58	0.770000	0.560100	0.040800
C1031	C103	0.791370	0.595530	0.002580
C1041	C104	0.822800	0.603670	0.982050
H591	H59	0.822700	0.624000	0.965500
C1051	C105	0.854290	0.582000	0.985740
H601	H60	0.875800	0.587600	0.971700
N571	N57	0.922400	0.485900	0.033300
N581	N58	0.941500	0.508100	0.010700
N591	N59	0.920200	0.535500	0.999400
N601	N60	0.887200	0.499300	0.034700
C1061	C106	0.386800	0.029600	0.514000
C1071	C107	0.354360	0.052180	0.509950
C1081	C108	0.322900	0.044040	0.530480
H611	H61	0.323000	0.023700	0.547000
C1091	C109	0.291440	0.065700	0.526790
H621	H62	0.270000	0.060100	0.540800
C1101	C110	0.291370	0.095530	0.502580
C1111	C111	0.322800	0.103670	0.482050
H631	H63	0.322700	0.124000	0.465500
C1121	C112	0.354290	0.082000	0.485740
H641	H64	0.375800	0.087600	0.471700
N611	N61	0.422400	0.985900	0.533300
N621	N62	0.441500	0.008100	0.510700
N631	N63	0.420200	0.035500	0.499400
N641	N64	0.387200	0.999300	0.534700
C1131	C113	0.486000	0.113200	0.029600
C1141	C114	0.490050	0.145640	0.052180
C1151	C115	0.469520	0.177100	0.044040
H651	H65	0.453000	0.177000	0.023700
C1161	C116	0.473210	0.208560	0.065700
H661	H66	0.459200	0.230000	0.060100
C1171	C117	0.497420	0.208630	0.095530
C1181	C118	0.517950	0.177200	0.103670
H671	H67	0.534500	0.177300	0.124000
C1191	C119	0.514260	0.145710	0.082000
H681	H68	0.528300	0.124200	0.087600
N651	N65	0.466700	0.077600	0.985900
N661	N66	0.489300	0.058500	0.008100
N671	N67	0.500600	0.079800	0.035500
N681	N68	0.465300	0.112800	0.999300
C1201	C120	0.986000	0.613200	0.529600
C1211	C121	0.990050	0.645640	0.552180
C1221	C122	0.969520	0.677100	0.544040
H691	H69	0.953000	0.677000	0.523700
C1231	C123	0.973210	0.708560	0.565700
H701	H70	0.959200	0.730000	0.560100
C1241	C124	0.997420	0.708630	0.595530
C1251	C125	0.017950	0.677200	0.603670
H711	H71	0.034500	0.677300	0.624000
C1261	C126	0.014260	0.645710	0.582000
H721	H72	0.028300	0.624200	0.587600
N691	N69	0.966700	0.577600	0.485900
N701	N70	0.989300	0.558500	0.508100
N711	N71	0.000600	0.579800	0.535500
N721	N72	0.965300	0.612800	0.499300
C1271	C127	0.514000	0.613200	0.470400
C1281	C128	0.509950	0.645640	0.447820
C1291	C129	0.530480	0.677100	0.455960
H731	H73	0.547000	0.677000	0.476300
C1301	C130	0.526790	0.708560	0.434300
H741	H74	0.540800	0.730000	0.439900
C1311	C131	0.502580	0.708630	0.404470
C1321	C132	0.482050	0.677200	0.396330
H751	H75	0.465500	0.677300	0.376000
C1331	C133	0.485740	0.645710	0.418000
H761	H76	0.471700	0.624200	0.412400
N731	N73	0.533300	0.577600	0.514100
N741	N74	0.510700	0.558500	0.491900
N751	N75	0.499400	0.579800	0.464500
N761	N76	0.534700	0.612800	0.500700
C1341	C134	0.014000	0.113200	0.970400
C1351	C135	0.009950	0.145640	0.947820
C1361	C136	0.030480	0.177100	0.955960
H771	H77	0.047000	0.177000	0.976300
C1371	C137	0.026790	0.208560	0.934300
H781	H78	0.040800	0.230000	0.939900
C1381	C138	0.002580	0.208630	0.904470
C1391	C139	0.982050	0.177200	0.896330
H791	H79	0.965500	0.177300	0.876000
C1401	C140	0.985740	0.145710	0.918000
H801	H80	0.971700	0.124200	0.912400
N771	N77	0.033300	0.077600	0.014100
N781	N78	0.010700	0.058500	0.991900
N791	N79	0.999400	0.079800	0.964500
N801	N80	0.034700	0.112800	0.000700
C1411	C141	0.986000	0.386800	0.970400
C1421	C142	0.990050	0.354360	0.947820
C1431	C143	0.969520	0.322900	0.955960
H811	H81	0.953000	0.323000	0.976300
C1441	C144	0.973210	0.291440	0.934300
H821	H82	0.959200	0.270000	0.939900
C1451	C145	0.997420	0.291370	0.904470
C1461	C146	0.017950	0.322800	0.896330
H831	H83	0.034500	0.322700	0.876000
C1471	C147	0.014260	0.354290	0.918000
H841	H84	0.028300	0.375800	0.912400
N811	N81	0.966700	0.422400	0.014100
N821	N82	0.989300	0.441500	0.991900
N831	N83	0.000600	0.420200	0.964500
N841	N84	0.965300	0.387200	0.000700
C1481	C148	0.486000	0.886800	0.470400
C1491	C149	0.490050	0.854360	0.447820
C1501	C150	0.469520	0.822900	0.455960
H851	H85	0.453000	0.823000	0.476300
C1511	C151	0.473210	0.791440	0.434300
H861	H86	0.459200	0.770000	0.439900
C1521	C152	0.497420	0.791370	0.404470
C1531	C153	0.517950	0.822800	0.396330
H871	H87	0.534500	0.822700	0.376000
C1541	C154	0.514260	0.854290	0.418000
H881	H88	0.528300	0.875800	0.412400
N851	N85	0.466700	0.922400	0.514100
N861	N86	0.489300	0.941500	0.491900
N871	N87	0.500600	0.920200	0.464500
N881	N88	0.465300	0.887200	0.500700
C1551	C155	0.014000	0.886800	0.529600
C1561	C156	0.009950	0.854360	0.552180
C1571	C157	0.030480	0.822900	0.544040
H891	H89	0.047000	0.823000	0.523700
C1581	C158	0.026790	0.791440	0.565700
H901	H90	0.040800	0.770000	0.560100
C1591	C159	0.002580	0.791370	0.595530
C1601	C160	0.982050	0.822800	0.603670
H911	H91	0.965500	0.822700	0.624000
C1611	C161	0.985740	0.854290	0.582000
H921	H92	0.971700	0.875800	0.587600
N891	N89	0.033300	0.922400	0.485900
N901	N90	0.010700	0.941500	0.508100
N911	N91	0.999400	0.920200	0.535500
N921	N92	0.034700	0.887200	0.499300
C1621	C162	0.514000	0.386800	0.029600
C1631	C163	0.509950	0.354360	0.052180
C1641	C164	0.530480	0.322900	0.044040
H931	H93	0.547000	0.323000	0.023700
C1651	C165	0.526790	0.291440	0.065700
H941	H94	0.540800	0.270000	0.060100
C1661	C166	0.502580	0.291370	0.095530
C1671	C167	0.482050	0.322800	0.103670
H951	H95	0.465500	0.322700	0.124000
C1681	C168	0.485740	0.354290	0.082000
H961	H96	0.471700	0.375800	0.087600
N931	N93	0.533300	0.422400	0.985900
N941	N94	0.510700	0.441500	0.008100
N951	N95	0.499400	0.420200	0.035500
N961	N96	0.534700	0.387200	0.999300
C1691	C169	0.236000	0.279600	0.136800
C1701	C170	0.240050	0.302180	0.104360
C1711	C171	0.219520	0.294040	0.072900
H971	H97	0.203000	0.273700	0.073000
C1721	C172	0.223210	0.315700	0.041440
H981	H98	0.209200	0.310100	0.020000
C1731	C173	0.247420	0.345530	0.041370
C1741	C174	0.267950	0.353670	0.072800
H991	H99	0.284500	0.374000	0.072700
C1751	C175	0.264260	0.332000	0.104290
H1001	H100	0.278300	0.337600	0.125800
N971	N97	0.216700	0.235900	0.172400
N981	N98	0.239300	0.258100	0.191500
N991	N99	0.250600	0.285500	0.170200
N1001	N100	0.215300	0.249300	0.137200
C1761	C176	0.736000	0.779600	0.636800
C1771	C177	0.740050	0.802180	0.604360
C1781	C178	0.719520	0.794040	0.572900
H1011	H101	0.703000	0.773700	0.573000
C1791	C179	0.723210	0.815700	0.541440
H1021	H102	0.709200	0.810100	0.520000
C1801	C180	0.747420	0.845530	0.541370
C1811	C181	0.767950	0.853670	0.572800
H1031	H103	0.784500	0.874000	0.572700
C1821	C182	0.764260	0.832000	0.604290
H1041	H104	0.778300	0.837600	0.625800
N1011	N101	0.716700	0.735900	0.672400
N1021	N102	0.739300	0.758100	0.691500
N1031	N103	0.750600	0.785500	0.670200
N1041	N104	0.715300	0.749300	0.637200
C1831	C183	0.264000	0.720400	0.636800
C1841	C184	0.259950	0.697820	0.604360
C1851	C185	0.280480	0.705960	0.572900
H1051	H105	0.297000	0.726300	0.573000
C1861	C186	0.276790	0.684300	0.541440
H1061	H106	0.290800	0.689900	0.520000
C1871	C187	0.252580	0.654470	0.541370
C1881	C188	0.232050	0.646330	0.572800
H1071	H107	0.215500	0.626000	0.572700
C1891	C189	0.235740	0.668000	0.604290
H1081	H108	0.221700	0.662400	0.625800
N1051	N105	0.283300	0.764100	0.672400
N1061	N106	0.260700	0.741900	0.691500
N1071	N107	0.249400	0.714500	0.670200
N1081	N108	0.284700	0.750700	0.637200
C1901	C190	0.764000	0.220400	0.136800
C1911	C191	0.759950	0.197820	0.104360
C1921	C192	0.780480	0.205960	0.072900
H1091	H109	0.797000	0.226300	0.073000
C1931	C193	0.776790	0.184300	0.041440
H1101	H110	0.790800	0.189900	0.020000
C1941	C194	0.752580	0.154470	0.041370
C1951	C195	0.732050	0.146330	0.072800
H1111	H111	0.715500	0.126000	0.072700
C1961	C196	0.735740	0.168000	0.104290
H1121	H112	0.721700	0.162400	0.125800
N1091	N109	0.783300	0.264100	0.172400
N1101	N110	0.760700	0.241900	0.191500
N1111	N111	0.749400	0.214500	0.170200
N1121	N112	0.784700	0.250700	0.137200
C1971	C197	0.736000	0.220400	0.863200
C1981	C198	0.740050	0.197820	0.895640
C1991	C199	0.719520	0.205960	0.927100
H1131	H113	0.703000	0.226300	0.927000
C2001	C200	0.723210	0.184300	0.958560
H1141	H114	0.709200	0.189900	0.980000
C2011	C201	0.747420	0.154470	0.958630
C2021	C202	0.767950	0.146330	0.927200
H1151	H115	0.784500	0.126000	0.927300
C2031	C203	0.764260	0.168000	0.895710
H1161	H116	0.778300	0.162400	0.874200
N1131	N113	0.716700	0.264100	0.827600
N1141	N114	0.739300	0.241900	0.808500
N1151	N115	0.750600	0.214500	0.829800
N1161	N116	0.715300	0.250700	0.862800
C2041	C204	0.236000	0.720400	0.363200
C2051	C205	0.240050	0.697820	0.395640
C2061	C206	0.219520	0.705960	0.427100
H1171	H117	0.203000	0.726300	0.427000
C2071	C207	0.223210	0.684300	0.458560
H1181	H118	0.209200	0.689900	0.480000
C2081	C208	0.247420	0.654470	0.458630
C2091	C209	0.267950	0.646330	0.427200
H1191	H119	0.284500	0.626000	0.427300
C2101	C210	0.264260	0.668000	0.395710
H1201	H120	0.278300	0.662400	0.374200
N1171	N117	0.216700	0.764100	0.327600
N1181	N118	0.239300	0.741900	0.308500
N1191	N119	0.250600	0.714500	0.329800
N1201	N120	0.215300	0.750700	0.362800
C2111	C211	0.764000	0.779600	0.363200
C2121	C212	0.759950	0.802180	0.395640
C2131	C213	0.780480	0.794040	0.427100
H1211	H121	0.797000	0.773700	0.427000
C2141	C214	0.776790	0.815700	0.458560
H1221	H122	0.790800	0.810100	0.480000
C2151	C215	0.752580	0.845530	0.458630
C2161	C216	0.732050	0.853670	0.427200
H1231	H123	0.715500	0.874000	0.427300
C2171	C217	0.735740	0.832000	0.395710
H1241	H124	0.721700	0.837600	0.374200
N1211	N121	0.783300	0.735900	0.327600
N1221	N122	0.760700	0.758100	0.308500
N1231	N123	0.749400	0.785500	0.329800
N1241	N124	0.784700	0.749300	0.362800
C2181	C218	0.264000	0.279600	0.863200
C2191	C219	0.259950	0.302180	0.895640
C2201	C220	0.280480	0.294040	0.927100
H1251	H125	0.297000	0.273700	0.927000
C2211	C221	0.276790	0.315700	0.958560
H1261	H126	0.290800	0.310100	0.980000
C2221	C222	0.252580	0.345530	0.958630
C2231	C223	0.232050	0.353670	0.927200
H1271	H127	0.215500	0.374000	0.927300
C2241	C224	0.235740	0.332000	0.895710
H1281	H128	0.221700	0.337600	0.874200
N1251	N125	0.283300	0.235900	0.827600
N1261	N126	0.260700	0.258100	0.808500
N1271	N127	0.249400	0.285500	0.829800
N1281	N128	0.284700	0.249300	0.862800
C2251	C225	0.779600	0.363200	0.764000
C2261	C226	0.802180	0.395640	0.759950
C2271	C227	0.794040	0.427100	0.780480
H1291	H129	0.773700	0.427000	0.797000
C2281	C228	0.815700	0.458560	0.776790
H1301	H130	0.810100	0.480000	0.790800
C2291	C229	0.845530	0.458630	0.752580
C2301	C230	0.853670	0.427200	0.732050
H1311	H131	0.874000	0.427300	0.715500
C2311	C231	0.832000	0.395710	0.735740
H1321	H132	0.837600	0.374200	0.721700
N1291	N129	0.735900	0.327600	0.783300
N1301	N130	0.758100	0.308500	0.760700
N1311	N131	0.785500	0.329800	0.749400
N1321	N132	0.749300	0.362800	0.784700
C2321	C232	0.279600	0.863200	0.264000
C2331	C233	0.302180	0.895640	0.259950
C2341	C234	0.294040	0.927100	0.280480
H1331	H133	0.273700	0.927000	0.297000
C2351	C235	0.315700	0.958560	0.276790
H1341	H134	0.310100	0.980000	0.290800
C2361	C236	0.345530	0.958630	0.252580
C2371	C237	0.353670	0.927200	0.232050
H1351	H135	0.374000	0.927300	0.215500
C2381	C238	0.332000	0.895710	0.235740
H1361	H136	0.337600	0.874200	0.221700
N1331	N133	0.235900	0.827600	0.283300
N1341	N134	0.258100	0.808500	0.260700
N1351	N135	0.285500	0.829800	0.249400
N1361	N136	0.249300	0.862800	0.284700
C2391	C239	0.220400	0.863200	0.736000
C2401	C240	0.197820	0.895640	0.740050
C2411	C241	0.205960	0.927100	0.719520
H1371	H137	0.226300	0.927000	0.703000
C2421	C242	0.184300	0.958560	0.723210
H1381	H138	0.189900	0.980000	0.709200
C2431	C243	0.154470	0.958630	0.747420
C2441	C244	0.146330	0.927200	0.767950
H1391	H139	0.126000	0.927300	0.784500
C2451	C245	0.168000	0.895710	0.764260
H1401	H140	0.162400	0.874200	0.778300
N1371	N137	0.264100	0.827600	0.716700
N1381	N138	0.241900	0.808500	0.739300
N1391	N139	0.214500	0.829800	0.750600
N1401	N140	0.250700	0.862800	0.715300
C2461	C246	0.720400	0.363200	0.236000
C2471	C247	0.697820	0.395640	0.240050
C2481	C248	0.705960	0.427100	0.219520
H1411	H141	0.726300	0.427000	0.203000
C2491	C249	0.684300	0.458560	0.223210
H1421	H142	0.689900	0.480000	0.209200
C2501	C250	0.654470	0.458630	0.247420
C2511	C251	0.646330	0.427200	0.267950
H1431	H143	0.626000	0.427300	0.284500
C2521	C252	0.668000	0.395710	0.264260
H1441	H144	0.662400	0.374200	0.278300
N1411	N141	0.764100	0.327600	0.216700
N1421	N142	0.741900	0.308500	0.239300
N1431	N143	0.714500	0.329800	0.250600
N1441	N144	0.750700	0.362800	0.215300
C2531	C253	0.720400	0.636800	0.264000
C2541	C254	0.697820	0.604360	0.259950
C2551	C255	0.705960	0.572900	0.280480
H1451	H145	0.726300	0.573000	0.297000
C2561	C256	0.684300	0.541440	0.276790
H1461	H146	0.689900	0.520000	0.290800
C2571	C257	0.654470	0.541370	0.252580
C2581	C258	0.646330	0.572800	0.232050
H1471	H147	0.626000	0.572700	0.215500
C2591	C259	0.668000	0.604290	0.235740
H1481	H148	0.662400	0.625800	0.221700
N1451	N145	0.764100	0.672400	0.283300
N1461	N146	0.741900	0.691500	0.260700
N1471	N147	0.714500	0.670200	0.249400
N1481	N148	0.750700	0.637200	0.284700
C2601	C260	0.220400	0.136800	0.764000
C2611	C261	0.197820	0.104360	0.759950
C2621	C262	0.205960	0.072900	0.780480
H1491	H149	0.226300	0.073000	0.797000
C2631	C263	0.184300	0.041440	0.776790
H1501	H150	0.189900	0.020000	0.790800
C2641	C264	0.154470	0.041370	0.752580
C2651	C265	0.146330	0.072800	0.732050
H1511	H151	0.126000	0.072700	0.715500
C2661	C266	0.168000	0.104290	0.735740
H1521	H152	0.162400	0.125800	0.721700
N1491	N149	0.264100	0.172400	0.783300
N1501	N150	0.241900	0.191500	0.760700
N1511	N151	0.214500	0.170200	0.749400
N1521	N152	0.250700	0.137200	0.784700
C2671	C267	0.279600	0.136800	0.236000
C2681	C268	0.302180	0.104360	0.240050
C2691	C269	0.294040	0.072900	0.219520
H1531	H153	0.273700	0.073000	0.203000
C2701	C270	0.315700	0.041440	0.223210
H1541	H154	0.310100	0.020000	0.209200
C2711	C271	0.345530	0.041370	0.247420
C2721	C272	0.353670	0.072800	0.267950
H1551	H155	0.374000	0.072700	0.284500
C2731	C273	0.332000	0.104290	0.264260
H1561	H156	0.337600	0.125800	0.278300
N1531	N153	0.235900	0.172400	0.216700
N1541	N154	0.258100	0.191500	0.239300
N1551	N155	0.285500	0.170200	0.250600
N1561	N156	0.249300	0.137200	0.215300
C2741	C274	0.779600	0.636800	0.736000
C2751	C275	0.802180	0.604360	0.740050
C2761	C276	0.794040	0.572900	0.719520
H1571	H157	0.773700	0.573000	0.703000
C2771	C277	0.815700	0.541440	0.723210
H1581	H158	0.810100	0.520000	0.709200
C2781	C278	0.845530	0.541370	0.747420
C2791	C279	0.853670	0.572800	0.767950
H1591	H159	0.874000	0.572700	0.784500
C2801	C280	0.832000	0.604290	0.764260
H1601	H160	0.837600	0.625800	0.778300
N1571	N157	0.735900	0.672400	0.716700
N1581	N158	0.758100	0.691500	0.739300
N1591	N159	0.785500	0.670200	0.750600
N1601	N160	0.749300	0.637200	0.715300
C2811	C281	0.863200	0.736000	0.220400
C2821	C282	0.895640	0.740050	0.197820
C2831	C283	0.927100	0.719520	0.205960
H1611	H161	0.927000	0.703000	0.226300
C2841	C284	0.958560	0.723210	0.184300
H1621	H162	0.980000	0.709200	0.189900
C2851	C285	0.958630	0.747420	0.154470
C2861	C286	0.927200	0.767950	0.146330
H1631	H163	0.927300	0.784500	0.126000
C2871	C287	0.895710	0.764260	0.168000
H1641	H164	0.874200	0.778300	0.162400
N1611	N161	0.827600	0.716700	0.264100
N1621	N162	0.808500	0.739300	0.241900
N1631	N163	0.829800	0.750600	0.214500
N1641	N164	0.862800	0.715300	0.250700
C2881	C288	0.363200	0.236000	0.720400
C2891	C289	0.395640	0.240050	0.697820
C2901	C290	0.427100	0.219520	0.705960
H1651	H165	0.427000	0.203000	0.726300
C2911	C291	0.458560	0.223210	0.684300
H1661	H166	0.480000	0.209200	0.689900
C2921	C292	0.458630	0.247420	0.654470
C2931	C293	0.427200	0.267950	0.646330
H1671	H167	0.427300	0.284500	0.626000
C2941	C294	0.395710	0.264260	0.668000
H1681	H168	0.374200	0.278300	0.662400
N1651	N165	0.327600	0.216700	0.764100
N1661	N166	0.308500	0.239300	0.741900
N1671	N167	0.329800	0.250600	0.714500
N1681	N168	0.362800	0.215300	0.750700
C2951	C295	0.363200	0.764000	0.779600
C2961	C296	0.395640	0.759950	0.802180
C2971	C297	0.427100	0.780480	0.794040
H1691	H169	0.427000	0.797000	0.773700
C2981	C298	0.458560	0.776790	0.815700
H1701	H170	0.480000	0.790800	0.810100
C2991	C299	0.458630	0.752580	0.845530
C3001	C300	0.427200	0.732050	0.853670
H1711	H171	0.427300	0.715500	0.874000
C3011	C301	0.395710	0.735740	0.832000
H1721	H172	0.374200	0.721700	0.837600
N1691	N169	0.327600	0.783300	0.735900
N1701	N170	0.308500	0.760700	0.758100
N1711	N171	0.329800	0.749400	0.785500
N1721	N172	0.362800	0.784700	0.749300
C3021	C302	0.863200	0.264000	0.279600
C3031	C303	0.895640	0.259950	0.302180
C3041	C304	0.927100	0.280480	0.294040
H1731	H173	0.927000	0.297000	0.273700
C3051	C305	0.958560	0.276790	0.315700
H1741	H174	0.980000	0.290800	0.310100
C3061	C306	0.958630	0.252580	0.345530
C3071	C307	0.927200	0.232050	0.353670
H1751	H175	0.927300	0.215500	0.374000
C3081	C308	0.895710	0.235740	0.332000
H1761	H176	0.874200	0.221700	0.337600
N1731	N173	0.827600	0.283300	0.235900
N1741	N174	0.808500	0.260700	0.258100
N1751	N175	0.829800	0.249400	0.285500
N1761	N176	0.862800	0.284700	0.249300
C3091	C309	0.136800	0.236000	0.279600
C3101	C310	0.104360	0.240050	0.302180
C3111	C311	0.072900	0.219520	0.294040
H1771	H177	0.073000	0.203000	0.273700
C3121	C312	0.041440	0.223210	0.315700
H1781	H178	0.020000	0.209200	0.310100
C3131	C313	0.041370	0.247420	0.345530
C3141	C314	0.072800	0.267950	0.353670
H1791	H179	0.072700	0.284500	0.374000
C3151	C315	0.104290	0.264260	0.332000
H1801	H180	0.125800	0.278300	0.337600
N1771	N177	0.172400	0.216700	0.235900
N1781	N178	0.191500	0.239300	0.258100
N1791	N179	0.170200	0.250600	0.285500
N1801	N180	0.137200	0.215300	0.249300
C3161	C316	0.636800	0.736000	0.779600
C3171	C317	0.604360	0.740050	0.802180
C3181	C318	0.572900	0.719520	0.794040
H1811	H181	0.573000	0.703000	0.773700
C3191	C319	0.541440	0.723210	0.815700
H1821	H182	0.520000	0.709200	0.810100
C3201	C320	0.541370	0.747420	0.845530
C3211	C321	0.572800	0.767950	0.853670
H1831	H183	0.572700	0.784500	0.874000
C3221	C322	0.604290	0.764260	0.832000
H1841	H184	0.625800	0.778300	0.837600
N1811	N181	0.672400	0.716700	0.735900
N1821	N182	0.691500	0.739300	0.758100
N1831	N183	0.670200	0.750600	0.785500
N1841	N184	0.637200	0.715300	0.749300
C3231	C323	0.636800	0.264000	0.720400
C3241	C324	0.604360	0.259950	0.697820
C3251	C325	0.572900	0.280480	0.705960
H1851	H185	0.573000	0.297000	0.726300
C3261	C326	0.541440	0.276790	0.684300
H1861	H186	0.520000	0.290800	0.689900
C3271	C327	0.541370	0.252580	0.654470
C3281	C328	0.572800	0.232050	0.646330
H1871	H187	0.572700	0.215500	0.626000
C3291	C329	0.604290	0.235740	0.668000
H1881	H188	0.625800	0.221700	0.662400
N1851	N185	0.672400	0.283300	0.764100
N1861	N186	0.691500	0.260700	0.741900
N1871	N187	0.670200	0.249400	0.714500
N1881	N188	0.637200	0.284700	0.750700
C3301	C330	0.136800	0.764000	0.220400
C3311	C331	0.104360	0.759950	0.197820
C3321	C332	0.072900	0.780480	0.205960
H1891	H189	0.073000	0.797000	0.226300
C3331	C333	0.041440	0.776790	0.184300
H1901	H190	0.020000	0.790800	0.189900
C3341	C334	0.041370	0.752580	0.154470
C3351	C335	0.072800	0.732050	0.146330
H1911	H191	0.072700	0.715500	0.126000
C3361	C336	0.104290	0.735740	0.168000
H1921	H192	0.125800	0.721700	0.162400
N1891	N189	0.172400	0.783300	0.264100
N1901	N190	0.191500	0.760700	0.241900
N1911	N191	0.170200	0.749400	0.214500
N1921	N192	0.137200	0.784700	0.250700
C3371	C337	0.970400	0.514000	0.886800
C3381	C338	0.947820	0.509950	0.854360
C3391	C339	0.955960	0.530480	0.822900
H1931	H193	0.976300	0.547000	0.823000
C3401	C340	0.934300	0.526790	0.791440
H1941	H194	0.939900	0.540800	0.770000
C3411	C341	0.904470	0.502580	0.791370
C3421	C342	0.896330	0.482050	0.822800
H1951	H195	0.876000	0.465500	0.822700
C3431	C343	0.918000	0.485740	0.854290
H1961	H196	0.912400	0.471700	0.875800
N1931	N193	0.014100	0.533300	0.922400
N1941	N194	0.991900	0.510700	0.941500
N1951	N195	0.964500	0.499400	0.920200
N1961	N196	0.000700	0.534700	0.887200
C3441	C344	0.470400	0.014000	0.386800
C3451	C345	0.447820	0.009950	0.354360
C3461	C346	0.455960	0.030480	0.322900
H1971	H197	0.476300	0.047000	0.323000
C3471	C347	0.434300	0.026790	0.291440
H1981	H198	0.439900	0.040800	0.270000
C3481	C348	0.404470	0.002580	0.291370
C3491	C349	0.396330	0.982050	0.322800
H1991	H199	0.376000	0.965500	0.322700
C3501	C350	0.418000	0.985740	0.354290
H2001	H200	0.412400	0.971700	0.375800
N1971	N197	0.514100	0.033300	0.422400
N1981	N198	0.491900	0.010700	0.441500
N1991	N199	0.464500	0.999400	0.420200
N2001	N200	0.500700	0.034700	0.387200
C3511	C351	0.529600	0.486000	0.386800
C3521	C352	0.552180	0.490050	0.354360
C3531	C353	0.544040	0.469520	0.322900
H2011	H201	0.523700	0.453000	0.323000
C3541	C354	0.565700	0.473210	0.291440
H2021	H202	0.560100	0.459200	0.270000
C3551	C355	0.595530	0.497420	0.291370
C3561	C356	0.603670	0.517950	0.322800
H2031	H203	0.624000	0.534500	0.322700
C3571	C357	0.582000	0.514260	0.354290
H2041	H204	0.587600	0.528300	0.375800
N2011	N201	0.485900	0.466700	0.422400
N2021	N202	0.508100	0.489300	0.441500
N2031	N203	0.535500	0.500600	0.420200
N2041	N204	0.499300	0.465300	0.387200
C3581	C358	0.029600	0.986000	0.886800
C3591	C359	0.052180	0.990050	0.854360
C3601	C360	0.044040	0.969520	0.822900
H2051	H205	0.023700	0.953000	0.823000
C3611	C361	0.065700	0.973210	0.791440
H2061	H206	0.060100	0.959200	0.770000
C3621	C362	0.095530	0.997420	0.791370
C3631	C363	0.103670	0.017950	0.822800
H2071	H207	0.124000	0.034500	0.822700
C3641	C364	0.082000	0.014260	0.854290
H2081	H208	0.087600	0.028300	0.875800
N2051	N205	0.985900	0.966700	0.922400
N2061	N206	0.008100	0.989300	0.941500
N2071	N207	0.035500	0.000600	0.920200
N2081	N208	0.999300	0.965300	0.887200
C3651	C365	0.029600	0.014000	0.613200
C3661	C366	0.052180	0.009950	0.645640
C3671	C367	0.044040	0.030480	0.677100
H2091	H209	0.023700	0.047000	0.677000
C3681	C368	0.065700	0.026790	0.708560
H2101	H210	0.060100	0.040800	0.730000
C3691	C369	0.095530	0.002580	0.708630
C3701	C370	0.103670	0.982050	0.677200
H2111	H211	0.124000	0.965500	0.677300
C3711	C371	0.082000	0.985740	0.645710
H2121	H212	0.087600	0.971700	0.624200
N2091	N209	0.985900	0.033300	0.577600
N2101	N210	0.008100	0.010700	0.558500
N2111	N211	0.035500	0.999400	0.579800
N2121	N212	0.999300	0.034700	0.612800
C3721	C372	0.529600	0.514000	0.113200
C3731	C373	0.552180	0.509950	0.145640
C3741	C374	0.544040	0.530480	0.177100
H2131	H213	0.523700	0.547000	0.177000
C3751	C375	0.565700	0.526790	0.208560
H2141	H214	0.560100	0.540800	0.230000
C3761	C376	0.595530	0.502580	0.208630
C3771	C377	0.603670	0.482050	0.177200
H2151	H215	0.624000	0.465500	0.177300
C3781	C378	0.582000	0.485740	0.145710
H2161	H216	0.587600	0.471700	0.124200
N2131	N213	0.485900	0.533300	0.077600
N2141	N214	0.508100	0.510700	0.058500
N2151	N215	0.535500	0.499400	0.079800
N2161	N216	0.499300	0.534700	0.112800
C3791	C379	0.470400	0.986000	0.113200
C3801	C380	0.447820	0.990050	0.145640
C3811	C381	0.455960	0.969520	0.177100
H2171	H217	0.476300	0.953000	0.177000
C3821	C382	0.434300	0.973210	0.208560
H2181	H218	0.439900	0.959200	0.230000
C3831	C383	0.404470	0.997420	0.208630
C3841	C384	0.396330	0.017950	0.177200
H2191	H219	0.376000	0.034500	0.177300
C3851	C385	0.418000	0.014260	0.145710
H2201	H220	0.412400	0.028300	0.124200
N2171	N217	0.514100	0.966700	0.077600
N2181	N218	0.491900	0.989300	0.058500
N2191	N219	0.464500	0.000600	0.079800
N2201	N220	0.500700	0.965300	0.112800
C3861	C386	0.970400	0.486000	0.613200
C3871	C387	0.947820	0.490050	0.645640
C3881	C388	0.955960	0.469520	0.677100
H2211	H221	0.976300	0.453000	0.677000
C3891	C389	0.934300	0.473210	0.708560
H2221	H222	0.939900	0.459200	0.730000
C3901	C390	0.904470	0.497420	0.708630
C3911	C391	0.896330	0.517950	0.677200
H2231	H223	0.876000	0.534500	0.677300
C3921	C392	0.918000	0.514260	0.645710
H2241	H224	0.912400	0.528300	0.624200
N2211	N221	0.014100	0.466700	0.577600
N2221	N222	0.991900	0.489300	0.558500
N2231	N223	0.964500	0.500600	0.579800
N2241	N224	0.000700	0.465300	0.612800
C3931	C393	0.886800	0.970400	0.514000
C3941	C394	0.854360	0.947820	0.509950
C3951	C395	0.822900	0.955960	0.530480
H2251	H225	0.823000	0.976300	0.547000
C3961	C396	0.791440	0.934300	0.526790
H2261	H226	0.770000	0.939900	0.540800
C3971	C397	0.791370	0.904470	0.502580
C3981	C398	0.822800	0.896330	0.482050
H2271	H227	0.822700	0.876000	0.465500
C3991	C399	0.854290	0.918000	0.485740
H2281	H228	0.875800	0.912400	0.471700
N2251	N225	0.922400	0.014100	0.533300
N2261	N226	0.941500	0.991900	0.510700
N2271	N227	0.920200	0.964500	0.499400
N2281	N228	0.887200	0.000700	0.534700
C4001	C400	0.386800	0.470400	0.014000
C4011	C401	0.354360	0.447820	0.009950
C4021	C402	0.322900	0.455960	0.030480
H2291	H229	0.323000	0.476300	0.047000
C4031	C403	0.291440	0.434300	0.026790
H2301	H230	0.270000	0.439900	0.040800
C4041	C404	0.291370	0.404470	0.002580
C4051	C405	0.322800	0.396330	0.982050
H2311	H231	0.322700	0.376000	0.965500
C4061	C406	0.354290	0.418000	0.985740
H2321	H232	0.375800	0.412400	0.971700
N2291	N229	0.422400	0.514100	0.033300
N2301	N230	0.441500	0.491900	0.010700
N2311	N231	0.420200	0.464500	0.999400
N2321	N232	0.387200	0.500700	0.034700
C4071	C407	0.386800	0.529600	0.486000
C4081	C408	0.354360	0.552180	0.490050
C4091	C409	0.322900	0.544040	0.469520
H2331	H233	0.323000	0.523700	0.453000
C4101	C410	0.291440	0.565700	0.473210
H2341	H234	0.270000	0.560100	0.459200
C4111	C411	0.291370	0.595530	0.497420
C4121	C412	0.322800	0.603670	0.517950
H2351	H235	0.322700	0.624000	0.534500
C4131	C413	0.354290	0.582000	0.514260
H2361	H236	0.375800	0.587600	0.528300
N2331	N233	0.422400	0.485900	0.466700
N2341	N234	0.441500	0.508100	0.489300
N2351	N235	0.420200	0.535500	0.500600
N2361	N236	0.387200	0.499300	0.465300
C4141	C414	0.886800	0.029600	0.986000
C4151	C415	0.854360	0.052180	0.990050
C4161	C416	0.822900	0.044040	0.969520
H2371	H237	0.823000	0.023700	0.953000
C4171	C417	0.791440	0.065700	0.973210
H2381	H238	0.770000	0.060100	0.959200
C4181	C418	0.791370	0.095530	0.997420
C4191	C419	0.822800	0.103670	0.017950
H2391	H239	0.822700	0.124000	0.034500
C4201	C420	0.854290	0.082000	0.014260
H2401	H240	0.875800	0.087600	0.028300
N2371	N237	0.922400	0.985900	0.966700
N2381	N238	0.941500	0.008100	0.989300
N2391	N239	0.920200	0.035500	0.000600
N2401	N240	0.887200	0.999300	0.965300
C4211	C421	0.613200	0.029600	0.014000
C4221	C422	0.645640	0.052180	0.009950
C4231	C423	0.677100	0.044040	0.030480
H2411	H241	0.677000	0.023700	0.047000
C4241	C424	0.708560	0.065700	0.026790
H2421	H242	0.730000	0.060100	0.040800
C4251	C425	0.708630	0.095530	0.002580
C4261	C426	0.677200	0.103670	0.982050
H2431	H243	0.677300	0.124000	0.965500
C4271	C427	0.645710	0.082000	0.985740
H2441	H244	0.624200	0.087600	0.971700
N2411	N241	0.577600	0.985900	0.033300
N2421	N242	0.558500	0.008100	0.010700
N2431	N243	0.579800	0.035500	0.999400
N2441	N244	0.612800	0.999300	0.034700
C4281	C428	0.113200	0.529600	0.514000
C4291	C429	0.145640	0.552180	0.509950
C4301	C430	0.177100	0.544040	0.530480
H2451	H245	0.177000	0.523700	0.547000
C4311	C431	0.208560	0.565700	0.526790
H2461	H246	0.230000	0.560100	0.540800
C4321	C432	0.208630	0.595530	0.502580
C4331	C433	0.177200	0.603670	0.482050
H2471	H247	0.177300	0.624000	0.465500
C4341	C434	0.145710	0.582000	0.485740
H2481	H248	0.124200	0.587600	0.471700
N2451	N245	0.077600	0.485900	0.533300
N2461	N246	0.058500	0.508100	0.510700
N2471	N247	0.079800	0.535500	0.499400
N2481	N248	0.112800	0.499300	0.534700
C4351	C435	0.113200	0.470400	0.986000
C4361	C436	0.145640	0.447820	0.990050
C4371	C437	0.177100	0.455960	0.969520
H2491	H249	0.177000	0.476300	0.953000
C4381	C438	0.208560	0.434300	0.973210
H2501	H250	0.230000	0.439900	0.959200
C4391	C439	0.208630	0.404470	0.997420
C4401	C440	0.177200	0.396330	0.017950
H2511	H251	0.177300	0.376000	0.034500
C4411	C441	0.145710	0.418000	0.014260
H2521	H252	0.124200	0.412400	0.028300
N2491	N249	0.077600	0.514100	0.966700
N2501	N250	0.058500	0.491900	0.989300
N2511	N251	0.079800	0.464500	0.000600
N2521	N252	0.112800	0.500700	0.965300
C4421	C442	0.613200	0.970400	0.486000
C4431	C443	0.645640	0.947820	0.490050
C4441	C444	0.677100	0.955960	0.469520
H2531	H253	0.677000	0.976300	0.453000
C4451	C445	0.708560	0.934300	0.473210
H2541	H254	0.730000	0.939900	0.459200
C4461	C446	0.708630	0.904470	0.497420
C4471	C447	0.677200	0.896330	0.517950
H2551	H255	0.677300	0.876000	0.534500
C4481	C448	0.645710	0.918000	0.514260
H2561	H256	0.624200	0.912400	0.528300
N2531	N253	0.577600	0.014100	0.466700
N2541	N254	0.558500	0.991900	0.489300
N2551	N255	0.579800	0.964500	0.500600
N2561	N256	0.612800	0.000700	0.465300
C4491	C449	0.514000	0.886800	0.970400
C4501	C450	0.509950	0.854360	0.947820
C4511	C451	0.530480	0.822900	0.955960
H2571	H257	0.547000	0.823000	0.976300
C4521	C452	0.526790	0.791440	0.934300
H2581	H258	0.540800	0.770000	0.939900
C4531	C453	0.502580	0.791370	0.904470
C4541	C454	0.482050	0.822800	0.896330
H2591	H259	0.465500	0.822700	0.876000
C4551	C455	0.485740	0.854290	0.918000
H2601	H260	0.471700	0.875800	0.912400
N2571	N257	0.533300	0.922400	0.014100
N2581	N258	0.510700	0.941500	0.991900
N2591	N259	0.499400	0.920200	0.964500
N2601	N260	0.534700	0.887200	0.000700
C4561	C456	0.014000	0.386800	0.470400
C4571	C457	0.009950	0.354360	0.447820
C4581	C458	0.030480	0.322900	0.455960
H2611	H261	0.047000	0.323000	0.476300
C4591	C459	0.026790	0.291440	0.434300
H2621	H262	0.040800	0.270000	0.439900
C4601	C460	0.002580	0.291370	0.404470
C4611	C461	0.982050	0.322800	0.396330
H2631	H263	0.965500	0.322700	0.376000
C4621	C462	0.985740	0.354290	0.418000
H2641	H264	0.971700	0.375800	0.412400
N2611	N261	0.033300	0.422400	0.514100
N2621	N262	0.010700	0.441500	0.491900
N2631	N263	0.999400	0.420200	0.464500
N2641	N264	0.034700	0.387200	0.500700
C4631	C463	0.486000	0.386800	0.529600
C4641	C464	0.490050	0.354360	0.552180
C4651	C465	0.469520	0.322900	0.544040
H2651	H265	0.453000	0.323000	0.523700
C4661	C466	0.473210	0.291440	0.565700
H2661	H266	0.459200	0.270000	0.560100
C4671	C467	0.497420	0.291370	0.595530
C4681	C468	0.517950	0.322800	0.603670
H2671	H267	0.534500	0.322700	0.624000
C4691	C469	0.514260	0.354290	0.582000
H2681	H268	0.528300	0.375800	0.587600
N2651	N265	0.466700	0.422400	0.485900
N2661	N266	0.489300	0.441500	0.508100
N2671	N267	0.500600	0.420200	0.535500
N2681	N268	0.465300	0.387200	0.499300
C4701	C470	0.986000	0.886800	0.029600
C4711	C471	0.990050	0.854360	0.052180
C4721	C472	0.969520	0.822900	0.044040
H2691	H269	0.953000	0.823000	0.023700
C4731	C473	0.973210	0.791440	0.065700
H2701	H270	0.959200	0.770000	0.060100
C4741	C474	0.997420	0.791370	0.095530
C4751	C475	0.017950	0.822800	0.103670
H2711	H271	0.034500	0.822700	0.124000
C4761	C476	0.014260	0.854290	0.082000
H2721	H272	0.028300	0.875800	0.087600
N2691	N269	0.966700	0.922400	0.985900
N2701	N270	0.989300	0.941500	0.008100
N2711	N271	0.000600	0.920200	0.035500
N2721	N272	0.965300	0.887200	0.999300
C4771	C477	0.014000	0.613200	0.029600
C4781	C478	0.009950	0.645640	0.052180
C4791	C479	0.030480	0.677100	0.044040
H2731	H273	0.047000	0.677000	0.023700
C4801	C480	0.026790	0.708560	0.065700
H2741	H274	0.040800	0.730000	0.060100
C4811	C481	0.002580	0.708630	0.095530
C4821	C482	0.982050	0.677200	0.103670
H2751	H275	0.965500	0.677300	0.124000
C4831	C483	0.985740	0.645710	0.082000
H2761	H276	0.971700	0.624200	0.087600
N2731	N273	0.033300	0.577600	0.985900
N2741	N274	0.010700	0.558500	0.008100
N2751	N275	0.999400	0.579800	0.035500
N2761	N276	0.034700	0.612800	0.999300
C4841	C484	0.514000	0.113200	0.529600
C4851	C485	0.509950	0.145640	0.552180
C4861	C486	0.530480	0.177100	0.544040
H2771	H277	0.547000	0.177000	0.523700
C4871	C487	0.526790	0.208560	0.565700
H2781	H278	0.540800	0.230000	0.560100
C4881	C488	0.502580	0.208630	0.595530
C4891	C489	0.482050	0.177200	0.603670
H2791	H279	0.465500	0.177300	0.624000
C4901	C490	0.485740	0.145710	0.582000
H2801	H280	0.471700	0.124200	0.587600
N2771	N277	0.533300	0.077600	0.485900
N2781	N278	0.510700	0.058500	0.508100
N2791	N279	0.499400	0.079800	0.535500
N2801	N280	0.534700	0.112800	0.499300
C4911	C491	0.986000	0.113200	0.470400
C4921	C492	0.990050	0.145640	0.447820
C4931	C493	0.969520	0.177100	0.455960
H2811	H281	0.953000	0.177000	0.476300
C4941	C494	0.973210	0.208560	0.434300
H2821	H282	0.959200	0.230000	0.439900
C4951	C495	0.997420	0.208630	0.404470
C4961	C496	0.017950	0.177200	0.396330
H2831	H283	0.034500	0.177300	0.376000
C4971	C497	0.014260	0.145710	0.418000
H2841	H284	0.028300	0.124200	0.412400
N2811	N281	0.966700	0.077600	0.514100
N2821	N282	0.989300	0.058500	0.491900
N2831	N283	0.000600	0.079800	0.464500
N2841	N284	0.965300	0.112800	0.500700
C4981	C498	0.486000	0.613200	0.970400
C4991	C499	0.490050	0.645640	0.947820
C5001	C500	0.469520	0.677100	0.955960
H2851	H285	0.453000	0.677000	0.976300
C5011	C501	0.473210	0.708560	0.934300
H2861	H286	0.459200	0.730000	0.939900
C5021	C502	0.497420	0.708630	0.904470
C5031	C503	0.517950	0.677200	0.896330
H2871	H287	0.534500	0.677300	0.876000
C5041	C504	0.514260	0.645710	0.918000
H2881	H288	0.528300	0.624200	0.912400
N2851	N285	0.466700	0.577600	0.014100
N2861	N286	0.489300	0.558500	0.991900
N2871	N287	0.500600	0.579800	0.964500
N2881	N288	0.465300	0.612800	0.000700
C5051	C505	0.764000	0.720400	0.863200
C5061	C506	0.759950	0.697820	0.895640
C5071	C507	0.780480	0.705960	0.927100
H2891	H289	0.797000	0.726300	0.927000
C5081	C508	0.776790	0.684300	0.958560
H2901	H290	0.790800	0.689900	0.980000
C5091	C509	0.752580	0.654470	0.958630
C5101	C510	0.732050	0.646330	0.927200
H2911	H291	0.715500	0.626000	0.927300
C5111	C511	0.735740	0.668000	0.895710
H2921	H292	0.721700	0.662400	0.874200
N2891	N289	0.783300	0.764100	0.827600
N2901	N290	0.760700	0.741900	0.808500
N2911	N291	0.749400	0.714500	0.829800
N2921	N292	0.784700	0.750700	0.862800
C5121	C512	0.264000	0.220400	0.363200
C5131	C513	0.259950	0.197820	0.395640
C5141	C514	0.280480	0.205960	0.427100
H2931	H293	0.297000	0.226300	0.427000
C5151	C515	0.276790	0.184300	0.458560
H2941	H294	0.290800	0.189900	0.480000
C5161	C516	0.252580	0.154470	0.458630
C5171	C517	0.232050	0.146330	0.427200
H2951	H295	0.215500	0.126000	0.427300
C5181	C518	0.235740	0.168000	0.395710
H2961	H296	0.221700	0.162400	0.374200
N2931	N293	0.283300	0.264100	0.327600
N2941	N294	0.260700	0.241900	0.308500
N2951	N295	0.249400	0.214500	0.329800
N2961	N296	0.284700	0.250700	0.362800
C5191	C519	0.736000	0.279600	0.363200
C5201	C520	0.740050	0.302180	0.395640
C5211	C521	0.719520	0.294040	0.427100
H2971	H297	0.703000	0.273700	0.427000
C5221	C522	0.723210	0.315700	0.458560
H2981	H298	0.709200	0.310100	0.480000
C5231	C523	0.747420	0.345530	0.458630
C5241	C524	0.767950	0.353670	0.427200
H2991	H299	0.784500	0.374000	0.427300
C5251	C525	0.764260	0.332000	0.395710
H3001	H300	0.778300	0.337600	0.374200
N2971	N297	0.716700	0.235900	0.327600
N2981	N298	0.739300	0.258100	0.308500
N2991	N299	0.750600	0.285500	0.329800
N3001	N300	0.715300	0.249300	0.362800
C5261	C526	0.236000	0.779600	0.863200
C5271	C527	0.240050	0.802180	0.895640
C5281	C528	0.219520	0.794040	0.927100
H3011	H301	0.203000	0.773700	0.927000
C5291	C529	0.223210	0.815700	0.958560
H3021	H302	0.209200	0.810100	0.980000
C5301	C530	0.247420	0.845530	0.958630
C5311	C531	0.267950	0.853670	0.927200
H3031	H303	0.284500	0.874000	0.927300
C5321	C532	0.264260	0.832000	0.895710
H3041	H304	0.278300	0.837600	0.874200
N3011	N301	0.216700	0.735900	0.827600
N3021	N302	0.239300	0.758100	0.808500
N3031	N303	0.250600	0.785500	0.829800
N3041	N304	0.215300	0.749300	0.862800
C5331	C533	0.264000	0.779600	0.136800
C5341	C534	0.259950	0.802180	0.104360
C5351	C535	0.280480	0.794040	0.072900
H3051	H305	0.297000	0.773700	0.073000
C5361	C536	0.276790	0.815700	0.041440
H3061	H306	0.290800	0.810100	0.020000
C5371	C537	0.252580	0.845530	0.041370
C5381	C538	0.232050	0.853670	0.072800
H3071	H307	0.215500	0.874000	0.072700
C5391	C539	0.235740	0.832000	0.104290
H3081	H308	0.221700	0.837600	0.125800
N3051	N305	0.283300	0.735900	0.172400
N3061	N306	0.260700	0.758100	0.191500
N3071	N307	0.249400	0.785500	0.170200
N3081	N308	0.284700	0.749300	0.137200
C5401	C540	0.764000	0.279600	0.636800
C5411	C541	0.759950	0.302180	0.604360
C5421	C542	0.780480	0.294040	0.572900
H3091	H309	0.797000	0.273700	0.573000
C5431	C543	0.776790	0.315700	0.541440
H3101	H310	0.790800	0.310100	0.520000
C5441	C544	0.752580	0.345530	0.541370
C5451	C545	0.732050	0.353670	0.572800
H3111	H311	0.715500	0.374000	0.572700
C5461	C546	0.735740	0.332000	0.604290
H3121	H312	0.721700	0.337600	0.625800
N3091	N309	0.783300	0.235900	0.672400
N3101	N310	0.760700	0.258100	0.691500
N3111	N311	0.749400	0.285500	0.670200
N3121	N312	0.784700	0.249300	0.637200
C5471	C547	0.236000	0.220400	0.636800
C5481	C548	0.240050	0.197820	0.604360
C5491	C549	0.219520	0.205960	0.572900
H3131	H313	0.203000	0.226300	0.573000
C5501	C550	0.223210	0.184300	0.541440
H3141	H314	0.209200	0.189900	0.520000
C5511	C551	0.247420	0.154470	0.541370
C5521	C552	0.267950	0.146330	0.572800
H3151	H315	0.284500	0.126000	0.572700
C5531	C553	0.264260	0.168000	0.604290
H3161	H316	0.278300	0.162400	0.625800
N3131	N313	0.216700	0.264100	0.672400
N3141	N314	0.239300	0.241900	0.691500
N3151	N315	0.250600	0.214500	0.670200
N3161	N316	0.215300	0.250700	0.637200
C5541	C554	0.736000	0.720400	0.136800
C5551	C555	0.740050	0.697820	0.104360
C5561	C556	0.719520	0.705960	0.072900
H3171	H317	0.703000	0.726300	0.073000
C5571	C557	0.723210	0.684300	0.041440
H3181	H318	0.709200	0.689900	0.020000
C5581	C558	0.747420	0.654470	0.041370
C5591	C559	0.767950	0.646330	0.072800
H3191	H319	0.784500	0.626000	0.072700
C5601	C560	0.764260	0.668000	0.104290
H3201	H320	0.778300	0.662400	0.125800
N3171	N317	0.716700	0.764100	0.172400
N3181	N318	0.739300	0.741900	0.191500
N3191	N319	0.750600	0.714500	0.170200
N3201	N320	0.715300	0.750700	0.137200
C5611	C561	0.220400	0.636800	0.236000
C5621	C562	0.197820	0.604360	0.240050
C5631	C563	0.205960	0.572900	0.219520
H3211	H321	0.226300	0.573000	0.203000
C5641	C564	0.184300	0.541440	0.223210
H3221	H322	0.189900	0.520000	0.209200
C5651	C565	0.154470	0.541370	0.247420
C5661	C566	0.146330	0.572800	0.267950
H3231	H323	0.126000	0.572700	0.284500
C5671	C567	0.168000	0.604290	0.264260
H3241	H324	0.162400	0.625800	0.278300
N3211	N321	0.264100	0.672400	0.216700
N3221	N322	0.241900	0.691500	0.239300
N3231	N323	0.214500	0.670200	0.250600
N3241	N324	0.250700	0.637200	0.215300
C5681	C568	0.720400	0.136800	0.736000
C5691	C569	0.697820	0.104360	0.740050
C5701	C570	0.705960	0.072900	0.719520
H3251	H325	0.726300	0.073000	0.703000
C5711	C571	0.684300	0.041440	0.723210
H3261	H326	0.689900	0.020000	0.709200
C5721	C572	0.654470	0.041370	0.747420
C5731	C573	0.646330	0.072800	0.767950
H3271	H327	0.626000	0.072700	0.784500
C5741	C574	0.668000	0.104290	0.764260
H3281	H328	0.662400	0.125800	0.778300
N3251	N325	0.764100	0.172400	0.716700
N3261	N326	0.741900	0.191500	0.739300
N3271	N327	0.714500	0.170200	0.750600
N3281	N328	0.750700	0.137200	0.715300
C5751	C575	0.779600	0.136800	0.264000
C5761	C576	0.802180	0.104360	0.259950
C5771	C577	0.794040	0.072900	0.280480
H3291	H329	0.773700	0.073000	0.297000
C5781	C578	0.815700	0.041440	0.276790
H3301	H330	0.810100	0.020000	0.290800
C5791	C579	0.845530	0.041370	0.252580
C5801	C580	0.853670	0.072800	0.232050
H3311	H331	0.874000	0.072700	0.215500
C5811	C581	0.832000	0.104290	0.235740
H3321	H332	0.837600	0.125800	0.221700
N3291	N329	0.735900	0.172400	0.283300
N3301	N330	0.758100	0.191500	0.260700
N3311	N331	0.785500	0.170200	0.249400
N3321	N332	0.749300	0.137200	0.284700
C5821	C582	0.279600	0.636800	0.764000
C5831	C583	0.302180	0.604360	0.759950
C5841	C584	0.294040	0.572900	0.780480
H3331	H333	0.273700	0.573000	0.797000
C5851	C585	0.315700	0.541440	0.776790
H3341	H334	0.310100	0.520000	0.790800
C5861	C586	0.345530	0.541370	0.752580
C5871	C587	0.353670	0.572800	0.732050
H3351	H335	0.374000	0.572700	0.715500
C5881	C588	0.332000	0.604290	0.735740
H3361	H336	0.337600	0.625800	0.721700
N3331	N333	0.235900	0.672400	0.783300
N3341	N334	0.258100	0.691500	0.760700
N3351	N335	0.285500	0.670200	0.749400
N3361	N336	0.249300	0.637200	0.784700
C5891	C589	0.279600	0.363200	0.736000
C5901	C590	0.302180	0.395640	0.740050
C5911	C591	0.294040	0.427100	0.719520
H3371	H337	0.273700	0.427000	0.703000
C5921	C592	0.315700	0.458560	0.723210
H3381	H338	0.310100	0.480000	0.709200
C5931	C593	0.345530	0.458630	0.747420
C5941	C594	0.353670	0.427200	0.767950
H3391	H339	0.374000	0.427300	0.784500
C5951	C595	0.332000	0.395710	0.764260
H3401	H340	0.337600	0.374200	0.778300
N3371	N337	0.235900	0.327600	0.716700
N3381	N338	0.258100	0.308500	0.739300
N3391	N339	0.285500	0.329800	0.750600
N3401	N340	0.249300	0.362800	0.715300
C5961	C596	0.779600	0.863200	0.236000
C5971	C597	0.802180	0.895640	0.240050
C5981	C598	0.794040	0.927100	0.219520
H3411	H341	0.773700	0.927000	0.203000
C5991	C599	0.815700	0.958560	0.223210
H3421	H342	0.810100	0.980000	0.209200
C6001	C600	0.845530	0.958630	0.247420
C6011	C601	0.853670	0.927200	0.267950
H3431	H343	0.874000	0.927300	0.284500
C6021	C602	0.832000	0.895710	0.264260
H3441	H344	0.837600	0.874200	0.278300
N3411	N341	0.735900	0.827600	0.216700
N3421	N342	0.758100	0.808500	0.239300
N3431	N343	0.785500	0.829800	0.250600
N3441	N344	0.749300	0.862800	0.215300
C6031	C603	0.720400	0.863200	0.764000
C6041	C604	0.697820	0.895640	0.759950
C6051	C605	0.705960	0.927100	0.780480
H3451	H345	0.726300	0.927000	0.797000
C6061	C606	0.684300	0.958560	0.776790
H3461	H346	0.689900	0.980000	0.790800
C6071	C607	0.654470	0.958630	0.752580
C6081	C608	0.646330	0.927200	0.732050
H3471	H347	0.626000	0.927300	0.715500
C6091	C609	0.668000	0.895710	0.735740
H3481	H348	0.662400	0.874200	0.721700
N3451	N345	0.764100	0.827600	0.783300
N3461	N346	0.741900	0.808500	0.760700
N3471	N347	0.714500	0.829800	0.749400
N3481	N348	0.750700	0.862800	0.784700
C6101	C610	0.220400	0.363200	0.264000
C6111	C611	0.197820	0.395640	0.259950
C6121	C612	0.205960	0.427100	0.280480
H3491	H349	0.226300	0.427000	0.297000
C6131	C613	0.184300	0.458560	0.276790
H3501	H350	0.189900	0.480000	0.290800
C6141	C614	0.154470	0.458630	0.252580
C6151	C615	0.146330	0.427200	0.232050
H3511	H351	0.126000	0.427300	0.215500
C6161	C616	0.168000	0.395710	0.235740
H3521	H352	0.162400	0.374200	0.221700
N3491	N349	0.264100	0.327600	0.283300
N3501	N350	0.241900	0.308500	0.260700
N3511	N351	0.214500	0.329800	0.249400
N3521	N352	0.250700	0.362800	0.284700
C6171	C617	0.136800	0.264000	0.779600
C6181	C618	0.104360	0.259950	0.802180
C6191	C619	0.072900	0.280480	0.794040
H3531	H353	0.073000	0.297000	0.773700
C6201	C620	0.041440	0.276790	0.815700
H3541	H354	0.020000	0.290800	0.810100
C6211	C621	0.041370	0.252580	0.845530
C6221	C622	0.072800	0.232050	0.853670
H3551	H355	0.072700	0.215500	0.874000
C6231	C623	0.104290	0.235740	0.832000
H3561	H356	0.125800	0.221700	0.837600
N3531	N353	0.172400	0.283300	0.735900
N3541	N354	0.191500	0.260700	0.758100
N3551	N355	0.170200	0.249400	0.785500
N3561	N356	0.137200	0.284700	0.749300
C6241	C624	0.636800	0.764000	0.279600
C6251	C625	0.604360	0.759950	0.302180
C6261	C626	0.572900	0.780480	0.294040
H3571	H357	0.573000	0.797000	0.273700
C6271	C627	0.541440	0.776790	0.315700
H3581	H358	0.520000	0.790800	0.310100
C6281	C628	0.541370	0.752580	0.345530
C6291	C629	0.572800	0.732050	0.353670
H3591	H359	0.572700	0.715500	0.374000
C6301	C630	0.604290	0.735740	0.332000
H3601	H360	0.625800	0.721700	0.337600
N3571	N357	0.672400	0.783300	0.235900
N3581	N358	0.691500	0.760700	0.258100
N3591	N359	0.670200	0.749400	0.285500
N3601	N360	0.637200	0.784700	0.249300
C6311	C631	0.636800	0.236000	0.220400
C6321	C632	0.604360	0.240050	0.197820
C6331	C633	0.572900	0.219520	0.205960
H3611	H361	0.573000	0.203000	0.226300
C6341	C634	0.541440	0.223210	0.184300
H3621	H362	0.520000	0.209200	0.189900
C6351	C635	0.541370	0.247420	0.154470
C6361	C636	0.572800	0.267950	0.146330
H3631	H363	0.572700	0.284500	0.126000
C6371	C637	0.604290	0.264260	0.168000
H3641	H364	0.625800	0.278300	0.162400
N3611	N361	0.672400	0.216700	0.264100
N3621	N362	0.691500	0.239300	0.241900
N3631	N363	0.670200	0.250600	0.214500
N3641	N364	0.637200	0.215300	0.250700
C6381	C638	0.136800	0.736000	0.720400
C6391	C639	0.104360	0.740050	0.697820
C6401	C640	0.072900	0.719520	0.705960
H3651	H365	0.073000	0.703000	0.726300
C6411	C641	0.041440	0.723210	0.684300
H3661	H366	0.020000	0.709200	0.689900
C6421	C642	0.041370	0.747420	0.654470
C6431	C643	0.072800	0.767950	0.646330
H3671	H367	0.072700	0.784500	0.626000
C6441	C644	0.104290	0.764260	0.668000
H3681	H368	0.125800	0.778300	0.662400
N3651	N365	0.172400	0.716700	0.764100
N3661	N366	0.191500	0.739300	0.741900
N3671	N367	0.170200	0.750600	0.714500
N3681	N368	0.137200	0.715300	0.750700
C6451	C645	0.863200	0.764000	0.720400
C6461	C646	0.895640	0.759950	0.697820
C6471	C647	0.927100	0.780480	0.705960
H3691	H369	0.927000	0.797000	0.726300
C6481	C648	0.958560	0.776790	0.684300
H3701	H370	0.980000	0.790800	0.689900
C6491	C649	0.958630	0.752580	0.654470
C6501	C650	0.927200	0.732050	0.646330
H3711	H371	0.927300	0.715500	0.626000
C6511	C651	0.895710	0.735740	0.668000
H3721	H372	0.874200	0.721700	0.662400
N3691	N369	0.827600	0.783300	0.764100
N3701	N370	0.808500	0.760700	0.741900
N3711	N371	0.829800	0.749400	0.714500
N3721	N372	0.862800	0.784700	0.750700
C6521	C652	0.363200	0.264000	0.220400
C6531	C653	0.395640	0.259950	0.197820
C6541	C654	0.427100	0.280480	0.205960
H3731	H373	0.427000	0.297000	0.226300
C6551	C655	0.458560	0.276790	0.184300
H3741	H374	0.480000	0.290800	0.189900
C6561	C656	0.458630	0.252580	0.154470
C6571	C657	0.427200	0.232050	0.146330
H3751	H375	0.427300	0.215500	0.126000
C6581	C658	0.395710	0.235740	0.168000
H3761	H376	0.374200	0.221700	0.162400
N3731	N373	0.327600	0.283300	0.264100
N3741	N374	0.308500	0.260700	0.241900
N3751	N375	0.329800	0.249400	0.214500
N3761	N376	0.362800	0.284700	0.250700
C6591	C659	0.363200	0.736000	0.279600
C6601	C660	0.395640	0.740050	0.302180
C6611	C661	0.427100	0.719520	0.294040
H3771	H377	0.427000	0.703000	0.273700
C6621	C662	0.458560	0.723210	0.315700
H3781	H378	0.480000	0.709200	0.310100
C6631	C663	0.458630	0.747420	0.345530
C6641	C664	0.427200	0.767950	0.353670
H3791	H379	0.427300	0.784500	0.374000
C6651	C665	0.395710	0.764260	0.332000
H3801	H380	0.374200	0.778300	0.337600
N3771	N377	0.327600	0.716700	0.235900
N3781	N378	0.308500	0.739300	0.258100
N3791	N379	0.329800	0.750600	0.285500
N3801	N380	0.362800	0.715300	0.249300
C6661	C666	0.863200	0.236000	0.779600
C6671	C667	0.895640	0.240050	0.802180
C6681	C668	0.927100	0.219520	0.794040
H3811	H381	0.927000	0.203000	0.773700
C6691	C669	0.958560	0.223210	0.815700
H3821	H382	0.980000	0.209200	0.810100
C6701	C670	0.958630	0.247420	0.845530
C6711	C671	0.927200	0.267950	0.853670
H3831	H383	0.927300	0.284500	0.874000
C6721	C672	0.895710	0.264260	0.832000
H3841	H384	0.874200	0.278300	0.837600
N3811	N381	0.827600	0.216700	0.735900
N3821	N382	0.808500	0.239300	0.758100
N3831	N383	0.829800	0.250600	0.785500
N3841	N384	0.862800	0.215300	0.749300
Cu11	Cu1	0.940430	0.440430	0.059570
Cu21	Cu2	0.440430	0.940430	0.559570
Cu31	Cu3	0.559570	0.559570	0.559570
Cu41	Cu4	0.059570	0.059570	0.059570
Cu51	Cu5	0.059570	0.940430	0.440430
Cu61	Cu6	0.559570	0.440430	0.940430
Cu71	Cu7	0.440430	0.059570	0.940430
Cu81	Cu8	0.940430	0.559570	0.440430
Cu91	Cu9	0.190430	0.190430	0.190430
Cu101	Cu10	0.690430	0.690430	0.690430
Cu111	Cu11	0.309570	0.809570	0.690430
Cu121	Cu12	0.809570	0.309570	0.190430
Cu131	Cu13	0.690430	0.309570	0.809570
Cu141	Cu14	0.190430	0.809570	0.309570
Cu151	Cu15	0.809570	0.690430	0.309570
Cu161	Cu16	0.309570	0.190430	0.809570
Cu171	Cu17	0.059570	0.559570	0.940430
Cu181	Cu18	0.559570	0.059570	0.440430
Cu191	Cu19	0.440430	0.440430	0.440430
Cu201	Cu20	0.940430	0.940430	0.940430
Cu211	Cu21	0.940430	0.059570	0.559570
Cu221	Cu22	0.440430	0.559570	0.059570
Cu231	Cu23	0.559570	0.940430	0.059570
Cu241	Cu24	0.059570	0.440430	0.559570
Cu251	Cu25	0.809570	0.809570	0.809570
Cu261	Cu26	0.309570	0.309570	0.309570
Cu271	Cu27	0.690430	0.190430	0.309570
Cu281	Cu28	0.190430	0.690430	0.809570
Cu291	Cu29	0.309570	0.690430	0.190430
Cu301	Cu30	0.809570	0.190430	0.690430
Cu311	Cu31	0.190430	0.309570	0.690430
Cu321	Cu32	0.690430	0.809570	0.190430
Cu331	Cu33	0.000000	0.500000	0.000000
Cu341	Cu34	0.500000	0.000000	0.500000
Cu351	Cu35	0.500000	0.500000	0.500000
Cu361	Cu36	0.000000	0.000000	0.000000
Cu371	Cu37	0.000000	0.000000	0.500000
Cu381	Cu38	0.500000	0.500000	0.000000
Cu391	Cu39	0.500000	0.000000	0.000000
Cu401	Cu40	0.000000	0.500000	0.500000
Cu411	Cu41	0.250000	0.250000	0.250000
Cu421	Cu42	0.250000	0.750000	0.750000
Cu431	Cu43	0.750000	0.250000	0.750000
Cu441	Cu44	0.750000	0.750000	0.250000
Cu451	Cu45	0.750000	0.750000	0.750000
Cu461	Cu46	0.750000	0.250000	0.250000
Cu471	Cu47	0.250000	0.750000	0.250000
Cu481	Cu48	0.250000	0.250000	0.750000
Si11	Si1	0.125000	0.500000	0.250000
Si21	Si2	0.375000	0.500000	0.750000
Si31	Si3	0.875000	0.000000	0.250000
Si41	Si4	0.625000	0.000000	0.750000
Si51	Si5	0.250000	0.125000	0.500000
Si61	Si6	0.750000	0.375000	0.500000
Si71	Si7	0.250000	0.875000	0.000000
Si81	Si8	0.750000	0.625000	0.000000
Si91	Si9	0.500000	0.250000	0.125000
Si101	Si10	0.500000	0.750000	0.375000
Si111	Si11	0.000000	0.250000	0.875000
Si121	Si12	0.000000	0.750000	0.625000
Si131	Si13	0.250000	0.375000	0.000000
Si141	Si14	0.250000	0.625000	0.500000
Si151	Si15	0.750000	0.125000	0.000000
Si161	Si16	0.750000	0.875000	0.500000
Si171	Si17	0.875000	0.500000	0.750000
Si181	Si18	0.125000	0.000000	0.750000
Si191	Si19	0.625000	0.500000	0.250000
Si201	Si20	0.375000	0.000000	0.250000
Si211	Si21	0.000000	0.750000	0.125000
Si221	Si22	0.500000	0.750000	0.875000
Si231	Si23	0.000000	0.250000	0.375000
Si241	Si24	0.500000	0.250000	0.625000
