data_CODDAA_clean_PM
_symmetry_space_group_name_H-M	'P1'
_cell_length_a	11.112000
_cell_length_b	11.112000
_cell_length_c	10.040000
_cell_angle_alpha	90.000000
_cell_angle_beta	90.000000
_cell_angle_gamma	120.000000
_symmetry_Int_Tables_number 1

loop_
_symmetry_equiv_pos_as_xyz
'x,y,z'

loop_
_atom_site_label
_atom_site_type_symbol
_atom_site_fract_x
_atom_site_fract_y
_atom_site_fract_z
V11	V1	0.492080	0.063520	0.027860
P11	P1	0.222180	0.816210	0.898500
K11	K1	0.772020	0.306820	0.752670
O11	O1	0.290700	0.951800	0.977300
O21	O2	0.468300	0.105100	0.173300
O31	O3	0.192200	0.694400	0.989900
O41	O4	0.314400	0.817700	0.786800
O51	O5	0.504700	0.924200	0.044100
C11	C1	0.064300	0.796000	0.835300
H11	H1	0.010000	0.806000	0.888000
H21	H2	0.071000	0.851000	0.759000
H31	H3	0.022000	0.720000	0.777000
V21	V2	0.936480	0.428560	0.361190
P21	P2	0.183790	0.405970	0.231830
K21	K2	0.693180	0.465200	0.086000
O61	O6	0.048200	0.338900	0.310630
O71	O7	0.894900	0.363200	0.506630
O81	O8	0.305600	0.497800	0.323230
O91	O9	0.182300	0.496700	0.120130
O101	O10	0.075800	0.580500	0.377430
C21	C2	0.204000	0.268300	0.168630
H41	H4	0.194000	0.204000	0.221330
H51	H5	0.149000	0.220000	0.092330
H61	H6	0.280000	0.302000	0.110330
V31	V3	0.571440	0.507920	0.694530
P31	P3	0.594030	0.777820	0.565170
K31	K3	0.534800	0.227980	0.419340
O111	O11	0.661100	0.709300	0.643970
O121	O12	0.636800	0.531700	0.839970
O131	O13	0.502200	0.807800	0.656570
O141	O14	0.503300	0.685600	0.453470
O151	O15	0.419500	0.495300	0.710770
C31	C3	0.731700	0.935700	0.501970
H71	H7	0.796000	0.990000	0.554670
H81	H8	0.780000	0.929000	0.425670
H91	H9	0.698000	0.978000	0.443670
V41	V4	0.063520	0.492080	0.972140
P41	P4	0.816210	0.222180	0.101500
K41	K4	0.306820	0.772020	0.247330
O161	O16	0.951800	0.290700	0.022700
O171	O17	0.105100	0.468300	0.826700
O181	O18	0.694400	0.192200	0.010100
O191	O19	0.817700	0.314400	0.213200
O201	O20	0.924200	0.504700	0.955900
C41	C4	0.796000	0.064300	0.164700
H101	H10	0.806000	0.010000	0.112000
H111	H11	0.851000	0.071000	0.241000
H121	H12	0.720000	0.022000	0.223000
V51	V5	0.428560	0.936480	0.638810
P51	P5	0.405970	0.183790	0.768170
K51	K5	0.465200	0.693180	0.914000
O211	O21	0.338900	0.048200	0.689370
O221	O22	0.363200	0.894900	0.493370
O231	O23	0.497800	0.305600	0.676770
O241	O24	0.496700	0.182300	0.879870
O251	O25	0.580500	0.075800	0.622570
C51	C5	0.268300	0.204000	0.831370
H131	H13	0.204000	0.194000	0.778670
H141	H14	0.220000	0.149000	0.907670
H151	H15	0.302000	0.280000	0.889670
V61	V6	0.507920	0.571440	0.305470
P61	P6	0.777820	0.594030	0.434830
K61	K6	0.227980	0.534800	0.580660
O261	O26	0.709300	0.661100	0.356030
O271	O27	0.531700	0.636800	0.160030
O281	O28	0.807800	0.502200	0.343430
O291	O29	0.685600	0.503300	0.546530
O301	O30	0.495300	0.419500	0.289230
C61	C6	0.935700	0.731700	0.498030
H161	H16	0.990000	0.796000	0.445330
H171	H17	0.929000	0.780000	0.574330
H181	H18	0.978000	0.698000	0.556330
