data_CODGAE_clean_PM
_symmetry_space_group_name_H-M	'P1'
_cell_length_a	13.709000
_cell_length_b	13.709000
_cell_length_c	15.436000
_cell_angle_alpha	90.000000
_cell_angle_beta	90.000000
_cell_angle_gamma	120.000000
_symmetry_Int_Tables_number 1

loop_
_symmetry_equiv_pos_as_xyz
'x,y,z'

loop_
_atom_site_label
_atom_site_type_symbol
_atom_site_fract_x
_atom_site_fract_y
_atom_site_fract_z
Al11	Al1	0.429500	0.103400	0.238700
P11	P1	0.658300	0.096100	0.227300
O11	O1	0.548000	0.089900	0.207700
O21	O2	0.752600	0.216200	0.220300
O31	O3	0.656300	0.050000	0.317700
O41	O4	0.672400	0.022500	0.161900
Al21	Al2	0.096170	0.436730	0.572030
P21	P2	0.324970	0.429430	0.560630
O51	O5	0.214670	0.423230	0.541030
O61	O6	0.419270	0.549530	0.553630
O71	O7	0.322970	0.383330	0.651030
O81	O8	0.339070	0.355830	0.495230
Al31	Al3	0.762830	0.770070	0.905370
P31	P3	0.991630	0.762770	0.893970
O91	O9	0.881330	0.756570	0.874370
O101	O10	0.085930	0.882870	0.886970
O111	O11	0.989630	0.716670	0.984370
O121	O12	0.005730	0.689170	0.828570
Al41	Al4	0.896600	0.326100	0.238700
P41	P4	0.903900	0.562200	0.227300
O131	O13	0.910100	0.458100	0.207700
O141	O14	0.783800	0.536400	0.220300
O151	O15	0.950000	0.606300	0.317700
O161	O16	0.977500	0.649900	0.161900
Al51	Al5	0.563270	0.659430	0.572030
P51	P5	0.570570	0.895530	0.560630
O171	O17	0.576770	0.791430	0.541030
O181	O18	0.450470	0.869730	0.553630
O191	O19	0.616670	0.939630	0.651030
O201	O20	0.644170	0.983230	0.495230
Al61	Al6	0.229930	0.992770	0.905370
P61	P6	0.237230	0.228870	0.893970
O211	O21	0.243430	0.124770	0.874370
O221	O22	0.117130	0.203070	0.886970
O231	O23	0.283330	0.272970	0.984370
O241	O24	0.310830	0.316570	0.828570
Al71	Al7	0.673900	0.570500	0.238700
P71	P7	0.437800	0.341700	0.227300
O251	O25	0.541900	0.452000	0.207700
O261	O26	0.463600	0.247400	0.220300
O271	O27	0.393700	0.343700	0.317700
O281	O28	0.350100	0.327600	0.161900
Al81	Al8	0.340570	0.903830	0.572030
P81	P8	0.104470	0.675030	0.560630
O291	O29	0.208570	0.785330	0.541030
O301	O30	0.130270	0.580730	0.553630
O311	O31	0.060370	0.677030	0.651030
O321	O32	0.016770	0.660930	0.495230
Al91	Al9	0.007230	0.237170	0.905370
P91	P9	0.771130	0.008370	0.893970
O331	O33	0.875230	0.118670	0.874370
O341	O34	0.796930	0.914070	0.886970
O351	O35	0.727030	0.010370	0.984370
O361	O36	0.683430	0.994270	0.828570
Al101	Al10	0.570500	0.896600	0.761300
P101	P10	0.341700	0.903900	0.772700
O371	O37	0.452000	0.910100	0.792300
O381	O38	0.247400	0.783800	0.779700
O391	O39	0.343700	0.950000	0.682300
O401	O40	0.327600	0.977500	0.838100
Al111	Al11	0.237170	0.229930	0.094630
P111	P11	0.008370	0.237230	0.106030
O411	O41	0.118670	0.243430	0.125630
O421	O42	0.914070	0.117130	0.113030
O431	O43	0.010370	0.283330	0.015630
O441	O44	0.994270	0.310830	0.171430
Al121	Al12	0.903830	0.563270	0.427970
P121	P12	0.675030	0.570570	0.439370
O451	O45	0.785330	0.576770	0.458970
O461	O46	0.580730	0.450470	0.446370
O471	O47	0.677030	0.616670	0.348970
O481	O48	0.660930	0.644170	0.504770
Al131	Al13	0.103400	0.673900	0.761300
P131	P13	0.096100	0.437800	0.772700
O491	O49	0.089900	0.541900	0.792300
O501	O50	0.216200	0.463600	0.779700
O511	O51	0.050000	0.393700	0.682300
O521	O52	0.022500	0.350100	0.838100
Al141	Al14	0.770070	0.007230	0.094630
P141	P14	0.762770	0.771130	0.106030
O531	O53	0.756570	0.875230	0.125630
O541	O54	0.882870	0.796930	0.113030
O551	O55	0.716670	0.727030	0.015630
O561	O56	0.689170	0.683430	0.171430
Al151	Al15	0.436730	0.340570	0.427970
P151	P15	0.429430	0.104470	0.439370
O571	O57	0.423230	0.208570	0.458970
O581	O58	0.549530	0.130270	0.446370
O591	O59	0.383330	0.060370	0.348970
O601	O60	0.355830	0.016770	0.504770
Al161	Al16	0.326100	0.429500	0.761300
P161	P16	0.562200	0.658300	0.772700
O611	O61	0.458100	0.548000	0.792300
O621	O62	0.536400	0.752600	0.779700
O631	O63	0.606300	0.656300	0.682300
O641	O64	0.649900	0.672400	0.838100
Al171	Al17	0.992770	0.762830	0.094630
P171	P17	0.228870	0.991630	0.106030
O651	O65	0.124770	0.881330	0.125630
O661	O66	0.203070	0.085930	0.113030
O671	O67	0.272970	0.989630	0.015630
O681	O68	0.316570	0.005730	0.171430
Al181	Al18	0.659430	0.096170	0.427970
P181	P18	0.895530	0.324970	0.439370
O691	O69	0.791430	0.214670	0.458970
O701	O70	0.869730	0.419270	0.446370
O711	O71	0.939630	0.322970	0.348970
O721	O72	0.983230	0.339070	0.504770
