data_CODKOX_clean_PM
_symmetry_space_group_name_H-M	'P1'
_cell_length_a	8.869000
_cell_length_b	12.070000
_cell_length_c	16.600000
_cell_angle_alpha	90.000000
_cell_angle_beta	90.000000
_cell_angle_gamma	109.341000
_symmetry_Int_Tables_number 1

loop_
_symmetry_equiv_pos_as_xyz
'x,y,z'

loop_
_atom_site_label
_atom_site_type_symbol
_atom_site_fract_x
_atom_site_fract_y
_atom_site_fract_z
Gd11	Gd1	0.433000	0.452670	0.882130
Gd21	Gd2	0.067000	0.547330	0.382130
Gd31	Gd3	0.567000	0.547330	0.117870
Gd41	Gd4	0.933000	0.452670	0.617870
H11	H1	0.909600	0.225100	0.822200
H21	H2	0.529900	0.219900	0.433900
H31	H3	0.371100	0.035800	0.433800
H41	H4	0.377700	0.860900	0.532900
H51	H5	0.752700	0.295100	0.070100
H61	H6	0.470100	0.780100	0.566100
H71	H7	0.628900	0.964200	0.566200
H81	H8	0.747300	0.704900	0.570100
H91	H9	0.321900	0.141000	0.901300
H101	H10	0.409600	0.225100	0.677800
H111	H11	0.029900	0.219900	0.066100
H121	H12	0.486600	0.833700	0.926800
H131	H13	0.403900	0.974400	0.774100
H141	H14	0.122300	0.139100	0.032900
H151	H15	0.701100	0.004000	0.911100
H161	H16	0.798900	0.996000	0.411100
H171	H17	0.871100	0.035800	0.066200
H181	H18	0.903900	0.974400	0.725900
H191	H19	0.090400	0.774900	0.177800
H201	H20	0.096500	0.152900	0.694600
H211	H21	0.013400	0.166300	0.426800
H221	H22	0.672900	0.678600	0.331400
H231	H23	0.877700	0.860900	0.967100
H241	H24	0.178100	0.859000	0.401300
H251	H25	0.247300	0.704900	0.929900
H261	H26	0.172900	0.678600	0.168600
H271	H27	0.821900	0.141000	0.598700
H281	H28	0.617900	0.638700	0.506700
H291	H29	0.298900	0.996000	0.088900
H301	H30	0.201100	0.004000	0.588900
H311	H31	0.678100	0.859000	0.098700
H321	H32	0.903500	0.847100	0.305400
H331	H33	0.513400	0.166300	0.073200
H341	H34	0.882100	0.361300	0.006700
H351	H35	0.403500	0.847100	0.194600
H361	H36	0.986600	0.833700	0.573200
H371	H37	0.327100	0.321400	0.668600
H381	H38	0.096100	0.025600	0.274100
H391	H39	0.128900	0.964200	0.933800
H401	H40	0.590400	0.774900	0.322200
H411	H41	0.622300	0.139100	0.467100
H421	H42	0.970100	0.780100	0.933900
H431	H43	0.596500	0.152900	0.805400
H441	H44	0.252700	0.295100	0.429900
H451	H45	0.596100	0.025600	0.225900
H461	H46	0.827100	0.321400	0.831400
H471	H47	0.382100	0.361300	0.493300
H481	H48	0.117900	0.638700	0.993300
C11	C1	0.938800	0.609500	0.203730
C21	C2	0.869400	0.897300	0.490600
C31	C3	0.274400	0.306700	0.487200
C41	C4	0.061200	0.390500	0.796270
C51	C5	0.775200	0.835500	0.204000
C61	C6	0.491300	0.900300	0.956300
C71	C7	0.504900	0.047100	0.333870
C81	C8	0.986900	0.008600	0.761740
C91	C9	0.724800	0.164500	0.704000
C101	C10	0.897800	0.884800	0.257210
C111	C11	0.508700	0.099700	0.043700
C121	C12	0.841100	0.639800	0.476480
C131	C13	0.120200	0.002600	0.552900
C141	C14	0.495100	0.952900	0.666130
C151	C15	0.620200	0.002600	0.947100
C161	C16	0.236500	0.108000	0.866590
C171	C17	0.013100	0.991400	0.238260
C181	C18	0.561200	0.390500	0.703730
C191	C19	0.130600	0.102700	0.509400
C201	C20	0.225600	0.693300	0.987200
C211	C21	0.004900	0.047100	0.166130
C221	C22	0.099700	0.703800	0.201250
C231	C23	0.229700	0.693900	0.556290
C241	C24	0.878600	0.997900	0.114050
C251	C25	0.275200	0.835500	0.296000
C261	C26	0.513100	0.991400	0.261740
C271	C27	0.263500	0.892000	0.366590
C281	C28	0.374200	0.801100	0.572520
C291	C29	0.486900	0.008600	0.738260
C301	C30	0.736500	0.108000	0.633410
C311	C31	0.991300	0.900300	0.543700
C321	C32	0.874200	0.801100	0.927480
C331	C33	0.438800	0.609500	0.296270
C341	C34	0.270300	0.306100	0.056290
C351	C35	0.658900	0.360200	0.976480
C361	C36	0.400300	0.296200	0.701250
C371	C37	0.729700	0.693900	0.943710
C381	C38	0.008700	0.099700	0.456300
C391	C39	0.995100	0.952900	0.833870
C401	C40	0.224800	0.164500	0.796000
C411	C41	0.774400	0.306700	0.012800
C421	C42	0.621400	0.002100	0.614050
C431	C43	0.900300	0.296200	0.798750
C441	C44	0.369400	0.897300	0.009400
C451	C45	0.379800	0.997400	0.052900
C461	C46	0.763500	0.892000	0.133410
C471	C47	0.599700	0.703800	0.298750
C481	C48	0.625800	0.198900	0.427480
C491	C49	0.602200	0.115200	0.757210
C501	C50	0.630600	0.102700	0.990600
C511	C51	0.725600	0.693300	0.512800
C521	C52	0.125800	0.198900	0.072520
C531	C53	0.121400	0.002100	0.885950
C541	C54	0.378600	0.997900	0.385950
C551	C55	0.341100	0.639800	0.023520
C561	C56	0.102200	0.115200	0.742790
C571	C57	0.158900	0.360200	0.523520
C581	C58	0.879800	0.997400	0.447100
C591	C59	0.770300	0.306100	0.443710
C601	C60	0.397800	0.884800	0.242790
O11	O1	0.649800	0.399390	0.644160
O21	O2	0.697000	0.679660	0.017030
O31	O3	0.658300	0.725940	0.217400
O41	O4	0.840500	0.370300	0.386340
O51	O5	0.131500	0.442000	0.486220
O61	O6	0.126400	0.151720	0.150650
O71	O7	0.373600	0.848280	0.650650
O81	O8	0.159500	0.629700	0.613660
O91	O9	0.368500	0.558000	0.986220
O101	O10	0.340500	0.370300	0.113660
O111	O11	0.594900	0.455230	0.765060
O121	O12	0.350200	0.600610	0.355840
O131	O13	0.094900	0.455230	0.734940
O141	O14	0.233500	0.802300	0.022270
O151	O15	0.626400	0.151720	0.349350
O161	O16	0.733500	0.802300	0.477730
O171	O17	0.841700	0.274060	0.717400
O181	O18	0.341700	0.274060	0.782600
O191	O19	0.631500	0.442000	0.013780
O201	O20	0.266500	0.197700	0.522270
O211	O21	0.659500	0.629700	0.886340
O221	O22	0.873600	0.848280	0.849350
O231	O23	0.766500	0.197700	0.977730
O241	O24	0.149800	0.399390	0.855840
O251	O25	0.099700	0.328500	0.590790
O261	O26	0.900300	0.671500	0.409210
O271	O27	0.303000	0.320340	0.982970
O281	O28	0.850200	0.600610	0.144160
O291	O29	0.197000	0.679660	0.482970
O301	O30	0.599700	0.328500	0.909210
O311	O31	0.405100	0.544770	0.234940
O321	O32	0.158300	0.725940	0.282600
O331	O33	0.868500	0.558000	0.513780
O341	O34	0.905100	0.544770	0.265060
O351	O35	0.400300	0.671500	0.090790
O361	O36	0.803000	0.320340	0.517030
