data_CODQOD_clean_PM
_symmetry_space_group_name_H-M	'P1'
_cell_length_a	8.932200
_cell_length_b	12.159800
_cell_length_c	16.843600
_cell_angle_alpha	90.000000
_cell_angle_beta	90.000000
_cell_angle_gamma	109.040000
_symmetry_Int_Tables_number 1

loop_
_symmetry_equiv_pos_as_xyz
'x,y,z'

loop_
_atom_site_label
_atom_site_type_symbol
_atom_site_fract_x
_atom_site_fract_y
_atom_site_fract_z
Ce11	Ce1	0.569090	0.048390	0.883530
Ce21	Ce2	0.430910	0.951610	0.116470
Ce31	Ce3	0.069090	0.048390	0.616470
Ce41	Ce4	0.930910	0.951610	0.383530
H11	H1	0.326000	0.814800	0.333800
H21	H2	0.087200	0.277700	0.821600
H31	H3	0.093000	0.526100	0.724200
H41	H4	0.296800	0.496900	0.914900
H51	H5	0.470300	0.283100	0.430200
H61	H6	0.587200	0.277700	0.678400
H71	H7	0.099500	0.648500	0.308300
H81	H8	0.880000	0.364100	0.036400
H91	H9	0.989600	0.336800	0.427000
H101	H10	0.174000	0.185200	0.833800
H111	H11	0.796800	0.496900	0.585100
H121	H12	0.203200	0.503100	0.414900
H131	H13	0.120000	0.635900	0.963600
H141	H14	0.529700	0.716900	0.569800
H151	H15	0.912800	0.722300	0.178400
H161	H16	0.756100	0.206300	0.429800
H171	H17	0.125500	0.469100	0.068600
H181	H18	0.029700	0.716900	0.930200
H191	H19	0.316600	0.643500	0.101100
H201	H20	0.400500	0.351500	0.808300
H211	H21	0.243900	0.793700	0.570200
H221	H22	0.743900	0.793700	0.929800
H231	H23	0.900500	0.351500	0.691700
H241	H24	0.412800	0.722300	0.321600
H251	H25	0.489600	0.336800	0.073000
H261	H26	0.816600	0.643500	0.398900
H271	H27	0.703200	0.503100	0.085100
H281	H28	0.010400	0.663200	0.573000
H291	H29	0.907000	0.473900	0.275800
H301	H30	0.625500	0.469100	0.431400
H311	H31	0.970300	0.283100	0.069800
H321	H32	0.510400	0.663200	0.927000
H331	H33	0.876700	0.858100	0.990400
H341	H34	0.256100	0.206300	0.070200
H351	H35	0.593000	0.526100	0.775800
H361	H36	0.826000	0.814800	0.166200
H371	H37	0.623300	0.141900	0.490400
H381	H38	0.374500	0.530900	0.568600
H391	H39	0.123300	0.141900	0.009600
H401	H40	0.380000	0.364100	0.463600
H411	H41	0.376700	0.858100	0.509600
H421	H42	0.599500	0.648500	0.191700
H431	H43	0.874500	0.530900	0.931400
H441	H44	0.407000	0.473900	0.224200
H451	H45	0.683400	0.356500	0.898900
H461	H46	0.620000	0.635900	0.536400
H471	H47	0.183400	0.356500	0.601100
H481	H48	0.674000	0.185200	0.666200
C11	C1	0.270100	0.803400	0.514100
C21	C2	0.266800	0.390200	0.635810
C31	C3	0.495000	0.454800	0.331690
C41	C4	0.396500	0.386900	0.759810
C51	C5	0.103500	0.613100	0.259810
C61	C6	0.878600	0.498100	0.550630
C71	C7	0.776800	0.336100	0.793330
C81	C8	0.943700	0.111500	0.798300
C91	C9	0.119100	0.505400	0.116480
C101	C10	0.600400	0.207300	0.699830
C111	C11	0.993200	0.402300	0.456370
C121	C12	0.380900	0.494600	0.616480
C131	C13	0.896500	0.386900	0.740190
C141	C14	0.733200	0.609800	0.364190
C151	C15	0.124400	0.695200	0.924310
C161	C16	0.233200	0.609800	0.135810
C171	C17	0.603500	0.613100	0.240190
C181	C18	0.770100	0.803400	0.985900
C191	C19	0.656900	0.854200	0.026430
C201	C20	0.731900	0.199500	0.059830
C211	C21	0.768100	0.800500	0.559830
C221	C22	0.011300	0.491700	0.759710
C231	C23	0.880900	0.494600	0.883520
C241	C24	0.988700	0.508300	0.240290
C251	C25	0.869000	0.398900	0.507050
C261	C26	0.268100	0.800500	0.940170
C271	C27	0.005000	0.545200	0.831690
C281	C28	0.223200	0.663900	0.206670
C291	C29	0.276800	0.336100	0.706670
C301	C30	0.156900	0.854200	0.473570
C311	C31	0.511300	0.491700	0.740290
C321	C32	0.488700	0.508300	0.259710
C331	C33	0.899600	0.792700	0.199830
C341	C34	0.729900	0.196600	0.485900
C351	C35	0.723200	0.663900	0.293330
C361	C36	0.843100	0.145800	0.526430
C371	C37	0.624400	0.695200	0.575690
C381	C38	0.506800	0.597700	0.956370
C391	C39	0.100400	0.207300	0.800170
C401	C40	0.131000	0.601100	0.492950
C411	C41	0.556300	0.888500	0.298300
C421	C42	0.056300	0.888500	0.201700
C431	C43	0.378600	0.498100	0.949370
C441	C44	0.631000	0.601100	0.007050
C451	C45	0.121400	0.501900	0.449370
C461	C46	0.621400	0.501900	0.050630
C471	C47	0.443700	0.111500	0.701700
C481	C48	0.231900	0.199500	0.440170
C491	C49	0.006800	0.597700	0.543630
C501	C50	0.369000	0.398900	0.992950
C511	C51	0.399600	0.792700	0.300170
C521	C52	0.875600	0.304800	0.075690
C531	C53	0.343100	0.145800	0.973570
C541	C54	0.766800	0.390200	0.864190
C551	C55	0.505000	0.545200	0.668310
C561	C56	0.493200	0.402300	0.043630
C571	C57	0.995000	0.454800	0.168310
C581	C58	0.375600	0.304800	0.424310
C591	C59	0.229900	0.196600	0.014100
C601	C60	0.619100	0.505400	0.383520
O11	O1	0.591000	0.952340	0.237630
O21	O2	0.839000	0.862560	0.616520
O31	O3	0.161300	0.227870	0.720350
O41	O4	0.232600	0.305250	0.982460
O51	O5	0.642300	0.900150	0.358220
O61	O6	0.374100	0.351740	0.347350
O71	O7	0.338700	0.772130	0.220350
O81	O8	0.402900	0.183430	0.908470
O91	O9	0.867000	0.059500	0.493140
O101	O10	0.125900	0.648260	0.847350
O111	O11	0.091000	0.952340	0.262370
O121	O12	0.661000	0.137440	0.116520
O131	O13	0.633000	0.940500	0.993140
O141	O14	0.838700	0.772130	0.279650
O151	O15	0.767400	0.694750	0.017540
O161	O16	0.799300	0.817820	0.487740
O171	O17	0.700700	0.182180	0.987740
O181	O18	0.857700	0.099850	0.858220
O191	O19	0.161000	0.137440	0.383480
O201	O20	0.200700	0.182180	0.512260
O211	O21	0.339000	0.862560	0.883480
O221	O22	0.909000	0.047660	0.737630
O231	O23	0.142300	0.900150	0.141780
O241	O24	0.409000	0.047660	0.762370
O251	O25	0.732600	0.305250	0.517540
O261	O26	0.133000	0.940500	0.506860
O271	O27	0.597100	0.816570	0.091530
O281	O28	0.661300	0.227870	0.779650
O291	O29	0.874100	0.351740	0.152650
O301	O30	0.902900	0.183430	0.591530
O311	O31	0.097100	0.816570	0.408470
O321	O32	0.299300	0.817820	0.012260
O331	O33	0.625900	0.648260	0.652650
O341	O34	0.367000	0.059500	0.006860
O351	O35	0.267400	0.694750	0.482460
O361	O36	0.357700	0.099850	0.641780
