data_CODQUJ_clean_PM
_symmetry_space_group_name_H-M	'P1'
_cell_length_a	8.917400
_cell_length_b	12.112100
_cell_length_c	16.626200
_cell_angle_alpha	90.000000
_cell_angle_beta	90.000000
_cell_angle_gamma	109.361000
_symmetry_Int_Tables_number 1

loop_
_symmetry_equiv_pos_as_xyz
'x,y,z'

loop_
_atom_site_label
_atom_site_type_symbol
_atom_site_fract_x
_atom_site_fract_y
_atom_site_fract_z
Sm11	Sm1	0.433580	0.452280	0.117250
Sm21	Sm2	0.066420	0.547720	0.617250
Sm31	Sm3	0.566420	0.547720	0.882750
Sm41	Sm4	0.933580	0.452280	0.382750
H11	H1	0.529400	0.218500	0.567300
H21	H2	0.905700	0.974300	0.274900
H31	H3	0.596800	0.153100	0.193600
H41	H4	0.990500	0.835400	0.426600
H51	H5	0.970600	0.781500	0.067300
H61	H6	0.412700	0.224600	0.322200
H71	H7	0.370800	0.034800	0.567000
H81	H8	0.704600	0.005000	0.086400
H91	H9	0.622800	0.638600	0.489600
H101	H10	0.490500	0.835400	0.073400
H111	H11	0.903200	0.846900	0.693600
H121	H12	0.671000	0.680600	0.666900
H131	H13	0.629200	0.965200	0.433000
H141	H14	0.509500	0.164600	0.926600
H151	H15	0.829000	0.319400	0.166900
H161	H16	0.620300	0.137400	0.533900
H171	H17	0.879700	0.862600	0.033900
H181	H18	0.322200	0.142100	0.099800
H191	H19	0.009500	0.164600	0.573400
H201	H20	0.379700	0.862600	0.466100
H211	H21	0.244300	0.295100	0.571600
H221	H22	0.122800	0.638600	0.010400
H231	H23	0.795400	0.995000	0.586400
H241	H24	0.295400	0.995000	0.913600
H251	H25	0.120300	0.137400	0.966100
H261	H26	0.129200	0.965200	0.067000
H271	H27	0.029400	0.218500	0.932700
H281	H28	0.096800	0.153100	0.306400
H291	H29	0.870800	0.034800	0.933000
H301	H30	0.329000	0.319400	0.333100
H311	H31	0.255700	0.704900	0.071600
H321	H32	0.171000	0.680600	0.833100
H331	H33	0.087300	0.775400	0.822200
H341	H34	0.403200	0.846900	0.806400
H351	H35	0.177800	0.857900	0.599800
H361	H36	0.587300	0.775400	0.677800
H371	H37	0.677800	0.857900	0.900200
H381	H38	0.755700	0.704900	0.428400
H391	H39	0.204600	0.005000	0.413600
H401	H40	0.744300	0.295100	0.928400
H411	H41	0.877200	0.361400	0.989600
H421	H42	0.094300	0.025700	0.725100
H431	H43	0.470600	0.781500	0.432700
H441	H44	0.822200	0.142100	0.400200
H451	H45	0.405700	0.974300	0.225100
H461	H46	0.377200	0.361400	0.510400
H471	H47	0.912700	0.224600	0.177800
H481	H48	0.594300	0.025700	0.774900
C11	C1	0.657300	0.358500	0.024540
C21	C2	0.231000	0.696300	0.442750
C31	C3	0.124500	0.197100	0.926520
C41	C4	0.560900	0.390500	0.296920
C51	C5	0.769000	0.303700	0.557250
C61	C6	0.493800	0.901400	0.043850
C71	C7	0.877700	0.996800	0.551480
C81	C8	0.098200	0.704600	0.799600
C91	C9	0.377700	0.996800	0.948520
C101	C10	0.731000	0.696300	0.057250
C111	C11	0.401800	0.295400	0.299600
C121	C12	0.869600	0.897300	0.507840
C131	C13	0.488000	0.008900	0.260900
C141	C14	0.875500	0.802900	0.073480
C151	C15	0.375500	0.802900	0.426520
C161	C16	0.774400	0.835100	0.794950
C171	C17	0.369600	0.897300	0.992160
C181	C18	0.270000	0.306300	0.514800
C191	C19	0.622300	0.003200	0.051480
C201	C20	0.730000	0.693700	0.485200
C211	C21	0.901800	0.295400	0.200400
C221	C22	0.060900	0.390500	0.203080
C231	C23	0.622000	0.003100	0.385200
C241	C24	0.996000	0.954200	0.167160
C251	C25	0.725600	0.164900	0.294950
C261	C26	0.602900	0.115600	0.241670
C271	C27	0.397100	0.884400	0.758330
C281	C28	0.506200	0.098600	0.956150
C291	C29	0.598200	0.704600	0.700400
C301	C30	0.762800	0.891000	0.865550
C311	C31	0.274400	0.835100	0.705050
C321	C32	0.504000	0.045800	0.667160
C331	C33	0.988000	0.008900	0.239100
C341	C34	0.006200	0.098600	0.543850
C351	C35	0.262800	0.891000	0.634450
C361	C36	0.897100	0.884400	0.741670
C371	C37	0.842700	0.641500	0.524540
C381	C38	0.770000	0.306300	0.985200
C391	C39	0.130400	0.102700	0.492160
C401	C40	0.878000	0.996900	0.885200
C411	C41	0.157300	0.358500	0.475460
C421	C42	0.342700	0.641500	0.975460
C431	C43	0.378000	0.996900	0.614800
C441	C44	0.624500	0.197100	0.573480
C451	C45	0.439100	0.609500	0.703080
C461	C46	0.993800	0.901400	0.456150
C471	C47	0.737200	0.109000	0.365550
C481	C48	0.237200	0.109000	0.134450
C491	C49	0.012000	0.991100	0.760900
C501	C50	0.630400	0.102700	0.007840
C511	C51	0.102900	0.115600	0.258330
C521	C52	0.122300	0.003200	0.448520
C531	C53	0.230000	0.693700	0.014800
C541	C54	0.225600	0.164900	0.205050
C551	C55	0.512000	0.991100	0.739100
C561	C56	0.269000	0.303700	0.942750
C571	C57	0.004000	0.045800	0.832840
C581	C58	0.122000	0.003100	0.114800
C591	C59	0.496000	0.954200	0.332840
C601	C60	0.939100	0.609500	0.796920
O11	O1	0.351300	0.600020	0.643040
O21	O2	0.339600	0.367170	0.885520
O31	O3	0.374600	0.849730	0.348580
O41	O4	0.301500	0.318400	0.016050
O51	O5	0.660400	0.632830	0.114480
O61	O6	0.594500	0.454940	0.235840
O71	O7	0.766400	0.197460	0.018900
O81	O8	0.266400	0.197460	0.481100
O91	O9	0.370200	0.557670	0.010440
O101	O10	0.198500	0.681600	0.516050
O111	O11	0.625400	0.150270	0.651420
O121	O12	0.341400	0.273880	0.218650
O131	O13	0.098600	0.323550	0.408410
O141	O14	0.129800	0.442330	0.510440
O151	O15	0.841400	0.273880	0.281350
O161	O16	0.094500	0.454940	0.264160
O171	O17	0.658600	0.726120	0.781350
O181	O18	0.733600	0.802540	0.518900
O191	O19	0.598600	0.323550	0.091590
O201	O20	0.839600	0.367170	0.614480
O211	O21	0.233600	0.802540	0.981100
O221	O22	0.629800	0.442330	0.989560
O231	O23	0.648700	0.399980	0.356960
O241	O24	0.158600	0.726120	0.718650
O251	O25	0.801500	0.318400	0.483950
O261	O26	0.874600	0.849730	0.151420
O271	O27	0.401400	0.676450	0.908410
O281	O28	0.148700	0.399980	0.143040
O291	O29	0.698500	0.681600	0.983950
O301	O30	0.851300	0.600020	0.856960
O311	O31	0.125400	0.150270	0.848580
O321	O32	0.405500	0.545060	0.764160
O331	O33	0.901400	0.676450	0.591590
O341	O34	0.160400	0.632830	0.385520
O351	O35	0.870200	0.557670	0.489560
O361	O36	0.905500	0.545060	0.735840
