data_CODROD_clean_PM
_symmetry_space_group_name_H-M	'P1'
_cell_length_a	9.143200
_cell_length_b	9.143200
_cell_length_c	14.773000
_cell_angle_alpha	100.121000
_cell_angle_beta	100.122000
_cell_angle_gamma	115.602000
_symmetry_Int_Tables_number 1

loop_
_symmetry_equiv_pos_as_xyz
'x,y,z'

loop_
_atom_site_label
_atom_site_type_symbol
_atom_site_fract_x
_atom_site_fract_y
_atom_site_fract_z
Pr11	Pr1	0.509190	0.259190	0.518380
Pr21	Pr2	0.740810	0.490810	0.981620
Pr31	Pr3	0.490810	0.740810	0.481620
Pr41	Pr4	0.259190	0.509190	0.018380
H11	H1	0.868000	0.312000	0.430000
H21	H2	0.062000	0.118000	0.430000
H31	H3	0.688000	0.132000	0.070000
H41	H4	0.882000	0.938000	0.070000
H51	H5	0.132000	0.688000	0.570000
H61	H6	0.938000	0.882000	0.570000
H71	H7	0.312000	0.868000	0.930000
H81	H8	0.118000	0.062000	0.930000
C11	C1	0.748990	0.060390	0.441580
C21	C2	0.893980	0.213780	0.435160
C31	C3	0.192590	0.381190	0.441580
C41	C4	0.041180	0.221380	0.435160
C51	C5	0.939610	0.251010	0.058420
C61	C6	0.786220	0.106020	0.064840
C71	C7	0.618810	0.807410	0.058420
C81	C8	0.778620	0.958820	0.064840
C91	C9	0.251010	0.939610	0.558420
C101	C10	0.106020	0.786220	0.564840
C111	C11	0.807410	0.618810	0.558420
C121	C12	0.958820	0.778620	0.564840
C131	C13	0.060390	0.748990	0.941580
C141	C14	0.213780	0.893980	0.935160
C151	C15	0.381190	0.192590	0.941580
C161	C16	0.221380	0.041180	0.935160
C171	C17	0.675500	0.324500	0.750000
C181	C18	0.574500	0.425500	0.750000
C191	C19	0.324500	0.675500	0.250000
C201	C20	0.425500	0.574500	0.250000
O11	O1	0.660710	0.237910	0.670420
O21	O2	0.633750	0.081690	0.466840
O31	O3	0.742210	0.917350	0.424160
O41	O4	0.509710	0.432510	0.670420
O51	O5	0.333090	0.385150	0.466840
O61	O6	0.181950	0.506810	0.424160
O71	O7	0.762090	0.339290	0.829580
O81	O8	0.918310	0.366250	0.033160
O91	O9	0.082650	0.257790	0.075840
O101	O10	0.567490	0.490290	0.829580
O111	O11	0.614850	0.666910	0.033160
O121	O12	0.493190	0.818050	0.075840
O131	O13	0.339290	0.762090	0.329580
O141	O14	0.366250	0.918310	0.533160
O151	O15	0.257790	0.082650	0.575840
O161	O16	0.490290	0.567490	0.329580
O171	O17	0.666910	0.614850	0.533160
O181	O18	0.818050	0.493190	0.575840
O191	O19	0.237910	0.660710	0.170420
O201	O20	0.081690	0.633750	0.966840
O211	O21	0.917350	0.742210	0.924160
O221	O22	0.432510	0.509710	0.170420
O231	O23	0.385150	0.333090	0.966840
O241	O24	0.506810	0.181950	0.924160
