data_COJHIT_clean_PM
_symmetry_space_group_name_H-M	'P1'
_cell_length_a	13.252900
_cell_length_b	13.253000
_cell_length_c	13.995000
_cell_angle_alpha	90.000000
_cell_angle_beta	90.000000
_cell_angle_gamma	90.000000
_symmetry_Int_Tables_number 1

loop_
_symmetry_equiv_pos_as_xyz
'x,y,z'

loop_
_atom_site_label
_atom_site_type_symbol
_atom_site_fract_x
_atom_site_fract_y
_atom_site_fract_z
Co11	Co1	0.970580	0.002580	0.872700
Co21	Co2	0.029420	0.997420	0.372700
Co31	Co3	0.029420	0.002580	0.627300
Co41	Co4	0.970580	0.997420	0.127300
H11	H1	0.729400	0.997700	0.861400
H21	H2	0.919200	0.765100	0.867500
H31	H3	0.950200	0.587000	0.879700
H41	H4	0.947400	0.417400	0.887100
H51	H5	0.558900	0.004800	0.853400
H61	H6	0.386600	0.004700	0.856900
H71	H7	0.270600	0.002300	0.361400
H81	H8	0.080800	0.234900	0.367500
H91	H9	0.049800	0.413000	0.379700
H101	H10	0.052600	0.582600	0.387100
H111	H11	0.441100	0.995200	0.353400
H121	H12	0.613400	0.995300	0.356900
H131	H13	0.270600	0.997700	0.638600
H141	H14	0.080800	0.765100	0.632500
H151	H15	0.049800	0.587000	0.620300
H161	H16	0.052600	0.417400	0.612900
H171	H17	0.441100	0.004800	0.646600
H181	H18	0.613400	0.004700	0.643100
H191	H19	0.729400	0.002300	0.138600
H201	H20	0.919200	0.234900	0.132500
H211	H21	0.950200	0.413000	0.120300
H221	H22	0.947400	0.582600	0.112900
H231	H23	0.558900	0.995200	0.146600
H241	H24	0.386600	0.995300	0.143100
C11	C1	0.751600	0.998000	0.925900
C21	C2	0.957600	0.785300	0.813500
C31	C3	0.971900	0.553700	0.823200
C41	C4	0.969200	0.449700	0.830100
C51	C5	0.523800	0.002900	0.912600
C61	C6	0.422300	0.002800	0.915700
C71	C7	0.185900	0.024800	0.922500
C81	C8	0.970700	0.222900	0.825200
C91	C9	0.248400	0.002000	0.425900
C101	C10	0.042400	0.214700	0.313500
C111	C11	0.028100	0.446300	0.323200
C121	C12	0.030800	0.550300	0.330100
C131	C13	0.476200	0.997100	0.412600
C141	C14	0.577700	0.997200	0.415700
C151	C15	0.814100	0.975200	0.422500
C161	C16	0.029300	0.777100	0.325200
C171	C17	0.248400	0.998000	0.574100
C181	C18	0.042400	0.785300	0.686500
C191	C19	0.028100	0.553700	0.676800
C201	C20	0.030800	0.449700	0.669900
C211	C21	0.476200	0.002900	0.587400
C221	C22	0.577700	0.002800	0.584300
C231	C23	0.814100	0.024800	0.577500
C241	C24	0.029300	0.222900	0.674800
C251	C25	0.751600	0.002000	0.074100
C261	C26	0.957600	0.214700	0.186500
C271	C27	0.971900	0.446300	0.176800
C281	C28	0.969200	0.550300	0.169900
C291	C29	0.523800	0.997100	0.087400
C301	C30	0.422300	0.997200	0.084300
C311	C31	0.185900	0.975200	0.077500
C321	C32	0.970700	0.777100	0.174800
C331	C33	0.000000	0.720200	0.750000
C341	C34	0.000000	0.620000	0.750000
C351	C35	0.000000	0.393200	0.750000
C361	C36	0.000000	0.288000	0.750000
C371	C37	0.000000	0.279800	0.250000
C381	C38	0.000000	0.380000	0.250000
C391	C39	0.000000	0.606800	0.250000
C401	C40	0.000000	0.712000	0.250000
C411	C41	0.687900	0.000000	0.000000
C421	C42	0.575900	0.000000	0.000000
C431	C43	0.366300	0.000000	0.000000
C441	C44	0.254600	0.000000	0.000000
C451	C45	0.312100	0.000000	0.500000
C461	C46	0.424100	0.000000	0.500000
C471	C47	0.633700	0.000000	0.500000
C481	C48	0.745400	0.000000	0.500000
N11	N1	0.976100	0.877100	0.791300
N21	N2	0.847900	0.994800	0.949800
N31	N3	0.094700	0.019300	0.953600
N41	N4	0.977300	0.121300	0.793100
N51	N5	0.023900	0.122900	0.291300
N61	N6	0.152100	0.005200	0.449800
N71	N7	0.905300	0.980700	0.453600
N81	N8	0.022700	0.878700	0.293100
N91	N9	0.023900	0.877100	0.708700
N101	N10	0.152100	0.994800	0.550200
N111	N11	0.905300	0.019300	0.546400
N121	N12	0.022700	0.121300	0.706900
N131	N13	0.976100	0.122900	0.208700
N141	N14	0.847900	0.005200	0.050200
N151	N15	0.094700	0.980700	0.046400
N161	N16	0.977300	0.878700	0.206900
