data_COKJIX_clean_PM
_symmetry_space_group_name_H-M	'P1'
_cell_length_a	8.357600
_cell_length_b	10.528300
_cell_length_c	17.467500
_cell_angle_alpha	98.741000
_cell_angle_beta	97.008000
_cell_angle_gamma	100.523000
_symmetry_Int_Tables_number 1

loop_
_symmetry_equiv_pos_as_xyz
'x,y,z'

loop_
_atom_site_label
_atom_site_type_symbol
_atom_site_fract_x
_atom_site_fract_y
_atom_site_fract_z
Gd11	Gd1	0.033340	0.189630	0.236740
Gd21	Gd2	0.520290	0.135070	0.295280
C11	C1	0.275900	0.207300	0.410100
C21	C2	0.184100	0.196200	0.478400
C31	C3	0.218900	0.112100	0.528700
H11	H1	0.303600	0.067200	0.521900
C41	C4	0.128700	0.094000	0.589400
C51	C5	0.004600	0.162700	0.598700
H21	H2	0.942300	0.150600	0.638700
C61	C6	0.971700	0.248100	0.550200
H31	H3	0.888900	0.294700	0.558000
C71	C7	0.060700	0.265900	0.489600
H41	H4	0.038000	0.324100	0.456700
C81	C8	0.164100	0.998600	0.641600
C91	C9	0.339500	0.227100	0.140200
C101	C10	0.416300	0.202400	0.068200
C111	C11	0.327500	0.120000	0.000700
H51	H5	0.217600	0.081900	0.999800
C121	C12	0.401500	0.094100	0.934800
C131	C13	0.565700	0.153900	0.936800
H61	H6	0.615700	0.138700	0.892500
C141	C14	0.654300	0.234700	0.003300
H71	H7	0.764000	0.273300	0.004000
C151	C15	0.580300	0.259000	0.069200
H81	H8	0.640700	0.313400	0.114300
C161	C16	0.313200	0.001400	0.863100
C171	C17	0.026500	0.438600	0.194000
C181	C18	0.027400	0.569600	0.170900
C191	C19	0.122600	0.683000	0.217600
H91	H9	0.184400	0.677900	0.264600
C201	C20	0.126400	0.804700	0.194700
C211	C21	0.033000	0.812100	0.124800
H101	H10	0.032700	0.893000	0.109600
C221	C22	0.940200	0.698100	0.077500
H111	H11	0.880000	0.703100	0.030100
C231	C23	0.935800	0.578000	0.099700
H121	H12	0.872300	0.502500	0.067700
C241	C24	0.240500	0.922300	0.242400
C251	C25	0.784200	0.367400	0.336200
H131	H13	0.866000	0.443200	0.350600
O11	O1	0.220000	0.261300	0.355550
O21	O2	0.402800	0.160400	0.410140
O31	O3	0.063900	0.969400	0.687290
O41	O4	0.291900	0.952500	0.634580
O51	O5	0.185700	0.208800	0.132640
O61	O6	0.433700	0.264900	0.206300
O71	O7	0.162200	0.954500	0.858820
O81	O8	0.397300	0.973200	0.809830
O91	O9	0.124700	0.431600	0.254590
O101	O10	0.929600	0.339900	0.155910
O111	O11	0.361000	0.908000	0.288450
O121	O12	0.223900	0.037000	0.232580
O131	O13	0.648700	0.367100	0.358930
O141	O14	0.814200	0.270700	0.295000
Gd31	Gd3	0.966660	0.810370	0.763260
Gd41	Gd4	0.479710	0.864930	0.704720
C261	C26	0.724100	0.792700	0.589900
C271	C27	0.815900	0.803800	0.521600
C281	C28	0.781100	0.887900	0.471300
H141	H14	0.696400	0.932800	0.478100
C291	C29	0.871300	0.906000	0.410600
C301	C30	0.995400	0.837300	0.401300
H151	H15	0.057700	0.849400	0.361300
C311	C31	0.028300	0.751900	0.449800
H161	H16	0.111100	0.705300	0.442000
C321	C32	0.939300	0.734100	0.510400
H171	H17	0.962000	0.675900	0.543300
C331	C33	0.835900	0.001400	0.358400
C341	C34	0.660500	0.772900	0.859800
C351	C35	0.583700	0.797600	0.931800
C361	C36	0.672500	0.880000	0.999300
H181	H18	0.782400	0.918100	0.000200
C371	C37	0.598500	0.905900	0.065200
C381	C38	0.434300	0.846100	0.063200
H191	H19	0.384300	0.861300	0.107500
C391	C39	0.345700	0.765300	0.996700
H201	H20	0.236000	0.726700	0.996000
C401	C40	0.419700	0.741000	0.930800
H211	H21	0.359300	0.686600	0.885700
C411	C41	0.686800	0.998600	0.136900
C421	C42	0.973500	0.561400	0.806000
C431	C43	0.972600	0.430400	0.829100
C441	C44	0.877400	0.317000	0.782400
H221	H22	0.815600	0.322100	0.735400
C451	C45	0.873600	0.195300	0.805300
C461	C46	0.967000	0.187900	0.875200
H231	H23	0.967300	0.107000	0.890400
C471	C47	0.059800	0.301900	0.922500
H241	H24	0.120000	0.296900	0.969900
C481	C48	0.064200	0.422000	0.900300
H251	H25	0.127700	0.497500	0.932300
C491	C49	0.759500	0.077700	0.757600
C501	C50	0.215800	0.632600	0.663800
H261	H26	0.134000	0.556800	0.649400
O151	O15	0.780000	0.738700	0.644450
O161	O16	0.597200	0.839600	0.589860
O171	O17	0.936100	0.030600	0.312710
O181	O18	0.708100	0.047500	0.365420
O191	O19	0.814300	0.791200	0.867360
O201	O20	0.566300	0.735100	0.793700
O211	O21	0.837800	0.045500	0.141180
O221	O22	0.602700	0.026800	0.190170
O231	O23	0.875300	0.568400	0.745410
O241	O24	0.070400	0.660100	0.844090
O251	O25	0.639000	0.092000	0.711550
O261	O26	0.776100	0.963000	0.767420
O271	O27	0.351300	0.632900	0.641070
O281	O28	0.185800	0.729300	0.705000
