data_COKMOG_clean_PM
_symmetry_space_group_name_H-M	'P1'
_cell_length_a	25.858200
_cell_length_b	25.858200
_cell_length_c	6.261500
_cell_angle_alpha	90.000000
_cell_angle_beta	90.000000
_cell_angle_gamma	120.000000
_symmetry_Int_Tables_number 1

loop_
_symmetry_equiv_pos_as_xyz
'x,y,z'

loop_
_atom_site_label
_atom_site_type_symbol
_atom_site_fract_x
_atom_site_fract_y
_atom_site_fract_z
Cu11	Cu1	0.386510	0.349070	0.176100
O11	O1	0.354410	0.303060	0.433500
O21	O2	0.292170	0.224000	0.628700
O31	O3	0.360500	0.277020	0.007800
C11	C1	0.324630	0.247840	0.465700
C21	C2	0.327690	0.206210	0.299000
C31	C3	0.348130	0.224730	0.092800
C41	C4	0.354120	0.184050	0.956900
H11	H1	0.367200	0.195500	0.801600
Cu21	Cu2	0.053180	0.682400	0.509430
O41	O4	0.021080	0.636390	0.766830
O51	O5	0.958840	0.557330	0.962030
O61	O6	0.027170	0.610350	0.341130
C51	C5	0.991300	0.581170	0.799030
C61	C6	0.994360	0.539540	0.632330
C71	C7	0.014800	0.558060	0.426130
C81	C8	0.020790	0.517380	0.290230
H21	H2	0.033870	0.528830	0.134930
Cu31	Cu3	0.719840	0.015740	0.842770
O71	O7	0.687740	0.969730	0.100170
O81	O8	0.625500	0.890670	0.295370
O91	O9	0.693830	0.943690	0.674470
C91	C9	0.657960	0.914510	0.132370
C101	C10	0.661020	0.872880	0.965670
C111	C11	0.681460	0.891400	0.759470
C121	C12	0.687450	0.850720	0.623570
H31	H3	0.700530	0.862170	0.468270
Cu41	Cu4	0.650930	0.037440	0.176100
O101	O10	0.696940	0.051350	0.433500
O111	O11	0.776000	0.068170	0.628700
O121	O12	0.722980	0.083480	0.007800
C131	C13	0.752160	0.076790	0.465700
C141	C14	0.793790	0.121480	0.299000
C151	C15	0.775270	0.123400	0.092800
C161	C16	0.815950	0.170070	0.956900
H41	H4	0.804500	0.171700	0.801600
Cu51	Cu5	0.317600	0.370770	0.509430
O131	O13	0.363610	0.384680	0.766830
O141	O14	0.442670	0.401500	0.962030
O151	O15	0.389650	0.416810	0.341130
C171	C17	0.418830	0.410120	0.799030
C181	C18	0.460460	0.454810	0.632330
C191	C19	0.441940	0.456730	0.426130
C201	C20	0.482620	0.503400	0.290230
H51	H5	0.471170	0.505030	0.134930
Cu61	Cu6	0.984260	0.704110	0.842770
O161	O16	0.030270	0.718020	0.100170
O171	O17	0.109330	0.734840	0.295370
O181	O18	0.056310	0.750150	0.674470
C211	C21	0.085490	0.743460	0.132370
C221	C22	0.127120	0.788150	0.965670
C231	C23	0.108600	0.790070	0.759470
C241	C24	0.149280	0.836740	0.623570
H61	H6	0.137830	0.838370	0.468270
Cu71	Cu7	0.962560	0.613490	0.176100
O191	O19	0.948650	0.645590	0.433500
O201	O20	0.931830	0.707830	0.628700
O211	O21	0.916520	0.639500	0.007800
C251	C25	0.923210	0.675370	0.465700
C261	C26	0.878520	0.672310	0.299000
C271	C27	0.876600	0.651870	0.092800
C281	C28	0.829930	0.645880	0.956900
H71	H7	0.828300	0.632800	0.801600
Cu81	Cu8	0.629230	0.946820	0.509430
O221	O22	0.615320	0.978920	0.766830
O231	O23	0.598500	0.041160	0.962030
O241	O24	0.583190	0.972830	0.341130
C291	C29	0.589880	0.008700	0.799030
C301	C30	0.545190	0.005640	0.632330
C311	C31	0.543270	0.985200	0.426130
C321	C32	0.496600	0.979210	0.290230
H81	H8	0.494970	0.966130	0.134930
Cu91	Cu9	0.295890	0.280160	0.842770
O251	O25	0.281980	0.312260	0.100170
O261	O26	0.265160	0.374500	0.295370
O271	O27	0.249850	0.306170	0.674470
C331	C33	0.256540	0.342040	0.132370
C341	C34	0.211850	0.338980	0.965670
C351	C35	0.209930	0.318540	0.759470
C361	C36	0.163260	0.312550	0.623570
H91	H9	0.161630	0.299470	0.468270
Cu101	Cu10	0.613490	0.650930	0.823900
O281	O28	0.645590	0.696940	0.566500
O291	O29	0.707830	0.776000	0.371300
O301	O30	0.639500	0.722980	0.992200
C371	C37	0.675370	0.752160	0.534300
C381	C38	0.672310	0.793790	0.701000
C391	C39	0.651870	0.775270	0.907200
C401	C40	0.645880	0.815950	0.043100
H101	H10	0.632800	0.804500	0.198400
Cu111	Cu11	0.280160	0.984260	0.157230
O311	O31	0.312260	0.030270	0.899830
O321	O32	0.374500	0.109330	0.704630
O331	O33	0.306170	0.056310	0.325530
C411	C41	0.342040	0.085490	0.867630
C421	C42	0.338980	0.127120	0.034330
C431	C43	0.318540	0.108600	0.240530
C441	C44	0.312550	0.149280	0.376430
H111	H11	0.299470	0.137830	0.531730
Cu121	Cu12	0.946820	0.317600	0.490570
O341	O34	0.978920	0.363610	0.233170
O351	O35	0.041160	0.442670	0.037970
O361	O36	0.972830	0.389650	0.658870
C451	C45	0.008700	0.418830	0.200970
C461	C46	0.005640	0.460460	0.367670
C471	C47	0.985200	0.441940	0.573870
C481	C48	0.979210	0.482620	0.709770
H121	H12	0.966130	0.471170	0.865070
Cu131	Cu13	0.349070	0.962560	0.823900
O371	O37	0.303060	0.948650	0.566500
O381	O38	0.224000	0.931830	0.371300
O391	O39	0.277020	0.916520	0.992200
C491	C49	0.247840	0.923210	0.534300
C501	C50	0.206210	0.878520	0.701000
C511	C51	0.224730	0.876600	0.907200
C521	C52	0.184050	0.829930	0.043100
H131	H13	0.195500	0.828300	0.198400
Cu141	Cu14	0.015740	0.295890	0.157230
O401	O40	0.969730	0.281980	0.899830
O411	O41	0.890670	0.265160	0.704630
O421	O42	0.943690	0.249850	0.325530
C531	C53	0.914510	0.256540	0.867630
C541	C54	0.872880	0.211850	0.034330
C551	C55	0.891400	0.209930	0.240530
C561	C56	0.850720	0.163260	0.376430
H141	H14	0.862170	0.161630	0.531730
Cu151	Cu15	0.682400	0.629230	0.490570
O431	O43	0.636390	0.615320	0.233170
O441	O44	0.557330	0.598500	0.037970
O451	O45	0.610350	0.583190	0.658870
C571	C57	0.581170	0.589880	0.200970
C581	C58	0.539540	0.545190	0.367670
C591	C59	0.558060	0.543270	0.573870
C601	C60	0.517380	0.496600	0.709770
H151	H15	0.528830	0.494970	0.865070
Cu161	Cu16	0.037440	0.386510	0.823900
O461	O46	0.051350	0.354410	0.566500
O471	O47	0.068170	0.292170	0.371300
O481	O48	0.083480	0.360500	0.992200
C611	C61	0.076790	0.324630	0.534300
C621	C62	0.121480	0.327690	0.701000
C631	C63	0.123400	0.348130	0.907200
C641	C64	0.170070	0.354120	0.043100
H161	H16	0.171700	0.367200	0.198400
Cu171	Cu17	0.704110	0.719840	0.157230
O491	O49	0.718020	0.687740	0.899830
O501	O50	0.734840	0.625500	0.704630
O511	O51	0.750150	0.693830	0.325530
C651	C65	0.743460	0.657960	0.867630
C661	C66	0.788150	0.661020	0.034330
C671	C67	0.790070	0.681460	0.240530
C681	C68	0.836740	0.687450	0.376430
H171	H17	0.838370	0.700530	0.531730
Cu181	Cu18	0.370770	0.053180	0.490570
O521	O52	0.384680	0.021080	0.233170
O531	O53	0.401500	0.958840	0.037970
O541	O54	0.416810	0.027170	0.658870
C691	C69	0.410120	0.991300	0.200970
C701	C70	0.454810	0.994360	0.367670
C711	C71	0.456730	0.014800	0.573870
C721	C72	0.503400	0.020790	0.709770
H181	H18	0.505030	0.033870	0.865070
