data_COKRUR_clean_PM
_symmetry_space_group_name_H-M	'P1'
_cell_length_a	41.982000
_cell_length_b	21.558800
_cell_length_c	43.755000
_cell_angle_alpha	90.000000
_cell_angle_beta	92.635000
_cell_angle_gamma	90.000000
_symmetry_Int_Tables_number 1

loop_
_symmetry_equiv_pos_as_xyz
'x,y,z'

loop_
_atom_site_label
_atom_site_type_symbol
_atom_site_fract_x
_atom_site_fract_y
_atom_site_fract_z
In11	In1	0.707490	0.051830	0.504990
In21	In2	0.460200	0.740950	0.255950
O11	O1	0.247000	0.434400	0.044200
O21	O2	0.671300	0.953500	0.039700
N11	N1	0.462500	0.730400	0.209500
O31	O3	0.667900	0.065600	0.466100
N21	N2	0.460000	0.753900	0.303100
C11	C1	0.665700	0.894700	0.039600
N31	N3	0.414400	0.706400	0.255800
O41	O4	0.246100	0.544800	0.473300
O51	O5	0.681000	0.857800	0.026000
C21	C2	0.523800	0.785400	0.229000
C31	C3	0.249000	0.599200	0.469300
C41	C4	0.550400	0.822700	0.239500
H11	H1	0.565100	0.841600	0.226500
C51	C5	0.396800	0.684200	0.231400
C61	C6	0.485700	0.744500	0.190300
C71	C7	0.404400	0.685300	0.200600
C81	C8	0.624100	0.882200	0.417300
H21	H2	0.624300	0.838300	0.415800
C91	C9	0.645080	0.912100	0.437980
H31	H3	0.659600	0.888600	0.450600
C101	C10	0.644770	0.976400	0.440210
C111	C11	0.623500	0.010800	0.421800
H41	H4	0.623300	0.054800	0.423300
C121	C12	0.602500	0.981000	0.401150
H51	H5	0.588000	0.004500	0.388600
C131	C13	0.602800	0.916700	0.398920
C141	C14	0.435100	0.705900	0.190600
C151	C15	0.382000	0.658800	0.177230
C161	C16	0.352600	0.686600	0.170600
H61	H6	0.347000	0.723800	0.180700
C171	C17	0.331300	0.660000	0.149100
H71	H7	0.311200	0.679000	0.144600
C181	C18	0.339400	0.605700	0.134280
C191	C19	0.368800	0.577800	0.140900
H81	H8	0.374300	0.540700	0.130800
C201	C20	0.390050	0.604400	0.162400
H91	H9	0.410100	0.585400	0.166900
C211	C21	0.315800	0.576100	0.111200
C221	C22	0.295000	0.613800	0.093900
H101	H10	0.295900	0.657600	0.096300
C231	C23	0.272900	0.587500	0.073200
H111	H11	0.258700	0.613200	0.061300
C241	C24	0.271600	0.523400	0.069700
C251	C25	0.292300	0.485700	0.086900
H121	H12	0.291400	0.441900	0.084600
C261	C26	0.314500	0.512000	0.107700
H131	H13	0.328700	0.486300	0.119500
O61	O6	0.684500	0.975600	0.481100
O71	O7	0.231100	0.633300	0.479600
N41	N4	0.505900	0.772500	0.256600
C271	C27	0.366700	0.667700	0.272000
H141	H14	0.350200	0.656000	0.285000
C281	C28	0.483700	0.783800	0.319600
C291	C29	0.666700	0.011200	0.463800
C301	C30	0.366400	0.660500	0.241100
H151	H15	0.349700	0.643300	0.228400
C311	C31	0.474600	0.777200	0.351700
H161	H16	0.487100	0.790600	0.369100
C321	C32	0.513200	0.771700	0.200200
C331	C33	0.436300	0.736700	0.322100
C341	C34	0.381900	0.697700	0.334200
C351	C35	0.355700	0.734700	0.340000
H171	H17	0.351600	0.771000	0.328200
C361	C36	0.335600	0.718500	0.363100
H181	H18	0.317700	0.743800	0.367000
C371	C37	0.341600	0.665400	0.380400
C381	C38	0.367800	0.628400	0.374600
H191	H19	0.371900	0.592100	0.386400
C391	C39	0.387900	0.644500	0.351500
H201	H20	0.405800	0.619200	0.347500
C401	C40	0.407600	0.711400	0.311100
C411	C41	0.521600	0.797200	0.278800
C421	C42	0.576300	0.823800	0.130500
C431	C43	0.550600	0.861900	0.136700
H211	H21	0.547200	0.899300	0.125600
C441	C44	0.530000	0.845200	0.159200
H221	H22	0.512400	0.871200	0.163400
C451	C45	0.534900	0.790400	0.175500
C461	C46	0.560500	0.752300	0.169300
H231	H23	0.563900	0.714900	0.180400
C471	C47	0.581200	0.769100	0.146800
H241	H24	0.598700	0.743000	0.142500
C481	C48	0.551700	0.827200	0.271300
H251	H25	0.567700	0.845000	0.284600
C491	C49	0.397300	0.697200	0.281800
C501	C50	0.445400	0.709300	0.159300
H261	H26	0.433400	0.695900	0.141600
C511	C51	0.445300	0.749000	0.352700
H271	H27	0.433700	0.739800	0.370300
C521	C52	0.579300	0.883100	0.376470
C531	C53	0.549400	0.909000	0.370400
H281	H28	0.543500	0.946000	0.380500
C541	C54	0.528090	0.881000	0.349400
H291	H29	0.507600	0.898700	0.345300
C551	C55	0.536700	0.826900	0.334560
C561	C56	0.566600	0.801000	0.340700
H301	H30	0.572500	0.764100	0.330500
C571	C57	0.587950	0.829100	0.361600
H311	H31	0.608400	0.811300	0.365800
C581	C58	0.514700	0.797500	0.310500
C591	C59	0.627200	0.919900	0.080600
H321	H32	0.630700	0.962800	0.077000
C601	C60	0.643800	0.875600	0.064800
C611	C61	0.638700	0.812900	0.070100
H331	H33	0.650100	0.782600	0.059200
C621	C62	0.616900	0.794500	0.091200
H341	H34	0.613400	0.751700	0.094800
C631	C63	0.600200	0.838900	0.107100
C641	C64	0.605300	0.901600	0.101800
H351	H35	0.593900	0.931900	0.112600
C651	C65	0.297500	0.697000	0.416500
H361	H36	0.298500	0.738500	0.409500
C661	C66	0.317500	0.652200	0.405000
C671	C67	0.316000	0.591300	0.415300
H371	H37	0.329700	0.560700	0.407500
C681	C68	0.294400	0.575200	0.437100
H381	H38	0.293400	0.533600	0.444200
C691	C69	0.274400	0.620000	0.448600
C701	C70	0.275900	0.680900	0.438300
H391	H39	0.262200	0.711500	0.446200
C711	C71	0.474100	0.734000	0.159700
H401	H40	0.485400	0.743400	0.142000
C721	C72	0.247600	0.494600	0.047700
O81	O8	0.229700	0.530600	0.032300
In31	In3	0.207490	0.551830	0.504990
In41	In4	0.960200	0.240950	0.255950
O91	O9	0.747000	0.934400	0.044200
O101	O10	0.171300	0.453500	0.039700
N51	N5	0.962500	0.230400	0.209500
O111	O11	0.167900	0.565600	0.466100
N61	N6	0.960000	0.253900	0.303100
C731	C73	0.165700	0.394700	0.039600
N71	N7	0.914400	0.206400	0.255800
O121	O12	0.746100	0.044800	0.473300
O131	O13	0.181000	0.357800	0.026000
C741	C74	0.023800	0.285400	0.229000
C751	C75	0.749000	0.099200	0.469300
C761	C76	0.050400	0.322700	0.239500
H411	H41	0.065100	0.341600	0.226500
C771	C77	0.896800	0.184200	0.231400
C781	C78	0.985700	0.244500	0.190300
C791	C79	0.904400	0.185300	0.200600
C801	C80	0.124100	0.382200	0.417300
H421	H42	0.124300	0.338300	0.415800
C811	C81	0.145080	0.412100	0.437980
H431	H43	0.159600	0.388600	0.450600
C821	C82	0.144770	0.476400	0.440210
C831	C83	0.123500	0.510800	0.421800
H441	H44	0.123300	0.554800	0.423300
C841	C84	0.102500	0.481000	0.401150
H451	H45	0.088000	0.504500	0.388600
C851	C85	0.102800	0.416700	0.398920
C861	C86	0.935100	0.205900	0.190600
C871	C87	0.882000	0.158800	0.177230
C881	C88	0.852600	0.186600	0.170600
H461	H46	0.847000	0.223800	0.180700
C891	C89	0.831300	0.160000	0.149100
H471	H47	0.811200	0.179000	0.144600
C901	C90	0.839400	0.105700	0.134280
C911	C91	0.868800	0.077800	0.140900
H481	H48	0.874300	0.040700	0.130800
C921	C92	0.890050	0.104400	0.162400
H491	H49	0.910100	0.085400	0.166900
C931	C93	0.815800	0.076100	0.111200
C941	C94	0.795000	0.113800	0.093900
H501	H50	0.795900	0.157600	0.096300
C951	C95	0.772900	0.087500	0.073200
H511	H51	0.758700	0.113200	0.061300
C961	C96	0.771600	0.023400	0.069700
C971	C97	0.792300	0.985700	0.086900
H521	H52	0.791400	0.941900	0.084600
C981	C98	0.814500	0.012000	0.107700
H531	H53	0.828700	0.986300	0.119500
O141	O14	0.184500	0.475600	0.481100
O151	O15	0.731100	0.133300	0.479600
N81	N8	0.005900	0.272500	0.256600
C991	C99	0.866700	0.167700	0.272000
H541	H54	0.850200	0.156000	0.285000
C1001	C100	0.983700	0.283800	0.319600
C1011	C101	0.166700	0.511200	0.463800
C1021	C102	0.866400	0.160500	0.241100
H551	H55	0.849700	0.143300	0.228400
C1031	C103	0.974600	0.277200	0.351700
H561	H56	0.987100	0.290600	0.369100
C1041	C104	0.013200	0.271700	0.200200
C1051	C105	0.936300	0.236700	0.322100
C1061	C106	0.881900	0.197700	0.334200
C1071	C107	0.855700	0.234700	0.340000
H571	H57	0.851600	0.271000	0.328200
C1081	C108	0.835600	0.218500	0.363100
H581	H58	0.817700	0.243800	0.367000
C1091	C109	0.841600	0.165400	0.380400
C1101	C110	0.867800	0.128400	0.374600
H591	H59	0.871900	0.092100	0.386400
C1111	C111	0.887900	0.144500	0.351500
H601	H60	0.905800	0.119200	0.347500
C1121	C112	0.907600	0.211400	0.311100
C1131	C113	0.021600	0.297200	0.278800
C1141	C114	0.076300	0.323800	0.130500
C1151	C115	0.050600	0.361900	0.136700
H611	H61	0.047200	0.399300	0.125600
C1161	C116	0.030000	0.345200	0.159200
H621	H62	0.012400	0.371200	0.163400
C1171	C117	0.034900	0.290400	0.175500
C1181	C118	0.060500	0.252300	0.169300
H631	H63	0.063900	0.214900	0.180400
C1191	C119	0.081200	0.269100	0.146800
H641	H64	0.098700	0.243000	0.142500
C1201	C120	0.051700	0.327200	0.271300
H651	H65	0.067700	0.345000	0.284600
C1211	C121	0.897300	0.197200	0.281800
C1221	C122	0.945400	0.209300	0.159300
H661	H66	0.933400	0.195900	0.141600
C1231	C123	0.945300	0.249000	0.352700
H671	H67	0.933700	0.239800	0.370300
C1241	C124	0.079300	0.383100	0.376470
C1251	C125	0.049400	0.409000	0.370400
H681	H68	0.043500	0.446000	0.380500
C1261	C126	0.028090	0.381000	0.349400
H691	H69	0.007600	0.398700	0.345300
C1271	C127	0.036700	0.326900	0.334560
C1281	C128	0.066600	0.301000	0.340700
H701	H70	0.072500	0.264100	0.330500
C1291	C129	0.087950	0.329100	0.361600
H711	H71	0.108400	0.311300	0.365800
C1301	C130	0.014700	0.297500	0.310500
C1311	C131	0.127200	0.419900	0.080600
H721	H72	0.130700	0.462800	0.077000
C1321	C132	0.143800	0.375600	0.064800
C1331	C133	0.138700	0.312900	0.070100
H731	H73	0.150100	0.282600	0.059200
C1341	C134	0.116900	0.294500	0.091200
H741	H74	0.113400	0.251700	0.094800
C1351	C135	0.100200	0.338900	0.107100
C1361	C136	0.105300	0.401600	0.101800
H751	H75	0.093900	0.431900	0.112600
C1371	C137	0.797500	0.197000	0.416500
H761	H76	0.798500	0.238500	0.409500
C1381	C138	0.817500	0.152200	0.405000
C1391	C139	0.816000	0.091300	0.415300
H771	H77	0.829700	0.060700	0.407500
C1401	C140	0.794400	0.075200	0.437100
H781	H78	0.793400	0.033600	0.444200
C1411	C141	0.774400	0.120000	0.448600
C1421	C142	0.775900	0.180900	0.438300
H791	H79	0.762200	0.211500	0.446200
C1431	C143	0.974100	0.234000	0.159700
H801	H80	0.985400	0.243400	0.142000
C1441	C144	0.747600	0.994600	0.047700
O161	O16	0.729700	0.030600	0.032300
In51	In5	0.707490	0.948170	0.004990
In61	In6	0.460200	0.259050	0.755950
O171	O17	0.247000	0.565600	0.544200
O181	O18	0.671300	0.046500	0.539700
N91	N9	0.462500	0.269600	0.709500
O191	O19	0.667900	0.934400	0.966100
N101	N10	0.460000	0.246100	0.803100
C1451	C145	0.665700	0.105300	0.539600
N111	N11	0.414400	0.293600	0.755800
O201	O20	0.246100	0.455200	0.973300
O211	O21	0.681000	0.142200	0.526000
C1461	C146	0.523800	0.214600	0.729000
C1471	C147	0.249000	0.400800	0.969300
C1481	C148	0.550400	0.177300	0.739500
H811	H81	0.565100	0.158400	0.726500
C1491	C149	0.396800	0.315800	0.731400
C1501	C150	0.485700	0.255500	0.690300
C1511	C151	0.404400	0.314700	0.700600
C1521	C152	0.624100	0.117800	0.917300
H821	H82	0.624300	0.161700	0.915800
C1531	C153	0.645080	0.087900	0.937980
H831	H83	0.659600	0.111400	0.950600
C1541	C154	0.644770	0.023600	0.940210
C1551	C155	0.623500	0.989200	0.921800
H841	H84	0.623300	0.945200	0.923300
C1561	C156	0.602500	0.019000	0.901150
H851	H85	0.588000	0.995500	0.888600
C1571	C157	0.602800	0.083300	0.898920
C1581	C158	0.435100	0.294100	0.690600
C1591	C159	0.382000	0.341200	0.677230
C1601	C160	0.352600	0.313400	0.670600
H861	H86	0.347000	0.276200	0.680700
C1611	C161	0.331300	0.340000	0.649100
H871	H87	0.311200	0.321000	0.644600
C1621	C162	0.339400	0.394300	0.634280
C1631	C163	0.368800	0.422200	0.640900
H881	H88	0.374300	0.459300	0.630800
C1641	C164	0.390050	0.395600	0.662400
H891	H89	0.410100	0.414600	0.666900
C1651	C165	0.315800	0.423900	0.611200
C1661	C166	0.295000	0.386200	0.593900
H901	H90	0.295900	0.342400	0.596300
C1671	C167	0.272900	0.412500	0.573200
H911	H91	0.258700	0.386800	0.561300
C1681	C168	0.271600	0.476600	0.569700
C1691	C169	0.292300	0.514300	0.586900
H921	H92	0.291400	0.558100	0.584600
C1701	C170	0.314500	0.488000	0.607700
H931	H93	0.328700	0.513700	0.619500
O221	O22	0.684500	0.024400	0.981100
O231	O23	0.231100	0.366700	0.979600
N121	N12	0.505900	0.227500	0.756600
C1711	C171	0.366700	0.332300	0.772000
H941	H94	0.350200	0.344000	0.785000
C1721	C172	0.483700	0.216200	0.819600
C1731	C173	0.666700	0.988800	0.963800
C1741	C174	0.366400	0.339500	0.741100
H951	H95	0.349700	0.356700	0.728400
C1751	C175	0.474600	0.222800	0.851700
H961	H96	0.487100	0.209400	0.869100
C1761	C176	0.513200	0.228300	0.700200
C1771	C177	0.436300	0.263300	0.822100
C1781	C178	0.381900	0.302300	0.834200
C1791	C179	0.355700	0.265300	0.840000
H971	H97	0.351600	0.229000	0.828200
C1801	C180	0.335600	0.281500	0.863100
H981	H98	0.317700	0.256200	0.867000
C1811	C181	0.341600	0.334600	0.880400
C1821	C182	0.367800	0.371600	0.874600
H991	H99	0.371900	0.407900	0.886400
C1831	C183	0.387900	0.355500	0.851500
H1001	H100	0.405800	0.380800	0.847500
C1841	C184	0.407600	0.288600	0.811100
C1851	C185	0.521600	0.202800	0.778800
C1861	C186	0.576300	0.176200	0.630500
C1871	C187	0.550600	0.138100	0.636700
H1011	H101	0.547200	0.100700	0.625600
C1881	C188	0.530000	0.154800	0.659200
H1021	H102	0.512400	0.128800	0.663400
C1891	C189	0.534900	0.209600	0.675500
C1901	C190	0.560500	0.247700	0.669300
H1031	H103	0.563900	0.285100	0.680400
C1911	C191	0.581200	0.230900	0.646800
H1041	H104	0.598700	0.257000	0.642500
C1921	C192	0.551700	0.172800	0.771300
H1051	H105	0.567700	0.155000	0.784600
C1931	C193	0.397300	0.302800	0.781800
C1941	C194	0.445400	0.290700	0.659300
H1061	H106	0.433400	0.304100	0.641600
C1951	C195	0.445300	0.251000	0.852700
H1071	H107	0.433700	0.260200	0.870300
C1961	C196	0.579300	0.116900	0.876470
C1971	C197	0.549400	0.091000	0.870400
H1081	H108	0.543500	0.054000	0.880500
C1981	C198	0.528090	0.119000	0.849400
H1091	H109	0.507600	0.101300	0.845300
C1991	C199	0.536700	0.173100	0.834560
C2001	C200	0.566600	0.199000	0.840700
H1101	H110	0.572500	0.235900	0.830500
C2011	C201	0.587950	0.170900	0.861600
H1111	H111	0.608400	0.188700	0.865800
C2021	C202	0.514700	0.202500	0.810500
C2031	C203	0.627200	0.080100	0.580600
H1121	H112	0.630700	0.037200	0.577000
C2041	C204	0.643800	0.124400	0.564800
C2051	C205	0.638700	0.187100	0.570100
H1131	H113	0.650100	0.217400	0.559200
C2061	C206	0.616900	0.205500	0.591200
H1141	H114	0.613400	0.248300	0.594800
C2071	C207	0.600200	0.161100	0.607100
C2081	C208	0.605300	0.098400	0.601800
H1151	H115	0.593900	0.068100	0.612600
C2091	C209	0.297500	0.303000	0.916500
H1161	H116	0.298500	0.261500	0.909500
C2101	C210	0.317500	0.347800	0.905000
C2111	C211	0.316000	0.408700	0.915300
H1171	H117	0.329700	0.439300	0.907500
C2121	C212	0.294400	0.424800	0.937100
H1181	H118	0.293400	0.466400	0.944200
C2131	C213	0.274400	0.380000	0.948600
C2141	C214	0.275900	0.319100	0.938300
H1191	H119	0.262200	0.288500	0.946200
C2151	C215	0.474100	0.266000	0.659700
H1201	H120	0.485400	0.256600	0.642000
C2161	C216	0.247600	0.505400	0.547700
O241	O24	0.229700	0.469400	0.532300
In71	In7	0.207490	0.448170	0.004990
In81	In8	0.960200	0.759050	0.755950
O251	O25	0.747000	0.065600	0.544200
O261	O26	0.171300	0.546500	0.539700
N131	N13	0.962500	0.769600	0.709500
O271	O27	0.167900	0.434400	0.966100
N141	N14	0.960000	0.746100	0.803100
C2171	C217	0.165700	0.605300	0.539600
N151	N15	0.914400	0.793600	0.755800
O281	O28	0.746100	0.955200	0.973300
O291	O29	0.181000	0.642200	0.526000
C2181	C218	0.023800	0.714600	0.729000
C2191	C219	0.749000	0.900800	0.969300
C2201	C220	0.050400	0.677300	0.739500
H1211	H121	0.065100	0.658400	0.726500
C2211	C221	0.896800	0.815800	0.731400
C2221	C222	0.985700	0.755500	0.690300
C2231	C223	0.904400	0.814700	0.700600
C2241	C224	0.124100	0.617800	0.917300
H1221	H122	0.124300	0.661700	0.915800
C2251	C225	0.145080	0.587900	0.937980
H1231	H123	0.159600	0.611400	0.950600
C2261	C226	0.144770	0.523600	0.940210
C2271	C227	0.123500	0.489200	0.921800
H1241	H124	0.123300	0.445200	0.923300
C2281	C228	0.102500	0.519000	0.901150
H1251	H125	0.088000	0.495500	0.888600
C2291	C229	0.102800	0.583300	0.898920
C2301	C230	0.935100	0.794100	0.690600
C2311	C231	0.882000	0.841200	0.677230
C2321	C232	0.852600	0.813400	0.670600
H1261	H126	0.847000	0.776200	0.680700
C2331	C233	0.831300	0.840000	0.649100
H1271	H127	0.811200	0.821000	0.644600
C2341	C234	0.839400	0.894300	0.634280
C2351	C235	0.868800	0.922200	0.640900
H1281	H128	0.874300	0.959300	0.630800
C2361	C236	0.890050	0.895600	0.662400
H1291	H129	0.910100	0.914600	0.666900
C2371	C237	0.815800	0.923900	0.611200
C2381	C238	0.795000	0.886200	0.593900
H1301	H130	0.795900	0.842400	0.596300
C2391	C239	0.772900	0.912500	0.573200
H1311	H131	0.758700	0.886800	0.561300
C2401	C240	0.771600	0.976600	0.569700
C2411	C241	0.792300	0.014300	0.586900
H1321	H132	0.791400	0.058100	0.584600
C2421	C242	0.814500	0.988000	0.607700
H1331	H133	0.828700	0.013700	0.619500
O301	O30	0.184500	0.524400	0.981100
O311	O31	0.731100	0.866700	0.979600
N161	N16	0.005900	0.727500	0.756600
C2431	C243	0.866700	0.832300	0.772000
H1341	H134	0.850200	0.844000	0.785000
C2441	C244	0.983700	0.716200	0.819600
C2451	C245	0.166700	0.488800	0.963800
C2461	C246	0.866400	0.839500	0.741100
H1351	H135	0.849700	0.856700	0.728400
C2471	C247	0.974600	0.722800	0.851700
H1361	H136	0.987100	0.709400	0.869100
C2481	C248	0.013200	0.728300	0.700200
C2491	C249	0.936300	0.763300	0.822100
C2501	C250	0.881900	0.802300	0.834200
C2511	C251	0.855700	0.765300	0.840000
H1371	H137	0.851600	0.729000	0.828200
C2521	C252	0.835600	0.781500	0.863100
H1381	H138	0.817700	0.756200	0.867000
C2531	C253	0.841600	0.834600	0.880400
C2541	C254	0.867800	0.871600	0.874600
H1391	H139	0.871900	0.907900	0.886400
C2551	C255	0.887900	0.855500	0.851500
H1401	H140	0.905800	0.880800	0.847500
C2561	C256	0.907600	0.788600	0.811100
C2571	C257	0.021600	0.702800	0.778800
C2581	C258	0.076300	0.676200	0.630500
C2591	C259	0.050600	0.638100	0.636700
H1411	H141	0.047200	0.600700	0.625600
C2601	C260	0.030000	0.654800	0.659200
H1421	H142	0.012400	0.628800	0.663400
C2611	C261	0.034900	0.709600	0.675500
C2621	C262	0.060500	0.747700	0.669300
H1431	H143	0.063900	0.785100	0.680400
C2631	C263	0.081200	0.730900	0.646800
H1441	H144	0.098700	0.757000	0.642500
C2641	C264	0.051700	0.672800	0.771300
H1451	H145	0.067700	0.655000	0.784600
C2651	C265	0.897300	0.802800	0.781800
C2661	C266	0.945400	0.790700	0.659300
H1461	H146	0.933400	0.804100	0.641600
C2671	C267	0.945300	0.751000	0.852700
H1471	H147	0.933700	0.760200	0.870300
C2681	C268	0.079300	0.616900	0.876470
C2691	C269	0.049400	0.591000	0.870400
H1481	H148	0.043500	0.554000	0.880500
C2701	C270	0.028090	0.619000	0.849400
H1491	H149	0.007600	0.601300	0.845300
C2711	C271	0.036700	0.673100	0.834560
C2721	C272	0.066600	0.699000	0.840700
H1501	H150	0.072500	0.735900	0.830500
C2731	C273	0.087950	0.670900	0.861600
H1511	H151	0.108400	0.688700	0.865800
C2741	C274	0.014700	0.702500	0.810500
C2751	C275	0.127200	0.580100	0.580600
H1521	H152	0.130700	0.537200	0.577000
C2761	C276	0.143800	0.624400	0.564800
C2771	C277	0.138700	0.687100	0.570100
H1531	H153	0.150100	0.717400	0.559200
C2781	C278	0.116900	0.705500	0.591200
H1541	H154	0.113400	0.748300	0.594800
C2791	C279	0.100200	0.661100	0.607100
C2801	C280	0.105300	0.598400	0.601800
H1551	H155	0.093900	0.568100	0.612600
C2811	C281	0.797500	0.803000	0.916500
H1561	H156	0.798500	0.761500	0.909500
C2821	C282	0.817500	0.847800	0.905000
C2831	C283	0.816000	0.908700	0.915300
H1571	H157	0.829700	0.939300	0.907500
C2841	C284	0.794400	0.924800	0.937100
H1581	H158	0.793400	0.966400	0.944200
C2851	C285	0.774400	0.880000	0.948600
C2861	C286	0.775900	0.819100	0.938300
H1591	H159	0.762200	0.788500	0.946200
C2871	C287	0.974100	0.766000	0.659700
H1601	H160	0.985400	0.756600	0.642000
C2881	C288	0.747600	0.005400	0.547700
O321	O32	0.729700	0.969400	0.532300
In91	In9	0.457410	0.543750	0.630470
In101	In10	0.207360	0.247260	0.381600
O331	O33	0.418100	0.559600	0.591300
N171	N17	0.161000	0.216000	0.382700
O341	O34	0.997600	0.030400	0.597900
O351	O35	0.418600	0.470400	0.162300
C2891	C289	0.226900	0.305100	0.445700
O361	O36	0.978300	0.044000	0.156900
O371	O37	0.433800	0.468900	0.603800
C2901	C290	0.230000	0.260700	0.315200
O381	O38	0.982300	0.123700	0.607600
C2911	C291	0.128750	0.210300	0.461210
C2921	C292	0.138880	0.176900	0.487100
H1611	H161	0.160500	0.164300	0.489700
C2931	C293	0.117300	0.162000	0.509090
H1621	H162	0.124300	0.139200	0.526800
C2941	C294	0.085700	0.180300	0.505280
C2951	C295	0.075540	0.213700	0.479400
H1631	H163	0.053900	0.226300	0.476800
C2961	C296	0.097100	0.228600	0.457400
H1641	H164	0.090200	0.251400	0.439700
N181	N18	0.205500	0.274000	0.429100
C2971	C297	0.180200	0.257600	0.446900
N191	N19	0.248200	0.299000	0.380600
N201	N20	0.205400	0.245700	0.334000
O391	O39	0.994300	0.951700	0.168900
O401	O40	0.434200	0.370600	0.159000
C2981	C298	0.995300	0.010100	0.172100
C2991	C299	0.151200	0.226700	0.436900
C3001	C300	0.266900	0.325000	0.405100
C3011	C301	0.293900	0.350300	0.363800
H1651	H165	0.309700	0.364500	0.350600
C3021	C302	0.293600	0.359000	0.394500
H1661	H166	0.308200	0.383200	0.406600
C3031	C303	0.142400	0.202200	0.407100
C3041	C304	0.265900	0.315500	0.354900
C3051	C305	0.373500	0.517200	0.547800
H1671	H167	0.376300	0.560800	0.549600
C3061	C306	0.350900	0.493300	0.526800
H1681	H168	0.338300	0.520500	0.514200
C3071	C307	0.346800	0.429500	0.524130
C3081	C308	0.365300	0.389600	0.542600
H1691	H169	0.362500	0.346000	0.540800
C3091	C309	0.387800	0.413500	0.563630
H1701	H170	0.400400	0.386300	0.576200
C3101	C310	0.391930	0.477300	0.566270
C3111	C311	0.115200	0.160400	0.368200
H1711	H171	0.099300	0.140000	0.355700
C3121	C312	0.256200	0.324000	0.435300
C3131	C313	0.143800	0.188200	0.357100
C3141	C314	0.215700	0.312400	0.476700
H1721	H172	0.226800	0.330700	0.493800
C3151	C315	0.186100	0.287300	0.475600
H1731	H173	0.171600	0.289300	0.491600
C3161	C316	0.064500	0.019000	0.230100
H1741	H174	0.080600	0.993400	0.239300
C3171	C317	0.063400	0.081800	0.237200
C3181	C318	0.039700	0.119200	0.223700
H1751	H175	0.039000	0.162100	0.228600
C3191	C319	0.017200	0.094000	0.203100
H1761	H176	0.001100	0.119600	0.193800
C3201	C320	0.018300	0.031200	0.195900
C3211	C321	0.041900	0.993700	0.209400
H1771	H177	0.042700	0.950900	0.204500
C3221	C322	0.065500	0.156400	0.529810
C3231	C323	0.042300	0.196100	0.540400
H1781	H178	0.041200	0.237800	0.533500
C3241	C324	0.020840	0.174700	0.561300
H1791	H179	0.005000	0.201800	0.568500
C3251	C325	0.022500	0.113700	0.571440
C3261	C326	0.045600	0.074000	0.560800
H1801	H180	0.046700	0.032300	0.567800
C3271	C327	0.067100	0.095400	0.540000
H1811	H181	0.082900	0.068300	0.532700
C3281	C328	0.181500	0.218400	0.315300
C3291	C329	0.258400	0.290200	0.323800
C3301	C330	0.323880	0.402900	0.501160
C3311	C331	0.295500	0.434400	0.494340
H1821	H182	0.291500	0.472800	0.504100
C3321	C332	0.273200	0.409700	0.473290
H1831	H183	0.253800	0.431200	0.468600
C3331	C333	0.279190	0.353500	0.459070
C3341	C334	0.307500	0.322000	0.465890
H1841	H184	0.311600	0.283600	0.456200
C3351	C335	0.329870	0.346700	0.486900
H1851	H185	0.349200	0.325200	0.491600
C3361	C336	0.332450	0.299500	0.278700
H1861	H186	0.353100	0.281600	0.279400
C3371	C337	0.310800	0.283400	0.300420
H1871	H187	0.316700	0.254500	0.316000
C3381	C338	0.280500	0.309600	0.299330
C3391	C339	0.271900	0.352000	0.276500
H1881	H188	0.251200	0.369900	0.275700
C3401	C340	0.293500	0.368100	0.254720
H1891	H189	0.287600	0.397100	0.239100
C3411	C341	0.323800	0.341900	0.255800
C3421	C342	0.114200	0.167500	0.398500
H1901	H190	0.098300	0.152900	0.411500
C3431	C343	0.154000	0.185700	0.325600
C3441	C344	0.190600	0.218700	0.284500
H1911	H191	0.178500	0.204000	0.267100
C3451	C345	0.348500	0.362800	0.235070
C3461	C346	0.373300	0.323000	0.228500
H1921	H192	0.375000	0.283600	0.238200
C3471	C347	0.395700	0.340700	0.207800
H1931	H193	0.412700	0.313500	0.203300
C3481	C348	0.393300	0.398300	0.193590
C3491	C349	0.368400	0.438100	0.200100
H1941	H194	0.366800	0.477500	0.190400
C3501	C350	0.346100	0.420400	0.220900
H1951	H195	0.329100	0.447600	0.225300
C3511	C351	0.130600	0.154900	0.304000
C3521	C352	0.124300	0.091700	0.303100
H1961	H196	0.134400	0.064700	0.317700
C3531	C353	0.103100	0.067800	0.280800
H1971	H197	0.098700	0.024500	0.280100
C3541	C354	0.088200	0.107100	0.259380
C3551	C355	0.094600	0.170400	0.260300
H1981	H198	0.084400	0.197300	0.245700
C3561	C356	0.115800	0.194300	0.282600
H1991	H199	0.120100	0.237500	0.283300
C3571	C357	0.220400	0.244300	0.285100
H2001	H200	0.232800	0.250200	0.267700
C3581	C358	0.417000	0.417600	0.169300
C3591	C359	0.416500	0.503100	0.587200
C3601	C360	0.000100	0.084800	0.594300
In111	In11	0.957410	0.043750	0.630470
In121	In12	0.707360	0.747260	0.381600
O411	O41	0.918100	0.059600	0.591300
N211	N21	0.661000	0.716000	0.382700
O421	O42	0.497600	0.530400	0.597900
O431	O43	0.918600	0.970400	0.162300
C3611	C361	0.726900	0.805100	0.445700
O441	O44	0.478300	0.544000	0.156900
O451	O45	0.933800	0.968900	0.603800
C3621	C362	0.730000	0.760700	0.315200
O461	O46	0.482300	0.623700	0.607600
C3631	C363	0.628750	0.710300	0.461210
C3641	C364	0.638880	0.676900	0.487100
H2011	H201	0.660500	0.664300	0.489700
C3651	C365	0.617300	0.662000	0.509090
H2021	H202	0.624300	0.639200	0.526800
C3661	C366	0.585700	0.680300	0.505280
C3671	C367	0.575540	0.713700	0.479400
H2031	H203	0.553900	0.726300	0.476800
C3681	C368	0.597100	0.728600	0.457400
H2041	H204	0.590200	0.751400	0.439700
N221	N22	0.705500	0.774000	0.429100
C3691	C369	0.680200	0.757600	0.446900
N231	N23	0.748200	0.799000	0.380600
N241	N24	0.705400	0.745700	0.334000
O471	O47	0.494300	0.451700	0.168900
O481	O48	0.934200	0.870600	0.159000
C3701	C370	0.495300	0.510100	0.172100
C3711	C371	0.651200	0.726700	0.436900
C3721	C372	0.766900	0.825000	0.405100
C3731	C373	0.793900	0.850300	0.363800
H2051	H205	0.809700	0.864500	0.350600
C3741	C374	0.793600	0.859000	0.394500
H2061	H206	0.808200	0.883200	0.406600
C3751	C375	0.642400	0.702200	0.407100
C3761	C376	0.765900	0.815500	0.354900
C3771	C377	0.873500	0.017200	0.547800
H2071	H207	0.876300	0.060800	0.549600
C3781	C378	0.850900	0.993300	0.526800
H2081	H208	0.838300	0.020500	0.514200
C3791	C379	0.846800	0.929500	0.524130
C3801	C380	0.865300	0.889600	0.542600
H2091	H209	0.862500	0.846000	0.540800
C3811	C381	0.887800	0.913500	0.563630
H2101	H210	0.900400	0.886300	0.576200
C3821	C382	0.891930	0.977300	0.566270
C3831	C383	0.615200	0.660400	0.368200
H2111	H211	0.599300	0.640000	0.355700
C3841	C384	0.756200	0.824000	0.435300
C3851	C385	0.643800	0.688200	0.357100
C3861	C386	0.715700	0.812400	0.476700
H2121	H212	0.726800	0.830700	0.493800
C3871	C387	0.686100	0.787300	0.475600
H2131	H213	0.671600	0.789300	0.491600
C3881	C388	0.564500	0.519000	0.230100
H2141	H214	0.580600	0.493400	0.239300
C3891	C389	0.563400	0.581800	0.237200
C3901	C390	0.539700	0.619200	0.223700
H2151	H215	0.539000	0.662100	0.228600
C3911	C391	0.517200	0.594000	0.203100
H2161	H216	0.501100	0.619600	0.193800
C3921	C392	0.518300	0.531200	0.195900
C3931	C393	0.541900	0.493700	0.209400
H2171	H217	0.542700	0.450900	0.204500
C3941	C394	0.565500	0.656400	0.529810
C3951	C395	0.542300	0.696100	0.540400
H2181	H218	0.541200	0.737800	0.533500
C3961	C396	0.520840	0.674700	0.561300
H2191	H219	0.505000	0.701800	0.568500
C3971	C397	0.522500	0.613700	0.571440
C3981	C398	0.545600	0.574000	0.560800
H2201	H220	0.546700	0.532300	0.567800
C3991	C399	0.567100	0.595400	0.540000
H2211	H221	0.582900	0.568300	0.532700
C4001	C400	0.681500	0.718400	0.315300
C4011	C401	0.758400	0.790200	0.323800
C4021	C402	0.823880	0.902900	0.501160
C4031	C403	0.795500	0.934400	0.494340
H2221	H222	0.791500	0.972800	0.504100
C4041	C404	0.773200	0.909700	0.473290
H2231	H223	0.753800	0.931200	0.468600
C4051	C405	0.779190	0.853500	0.459070
C4061	C406	0.807500	0.822000	0.465890
H2241	H224	0.811600	0.783600	0.456200
C4071	C407	0.829870	0.846700	0.486900
H2251	H225	0.849200	0.825200	0.491600
C4081	C408	0.832450	0.799500	0.278700
H2261	H226	0.853100	0.781600	0.279400
C4091	C409	0.810800	0.783400	0.300420
H2271	H227	0.816700	0.754500	0.316000
C4101	C410	0.780500	0.809600	0.299330
C4111	C411	0.771900	0.852000	0.276500
H2281	H228	0.751200	0.869900	0.275700
C4121	C412	0.793500	0.868100	0.254720
H2291	H229	0.787600	0.897100	0.239100
C4131	C413	0.823800	0.841900	0.255800
C4141	C414	0.614200	0.667500	0.398500
H2301	H230	0.598300	0.652900	0.411500
C4151	C415	0.654000	0.685700	0.325600
C4161	C416	0.690600	0.718700	0.284500
H2311	H231	0.678500	0.704000	0.267100
C4171	C417	0.848500	0.862800	0.235070
C4181	C418	0.873300	0.823000	0.228500
H2321	H232	0.875000	0.783600	0.238200
C4191	C419	0.895700	0.840700	0.207800
H2331	H233	0.912700	0.813500	0.203300
C4201	C420	0.893300	0.898300	0.193590
C4211	C421	0.868400	0.938100	0.200100
H2341	H234	0.866800	0.977500	0.190400
C4221	C422	0.846100	0.920400	0.220900
H2351	H235	0.829100	0.947600	0.225300
C4231	C423	0.630600	0.654900	0.304000
C4241	C424	0.624300	0.591700	0.303100
H2361	H236	0.634400	0.564700	0.317700
C4251	C425	0.603100	0.567800	0.280800
H2371	H237	0.598700	0.524500	0.280100
C4261	C426	0.588200	0.607100	0.259380
C4271	C427	0.594600	0.670400	0.260300
H2381	H238	0.584400	0.697300	0.245700
C4281	C428	0.615800	0.694300	0.282600
H2391	H239	0.620100	0.737500	0.283300
C4291	C429	0.720400	0.744300	0.285100
H2401	H240	0.732800	0.750200	0.267700
C4301	C430	0.917000	0.917600	0.169300
C4311	C431	0.916500	0.003100	0.587200
C4321	C432	0.500100	0.584800	0.594300
In131	In13	0.457410	0.456250	0.130470
In141	In14	0.207360	0.752740	0.881600
O491	O49	0.418100	0.440400	0.091300
N251	N25	0.161000	0.784000	0.882700
O501	O50	0.997600	0.969600	0.097900
O511	O51	0.418600	0.529600	0.662300
C4331	C433	0.226900	0.694900	0.945700
O521	O52	0.978300	0.956000	0.656900
O531	O53	0.433800	0.531100	0.103800
C4341	C434	0.230000	0.739300	0.815200
O541	O54	0.982300	0.876300	0.107600
C4351	C435	0.128750	0.789700	0.961210
C4361	C436	0.138880	0.823100	0.987100
H2411	H241	0.160500	0.835700	0.989700
C4371	C437	0.117300	0.838000	0.009090
H2421	H242	0.124300	0.860800	0.026800
C4381	C438	0.085700	0.819700	0.005280
C4391	C439	0.075540	0.786300	0.979400
H2431	H243	0.053900	0.773700	0.976800
C4401	C440	0.097100	0.771400	0.957400
H2441	H244	0.090200	0.748600	0.939700
N261	N26	0.205500	0.726000	0.929100
C4411	C441	0.180200	0.742400	0.946900
N271	N27	0.248200	0.701000	0.880600
N281	N28	0.205400	0.754300	0.834000
O551	O55	0.994300	0.048300	0.668900
O561	O56	0.434200	0.629400	0.659000
C4421	C442	0.995300	0.989900	0.672100
C4431	C443	0.151200	0.773300	0.936900
C4441	C444	0.266900	0.675000	0.905100
C4451	C445	0.293900	0.649700	0.863800
H2451	H245	0.309700	0.635500	0.850600
C4461	C446	0.293600	0.641000	0.894500
H2461	H246	0.308200	0.616800	0.906600
C4471	C447	0.142400	0.797800	0.907100
C4481	C448	0.265900	0.684500	0.854900
C4491	C449	0.373500	0.482800	0.047800
H2471	H247	0.376300	0.439200	0.049600
C4501	C450	0.350900	0.506700	0.026800
H2481	H248	0.338300	0.479500	0.014200
C4511	C451	0.346800	0.570500	0.024130
C4521	C452	0.365300	0.610400	0.042600
H2491	H249	0.362500	0.654000	0.040800
C4531	C453	0.387800	0.586500	0.063630
H2501	H250	0.400400	0.613700	0.076200
C4541	C454	0.391930	0.522700	0.066270
C4551	C455	0.115200	0.839600	0.868200
H2511	H251	0.099300	0.860000	0.855700
C4561	C456	0.256200	0.676000	0.935300
C4571	C457	0.143800	0.811800	0.857100
C4581	C458	0.215700	0.687600	0.976700
H2521	H252	0.226800	0.669300	0.993800
C4591	C459	0.186100	0.712700	0.975600
H2531	H253	0.171600	0.710700	0.991600
C4601	C460	0.064500	0.981000	0.730100
H2541	H254	0.080600	0.006600	0.739300
C4611	C461	0.063400	0.918200	0.737200
C4621	C462	0.039700	0.880800	0.723700
H2551	H255	0.039000	0.837900	0.728600
C4631	C463	0.017200	0.906000	0.703100
H2561	H256	0.001100	0.880400	0.693800
C4641	C464	0.018300	0.968800	0.695900
C4651	C465	0.041900	0.006300	0.709400
H2571	H257	0.042700	0.049100	0.704500
C4661	C466	0.065500	0.843600	0.029810
C4671	C467	0.042300	0.803900	0.040400
H2581	H258	0.041200	0.762200	0.033500
C4681	C468	0.020840	0.825300	0.061300
H2591	H259	0.005000	0.798200	0.068500
C4691	C469	0.022500	0.886300	0.071440
C4701	C470	0.045600	0.926000	0.060800
H2601	H260	0.046700	0.967700	0.067800
C4711	C471	0.067100	0.904600	0.040000
H2611	H261	0.082900	0.931700	0.032700
C4721	C472	0.181500	0.781600	0.815300
C4731	C473	0.258400	0.709800	0.823800
C4741	C474	0.323880	0.597100	0.001160
C4751	C475	0.295500	0.565600	0.994340
H2621	H262	0.291500	0.527200	0.004100
C4761	C476	0.273200	0.590300	0.973290
H2631	H263	0.253800	0.568800	0.968600
C4771	C477	0.279190	0.646500	0.959070
C4781	C478	0.307500	0.678000	0.965890
H2641	H264	0.311600	0.716400	0.956200
C4791	C479	0.329870	0.653300	0.986900
H2651	H265	0.349200	0.674800	0.991600
C4801	C480	0.332450	0.700500	0.778700
H2661	H266	0.353100	0.718400	0.779400
C4811	C481	0.310800	0.716600	0.800420
H2671	H267	0.316700	0.745500	0.816000
C4821	C482	0.280500	0.690400	0.799330
C4831	C483	0.271900	0.648000	0.776500
H2681	H268	0.251200	0.630100	0.775700
C4841	C484	0.293500	0.631900	0.754720
H2691	H269	0.287600	0.602900	0.739100
C4851	C485	0.323800	0.658100	0.755800
C4861	C486	0.114200	0.832500	0.898500
H2701	H270	0.098300	0.847100	0.911500
C4871	C487	0.154000	0.814300	0.825600
C4881	C488	0.190600	0.781300	0.784500
H2711	H271	0.178500	0.796000	0.767100
C4891	C489	0.348500	0.637200	0.735070
C4901	C490	0.373300	0.677000	0.728500
H2721	H272	0.375000	0.716400	0.738200
C4911	C491	0.395700	0.659300	0.707800
H2731	H273	0.412700	0.686500	0.703300
C4921	C492	0.393300	0.601700	0.693590
C4931	C493	0.368400	0.561900	0.700100
H2741	H274	0.366800	0.522500	0.690400
C4941	C494	0.346100	0.579600	0.720900
H2751	H275	0.329100	0.552400	0.725300
C4951	C495	0.130600	0.845100	0.804000
C4961	C496	0.124300	0.908300	0.803100
H2761	H276	0.134400	0.935300	0.817700
C4971	C497	0.103100	0.932200	0.780800
H2771	H277	0.098700	0.975500	0.780100
C4981	C498	0.088200	0.892900	0.759380
C4991	C499	0.094600	0.829600	0.760300
H2781	H278	0.084400	0.802700	0.745700
C5001	C500	0.115800	0.805700	0.782600
H2791	H279	0.120100	0.762500	0.783300
C5011	C501	0.220400	0.755700	0.785100
H2801	H280	0.232800	0.749800	0.767700
C5021	C502	0.417000	0.582400	0.669300
C5031	C503	0.416500	0.496900	0.087200
C5041	C504	0.000100	0.915200	0.094300
In151	In15	0.957410	0.956250	0.130470
In161	In16	0.707360	0.252740	0.881600
O571	O57	0.918100	0.940400	0.091300
N291	N29	0.661000	0.284000	0.882700
O581	O58	0.497600	0.469600	0.097900
O591	O59	0.918600	0.029600	0.662300
C5051	C505	0.726900	0.194900	0.945700
O601	O60	0.478300	0.456000	0.656900
O611	O61	0.933800	0.031100	0.103800
C5061	C506	0.730000	0.239300	0.815200
O621	O62	0.482300	0.376300	0.107600
C5071	C507	0.628750	0.289700	0.961210
C5081	C508	0.638880	0.323100	0.987100
H2811	H281	0.660500	0.335700	0.989700
C5091	C509	0.617300	0.338000	0.009090
H2821	H282	0.624300	0.360800	0.026800
C5101	C510	0.585700	0.319700	0.005280
C5111	C511	0.575540	0.286300	0.979400
H2831	H283	0.553900	0.273700	0.976800
C5121	C512	0.597100	0.271400	0.957400
H2841	H284	0.590200	0.248600	0.939700
N301	N30	0.705500	0.226000	0.929100
C5131	C513	0.680200	0.242400	0.946900
N311	N31	0.748200	0.201000	0.880600
N321	N32	0.705400	0.254300	0.834000
O631	O63	0.494300	0.548300	0.668900
O641	O64	0.934200	0.129400	0.659000
C5141	C514	0.495300	0.489900	0.672100
C5151	C515	0.651200	0.273300	0.936900
C5161	C516	0.766900	0.175000	0.905100
C5171	C517	0.793900	0.149700	0.863800
H2851	H285	0.809700	0.135500	0.850600
C5181	C518	0.793600	0.141000	0.894500
H2861	H286	0.808200	0.116800	0.906600
C5191	C519	0.642400	0.297800	0.907100
C5201	C520	0.765900	0.184500	0.854900
C5211	C521	0.873500	0.982800	0.047800
H2871	H287	0.876300	0.939200	0.049600
C5221	C522	0.850900	0.006700	0.026800
H2881	H288	0.838300	0.979500	0.014200
C5231	C523	0.846800	0.070500	0.024130
C5241	C524	0.865300	0.110400	0.042600
H2891	H289	0.862500	0.154000	0.040800
C5251	C525	0.887800	0.086500	0.063630
H2901	H290	0.900400	0.113700	0.076200
C5261	C526	0.891930	0.022700	0.066270
C5271	C527	0.615200	0.339600	0.868200
H2911	H291	0.599300	0.360000	0.855700
C5281	C528	0.756200	0.176000	0.935300
C5291	C529	0.643800	0.311800	0.857100
C5301	C530	0.715700	0.187600	0.976700
H2921	H292	0.726800	0.169300	0.993800
C5311	C531	0.686100	0.212700	0.975600
H2931	H293	0.671600	0.210700	0.991600
C5321	C532	0.564500	0.481000	0.730100
H2941	H294	0.580600	0.506600	0.739300
C5331	C533	0.563400	0.418200	0.737200
C5341	C534	0.539700	0.380800	0.723700
H2951	H295	0.539000	0.337900	0.728600
C5351	C535	0.517200	0.406000	0.703100
H2961	H296	0.501100	0.380400	0.693800
C5361	C536	0.518300	0.468800	0.695900
C5371	C537	0.541900	0.506300	0.709400
H2971	H297	0.542700	0.549100	0.704500
C5381	C538	0.565500	0.343600	0.029810
C5391	C539	0.542300	0.303900	0.040400
H2981	H298	0.541200	0.262200	0.033500
C5401	C540	0.520840	0.325300	0.061300
H2991	H299	0.505000	0.298200	0.068500
C5411	C541	0.522500	0.386300	0.071440
C5421	C542	0.545600	0.426000	0.060800
H3001	H300	0.546700	0.467700	0.067800
C5431	C543	0.567100	0.404600	0.040000
H3011	H301	0.582900	0.431700	0.032700
C5441	C544	0.681500	0.281600	0.815300
C5451	C545	0.758400	0.209800	0.823800
C5461	C546	0.823880	0.097100	0.001160
C5471	C547	0.795500	0.065600	0.994340
H3021	H302	0.791500	0.027200	0.004100
C5481	C548	0.773200	0.090300	0.973290
H3031	H303	0.753800	0.068800	0.968600
C5491	C549	0.779190	0.146500	0.959070
C5501	C550	0.807500	0.178000	0.965890
H3041	H304	0.811600	0.216400	0.956200
C5511	C551	0.829870	0.153300	0.986900
H3051	H305	0.849200	0.174800	0.991600
C5521	C552	0.832450	0.200500	0.778700
H3061	H306	0.853100	0.218400	0.779400
C5531	C553	0.810800	0.216600	0.800420
H3071	H307	0.816700	0.245500	0.816000
C5541	C554	0.780500	0.190400	0.799330
C5551	C555	0.771900	0.148000	0.776500
H3081	H308	0.751200	0.130100	0.775700
C5561	C556	0.793500	0.131900	0.754720
H3091	H309	0.787600	0.102900	0.739100
C5571	C557	0.823800	0.158100	0.755800
C5581	C558	0.614200	0.332500	0.898500
H3101	H310	0.598300	0.347100	0.911500
C5591	C559	0.654000	0.314300	0.825600
C5601	C560	0.690600	0.281300	0.784500
H3111	H311	0.678500	0.296000	0.767100
C5611	C561	0.848500	0.137200	0.735070
C5621	C562	0.873300	0.177000	0.728500
H3121	H312	0.875000	0.216400	0.738200
C5631	C563	0.895700	0.159300	0.707800
H3131	H313	0.912700	0.186500	0.703300
C5641	C564	0.893300	0.101700	0.693590
C5651	C565	0.868400	0.061900	0.700100
H3141	H314	0.866800	0.022500	0.690400
C5661	C566	0.846100	0.079600	0.720900
H3151	H315	0.829100	0.052400	0.725300
C5671	C567	0.630600	0.345100	0.804000
C5681	C568	0.624300	0.408300	0.803100
H3161	H316	0.634400	0.435300	0.817700
C5691	C569	0.603100	0.432200	0.780800
H3171	H317	0.598700	0.475500	0.780100
C5701	C570	0.588200	0.392900	0.759380
C5711	C571	0.594600	0.329600	0.760300
H3181	H318	0.584400	0.302700	0.745700
C5721	C572	0.615800	0.305700	0.782600
H3191	H319	0.620100	0.262500	0.783300
C5731	C573	0.720400	0.255700	0.785100
H3201	H320	0.732800	0.249800	0.767700
C5741	C574	0.917000	0.082400	0.669300
C5751	C575	0.916500	0.996900	0.087200
C5761	C576	0.500100	0.415200	0.094300
In171	In17	0.180520	0.955880	0.061470
In181	In18	0.934700	0.731040	0.312040
C5771	C577	0.987100	0.766000	0.254100
C5781	C578	0.913100	0.716300	0.379200
N331	N33	0.938500	0.714100	0.264400
O651	O65	0.704000	0.532700	0.088100
C5791	C579	0.961000	0.731900	0.246100
N341	N34	0.937100	0.735800	0.359500
O661	O66	0.141500	0.964000	0.095600
N351	N35	0.980400	0.769000	0.310900
C5801	C580	0.139200	0.906200	0.100400
O671	O67	0.154800	0.879900	0.081600
C5811	C581	0.998100	0.780100	0.285100
C5821	C582	0.916300	0.675700	0.248200
C5831	C583	0.844600	0.642900	0.328400
H3211	H321	0.828300	0.627700	0.340700
C5841	C584	0.846400	0.638800	0.298000
H3221	H322	0.829100	0.622600	0.285800
C5851	C585	0.724000	0.495300	0.099800
C5861	C586	0.024900	0.815300	0.293800
H3231	H323	0.042900	0.824600	0.282200
C5871	C587	0.071300	0.839300	0.161500
C5881	C588	0.067100	0.897500	0.148300
H3241	H324	0.049200	0.922000	0.153000
C5891	C589	0.089200	0.920000	0.128300
H3251	H325	0.086300	0.959800	0.119300
C5901	C590	0.115400	0.884200	0.121500
C5911	C591	0.119700	0.825900	0.134700
H3261	H326	0.137600	0.801500	0.130000
C5921	C592	0.097600	0.803500	0.154700
H3271	H327	0.100500	0.763700	0.163700
C5931	C593	0.994700	0.800100	0.337300
C5941	C594	0.883700	0.688700	0.368000
C5951	C595	0.959800	0.760900	0.378000
C5961	C596	0.866500	0.628500	0.229400
C5971	C597	0.853500	0.667800	0.206900
H3281	H328	0.859900	0.710000	0.206400
C5981	C598	0.831200	0.645200	0.185300
H3291	H329	0.822300	0.672000	0.169900
C5991	C599	0.821900	0.583300	0.186100
C6001	C600	0.834900	0.544100	0.208600
H3301	H330	0.828600	0.501800	0.209100
C6011	C601	0.857200	0.566700	0.230200
H3311	H331	0.866100	0.539900	0.245600
C6021	C602	0.930100	0.676000	0.218700
H3321	H332	0.920100	0.656300	0.201400
O681	O68	0.721400	0.436400	0.095800
C6031	C603	0.873900	0.658600	0.284800
N361	N36	0.889000	0.683300	0.311400
C6041	C604	0.957500	0.705400	0.217300
H3331	H333	0.971300	0.707800	0.200800
C6051	C605	0.947000	0.766200	0.407300
H3341	H334	0.956000	0.791800	0.423100
C6061	C606	0.885300	0.655400	0.255700
C6071	C607	0.062800	0.779500	0.210100
H3351	H335	0.084800	0.769100	0.212200
C6081	C608	0.051300	0.812600	0.184700
C6091	C609	0.019100	0.827800	0.181600
H3361	H336	0.011200	0.850500	0.164300
C6101	C610	0.998500	0.809900	0.204000
H3371	H337	0.976500	0.820300	0.201900
C6111	C611	0.010100	0.776700	0.229400
C6121	C612	0.042200	0.761500	0.232400
H3381	H338	0.050100	0.738900	0.249800
C6131	C613	0.921600	0.732200	0.410200
H3391	H339	0.911400	0.721000	0.428300
C6141	C614	0.984500	0.794100	0.366900
C6151	C615	0.860900	0.670000	0.392100
C6161	C616	0.831000	0.697600	0.392100
H3401	H340	0.825100	0.728000	0.377200
C6171	C617	0.809600	0.680600	0.413900
H3411	H341	0.789200	0.699500	0.414000
C6181	C618	0.818200	0.636100	0.435800
C6191	C619	0.848100	0.608500	0.435800
H3421	H342	0.853900	0.578100	0.450700
C6201	C620	0.869400	0.625400	0.413900
H3431	H343	0.889900	0.606600	0.413900
C6211	C621	0.746900	0.577700	0.135000
H3441	H344	0.729600	0.603700	0.128400
C6221	C622	0.770100	0.599800	0.155900
H3451	H345	0.768700	0.640800	0.163600
C6231	C623	0.795400	0.561700	0.165500
C6241	C624	0.797300	0.501600	0.154200
H3461	H346	0.814600	0.475600	0.160800
C6251	C625	0.774100	0.479600	0.133300
H3471	H347	0.775500	0.438500	0.125600
C6261	C626	0.748900	0.517600	0.123700
C6271	C627	0.872800	0.675300	0.337900
C6281	C628	0.051300	0.876800	0.433100
C6291	C629	0.030500	0.913100	0.415100
H3481	H348	0.030800	0.957000	0.417300
C6301	C630	0.009300	0.885300	0.393900
H3491	H349	0.995100	0.910100	0.381600
C6311	C631	0.008900	0.821200	0.390800
C6321	C632	0.029700	0.784800	0.408800
H3501	H350	0.029500	0.741000	0.406600
C6331	C633	0.050900	0.812700	0.429900
H3511	H351	0.065100	0.787800	0.442200
C6341	C634	0.795600	0.619600	0.459600
C6351	C635	0.773900	0.664700	0.467600
H3521	H352	0.775000	0.705200	0.459100
C6361	C636	0.750700	0.650700	0.488200
H3531	H353	0.735900	0.681600	0.493700
C6371	C637	0.749200	0.591600	0.500700
C6381	C638	0.770900	0.546400	0.492600
H3541	H354	0.769800	0.506000	0.501100
C6391	C639	0.794100	0.560400	0.472000
H3551	H355	0.808900	0.529600	0.466500
O691	O69	0.144700	0.041800	0.523300
C6401	C640	0.137700	0.987800	0.521600
O701	O70	0.722300	0.513700	0.530600
O711	O71	0.150800	0.963000	0.541900
O721	O72	0.703400	0.610300	0.532200
C6411	C641	0.724900	0.571700	0.523000
C6421	C642	0.103800	0.899700	0.503000
H3561	H356	0.111400	0.874900	0.519700
C6431	C643	0.113900	0.960900	0.500600
C6441	C644	0.102900	0.997200	0.476100
H3571	H357	0.109800	0.038900	0.474400
C6451	C645	0.081800	0.972300	0.454000
H3581	H358	0.074200	0.997100	0.437200
C6461	C646	0.071700	0.911200	0.456400
C6471	C647	0.082700	0.874900	0.480900
H3591	H359	0.075800	0.833100	0.482500
C6481	C648	0.019300	0.832700	0.322300
H3601	H360	0.031100	0.865200	0.332100
In191	In19	0.680520	0.455880	0.061470
In201	In20	0.434700	0.231040	0.312040
C6491	C649	0.487100	0.266000	0.254100
C6501	C650	0.413100	0.216300	0.379200
N371	N37	0.438500	0.214100	0.264400
O731	O73	0.204000	0.032700	0.088100
C6511	C651	0.461000	0.231900	0.246100
N381	N38	0.437100	0.235800	0.359500
O741	O74	0.641500	0.464000	0.095600
N391	N39	0.480400	0.269000	0.310900
C6521	C652	0.639200	0.406200	0.100400
O751	O75	0.654800	0.379900	0.081600
C6531	C653	0.498100	0.280100	0.285100
C6541	C654	0.416300	0.175700	0.248200
C6551	C655	0.344600	0.142900	0.328400
H3611	H361	0.328300	0.127700	0.340700
C6561	C656	0.346400	0.138800	0.298000
H3621	H362	0.329100	0.122600	0.285800
C6571	C657	0.224000	0.995300	0.099800
C6581	C658	0.524900	0.315300	0.293800
H3631	H363	0.542900	0.324600	0.282200
C6591	C659	0.571300	0.339300	0.161500
C6601	C660	0.567100	0.397500	0.148300
H3641	H364	0.549200	0.422000	0.153000
C6611	C661	0.589200	0.420000	0.128300
H3651	H365	0.586300	0.459800	0.119300
C6621	C662	0.615400	0.384200	0.121500
C6631	C663	0.619700	0.325900	0.134700
H3661	H366	0.637600	0.301500	0.130000
C6641	C664	0.597600	0.303500	0.154700
H3671	H367	0.600500	0.263700	0.163700
C6651	C665	0.494700	0.300100	0.337300
C6661	C666	0.383700	0.188700	0.368000
C6671	C667	0.459800	0.260900	0.378000
C6681	C668	0.366500	0.128500	0.229400
C6691	C669	0.353500	0.167800	0.206900
H3681	H368	0.359900	0.210000	0.206400
C6701	C670	0.331200	0.145200	0.185300
H3691	H369	0.322300	0.172000	0.169900
C6711	C671	0.321900	0.083300	0.186100
C6721	C672	0.334900	0.044100	0.208600
H3701	H370	0.328600	0.001800	0.209100
C6731	C673	0.357200	0.066700	0.230200
H3711	H371	0.366100	0.039900	0.245600
C6741	C674	0.430100	0.176000	0.218700
H3721	H372	0.420100	0.156300	0.201400
O761	O76	0.221400	0.936400	0.095800
C6751	C675	0.373900	0.158600	0.284800
N401	N40	0.389000	0.183300	0.311400
C6761	C676	0.457500	0.205400	0.217300
H3731	H373	0.471300	0.207800	0.200800
C6771	C677	0.447000	0.266200	0.407300
H3741	H374	0.456000	0.291800	0.423100
C6781	C678	0.385300	0.155400	0.255700
C6791	C679	0.562800	0.279500	0.210100
H3751	H375	0.584800	0.269100	0.212200
C6801	C680	0.551300	0.312600	0.184700
C6811	C681	0.519100	0.327800	0.181600
H3761	H376	0.511200	0.350500	0.164300
C6821	C682	0.498500	0.309900	0.204000
H3771	H377	0.476500	0.320300	0.201900
C6831	C683	0.510100	0.276700	0.229400
C6841	C684	0.542200	0.261500	0.232400
H3781	H378	0.550100	0.238900	0.249800
C6851	C685	0.421600	0.232200	0.410200
H3791	H379	0.411400	0.221000	0.428300
C6861	C686	0.484500	0.294100	0.366900
C6871	C687	0.360900	0.170000	0.392100
C6881	C688	0.331000	0.197600	0.392100
H3801	H380	0.325100	0.228000	0.377200
C6891	C689	0.309600	0.180600	0.413900
H3811	H381	0.289200	0.199500	0.414000
C6901	C690	0.318200	0.136100	0.435800
C6911	C691	0.348100	0.108500	0.435800
H3821	H382	0.353900	0.078100	0.450700
C6921	C692	0.369400	0.125400	0.413900
H3831	H383	0.389900	0.106600	0.413900
C6931	C693	0.246900	0.077700	0.135000
H3841	H384	0.229600	0.103700	0.128400
C6941	C694	0.270100	0.099800	0.155900
H3851	H385	0.268700	0.140800	0.163600
C6951	C695	0.295400	0.061700	0.165500
C6961	C696	0.297300	0.001600	0.154200
H3861	H386	0.314600	0.975600	0.160800
C6971	C697	0.274100	0.979600	0.133300
H3871	H387	0.275500	0.938500	0.125600
C6981	C698	0.248900	0.017600	0.123700
C6991	C699	0.372800	0.175300	0.337900
C7001	C700	0.551300	0.376800	0.433100
C7011	C701	0.530500	0.413100	0.415100
H3881	H388	0.530800	0.457000	0.417300
C7021	C702	0.509300	0.385300	0.393900
H3891	H389	0.495100	0.410100	0.381600
C7031	C703	0.508900	0.321200	0.390800
C7041	C704	0.529700	0.284800	0.408800
H3901	H390	0.529500	0.241000	0.406600
C7051	C705	0.550900	0.312700	0.429900
H3911	H391	0.565100	0.287800	0.442200
C7061	C706	0.295600	0.119600	0.459600
C7071	C707	0.273900	0.164700	0.467600
H3921	H392	0.275000	0.205200	0.459100
C7081	C708	0.250700	0.150700	0.488200
H3931	H393	0.235900	0.181600	0.493700
C7091	C709	0.249200	0.091600	0.500700
C7101	C710	0.270900	0.046400	0.492600
H3941	H394	0.269800	0.006000	0.501100
C7111	C711	0.294100	0.060400	0.472000
H3951	H395	0.308900	0.029600	0.466500
O771	O77	0.644700	0.541800	0.523300
C7121	C712	0.637700	0.487800	0.521600
O781	O78	0.222300	0.013700	0.530600
O791	O79	0.650800	0.463000	0.541900
O801	O80	0.203400	0.110300	0.532200
C7131	C713	0.224900	0.071700	0.523000
C7141	C714	0.603800	0.399700	0.503000
H3961	H396	0.611400	0.374900	0.519700
C7151	C715	0.613900	0.460900	0.500600
C7161	C716	0.602900	0.497200	0.476100
H3971	H397	0.609800	0.538900	0.474400
C7171	C717	0.581800	0.472300	0.454000
H3981	H398	0.574200	0.497100	0.437200
C7181	C718	0.571700	0.411200	0.456400
C7191	C719	0.582700	0.374900	0.480900
H3991	H399	0.575800	0.333100	0.482500
C7201	C720	0.519300	0.332700	0.322300
H4001	H400	0.531100	0.365200	0.332100
In211	In21	0.180520	0.044120	0.561470
In221	In22	0.934700	0.268960	0.812040
C7211	C721	0.987100	0.234000	0.754100
C7221	C722	0.913100	0.283700	0.879200
N411	N41	0.938500	0.285900	0.764400
O811	O81	0.704000	0.467300	0.588100
C7231	C723	0.961000	0.268100	0.746100
N421	N42	0.937100	0.264200	0.859500
O821	O82	0.141500	0.036000	0.595600
N431	N43	0.980400	0.231000	0.810900
C7241	C724	0.139200	0.093800	0.600400
O831	O83	0.154800	0.120100	0.581600
C7251	C725	0.998100	0.219900	0.785100
C7261	C726	0.916300	0.324300	0.748200
C7271	C727	0.844600	0.357100	0.828400
H4011	H401	0.828300	0.372300	0.840700
C7281	C728	0.846400	0.361200	0.798000
H4021	H402	0.829100	0.377400	0.785800
C7291	C729	0.724000	0.504700	0.599800
C7301	C730	0.024900	0.184700	0.793800
H4031	H403	0.042900	0.175400	0.782200
C7311	C731	0.071300	0.160700	0.661500
C7321	C732	0.067100	0.102500	0.648300
H4041	H404	0.049200	0.078000	0.653000
C7331	C733	0.089200	0.080000	0.628300
H4051	H405	0.086300	0.040200	0.619300
C7341	C734	0.115400	0.115800	0.621500
C7351	C735	0.119700	0.174100	0.634700
H4061	H406	0.137600	0.198500	0.630000
C7361	C736	0.097600	0.196500	0.654700
H4071	H407	0.100500	0.236300	0.663700
C7371	C737	0.994700	0.199900	0.837300
C7381	C738	0.883700	0.311300	0.868000
C7391	C739	0.959800	0.239100	0.878000
C7401	C740	0.866500	0.371500	0.729400
C7411	C741	0.853500	0.332200	0.706900
H4081	H408	0.859900	0.290000	0.706400
C7421	C742	0.831200	0.354800	0.685300
H4091	H409	0.822300	0.328000	0.669900
C7431	C743	0.821900	0.416700	0.686100
C7441	C744	0.834900	0.455900	0.708600
H4101	H410	0.828600	0.498200	0.709100
C7451	C745	0.857200	0.433300	0.730200
H4111	H411	0.866100	0.460100	0.745600
C7461	C746	0.930100	0.324000	0.718700
H4121	H412	0.920100	0.343700	0.701400
O841	O84	0.721400	0.563600	0.595800
C7471	C747	0.873900	0.341400	0.784800
N441	N44	0.889000	0.316700	0.811400
C7481	C748	0.957500	0.294600	0.717300
H4131	H413	0.971300	0.292200	0.700800
C7491	C749	0.947000	0.233800	0.907300
H4141	H414	0.956000	0.208200	0.923100
C7501	C750	0.885300	0.344600	0.755700
C7511	C751	0.062800	0.220500	0.710100
H4151	H415	0.084800	0.230900	0.712200
C7521	C752	0.051300	0.187400	0.684700
C7531	C753	0.019100	0.172200	0.681600
H4161	H416	0.011200	0.149500	0.664300
C7541	C754	0.998500	0.190100	0.704000
H4171	H417	0.976500	0.179700	0.701900
C7551	C755	0.010100	0.223300	0.729400
C7561	C756	0.042200	0.238500	0.732400
H4181	H418	0.050100	0.261100	0.749800
C7571	C757	0.921600	0.267800	0.910200
H4191	H419	0.911400	0.279000	0.928300
C7581	C758	0.984500	0.205900	0.866900
C7591	C759	0.860900	0.330000	0.892100
C7601	C760	0.831000	0.302400	0.892100
H4201	H420	0.825100	0.272000	0.877200
C7611	C761	0.809600	0.319400	0.913900
H4211	H421	0.789200	0.300500	0.914000
C7621	C762	0.818200	0.363900	0.935800
C7631	C763	0.848100	0.391500	0.935800
H4221	H422	0.853900	0.421900	0.950700
C7641	C764	0.869400	0.374600	0.913900
H4231	H423	0.889900	0.393400	0.913900
C7651	C765	0.746900	0.422300	0.635000
H4241	H424	0.729600	0.396300	0.628400
C7661	C766	0.770100	0.400200	0.655900
H4251	H425	0.768700	0.359200	0.663600
C7671	C767	0.795400	0.438300	0.665500
C7681	C768	0.797300	0.498400	0.654200
H4261	H426	0.814600	0.524400	0.660800
C7691	C769	0.774100	0.520400	0.633300
H4271	H427	0.775500	0.561500	0.625600
C7701	C770	0.748900	0.482400	0.623700
C7711	C771	0.872800	0.324700	0.837900
C7721	C772	0.051300	0.123200	0.933100
C7731	C773	0.030500	0.086900	0.915100
H4281	H428	0.030800	0.043000	0.917300
C7741	C774	0.009300	0.114700	0.893900
H4291	H429	0.995100	0.089900	0.881600
C7751	C775	0.008900	0.178800	0.890800
C7761	C776	0.029700	0.215200	0.908800
H4301	H430	0.029500	0.259000	0.906600
C7771	C777	0.050900	0.187300	0.929900
H4311	H431	0.065100	0.212200	0.942200
C7781	C778	0.795600	0.380400	0.959600
C7791	C779	0.773900	0.335300	0.967600
H4321	H432	0.775000	0.294800	0.959100
C7801	C780	0.750700	0.349300	0.988200
H4331	H433	0.735900	0.318400	0.993700
C7811	C781	0.749200	0.408400	0.000700
C7821	C782	0.770900	0.453600	0.992600
H4341	H434	0.769800	0.494000	0.001100
C7831	C783	0.794100	0.439600	0.972000
H4351	H435	0.808900	0.470400	0.966500
O851	O85	0.144700	0.958200	0.023300
C7841	C784	0.137700	0.012200	0.021600
O861	O86	0.722300	0.486300	0.030600
O871	O87	0.150800	0.037000	0.041900
O881	O88	0.703400	0.389700	0.032200
C7851	C785	0.724900	0.428300	0.023000
C7861	C786	0.103800	0.100300	0.003000
H4361	H436	0.111400	0.125100	0.019700
C7871	C787	0.113900	0.039100	0.000600
C7881	C788	0.102900	0.002800	0.976100
H4371	H437	0.109800	0.961100	0.974400
C7891	C789	0.081800	0.027700	0.954000
H4381	H438	0.074200	0.002900	0.937200
C7901	C790	0.071700	0.088800	0.956400
C7911	C791	0.082700	0.125100	0.980900
H4391	H439	0.075800	0.166900	0.982500
C7921	C792	0.019300	0.167300	0.822300
H4401	H440	0.031100	0.134800	0.832100
In231	In23	0.680520	0.544120	0.561470
In241	In24	0.434700	0.768960	0.812040
C7931	C793	0.487100	0.734000	0.754100
C7941	C794	0.413100	0.783700	0.879200
N451	N45	0.438500	0.785900	0.764400
O891	O89	0.204000	0.967300	0.588100
C7951	C795	0.461000	0.768100	0.746100
N461	N46	0.437100	0.764200	0.859500
O901	O90	0.641500	0.536000	0.595600
N471	N47	0.480400	0.731000	0.810900
C7961	C796	0.639200	0.593800	0.600400
O911	O91	0.654800	0.620100	0.581600
C7971	C797	0.498100	0.719900	0.785100
C7981	C798	0.416300	0.824300	0.748200
C7991	C799	0.344600	0.857100	0.828400
H4411	H441	0.328300	0.872300	0.840700
C8001	C800	0.346400	0.861200	0.798000
H4421	H442	0.329100	0.877400	0.785800
C8011	C801	0.224000	0.004700	0.599800
C8021	C802	0.524900	0.684700	0.793800
H4431	H443	0.542900	0.675400	0.782200
C8031	C803	0.571300	0.660700	0.661500
C8041	C804	0.567100	0.602500	0.648300
H4441	H444	0.549200	0.578000	0.653000
C8051	C805	0.589200	0.580000	0.628300
H4451	H445	0.586300	0.540200	0.619300
C8061	C806	0.615400	0.615800	0.621500
C8071	C807	0.619700	0.674100	0.634700
H4461	H446	0.637600	0.698500	0.630000
C8081	C808	0.597600	0.696500	0.654700
H4471	H447	0.600500	0.736300	0.663700
C8091	C809	0.494700	0.699900	0.837300
C8101	C810	0.383700	0.811300	0.868000
C8111	C811	0.459800	0.739100	0.878000
C8121	C812	0.366500	0.871500	0.729400
C8131	C813	0.353500	0.832200	0.706900
H4481	H448	0.359900	0.790000	0.706400
C8141	C814	0.331200	0.854800	0.685300
H4491	H449	0.322300	0.828000	0.669900
C8151	C815	0.321900	0.916700	0.686100
C8161	C816	0.334900	0.955900	0.708600
H4501	H450	0.328600	0.998200	0.709100
C8171	C817	0.357200	0.933300	0.730200
H4511	H451	0.366100	0.960100	0.745600
C8181	C818	0.430100	0.824000	0.718700
H4521	H452	0.420100	0.843700	0.701400
O921	O92	0.221400	0.063600	0.595800
C8191	C819	0.373900	0.841400	0.784800
N481	N48	0.389000	0.816700	0.811400
C8201	C820	0.457500	0.794600	0.717300
H4531	H453	0.471300	0.792200	0.700800
C8211	C821	0.447000	0.733800	0.907300
H4541	H454	0.456000	0.708200	0.923100
C8221	C822	0.385300	0.844600	0.755700
C8231	C823	0.562800	0.720500	0.710100
H4551	H455	0.584800	0.730900	0.712200
C8241	C824	0.551300	0.687400	0.684700
C8251	C825	0.519100	0.672200	0.681600
H4561	H456	0.511200	0.649500	0.664300
C8261	C826	0.498500	0.690100	0.704000
H4571	H457	0.476500	0.679700	0.701900
C8271	C827	0.510100	0.723300	0.729400
C8281	C828	0.542200	0.738500	0.732400
H4581	H458	0.550100	0.761100	0.749800
C8291	C829	0.421600	0.767800	0.910200
H4591	H459	0.411400	0.779000	0.928300
C8301	C830	0.484500	0.705900	0.866900
C8311	C831	0.360900	0.830000	0.892100
C8321	C832	0.331000	0.802400	0.892100
H4601	H460	0.325100	0.772000	0.877200
C8331	C833	0.309600	0.819400	0.913900
H4611	H461	0.289200	0.800500	0.914000
C8341	C834	0.318200	0.863900	0.935800
C8351	C835	0.348100	0.891500	0.935800
H4621	H462	0.353900	0.921900	0.950700
C8361	C836	0.369400	0.874600	0.913900
H4631	H463	0.389900	0.893400	0.913900
C8371	C837	0.246900	0.922300	0.635000
H4641	H464	0.229600	0.896300	0.628400
C8381	C838	0.270100	0.900200	0.655900
H4651	H465	0.268700	0.859200	0.663600
C8391	C839	0.295400	0.938300	0.665500
C8401	C840	0.297300	0.998400	0.654200
H4661	H466	0.314600	0.024400	0.660800
C8411	C841	0.274100	0.020400	0.633300
H4671	H467	0.275500	0.061500	0.625600
C8421	C842	0.248900	0.982400	0.623700
C8431	C843	0.372800	0.824700	0.837900
C8441	C844	0.551300	0.623200	0.933100
C8451	C845	0.530500	0.586900	0.915100
H4681	H468	0.530800	0.543000	0.917300
C8461	C846	0.509300	0.614700	0.893900
H4691	H469	0.495100	0.589900	0.881600
C8471	C847	0.508900	0.678800	0.890800
C8481	C848	0.529700	0.715200	0.908800
H4701	H470	0.529500	0.759000	0.906600
C8491	C849	0.550900	0.687300	0.929900
H4711	H471	0.565100	0.712200	0.942200
C8501	C850	0.295600	0.880400	0.959600
C8511	C851	0.273900	0.835300	0.967600
H4721	H472	0.275000	0.794800	0.959100
C8521	C852	0.250700	0.849300	0.988200
H4731	H473	0.235900	0.818400	0.993700
C8531	C853	0.249200	0.908400	0.000700
C8541	C854	0.270900	0.953600	0.992600
H4741	H474	0.269800	0.994000	0.001100
C8551	C855	0.294100	0.939600	0.972000
H4751	H475	0.308900	0.970400	0.966500
O931	O93	0.644700	0.458200	0.023300
C8561	C856	0.637700	0.512200	0.021600
O941	O94	0.222300	0.986300	0.030600
O951	O95	0.650800	0.537000	0.041900
O961	O96	0.203400	0.889700	0.032200
C8571	C857	0.224900	0.928300	0.023000
C8581	C858	0.603800	0.600300	0.003000
H4761	H476	0.611400	0.625100	0.019700
C8591	C859	0.613900	0.539100	0.000600
C8601	C860	0.602900	0.502800	0.976100
H4771	H477	0.609800	0.461100	0.974400
C8611	C861	0.581800	0.527700	0.954000
H4781	H478	0.574200	0.502900	0.937200
C8621	C862	0.571700	0.588800	0.956400
C8631	C863	0.582700	0.625100	0.980900
H4791	H479	0.575800	0.666900	0.982500
C8641	C864	0.519300	0.667300	0.822300
H4801	H480	0.531100	0.634800	0.832100
In251	In25	0.739330	0.271780	0.159320
In261	In26	0.995220	0.448390	0.911320
O971	O97	0.537500	0.943800	0.947200
O981	O98	0.970600	0.469700	0.385300
O991	O99	0.518100	0.137800	0.388500
N491	N49	0.741300	0.259100	0.112500
O1001	O100	0.973100	0.373200	0.940300
N501	N50	0.786300	0.310300	0.160000
O1011	O101	0.956400	0.470200	0.944500
N511	N51	0.694700	0.233800	0.159700
O1021	O102	0.519300	0.037400	0.932600
C8651	C865	0.713500	0.277400	0.224600
C8661	C866	0.927610	0.483600	0.348320
C8671	C867	0.927520	0.420200	0.342390
H4811	H481	0.942900	0.394100	0.352400
C8681	C868	0.904900	0.395100	0.321700
H4821	H482	0.904900	0.351800	0.317700
C8691	C869	0.882380	0.433300	0.307020
C8701	C870	0.882500	0.496700	0.313000
H4831	H483	0.867100	0.522800	0.302900
C8711	C871	0.905100	0.521800	0.333600
H4841	H484	0.905100	0.565100	0.337700
N521	N52	0.738700	0.290700	0.208300
C8721	C872	0.537300	0.001200	0.948900
C8731	C873	0.718800	0.235100	0.094800
C8741	C874	0.830900	0.358700	0.176700
H4851	H485	0.845800	0.381200	0.189400
C8751	C875	0.765200	0.273100	0.094100
C8761	C876	0.761800	0.311400	0.225600
C8771	C877	0.650000	0.183900	0.174600
H4861	H486	0.634900	0.166800	0.187800
C8781	C878	0.602200	0.092700	0.013940
C8791	C879	0.581000	0.127600	0.995600
H4871	H487	0.580700	0.171500	0.997500
C8801	C880	0.560300	0.098300	0.974500
H4881	H488	0.545900	0.122100	0.962000
C8811	C881	0.560800	0.034100	0.971700
C8821	C882	0.582000	0.999200	0.990100
H4891	H489	0.582300	0.955300	0.988200
C8831	C883	0.602600	0.028500	0.011170
H4901	H490	0.617100	0.004700	0.023700
C8841	C884	0.957100	0.413600	0.952000
C8851	C885	0.858820	0.407000	0.282440
C8861	C886	0.865410	0.352100	0.267280
H4911	H491	0.885100	0.331300	0.271500
C8871	C887	0.843200	0.327700	0.245970
H4921	H492	0.847800	0.290200	0.235600
C8881	C888	0.814490	0.358200	0.239810
C8891	C889	0.807890	0.413100	0.255000
H4931	H493	0.788200	0.433900	0.250800
C8901	C890	0.830100	0.437400	0.276280
H4941	H494	0.825600	0.474900	0.286600
C8911	C891	0.933060	0.396200	0.975200
C8921	C892	0.912700	0.439900	0.987100
H4951	H495	0.913800	0.482000	0.980700
C8931	C893	0.890700	0.422200	0.008200
H4961	H496	0.876800	0.452100	0.016300
C8941	C894	0.889110	0.360600	0.017490
C8951	C895	0.909500	0.316900	0.005600
H4971	H497	0.908400	0.274800	0.011900
C8961	C896	0.931400	0.334600	0.984500
H4981	H498	0.945300	0.304700	0.976300
C8971	C897	0.863690	0.338800	0.038180
C8981	C898	0.870480	0.294600	0.060640
H4991	H499	0.890400	0.273800	0.061400
C8991	C899	0.848100	0.280800	0.082040
H5001	H500	0.852700	0.250500	0.097400
C9001	C900	0.818850	0.311200	0.080970
C9011	C901	0.812060	0.355500	0.058500
H5011	H501	0.792100	0.376300	0.057800
C9021	C902	0.834500	0.369300	0.037110
H5021	H502	0.829800	0.399500	0.021800
C9031	C903	0.802300	0.331300	0.184400
C9041	C904	0.677800	0.218300	0.184300
C9051	C905	0.757400	0.255000	0.062500
H5031	H503	0.771200	0.255300	0.045800
C9061	C906	0.832000	0.345200	0.146400
H5041	H504	0.849600	0.354400	0.134300
C9071	C907	0.790800	0.331500	0.215500
C9081	C908	0.726000	0.237300	0.062000
H5051	H505	0.712100	0.228600	0.044700
C9091	C909	0.687200	0.216800	0.102600
C9101	C910	0.804000	0.316300	0.135400
C9111	C911	0.677700	0.208700	0.134600
C9121	C912	0.795500	0.297800	0.104700
C9131	C913	0.723200	0.287500	0.256900
H5061	H506	0.711100	0.278600	0.274200
C9141	C914	0.598800	0.164600	0.306800
C9151	C915	0.598100	0.102300	0.314900
H5071	H507	0.611600	0.073400	0.305400
C9161	C916	0.577500	0.082200	0.336880
H5081	H508	0.577000	0.039600	0.342400
C9171	C917	0.557700	0.124400	0.350700
C9181	C918	0.558500	0.186700	0.342600
H5091	H509	0.545000	0.215600	0.352100
C9191	C919	0.579100	0.206800	0.320700
H5101	H510	0.579600	0.249400	0.315100
C9201	C920	0.752300	0.311600	0.257000
H5111	H511	0.764600	0.326100	0.274300
C9211	C921	0.684700	0.245300	0.212900
O1031	O103	0.953500	0.565300	0.375670
C9221	C922	0.950900	0.511100	0.370200
C9231	C923	0.648500	0.179500	0.143100
H5121	H512	0.632200	0.161600	0.130200
O1041	O104	0.530300	0.046500	0.375300
C9241	C924	0.534100	0.103000	0.374300
C9251	C925	0.660450	0.226500	0.236350
C9261	C926	0.645800	0.269700	0.254600
H5131	H513	0.649000	0.312800	0.251400
C9271	C927	0.626300	0.250000	0.277530
H5141	H514	0.616300	0.279600	0.290000
C9281	C928	0.621500	0.187000	0.282250
C9291	C929	0.636200	0.143700	0.264000
H5151	H515	0.632900	0.100700	0.267200
C9301	C930	0.655700	0.163500	0.241070
H5161	H516	0.665700	0.133900	0.228600
C9311	C931	0.666500	0.182000	0.077950
C9321	C932	0.675780	0.127200	0.064200
H5171	H517	0.695900	0.109200	0.069700
C9331	C933	0.655700	0.098800	0.042200
H5181	H518	0.662000	0.061400	0.032800
C9341	C934	0.626300	0.125200	0.034080
C9351	C935	0.617020	0.180000	0.047900
H5191	H519	0.596900	0.198100	0.042300
C9361	C936	0.637100	0.208400	0.069800
H5201	H520	0.630800	0.245800	0.079200
In271	In27	0.239330	0.771780	0.159320
In281	In28	0.495220	0.948390	0.911320
O1051	O105	0.037500	0.443800	0.947200
O1061	O106	0.470600	0.969700	0.385300
O1071	O107	0.018100	0.637800	0.388500
N531	N53	0.241300	0.759100	0.112500
O1081	O108	0.473100	0.873200	0.940300
N541	N54	0.286300	0.810300	0.160000
O1091	O109	0.456400	0.970200	0.944500
N551	N55	0.194700	0.733800	0.159700
O1101	O110	0.019300	0.537400	0.932600
C9371	C937	0.213500	0.777400	0.224600
C9381	C938	0.427610	0.983600	0.348320
C9391	C939	0.427520	0.920200	0.342390
H5211	H521	0.442900	0.894100	0.352400
C9401	C940	0.404900	0.895100	0.321700
H5221	H522	0.404900	0.851800	0.317700
C9411	C941	0.382380	0.933300	0.307020
C9421	C942	0.382500	0.996700	0.313000
H5231	H523	0.367100	0.022800	0.302900
C9431	C943	0.405100	0.021800	0.333600
H5241	H524	0.405100	0.065100	0.337700
N561	N56	0.238700	0.790700	0.208300
C9441	C944	0.037300	0.501200	0.948900
C9451	C945	0.218800	0.735100	0.094800
C9461	C946	0.330900	0.858700	0.176700
H5251	H525	0.345800	0.881200	0.189400
C9471	C947	0.265200	0.773100	0.094100
C9481	C948	0.261800	0.811400	0.225600
C9491	C949	0.150000	0.683900	0.174600
H5261	H526	0.134900	0.666800	0.187800
C9501	C950	0.102200	0.592700	0.013940
C9511	C951	0.081000	0.627600	0.995600
H5271	H527	0.080700	0.671500	0.997500
C9521	C952	0.060300	0.598300	0.974500
H5281	H528	0.045900	0.622100	0.962000
C9531	C953	0.060800	0.534100	0.971700
C9541	C954	0.082000	0.499200	0.990100
H5291	H529	0.082300	0.455300	0.988200
C9551	C955	0.102600	0.528500	0.011170
H5301	H530	0.117100	0.504700	0.023700
C9561	C956	0.457100	0.913600	0.952000
C9571	C957	0.358820	0.907000	0.282440
C9581	C958	0.365410	0.852100	0.267280
H5311	H531	0.385100	0.831300	0.271500
C9591	C959	0.343200	0.827700	0.245970
H5321	H532	0.347800	0.790200	0.235600
C9601	C960	0.314490	0.858200	0.239810
C9611	C961	0.307890	0.913100	0.255000
H5331	H533	0.288200	0.933900	0.250800
C9621	C962	0.330100	0.937400	0.276280
H5341	H534	0.325600	0.974900	0.286600
C9631	C963	0.433060	0.896200	0.975200
C9641	C964	0.412700	0.939900	0.987100
H5351	H535	0.413800	0.982000	0.980700
C9651	C965	0.390700	0.922200	0.008200
H5361	H536	0.376800	0.952100	0.016300
C9661	C966	0.389110	0.860600	0.017490
C9671	C967	0.409500	0.816900	0.005600
H5371	H537	0.408400	0.774800	0.011900
C9681	C968	0.431400	0.834600	0.984500
H5381	H538	0.445300	0.804700	0.976300
C9691	C969	0.363690	0.838800	0.038180
C9701	C970	0.370480	0.794600	0.060640
H5391	H539	0.390400	0.773800	0.061400
C9711	C971	0.348100	0.780800	0.082040
H5401	H540	0.352700	0.750500	0.097400
C9721	C972	0.318850	0.811200	0.080970
C9731	C973	0.312060	0.855500	0.058500
H5411	H541	0.292100	0.876300	0.057800
C9741	C974	0.334500	0.869300	0.037110
H5421	H542	0.329800	0.899500	0.021800
C9751	C975	0.302300	0.831300	0.184400
C9761	C976	0.177800	0.718300	0.184300
C9771	C977	0.257400	0.755000	0.062500
H5431	H543	0.271200	0.755300	0.045800
C9781	C978	0.332000	0.845200	0.146400
H5441	H544	0.349600	0.854400	0.134300
C9791	C979	0.290800	0.831500	0.215500
C9801	C980	0.226000	0.737300	0.062000
H5451	H545	0.212100	0.728600	0.044700
C9811	C981	0.187200	0.716800	0.102600
C9821	C982	0.304000	0.816300	0.135400
C9831	C983	0.177700	0.708700	0.134600
C9841	C984	0.295500	0.797800	0.104700
C9851	C985	0.223200	0.787500	0.256900
H5461	H546	0.211100	0.778600	0.274200
C9861	C986	0.098800	0.664600	0.306800
C9871	C987	0.098100	0.602300	0.314900
H5471	H547	0.111600	0.573400	0.305400
C9881	C988	0.077500	0.582200	0.336880
H5481	H548	0.077000	0.539600	0.342400
C9891	C989	0.057700	0.624400	0.350700
C9901	C990	0.058500	0.686700	0.342600
H5491	H549	0.045000	0.715600	0.352100
C9911	C991	0.079100	0.706800	0.320700
H5501	H550	0.079600	0.749400	0.315100
C9921	C992	0.252300	0.811600	0.257000
H5511	H551	0.264600	0.826100	0.274300
C9931	C993	0.184700	0.745300	0.212900
O1111	O111	0.453500	0.065300	0.375670
C9941	C994	0.450900	0.011100	0.370200
C9951	C995	0.148500	0.679500	0.143100
H5521	H552	0.132200	0.661600	0.130200
O1121	O112	0.030300	0.546500	0.375300
C9961	C996	0.034100	0.603000	0.374300
C9971	C997	0.160450	0.726500	0.236350
C9981	C998	0.145800	0.769700	0.254600
H5531	H553	0.149000	0.812800	0.251400
C9991	C999	0.126300	0.750000	0.277530
H5541	H554	0.116300	0.779600	0.290000
C10001	C1000	0.121500	0.687000	0.282250
C10011	C1001	0.136200	0.643700	0.264000
H5551	H555	0.132900	0.600700	0.267200
C10021	C1002	0.155700	0.663500	0.241070
H5561	H556	0.165700	0.633900	0.228600
C10031	C1003	0.166500	0.682000	0.077950
C10041	C1004	0.175780	0.627200	0.064200
H5571	H557	0.195900	0.609200	0.069700
C10051	C1005	0.155700	0.598800	0.042200
H5581	H558	0.162000	0.561400	0.032800
C10061	C1006	0.126300	0.625200	0.034080
C10071	C1007	0.117020	0.680000	0.047900
H5591	H559	0.096900	0.698100	0.042300
C10081	C1008	0.137100	0.708400	0.069800
H5601	H560	0.130800	0.745800	0.079200
In291	In29	0.739330	0.728220	0.659320
In301	In30	0.995220	0.551610	0.411320
O1131	O113	0.537500	0.056200	0.447200
O1141	O114	0.970600	0.530300	0.885300
O1151	O115	0.518100	0.862200	0.888500
N571	N57	0.741300	0.740900	0.612500
O1161	O116	0.973100	0.626800	0.440300
N581	N58	0.786300	0.689700	0.660000
O1171	O117	0.956400	0.529800	0.444500
N591	N59	0.694700	0.766200	0.659700
O1181	O118	0.519300	0.962600	0.432600
C10091	C1009	0.713500	0.722600	0.724600
C10101	C1010	0.927610	0.516400	0.848320
C10111	C1011	0.927520	0.579800	0.842390
H5611	H561	0.942900	0.605900	0.852400
C10121	C1012	0.904900	0.604900	0.821700
H5621	H562	0.904900	0.648200	0.817700
C10131	C1013	0.882380	0.566700	0.807020
C10141	C1014	0.882500	0.503300	0.813000
H5631	H563	0.867100	0.477200	0.802900
C10151	C1015	0.905100	0.478200	0.833600
H5641	H564	0.905100	0.434900	0.837700
N601	N60	0.738700	0.709300	0.708300
C10161	C1016	0.537300	0.998800	0.448900
C10171	C1017	0.718800	0.764900	0.594800
C10181	C1018	0.830900	0.641300	0.676700
H5651	H565	0.845800	0.618800	0.689400
C10191	C1019	0.765200	0.726900	0.594100
C10201	C1020	0.761800	0.688600	0.725600
C10211	C1021	0.650000	0.816100	0.674600
H5661	H566	0.634900	0.833200	0.687800
C10221	C1022	0.602200	0.907300	0.513940
C10231	C1023	0.581000	0.872400	0.495600
H5671	H567	0.580700	0.828500	0.497500
C10241	C1024	0.560300	0.901700	0.474500
H5681	H568	0.545900	0.877900	0.462000
C10251	C1025	0.560800	0.965900	0.471700
C10261	C1026	0.582000	0.000800	0.490100
H5691	H569	0.582300	0.044700	0.488200
C10271	C1027	0.602600	0.971500	0.511170
H5701	H570	0.617100	0.995300	0.523700
C10281	C1028	0.957100	0.586400	0.452000
C10291	C1029	0.858820	0.593000	0.782440
C10301	C1030	0.865410	0.647900	0.767280
H5711	H571	0.885100	0.668700	0.771500
C10311	C1031	0.843200	0.672300	0.745970
H5721	H572	0.847800	0.709800	0.735600
C10321	C1032	0.814490	0.641800	0.739810
C10331	C1033	0.807890	0.586900	0.755000
H5731	H573	0.788200	0.566100	0.750800
C10341	C1034	0.830100	0.562600	0.776280
H5741	H574	0.825600	0.525100	0.786600
C10351	C1035	0.933060	0.603800	0.475200
C10361	C1036	0.912700	0.560100	0.487100
H5751	H575	0.913800	0.518000	0.480700
C10371	C1037	0.890700	0.577800	0.508200
H5761	H576	0.876800	0.547900	0.516300
C10381	C1038	0.889110	0.639400	0.517490
C10391	C1039	0.909500	0.683100	0.505600
H5771	H577	0.908400	0.725200	0.511900
C10401	C1040	0.931400	0.665400	0.484500
H5781	H578	0.945300	0.695300	0.476300
C10411	C1041	0.863690	0.661200	0.538180
C10421	C1042	0.870480	0.705400	0.560640
H5791	H579	0.890400	0.726200	0.561400
C10431	C1043	0.848100	0.719200	0.582040
H5801	H580	0.852700	0.749500	0.597400
C10441	C1044	0.818850	0.688800	0.580970
C10451	C1045	0.812060	0.644500	0.558500
H5811	H581	0.792100	0.623700	0.557800
C10461	C1046	0.834500	0.630700	0.537110
H5821	H582	0.829800	0.600500	0.521800
C10471	C1047	0.802300	0.668700	0.684400
C10481	C1048	0.677800	0.781700	0.684300
C10491	C1049	0.757400	0.745000	0.562500
H5831	H583	0.771200	0.744700	0.545800
C10501	C1050	0.832000	0.654800	0.646400
H5841	H584	0.849600	0.645600	0.634300
C10511	C1051	0.790800	0.668500	0.715500
C10521	C1052	0.726000	0.762700	0.562000
H5851	H585	0.712100	0.771400	0.544700
C10531	C1053	0.687200	0.783200	0.602600
C10541	C1054	0.804000	0.683700	0.635400
C10551	C1055	0.677700	0.791300	0.634600
C10561	C1056	0.795500	0.702200	0.604700
C10571	C1057	0.723200	0.712500	0.756900
H5861	H586	0.711100	0.721400	0.774200
C10581	C1058	0.598800	0.835400	0.806800
C10591	C1059	0.598100	0.897700	0.814900
H5871	H587	0.611600	0.926600	0.805400
C10601	C1060	0.577500	0.917800	0.836880
H5881	H588	0.577000	0.960400	0.842400
C10611	C1061	0.557700	0.875600	0.850700
C10621	C1062	0.558500	0.813300	0.842600
H5891	H589	0.545000	0.784400	0.852100
C10631	C1063	0.579100	0.793200	0.820700
H5901	H590	0.579600	0.750600	0.815100
C10641	C1064	0.752300	0.688400	0.757000
H5911	H591	0.764600	0.673900	0.774300
C10651	C1065	0.684700	0.754700	0.712900
O1191	O119	0.953500	0.434700	0.875670
C10661	C1066	0.950900	0.488900	0.870200
C10671	C1067	0.648500	0.820500	0.643100
H5921	H592	0.632200	0.838400	0.630200
O1201	O120	0.530300	0.953500	0.875300
C10681	C1068	0.534100	0.897000	0.874300
C10691	C1069	0.660450	0.773500	0.736350
C10701	C1070	0.645800	0.730300	0.754600
H5931	H593	0.649000	0.687200	0.751400
C10711	C1071	0.626300	0.750000	0.777530
H5941	H594	0.616300	0.720400	0.790000
C10721	C1072	0.621500	0.813000	0.782250
C10731	C1073	0.636200	0.856300	0.764000
H5951	H595	0.632900	0.899300	0.767200
C10741	C1074	0.655700	0.836500	0.741070
H5961	H596	0.665700	0.866100	0.728600
C10751	C1075	0.666500	0.818000	0.577950
C10761	C1076	0.675780	0.872800	0.564200
H5971	H597	0.695900	0.890800	0.569700
C10771	C1077	0.655700	0.901200	0.542200
H5981	H598	0.662000	0.938600	0.532800
C10781	C1078	0.626300	0.874800	0.534080
C10791	C1079	0.617020	0.820000	0.547900
H5991	H599	0.596900	0.801900	0.542300
C10801	C1080	0.637100	0.791600	0.569800
H6001	H600	0.630800	0.754200	0.579200
In311	In31	0.239330	0.228220	0.659320
In321	In32	0.495220	0.051610	0.411320
O1211	O121	0.037500	0.556200	0.447200
O1221	O122	0.470600	0.030300	0.885300
O1231	O123	0.018100	0.362200	0.888500
N611	N61	0.241300	0.240900	0.612500
O1241	O124	0.473100	0.126800	0.440300
N621	N62	0.286300	0.189700	0.660000
O1251	O125	0.456400	0.029800	0.444500
N631	N63	0.194700	0.266200	0.659700
O1261	O126	0.019300	0.462600	0.432600
C10811	C1081	0.213500	0.222600	0.724600
C10821	C1082	0.427610	0.016400	0.848320
C10831	C1083	0.427520	0.079800	0.842390
H6011	H601	0.442900	0.105900	0.852400
C10841	C1084	0.404900	0.104900	0.821700
H6021	H602	0.404900	0.148200	0.817700
C10851	C1085	0.382380	0.066700	0.807020
C10861	C1086	0.382500	0.003300	0.813000
H6031	H603	0.367100	0.977200	0.802900
C10871	C1087	0.405100	0.978200	0.833600
H6041	H604	0.405100	0.934900	0.837700
N641	N64	0.238700	0.209300	0.708300
C10881	C1088	0.037300	0.498800	0.448900
C10891	C1089	0.218800	0.264900	0.594800
C10901	C1090	0.330900	0.141300	0.676700
H6051	H605	0.345800	0.118800	0.689400
C10911	C1091	0.265200	0.226900	0.594100
C10921	C1092	0.261800	0.188600	0.725600
C10931	C1093	0.150000	0.316100	0.674600
H6061	H606	0.134900	0.333200	0.687800
C10941	C1094	0.102200	0.407300	0.513940
C10951	C1095	0.081000	0.372400	0.495600
H6071	H607	0.080700	0.328500	0.497500
C10961	C1096	0.060300	0.401700	0.474500
H6081	H608	0.045900	0.377900	0.462000
C10971	C1097	0.060800	0.465900	0.471700
C10981	C1098	0.082000	0.500800	0.490100
H6091	H609	0.082300	0.544700	0.488200
C10991	C1099	0.102600	0.471500	0.511170
H6101	H610	0.117100	0.495300	0.523700
C11001	C1100	0.457100	0.086400	0.452000
C11011	C1101	0.358820	0.093000	0.782440
C11021	C1102	0.365410	0.147900	0.767280
H6111	H611	0.385100	0.168700	0.771500
C11031	C1103	0.343200	0.172300	0.745970
H6121	H612	0.347800	0.209800	0.735600
C11041	C1104	0.314490	0.141800	0.739810
C11051	C1105	0.307890	0.086900	0.755000
H6131	H613	0.288200	0.066100	0.750800
C11061	C1106	0.330100	0.062600	0.776280
H6141	H614	0.325600	0.025100	0.786600
C11071	C1107	0.433060	0.103800	0.475200
C11081	C1108	0.412700	0.060100	0.487100
H6151	H615	0.413800	0.018000	0.480700
C11091	C1109	0.390700	0.077800	0.508200
H6161	H616	0.376800	0.047900	0.516300
C11101	C1110	0.389110	0.139400	0.517490
C11111	C1111	0.409500	0.183100	0.505600
H6171	H617	0.408400	0.225200	0.511900
C11121	C1112	0.431400	0.165400	0.484500
H6181	H618	0.445300	0.195300	0.476300
C11131	C1113	0.363690	0.161200	0.538180
C11141	C1114	0.370480	0.205400	0.560640
H6191	H619	0.390400	0.226200	0.561400
C11151	C1115	0.348100	0.219200	0.582040
H6201	H620	0.352700	0.249500	0.597400
C11161	C1116	0.318850	0.188800	0.580970
C11171	C1117	0.312060	0.144500	0.558500
H6211	H621	0.292100	0.123700	0.557800
C11181	C1118	0.334500	0.130700	0.537110
H6221	H622	0.329800	0.100500	0.521800
C11191	C1119	0.302300	0.168700	0.684400
C11201	C1120	0.177800	0.281700	0.684300
C11211	C1121	0.257400	0.245000	0.562500
H6231	H623	0.271200	0.244700	0.545800
C11221	C1122	0.332000	0.154800	0.646400
H6241	H624	0.349600	0.145600	0.634300
C11231	C1123	0.290800	0.168500	0.715500
C11241	C1124	0.226000	0.262700	0.562000
H6251	H625	0.212100	0.271400	0.544700
C11251	C1125	0.187200	0.283200	0.602600
C11261	C1126	0.304000	0.183700	0.635400
C11271	C1127	0.177700	0.291300	0.634600
C11281	C1128	0.295500	0.202200	0.604700
C11291	C1129	0.223200	0.212500	0.756900
H6261	H626	0.211100	0.221400	0.774200
C11301	C1130	0.098800	0.335400	0.806800
C11311	C1131	0.098100	0.397700	0.814900
H6271	H627	0.111600	0.426600	0.805400
C11321	C1132	0.077500	0.417800	0.836880
H6281	H628	0.077000	0.460400	0.842400
C11331	C1133	0.057700	0.375600	0.850700
C11341	C1134	0.058500	0.313300	0.842600
H6291	H629	0.045000	0.284400	0.852100
C11351	C1135	0.079100	0.293200	0.820700
H6301	H630	0.079600	0.250600	0.815100
C11361	C1136	0.252300	0.188400	0.757000
H6311	H631	0.264600	0.173900	0.774300
C11371	C1137	0.184700	0.254700	0.712900
O1271	O127	0.453500	0.934700	0.875670
C11381	C1138	0.450900	0.988900	0.870200
C11391	C1139	0.148500	0.320500	0.643100
H6321	H632	0.132200	0.338400	0.630200
O1281	O128	0.030300	0.453500	0.875300
C11401	C1140	0.034100	0.397000	0.874300
C11411	C1141	0.160450	0.273500	0.736350
C11421	C1142	0.145800	0.230300	0.754600
H6331	H633	0.149000	0.187200	0.751400
C11431	C1143	0.126300	0.250000	0.777530
H6341	H634	0.116300	0.220400	0.790000
C11441	C1144	0.121500	0.313000	0.782250
C11451	C1145	0.136200	0.356300	0.764000
H6351	H635	0.132900	0.399300	0.767200
C11461	C1146	0.155700	0.336500	0.741070
H6361	H636	0.165700	0.366100	0.728600
C11471	C1147	0.166500	0.318000	0.577950
C11481	C1148	0.175780	0.372800	0.564200
H6371	H637	0.195900	0.390800	0.569700
C11491	C1149	0.155700	0.401200	0.542200
H6381	H638	0.162000	0.438600	0.532800
C11501	C1150	0.126300	0.374800	0.534080
C11511	C1151	0.117020	0.320000	0.547900
H6391	H639	0.096900	0.301900	0.542300
C11521	C1152	0.137100	0.291600	0.569800
H6401	H640	0.130800	0.254200	0.579200
