data_COMDOY_clean_PM
_symmetry_space_group_name_H-M	'P1'
_cell_length_a	6.734000
_cell_length_b	11.062000
_cell_length_c	11.180900
_cell_angle_alpha	119.649000
_cell_angle_beta	107.526000
_cell_angle_gamma	90.000000
_symmetry_Int_Tables_number 1

loop_
_symmetry_equiv_pos_as_xyz
'x,y,z'

loop_
_atom_site_label
_atom_site_type_symbol
_atom_site_fract_x
_atom_site_fract_y
_atom_site_fract_z
Ga11	Ga1	0.000000	0.500000	0.000000
Ga21	Ga2	0.500000	0.500000	0.000000
H11	H1	0.848500	0.512200	0.614800
H21	H2	0.651500	0.897400	0.385200
H31	H3	0.733700	0.487800	0.385200
H41	H4	0.766300	0.102600	0.614800
H51	H5	0.151500	0.487800	0.385200
H61	H6	0.348500	0.102600	0.614800
H71	H7	0.266300	0.512200	0.614800
H81	H8	0.233700	0.897400	0.385200
H91	H9	0.750000	0.347000	0.000000
H101	H10	0.250000	0.653000	0.000000
C11	C1	0.705600	0.507100	0.569400
C21	C2	0.794400	0.937700	0.430600
C31	C3	0.636200	0.492900	0.430600
C41	C4	0.863800	0.062300	0.569400
C51	C5	0.294400	0.492900	0.430600
C61	C6	0.205600	0.062300	0.569400
C71	C7	0.363800	0.507100	0.569400
C81	C8	0.136200	0.937700	0.430600
C91	C9	0.568700	0.513500	0.637400
C101	C10	0.644200	0.528100	0.788400
C111	C11	0.931300	0.876100	0.362600
C121	C12	0.855800	0.739700	0.211600
C131	C13	0.431300	0.486500	0.362600
C141	C14	0.355800	0.471900	0.211600
C151	C15	0.068700	0.123900	0.637400
C161	C16	0.144200	0.260300	0.788400
O11	O1	0.831800	0.532500	0.842000
O21	O2	0.668200	0.690500	0.158000
O31	O3	0.489800	0.467500	0.158000
O41	O4	0.010200	0.309500	0.842000
O51	O5	0.168200	0.467500	0.158000
O61	O6	0.331800	0.309500	0.842000
O71	O7	0.510200	0.532500	0.842000
O81	O8	0.989800	0.690500	0.158000
O91	O9	0.750000	0.420800	0.000000
O101	O10	0.250000	0.579200	0.000000
