data_COQLAX_clean_PM
_symmetry_space_group_name_H-M	'P1'
_cell_length_a	36.628400
_cell_length_b	36.628400
_cell_length_c	27.512700
_cell_angle_alpha	90.000000
_cell_angle_beta	90.000000
_cell_angle_gamma	120.000000
_symmetry_Int_Tables_number 1

loop_
_symmetry_equiv_pos_as_xyz
'x,y,z'

loop_
_atom_site_label
_atom_site_type_symbol
_atom_site_fract_x
_atom_site_fract_y
_atom_site_fract_z
Ag11	Ag1	0.075680	0.202540	0.686070
P11	P1	0.115630	0.251260	0.751620
P21	P2	0.396320	0.519930	0.766500
C11	C1	0.307500	0.327500	0.743900
C21	C2	0.260200	0.306100	0.749900
C31	C3	0.236000	0.292600	0.707300
H11	H1	0.249600	0.294800	0.677200
C41	C4	0.193000	0.276300	0.707800
H21	H2	0.177500	0.268000	0.678300
C51	C5	0.172000	0.271700	0.752500
C61	C6	0.195400	0.283100	0.793800
H31	H3	0.182200	0.279400	0.824600
C71	C7	0.239900	0.300700	0.790900
H41	H4	0.255700	0.308800	0.820200
C81	C8	0.328700	0.374700	0.749800
C91	C9	0.340400	0.399400	0.709400
H51	H5	0.335700	0.387100	0.678000
C101	C10	0.359700	0.443600	0.714700
H61	H6	0.366500	0.460300	0.686100
C111	C11	0.369000	0.463300	0.758300
C121	C12	0.356200	0.438900	0.798500
H71	H7	0.360500	0.451800	0.829500
C131	C13	0.336700	0.395400	0.795300
H81	H8	0.328700	0.379100	0.824200
C141	C14	0.110500	0.297500	0.747200
C151	C15	0.070100	0.292600	0.747100
H91	H9	0.046000	0.265300	0.750700
C161	C16	0.065100	0.327700	0.741800
H101	H10	0.037500	0.324000	0.740100
C171	C17	0.098700	0.366800	0.738900
H111	H11	0.094800	0.390500	0.735700
C181	C18	0.138700	0.372400	0.740500
H121	H12	0.162400	0.400100	0.738900
C191	C19	0.144600	0.338800	0.744300
H131	H13	0.172500	0.343300	0.745100
C201	C20	0.099000	0.233000	0.813000
C211	C21	0.092500	0.192500	0.824000
H141	H14	0.095400	0.175500	0.800100
C221	C22	0.081200	0.178600	0.872900
H151	H15	0.076500	0.151500	0.881500
C231	C23	0.076700	0.202200	0.907700
H161	H16	0.070100	0.192000	0.940000
C241	C24	0.081900	0.241000	0.896300
H171	H17	0.077700	0.257300	0.920200
C251	C25	0.093600	0.256500	0.848100
H181	H18	0.097800	0.283600	0.840100
C261	C26	0.369200	0.538100	0.725500
C271	C27	0.369700	0.534300	0.676600
H191	H19	0.385600	0.523400	0.661700
C281	C28	0.346100	0.546700	0.648700
H201	H20	0.345500	0.543200	0.614400
C291	C29	0.324900	0.562900	0.667200
H211	H21	0.309700	0.571400	0.646500
C301	C30	0.324200	0.567800	0.715200
H221	H22	0.308400	0.579500	0.728800
C311	C31	0.347500	0.555400	0.746000
H231	H23	0.347900	0.559100	0.780200
C321	C32	0.446100	0.539600	0.735700
C331	C33	0.461600	0.514900	0.721200
H241	H24	0.445200	0.485200	0.725300
C341	C34	0.502400	0.532800	0.699900
H251	H25	0.512600	0.515100	0.688400
C351	C35	0.526600	0.575500	0.696100
H261	H26	0.555300	0.588100	0.686400
C361	C36	0.509100	0.600200	0.706400
H271	H27	0.523800	0.629400	0.698500
C371	C37	0.469500	0.582100	0.728500
H281	H28	0.458600	0.599600	0.738700
O11	O1	0.024800	0.137100	0.723200
Ag21	Ag2	0.742350	0.535870	0.019400
P31	P3	0.782300	0.584590	0.084950
P41	P4	0.062990	0.853260	0.099830
C381	C38	0.974170	0.660830	0.077230
C391	C39	0.926870	0.639430	0.083230
C401	C40	0.902670	0.625930	0.040630
H291	H29	0.916270	0.628130	0.010530
C411	C41	0.859670	0.609630	0.041130
H301	H30	0.844170	0.601330	0.011630
C421	C42	0.838670	0.605030	0.085830
C431	C43	0.862070	0.616430	0.127130
H311	H31	0.848870	0.612730	0.157930
C441	C44	0.906570	0.634030	0.124230
H321	H32	0.922370	0.642130	0.153530
C451	C45	0.995370	0.708030	0.083130
C461	C46	0.007070	0.732730	0.042730
H331	H33	0.002370	0.720430	0.011330
C471	C47	0.026370	0.776930	0.048030
H341	H34	0.033170	0.793630	0.019430
C481	C48	0.035670	0.796630	0.091630
C491	C49	0.022870	0.772230	0.131830
H351	H35	0.027170	0.785130	0.162830
C501	C50	0.003370	0.728730	0.128630
H361	H36	0.995370	0.712430	0.157530
C511	C51	0.777170	0.630830	0.080530
C521	C52	0.736770	0.625930	0.080430
H371	H37	0.712670	0.598630	0.084030
C531	C53	0.731770	0.661030	0.075130
H381	H38	0.704170	0.657330	0.073430
C541	C54	0.765370	0.700130	0.072230
H391	H39	0.761470	0.723830	0.069030
C551	C55	0.805370	0.705730	0.073830
H401	H40	0.829070	0.733430	0.072230
C561	C56	0.811270	0.672130	0.077630
H411	H41	0.839170	0.676630	0.078430
C571	C57	0.765670	0.566330	0.146330
C581	C58	0.759170	0.525830	0.157330
H421	H42	0.762070	0.508830	0.133430
C591	C59	0.747870	0.511930	0.206230
H431	H43	0.743170	0.484830	0.214830
C601	C60	0.743370	0.535530	0.241030
H441	H44	0.736770	0.525330	0.273330
C611	C61	0.748570	0.574330	0.229630
H451	H45	0.744370	0.590630	0.253530
C621	C62	0.760270	0.589830	0.181430
H461	H46	0.764470	0.616930	0.173430
C631	C63	0.035870	0.871430	0.058830
C641	C64	0.036370	0.867630	0.009930
H471	H47	0.052270	0.856730	0.995030
C651	C65	0.012770	0.880030	0.982030
H481	H48	0.012170	0.876530	0.947730
C661	C66	0.991570	0.896230	0.000530
H491	H49	0.976370	0.904730	0.979830
C671	C67	0.990870	0.901130	0.048530
H501	H50	0.975070	0.912830	0.062130
C681	C68	0.014170	0.888730	0.079330
H511	H51	0.014570	0.892430	0.113530
C691	C69	0.112770	0.872930	0.069030
C701	C70	0.128270	0.848230	0.054530
H521	H52	0.111870	0.818530	0.058630
C711	C71	0.169070	0.866130	0.033230
H531	H53	0.179270	0.848430	0.021730
C721	C72	0.193270	0.908830	0.029430
H541	H54	0.221970	0.921430	0.019730
C731	C73	0.175770	0.933530	0.039730
H551	H55	0.190470	0.962730	0.031830
C741	C74	0.136170	0.915430	0.061830
H561	H56	0.125270	0.932930	0.072030
O21	O2	0.691470	0.470430	0.056530
Ag31	Ag3	0.409010	0.869210	0.352740
P51	P5	0.448960	0.917930	0.418290
P61	P6	0.729650	0.186600	0.433170
C751	C75	0.640830	0.994170	0.410570
C761	C76	0.593530	0.972770	0.416570
C771	C77	0.569330	0.959270	0.373970
H571	H57	0.582930	0.961470	0.343870
C781	C78	0.526330	0.942970	0.374470
H581	H58	0.510830	0.934670	0.344970
C791	C79	0.505330	0.938370	0.419170
C801	C80	0.528730	0.949770	0.460470
H591	H59	0.515530	0.946070	0.491270
C811	C81	0.573230	0.967370	0.457570
H601	H60	0.589030	0.975470	0.486870
C821	C82	0.662030	0.041370	0.416470
C831	C83	0.673730	0.066070	0.376070
H611	H61	0.669030	0.053770	0.344670
C841	C84	0.693030	0.110270	0.381370
H621	H62	0.699830	0.126970	0.352770
C851	C85	0.702330	0.129970	0.424970
C861	C86	0.689530	0.105570	0.465170
H631	H63	0.693830	0.118470	0.496170
C871	C87	0.670030	0.062070	0.461970
H641	H64	0.662030	0.045770	0.490870
C881	C88	0.443830	0.964170	0.413870
C891	C89	0.403430	0.959270	0.413770
H651	H65	0.379330	0.931970	0.417370
C901	C90	0.398430	0.994370	0.408470
H661	H66	0.370830	0.990670	0.406770
C911	C91	0.432030	0.033470	0.405570
H671	H67	0.428130	0.057170	0.402370
C921	C92	0.472030	0.039070	0.407170
H681	H68	0.495730	0.066770	0.405570
C931	C93	0.477930	0.005470	0.410970
H691	H69	0.505830	0.009970	0.411770
C941	C94	0.432330	0.899670	0.479670
C951	C95	0.425830	0.859170	0.490670
H701	H70	0.428730	0.842170	0.466770
C961	C96	0.414530	0.845270	0.539570
H711	H71	0.409830	0.818170	0.548170
C971	C97	0.410030	0.868870	0.574370
H721	H72	0.403430	0.858670	0.606670
C981	C98	0.415230	0.907670	0.562970
H731	H73	0.411030	0.923970	0.586870
C991	C99	0.426930	0.923170	0.514770
H741	H74	0.431130	0.950270	0.506770
C1001	C100	0.702530	0.204770	0.392170
C1011	C101	0.703030	0.200970	0.343270
H751	H75	0.718930	0.190070	0.328370
C1021	C102	0.679430	0.213370	0.315370
H761	H76	0.678830	0.209870	0.281070
C1031	C103	0.658230	0.229570	0.333870
H771	H77	0.643030	0.238070	0.313170
C1041	C104	0.657530	0.234470	0.381870
H781	H78	0.641730	0.246170	0.395470
C1051	C105	0.680830	0.222070	0.412670
H791	H79	0.681230	0.225770	0.446870
C1061	C106	0.779430	0.206270	0.402370
C1071	C107	0.794930	0.181570	0.387870
H801	H80	0.778530	0.151870	0.391970
C1081	C108	0.835730	0.199470	0.366570
H811	H81	0.845930	0.181770	0.355070
C1091	C109	0.859930	0.242170	0.362770
H821	H82	0.888630	0.254770	0.353070
C1101	C110	0.842430	0.266870	0.373070
H831	H83	0.857130	0.296070	0.365170
C1111	C111	0.802830	0.248770	0.395170
H841	H84	0.791930	0.266270	0.405370
O31	O3	0.358130	0.803770	0.389870
Ag41	Ag4	0.797460	0.873140	0.686070
P71	P7	0.748740	0.864370	0.751620
P81	P8	0.480070	0.876390	0.766500
C1121	C112	0.672500	0.980000	0.743900
C1131	C113	0.693900	0.954100	0.749900
C1141	C114	0.707400	0.943400	0.707300
H851	H85	0.705200	0.954800	0.677200
C1151	C115	0.723700	0.916700	0.707800
H861	H86	0.732000	0.909500	0.678300
C1161	C116	0.728300	0.900300	0.752500
C1171	C117	0.716900	0.912300	0.793800
H871	H87	0.720600	0.902800	0.824600
C1181	C118	0.699300	0.939200	0.790900
H881	H88	0.691200	0.946900	0.820200
C1191	C119	0.625300	0.954000	0.749800
C1201	C120	0.600600	0.941000	0.709400
H891	H89	0.612900	0.948600	0.678000
C1211	C121	0.556400	0.916100	0.714700
H901	H90	0.539700	0.906200	0.686100
C1221	C122	0.536700	0.905700	0.758300
C1231	C123	0.561100	0.917300	0.798500
H911	H91	0.548200	0.908700	0.829500
C1241	C124	0.604600	0.941300	0.795300
H921	H92	0.620900	0.949600	0.824200
C1251	C125	0.702500	0.813000	0.747200
C1261	C126	0.707400	0.777500	0.747100
H931	H93	0.734700	0.780700	0.750700
C1271	C127	0.672300	0.737400	0.741800
H941	H94	0.676000	0.713500	0.740100
C1281	C128	0.633200	0.731900	0.738900
H951	H95	0.609500	0.704300	0.735700
C1291	C129	0.627600	0.766300	0.740500
H961	H96	0.599900	0.762300	0.738900
C1301	C130	0.661200	0.805800	0.744300
H971	H97	0.656700	0.829200	0.745100
C1311	C131	0.767000	0.866000	0.813000
C1321	C132	0.807500	0.900000	0.824000
H981	H98	0.824500	0.919900	0.800100
C1331	C133	0.821400	0.902600	0.872900
H991	H99	0.848500	0.925000	0.881500
C1341	C134	0.797800	0.874500	0.907700
H1001	H100	0.808000	0.878100	0.940000
C1351	C135	0.759000	0.840900	0.896300
H1011	H101	0.742700	0.820400	0.920200
C1361	C136	0.743500	0.837100	0.848100
H1021	H102	0.716400	0.814200	0.840100
C1371	C137	0.461900	0.831100	0.725500
C1381	C138	0.465700	0.835400	0.676600
H1031	H103	0.476600	0.862200	0.661700
C1391	C139	0.453300	0.799400	0.648700
H1041	H104	0.456800	0.802300	0.614400
C1401	C140	0.437100	0.762000	0.667200
H1051	H105	0.428600	0.738300	0.646500
C1411	C141	0.432200	0.756400	0.715200
H1061	H106	0.420500	0.728900	0.728800
C1421	C142	0.444600	0.792100	0.746000
H1071	H107	0.440900	0.788800	0.780200
C1431	C143	0.460400	0.906500	0.735700
C1441	C144	0.485100	0.946700	0.721200
H1081	H108	0.514800	0.960000	0.725300
C1451	C145	0.467200	0.969600	0.699900
H1091	H109	0.484900	0.997500	0.688400
C1461	C146	0.424500	0.951100	0.696100
H1101	H110	0.411900	0.967200	0.686400
C1471	C147	0.399800	0.908900	0.706400
H1111	H111	0.370600	0.894400	0.698500
C1481	C148	0.417900	0.887400	0.728500
H1121	H112	0.400400	0.859000	0.738700
O41	O4	0.862900	0.887700	0.723200
Ag51	Ag5	0.464130	0.206470	0.019400
P91	P9	0.415410	0.197700	0.084950
P101	P10	0.146740	0.209720	0.099830
C1491	C149	0.339170	0.313330	0.077230
C1501	C150	0.360570	0.287430	0.083230
C1511	C151	0.374070	0.276730	0.040630
H1131	H113	0.371870	0.288130	0.010530
C1521	C152	0.390370	0.250030	0.041130
H1141	H114	0.398670	0.242830	0.011630
C1531	C153	0.394970	0.233630	0.085830
C1541	C154	0.383570	0.245630	0.127130
H1151	H115	0.387270	0.236130	0.157930
C1551	C155	0.365970	0.272530	0.124230
H1161	H116	0.357870	0.280230	0.153530
C1561	C156	0.291970	0.287330	0.083130
C1571	C157	0.267270	0.274330	0.042730
H1171	H117	0.279570	0.281930	0.011330
C1581	C158	0.223070	0.249430	0.048030
H1181	H118	0.206370	0.239530	0.019430
C1591	C159	0.203370	0.239030	0.091630
C1601	C160	0.227770	0.250630	0.131830
H1191	H119	0.214870	0.242030	0.162830
C1611	C161	0.271270	0.274630	0.128630
H1201	H120	0.287570	0.282930	0.157530
C1621	C162	0.369170	0.146330	0.080530
C1631	C163	0.374070	0.110830	0.080430
H1211	H121	0.401370	0.114030	0.084030
C1641	C164	0.338970	0.070730	0.075130
H1221	H122	0.342670	0.046830	0.073430
C1651	C165	0.299870	0.065230	0.072230
H1231	H123	0.276170	0.037630	0.069030
C1661	C166	0.294270	0.099630	0.073830
H1241	H124	0.266570	0.095630	0.072230
C1671	C167	0.327870	0.139130	0.077630
H1251	H125	0.323370	0.162530	0.078430
C1681	C168	0.433670	0.199330	0.146330
C1691	C169	0.474170	0.233330	0.157330
H1261	H126	0.491170	0.253230	0.133430
C1701	C170	0.488070	0.235930	0.206230
H1271	H127	0.515170	0.258330	0.214830
C1711	C171	0.464470	0.207830	0.241030
H1281	H128	0.474670	0.211430	0.273330
C1721	C172	0.425670	0.174230	0.229630
H1291	H129	0.409370	0.153730	0.253530
C1731	C173	0.410170	0.170430	0.181430
H1301	H130	0.383070	0.147530	0.173430
C1741	C174	0.128570	0.164430	0.058830
C1751	C175	0.132370	0.168730	0.009930
H1311	H131	0.143270	0.195530	0.995030
C1761	C176	0.119970	0.132730	0.982030
H1321	H132	0.123470	0.135630	0.947730
C1771	C177	0.103770	0.095330	0.000530
H1331	H133	0.095270	0.071630	0.979830
C1781	C178	0.098870	0.089730	0.048530
H1341	H134	0.087170	0.062230	0.062130
C1791	C179	0.111270	0.125430	0.079330
H1351	H135	0.107570	0.122130	0.113530
C1801	C180	0.127070	0.239830	0.069030
C1811	C181	0.151770	0.280030	0.054530
H1361	H136	0.181470	0.293330	0.058630
C1821	C182	0.133870	0.302930	0.033230
H1371	H137	0.151570	0.330830	0.021730
C1831	C183	0.091170	0.284430	0.029430
H1381	H138	0.078570	0.300530	0.019730
C1841	C184	0.066470	0.242230	0.039730
H1391	H139	0.037270	0.227730	0.031830
C1851	C185	0.084570	0.220730	0.061830
H1401	H140	0.067070	0.192330	0.072030
O51	O5	0.529570	0.221030	0.056530
Ag61	Ag6	0.130790	0.539810	0.352740
P111	P11	0.082070	0.531040	0.418290
P121	P12	0.813400	0.543060	0.433170
C1861	C186	0.005830	0.646670	0.410570
C1871	C187	0.027230	0.620770	0.416570
C1881	C188	0.040730	0.610070	0.373970
H1411	H141	0.038530	0.621470	0.343870
C1891	C189	0.057030	0.583370	0.374470
H1421	H142	0.065330	0.576170	0.344970
C1901	C190	0.061630	0.566970	0.419170
C1911	C191	0.050230	0.578970	0.460470
H1431	H143	0.053930	0.569470	0.491270
C1921	C192	0.032630	0.605870	0.457570
H1441	H144	0.024530	0.613570	0.486870
C1931	C193	0.958630	0.620670	0.416470
C1941	C194	0.933930	0.607670	0.376070
H1451	H145	0.946230	0.615270	0.344670
C1951	C195	0.889730	0.582770	0.381370
H1461	H146	0.873030	0.572870	0.352770
C1961	C196	0.870030	0.572370	0.424970
C1971	C197	0.894430	0.583970	0.465170
H1471	H147	0.881530	0.575370	0.496170
C1981	C198	0.937930	0.607970	0.461970
H1481	H148	0.954230	0.616270	0.490870
C1991	C199	0.035830	0.479670	0.413870
C2001	C200	0.040730	0.444170	0.413770
H1491	H149	0.068030	0.447370	0.417370
C2011	C201	0.005630	0.404070	0.408470
H1501	H150	0.009330	0.380170	0.406770
C2021	C202	0.966530	0.398570	0.405570
H1511	H151	0.942830	0.370970	0.402370
C2031	C203	0.960930	0.432970	0.407170
H1521	H152	0.933230	0.428970	0.405570
C2041	C204	0.994530	0.472470	0.410970
H1531	H153	0.990030	0.495870	0.411770
C2051	C205	0.100330	0.532670	0.479670
C2061	C206	0.140830	0.566670	0.490670
H1541	H154	0.157830	0.586570	0.466770
C2071	C207	0.154730	0.569270	0.539570
H1551	H155	0.181830	0.591670	0.548170
C2081	C208	0.131130	0.541170	0.574370
H1561	H156	0.141330	0.544770	0.606670
C2091	C209	0.092330	0.507570	0.562970
H1571	H157	0.076030	0.487070	0.586870
C2101	C210	0.076830	0.503770	0.514770
H1581	H158	0.049730	0.480870	0.506770
C2111	C211	0.795230	0.497770	0.392170
C2121	C212	0.799030	0.502070	0.343270
H1591	H159	0.809930	0.528870	0.328370
C2131	C213	0.786630	0.466070	0.315370
H1601	H160	0.790130	0.468970	0.281070
C2141	C214	0.770430	0.428670	0.333870
H1611	H161	0.761930	0.404970	0.313170
C2151	C215	0.765530	0.423070	0.381870
H1621	H162	0.753830	0.395570	0.395470
C2161	C216	0.777930	0.458770	0.412670
H1631	H163	0.774230	0.455470	0.446870
C2171	C217	0.793730	0.573170	0.402370
C2181	C218	0.818430	0.613370	0.387870
H1641	H164	0.848130	0.626670	0.391970
C2191	C219	0.800530	0.636270	0.366570
H1651	H165	0.818230	0.664170	0.355070
C2201	C220	0.757830	0.617770	0.362770
H1661	H166	0.745230	0.633870	0.353070
C2211	C221	0.733130	0.575570	0.373070
H1671	H167	0.703930	0.561070	0.365170
C2221	C222	0.751230	0.554070	0.395170
H1681	H168	0.733730	0.525670	0.405370
O61	O6	0.196230	0.554370	0.389870
Ag71	Ag7	0.126860	0.924320	0.686070
P131	P13	0.135630	0.884370	0.751620
P141	P14	0.123610	0.603680	0.766500
C2231	C223	0.020000	0.692500	0.743900
C2241	C224	0.045900	0.739800	0.749900
C2251	C225	0.056600	0.764000	0.707300
H1691	H169	0.045200	0.750400	0.677200
C2261	C226	0.083300	0.807000	0.707800
H1701	H170	0.090500	0.822500	0.678300
C2271	C227	0.099700	0.828000	0.752500
C2281	C228	0.087700	0.804600	0.793800
H1711	H171	0.097200	0.817800	0.824600
C2291	C229	0.060800	0.760100	0.790900
H1721	H172	0.053100	0.744300	0.820200
C2301	C230	0.046000	0.671300	0.749800
C2311	C231	0.059000	0.659600	0.709400
H1731	H173	0.051400	0.664300	0.678000
C2321	C232	0.083900	0.640300	0.714700
H1741	H174	0.093800	0.633500	0.686100
C2331	C233	0.094300	0.631000	0.758300
C2341	C234	0.082700	0.643800	0.798500
H1751	H175	0.091300	0.639500	0.829500
C2351	C235	0.058700	0.663300	0.795300
H1761	H176	0.050400	0.671300	0.824200
C2361	C236	0.187000	0.889500	0.747200
C2371	C237	0.222500	0.929900	0.747100
H1771	H177	0.219300	0.954000	0.750700
C2381	C238	0.262600	0.934900	0.741800
H1781	H178	0.286500	0.962500	0.740100
C2391	C239	0.268100	0.901300	0.738900
H1791	H179	0.295700	0.905200	0.735700
C2401	C240	0.233700	0.861300	0.740500
H1801	H180	0.237700	0.837600	0.738900
C2411	C241	0.194200	0.855400	0.744300
H1811	H181	0.170800	0.827500	0.745100
C2421	C242	0.134000	0.901000	0.813000
C2431	C243	0.100000	0.907500	0.824000
H1821	H182	0.080100	0.904600	0.800100
C2441	C244	0.097400	0.918800	0.872900
H1831	H183	0.075000	0.923500	0.881500
C2451	C245	0.125500	0.923300	0.907700
H1841	H184	0.121900	0.929900	0.940000
C2461	C246	0.159100	0.918100	0.896300
H1851	H185	0.179600	0.922300	0.920200
C2471	C247	0.162900	0.906400	0.848100
H1861	H186	0.185800	0.902200	0.840100
C2481	C248	0.168900	0.630800	0.725500
C2491	C249	0.164600	0.630300	0.676600
H1871	H187	0.137800	0.614400	0.661700
C2501	C250	0.200600	0.653900	0.648700
H1881	H188	0.197700	0.654500	0.614400
C2511	C251	0.238000	0.675100	0.667200
H1891	H189	0.261700	0.690300	0.646500
C2521	C252	0.243600	0.675800	0.715200
H1901	H190	0.271100	0.691600	0.728800
C2531	C253	0.207900	0.652500	0.746000
H1911	H191	0.211200	0.652100	0.780200
C2541	C254	0.093500	0.553900	0.735700
C2551	C255	0.053300	0.538400	0.721200
H1921	H192	0.040000	0.554800	0.725300
C2561	C256	0.030400	0.497600	0.699900
H1931	H193	0.002500	0.487400	0.688400
C2571	C257	0.048900	0.473400	0.696100
H1941	H194	0.032800	0.444700	0.686400
C2581	C258	0.091100	0.490900	0.706400
H1951	H195	0.105600	0.476200	0.698500
C2591	C259	0.112600	0.530500	0.728500
H1961	H196	0.141000	0.541400	0.738700
O71	O7	0.112300	0.975200	0.723200
Ag81	Ag8	0.793530	0.257650	0.019400
P151	P15	0.802300	0.217700	0.084950
P161	P16	0.790280	0.937010	0.099830
C2601	C260	0.686670	0.025830	0.077230
C2611	C261	0.712570	0.073130	0.083230
C2621	C262	0.723270	0.097330	0.040630
H1971	H197	0.711870	0.083730	0.010530
C2631	C263	0.749970	0.140330	0.041130
H1981	H198	0.757170	0.155830	0.011630
C2641	C264	0.766370	0.161330	0.085830
C2651	C265	0.754370	0.137930	0.127130
H1991	H199	0.763870	0.151130	0.157930
C2661	C266	0.727470	0.093430	0.124230
H2001	H200	0.719770	0.077630	0.153530
C2671	C267	0.712670	0.004630	0.083130
C2681	C268	0.725670	0.992930	0.042730
H2011	H201	0.718070	0.997630	0.011330
C2691	C269	0.750570	0.973630	0.048030
H2021	H202	0.760470	0.966830	0.019430
C2701	C270	0.760970	0.964330	0.091630
C2711	C271	0.749370	0.977130	0.131830
H2031	H203	0.757970	0.972830	0.162830
C2721	C272	0.725370	0.996630	0.128630
H2041	H204	0.717070	0.004630	0.157530
C2731	C273	0.853670	0.222830	0.080530
C2741	C274	0.889170	0.263230	0.080430
H2051	H205	0.885970	0.287330	0.084030
C2751	C275	0.929270	0.268230	0.075130
H2061	H206	0.953170	0.295830	0.073430
C2761	C276	0.934770	0.234630	0.072230
H2071	H207	0.962370	0.238530	0.069030
C2771	C277	0.900370	0.194630	0.073830
H2081	H208	0.904370	0.170930	0.072230
C2781	C278	0.860870	0.188730	0.077630
H2091	H209	0.837470	0.160830	0.078430
C2791	C279	0.800670	0.234330	0.146330
C2801	C280	0.766670	0.240830	0.157330
H2101	H210	0.746770	0.237930	0.133430
C2811	C281	0.764070	0.252130	0.206230
H2111	H211	0.741670	0.256830	0.214830
C2821	C282	0.792170	0.256630	0.241030
H2121	H212	0.788570	0.263230	0.273330
C2831	C283	0.825770	0.251430	0.229630
H2131	H213	0.846270	0.255630	0.253530
C2841	C284	0.829570	0.239730	0.181430
H2141	H214	0.852470	0.235530	0.173430
C2851	C285	0.835570	0.964130	0.058830
C2861	C286	0.831270	0.963630	0.009930
H2151	H215	0.804470	0.947730	0.995030
C2871	C287	0.867270	0.987230	0.982030
H2161	H216	0.864370	0.987830	0.947730
C2881	C288	0.904670	0.008430	0.000530
H2171	H217	0.928370	0.023630	0.979830
C2891	C289	0.910270	0.009130	0.048530
H2181	H218	0.937770	0.024930	0.062130
C2901	C290	0.874570	0.985830	0.079330
H2191	H219	0.877870	0.985430	0.113530
C2911	C291	0.760170	0.887230	0.069030
C2921	C292	0.719970	0.871730	0.054530
H2201	H220	0.706670	0.888130	0.058630
C2931	C293	0.697070	0.830930	0.033230
H2211	H221	0.669170	0.820730	0.021730
C2941	C294	0.715570	0.806730	0.029430
H2221	H222	0.699470	0.778030	0.019730
C2951	C295	0.757770	0.824230	0.039730
H2231	H223	0.772270	0.809530	0.031830
C2961	C296	0.779270	0.863830	0.061830
H2241	H224	0.807670	0.874730	0.072030
O81	O8	0.778970	0.308530	0.056530
Ag91	Ag9	0.460190	0.590990	0.352740
P171	P17	0.468960	0.551040	0.418290
P181	P18	0.456940	0.270350	0.433170
C2971	C297	0.353330	0.359170	0.410570
C2981	C298	0.379230	0.406470	0.416570
C2991	C299	0.389930	0.430670	0.373970
H2251	H225	0.378530	0.417070	0.343870
C3001	C300	0.416630	0.473670	0.374470
H2261	H226	0.423830	0.489170	0.344970
C3011	C301	0.433030	0.494670	0.419170
C3021	C302	0.421030	0.471270	0.460470
H2271	H227	0.430530	0.484470	0.491270
C3031	C303	0.394130	0.426770	0.457570
H2281	H228	0.386430	0.410970	0.486870
C3041	C304	0.379330	0.337970	0.416470
C3051	C305	0.392330	0.326270	0.376070
H2291	H229	0.384730	0.330970	0.344670
C3061	C306	0.417230	0.306970	0.381370
H2301	H230	0.427130	0.300170	0.352770
C3071	C307	0.427630	0.297670	0.424970
C3081	C308	0.416030	0.310470	0.465170
H2311	H231	0.424630	0.306170	0.496170
C3091	C309	0.392030	0.329970	0.461970
H2321	H232	0.383730	0.337970	0.490870
C3101	C310	0.520330	0.556170	0.413870
C3111	C311	0.555830	0.596570	0.413770
H2331	H233	0.552630	0.620670	0.417370
C3121	C312	0.595930	0.601570	0.408470
H2341	H234	0.619830	0.629170	0.406770
C3131	C313	0.601430	0.567970	0.405570
H2351	H235	0.629030	0.571870	0.402370
C3141	C314	0.567030	0.527970	0.407170
H2361	H236	0.571030	0.504270	0.405570
C3151	C315	0.527530	0.522070	0.410970
H2371	H237	0.504130	0.494170	0.411770
C3161	C316	0.467330	0.567670	0.479670
C3171	C317	0.433330	0.574170	0.490670
H2381	H238	0.413430	0.571270	0.466770
C3181	C318	0.430730	0.585470	0.539570
H2391	H239	0.408330	0.590170	0.548170
C3191	C319	0.458830	0.589970	0.574370
H2401	H240	0.455230	0.596570	0.606670
C3201	C320	0.492430	0.584770	0.562970
H2411	H241	0.512930	0.588970	0.586870
C3211	C321	0.496230	0.573070	0.514770
H2421	H242	0.519130	0.568870	0.506770
C3221	C322	0.502230	0.297470	0.392170
C3231	C323	0.497930	0.296970	0.343270
H2431	H243	0.471130	0.281070	0.328370
C3241	C324	0.533930	0.320570	0.315370
H2441	H244	0.531030	0.321170	0.281070
C3251	C325	0.571330	0.341770	0.333870
H2451	H245	0.595030	0.356970	0.313170
C3261	C326	0.576930	0.342470	0.381870
H2461	H246	0.604430	0.358270	0.395470
C3271	C327	0.541230	0.319170	0.412670
H2471	H247	0.544530	0.318770	0.446870
C3281	C328	0.426830	0.220570	0.402370
C3291	C329	0.386630	0.205070	0.387870
H2481	H248	0.373330	0.221470	0.391970
C3301	C330	0.363730	0.164270	0.366570
H2491	H249	0.335830	0.154070	0.355070
C3311	C331	0.382230	0.140070	0.362770
H2501	H250	0.366130	0.111370	0.353070
C3321	C332	0.424430	0.157570	0.373070
H2511	H251	0.438930	0.142870	0.365170
C3331	C333	0.445930	0.197170	0.395170
H2521	H252	0.474330	0.208070	0.405370
O91	O9	0.445630	0.641870	0.389870
Ag101	Ag10	0.202540	0.075680	0.813930
P191	P19	0.251260	0.115630	0.748380
P201	P20	0.519930	0.396320	0.733500
C3341	C334	0.327500	0.307500	0.756100
C3351	C335	0.306100	0.260200	0.750100
C3361	C336	0.292600	0.236000	0.792700
H2531	H253	0.294800	0.249600	0.822800
C3371	C337	0.276300	0.193000	0.792200
H2541	H254	0.268000	0.177500	0.821700
C3381	C338	0.271700	0.172000	0.747500
C3391	C339	0.283100	0.195400	0.706200
H2551	H255	0.279400	0.182200	0.675400
C3401	C340	0.300700	0.239900	0.709100
H2561	H256	0.308800	0.255700	0.679800
C3411	C341	0.374700	0.328700	0.750200
C3421	C342	0.399400	0.340400	0.790600
H2571	H257	0.387100	0.335700	0.822000
C3431	C343	0.443600	0.359700	0.785300
H2581	H258	0.460300	0.366500	0.813900
C3441	C344	0.463300	0.369000	0.741700
C3451	C345	0.438900	0.356200	0.701500
H2591	H259	0.451800	0.360500	0.670500
C3461	C346	0.395400	0.336700	0.704700
H2601	H260	0.379100	0.328700	0.675800
C3471	C347	0.297500	0.110500	0.752800
C3481	C348	0.292600	0.070100	0.752900
H2611	H261	0.265300	0.046000	0.749300
C3491	C349	0.327700	0.065100	0.758200
H2621	H262	0.324000	0.037500	0.759900
C3501	C350	0.366800	0.098700	0.761100
H2631	H263	0.390500	0.094800	0.764300
C3511	C351	0.372400	0.138700	0.759500
H2641	H264	0.400100	0.162400	0.761100
C3521	C352	0.338800	0.144600	0.755700
H2651	H265	0.343300	0.172500	0.754900
C3531	C353	0.233000	0.099000	0.687000
C3541	C354	0.192500	0.092500	0.676000
H2661	H266	0.175500	0.095400	0.699900
C3551	C355	0.178600	0.081200	0.627100
H2671	H267	0.151500	0.076500	0.618500
C3561	C356	0.202200	0.076700	0.592300
H2681	H268	0.192000	0.070100	0.560000
C3571	C357	0.241000	0.081900	0.603700
H2691	H269	0.257300	0.077700	0.579800
C3581	C358	0.256500	0.093600	0.651900
H2701	H270	0.283600	0.097800	0.659900
C3591	C359	0.538100	0.369200	0.774500
C3601	C360	0.534300	0.369700	0.823400
H2711	H271	0.523400	0.385600	0.838300
C3611	C361	0.546700	0.346100	0.851300
H2721	H272	0.543200	0.345500	0.885600
C3621	C362	0.562900	0.324900	0.832800
H2731	H273	0.571400	0.309700	0.853500
C3631	C363	0.567800	0.324200	0.784800
H2741	H274	0.579500	0.308400	0.771200
C3641	C364	0.555400	0.347500	0.754000
H2751	H275	0.559100	0.347900	0.719800
C3651	C365	0.539600	0.446100	0.764300
C3661	C366	0.514900	0.461600	0.778800
H2761	H276	0.485200	0.445200	0.774700
C3671	C367	0.532800	0.502400	0.800100
H2771	H277	0.515100	0.512600	0.811600
C3681	C368	0.575500	0.526600	0.803900
H2781	H278	0.588100	0.555300	0.813600
C3691	C369	0.600200	0.509100	0.793600
H2791	H279	0.629400	0.523800	0.801500
C3701	C370	0.582100	0.469500	0.771500
H2801	H280	0.599600	0.458600	0.761300
O101	O10	0.137100	0.024800	0.776800
Ag111	Ag11	0.869210	0.409010	0.147260
P211	P21	0.917930	0.448960	0.081710
P221	P22	0.186600	0.729650	0.066830
C3711	C371	0.994170	0.640830	0.089430
C3721	C372	0.972770	0.593530	0.083430
C3731	C373	0.959270	0.569330	0.126030
H2811	H281	0.961470	0.582930	0.156130
C3741	C374	0.942970	0.526330	0.125530
H2821	H282	0.934670	0.510830	0.155030
C3751	C375	0.938370	0.505330	0.080830
C3761	C376	0.949770	0.528730	0.039530
H2831	H283	0.946070	0.515530	0.008730
C3771	C377	0.967370	0.573230	0.042430
H2841	H284	0.975470	0.589030	0.013130
C3781	C378	0.041370	0.662030	0.083530
C3791	C379	0.066070	0.673730	0.123930
H2851	H285	0.053770	0.669030	0.155330
C3801	C380	0.110270	0.693030	0.118630
H2861	H286	0.126970	0.699830	0.147230
C3811	C381	0.129970	0.702330	0.075030
C3821	C382	0.105570	0.689530	0.034830
H2871	H287	0.118470	0.693830	0.003830
C3831	C383	0.062070	0.670030	0.038030
H2881	H288	0.045770	0.662030	0.009130
C3841	C384	0.964170	0.443830	0.086130
C3851	C385	0.959270	0.403430	0.086230
H2891	H289	0.931970	0.379330	0.082630
C3861	C386	0.994370	0.398430	0.091530
H2901	H290	0.990670	0.370830	0.093230
C3871	C387	0.033470	0.432030	0.094430
H2911	H291	0.057170	0.428130	0.097630
C3881	C388	0.039070	0.472030	0.092830
H2921	H292	0.066770	0.495730	0.094430
C3891	C389	0.005470	0.477930	0.089030
H2931	H293	0.009970	0.505830	0.088230
C3901	C390	0.899670	0.432330	0.020330
C3911	C391	0.859170	0.425830	0.009330
H2941	H294	0.842170	0.428730	0.033230
C3921	C392	0.845270	0.414530	0.960430
H2951	H295	0.818170	0.409830	0.951830
C3931	C393	0.868870	0.410030	0.925630
H2961	H296	0.858670	0.403430	0.893330
C3941	C394	0.907670	0.415230	0.937030
H2971	H297	0.923970	0.411030	0.913130
C3951	C395	0.923170	0.426930	0.985230
H2981	H298	0.950270	0.431130	0.993230
C3961	C396	0.204770	0.702530	0.107830
C3971	C397	0.200970	0.703030	0.156730
H2991	H299	0.190070	0.718930	0.171630
C3981	C398	0.213370	0.679430	0.184630
H3001	H300	0.209870	0.678830	0.218930
C3991	C399	0.229570	0.658230	0.166130
H3011	H301	0.238070	0.643030	0.186830
C4001	C400	0.234470	0.657530	0.118130
H3021	H302	0.246170	0.641730	0.104530
C4011	C401	0.222070	0.680830	0.087330
H3031	H303	0.225770	0.681230	0.053130
C4021	C402	0.206270	0.779430	0.097630
C4031	C403	0.181570	0.794930	0.112130
H3041	H304	0.151870	0.778530	0.108030
C4041	C404	0.199470	0.835730	0.133430
H3051	H305	0.181770	0.845930	0.144930
C4051	C405	0.242170	0.859930	0.137230
H3061	H306	0.254770	0.888630	0.146930
C4061	C406	0.266870	0.842430	0.126930
H3071	H307	0.296070	0.857130	0.134830
C4071	C407	0.248770	0.802830	0.104830
H3081	H308	0.266270	0.791930	0.094630
O111	O11	0.803770	0.358130	0.110130
Ag121	Ag12	0.535870	0.742350	0.480600
P231	P23	0.584590	0.782300	0.415050
P241	P24	0.853260	0.062990	0.400170
C4081	C408	0.660830	0.974170	0.422770
C4091	C409	0.639430	0.926870	0.416770
C4101	C410	0.625930	0.902670	0.459370
H3091	H309	0.628130	0.916270	0.489470
C4111	C411	0.609630	0.859670	0.458870
H3101	H310	0.601330	0.844170	0.488370
C4121	C412	0.605030	0.838670	0.414170
C4131	C413	0.616430	0.862070	0.372870
H3111	H311	0.612730	0.848870	0.342070
C4141	C414	0.634030	0.906570	0.375770
H3121	H312	0.642130	0.922370	0.346470
C4151	C415	0.708030	0.995370	0.416870
C4161	C416	0.732730	0.007070	0.457270
H3131	H313	0.720430	0.002370	0.488670
C4171	C417	0.776930	0.026370	0.451970
H3141	H314	0.793630	0.033170	0.480570
C4181	C418	0.796630	0.035670	0.408370
C4191	C419	0.772230	0.022870	0.368170
H3151	H315	0.785130	0.027170	0.337170
C4201	C420	0.728730	0.003370	0.371370
H3161	H316	0.712430	0.995370	0.342470
C4211	C421	0.630830	0.777170	0.419470
C4221	C422	0.625930	0.736770	0.419570
H3171	H317	0.598630	0.712670	0.415970
C4231	C423	0.661030	0.731770	0.424870
H3181	H318	0.657330	0.704170	0.426570
C4241	C424	0.700130	0.765370	0.427770
H3191	H319	0.723830	0.761470	0.430970
C4251	C425	0.705730	0.805370	0.426170
H3201	H320	0.733430	0.829070	0.427770
C4261	C426	0.672130	0.811270	0.422370
H3211	H321	0.676630	0.839170	0.421570
C4271	C427	0.566330	0.765670	0.353670
C4281	C428	0.525830	0.759170	0.342670
H3221	H322	0.508830	0.762070	0.366570
C4291	C429	0.511930	0.747870	0.293770
H3231	H323	0.484830	0.743170	0.285170
C4301	C430	0.535530	0.743370	0.258970
H3241	H324	0.525330	0.736770	0.226670
C4311	C431	0.574330	0.748570	0.270370
H3251	H325	0.590630	0.744370	0.246470
C4321	C432	0.589830	0.760270	0.318570
H3261	H326	0.616930	0.764470	0.326570
C4331	C433	0.871430	0.035870	0.441170
C4341	C434	0.867630	0.036370	0.490070
H3271	H327	0.856730	0.052270	0.504970
C4351	C435	0.880030	0.012770	0.517970
H3281	H328	0.876530	0.012170	0.552270
C4361	C436	0.896230	0.991570	0.499470
H3291	H329	0.904730	0.976370	0.520170
C4371	C437	0.901130	0.990870	0.451470
H3301	H330	0.912830	0.975070	0.437870
C4381	C438	0.888730	0.014170	0.420670
H3311	H331	0.892430	0.014570	0.386470
C4391	C439	0.872930	0.112770	0.430970
C4401	C440	0.848230	0.128270	0.445470
H3321	H332	0.818530	0.111870	0.441370
C4411	C441	0.866130	0.169070	0.466770
H3331	H333	0.848430	0.179270	0.478270
C4421	C442	0.908830	0.193270	0.470570
H3341	H334	0.921430	0.221970	0.480270
C4431	C443	0.933530	0.175770	0.460270
H3351	H335	0.962730	0.190470	0.468170
C4441	C444	0.915430	0.136170	0.438170
H3361	H336	0.932930	0.125270	0.427970
O121	O12	0.470430	0.691470	0.443470
Ag131	Ag13	0.873140	0.797460	0.813930
P251	P25	0.864370	0.748740	0.748380
P261	P26	0.876390	0.480070	0.733500
C4451	C445	0.980000	0.672500	0.756100
C4461	C446	0.954100	0.693900	0.750100
C4471	C447	0.943400	0.707400	0.792700
H3371	H337	0.954800	0.705200	0.822800
C4481	C448	0.916700	0.723700	0.792200
H3381	H338	0.909500	0.732000	0.821700
C4491	C449	0.900300	0.728300	0.747500
C4501	C450	0.912300	0.716900	0.706200
H3391	H339	0.902800	0.720600	0.675400
C4511	C451	0.939200	0.699300	0.709100
H3401	H340	0.946900	0.691200	0.679800
C4521	C452	0.954000	0.625300	0.750200
C4531	C453	0.941000	0.600600	0.790600
H3411	H341	0.948600	0.612900	0.822000
C4541	C454	0.916100	0.556400	0.785300
H3421	H342	0.906200	0.539700	0.813900
C4551	C455	0.905700	0.536700	0.741700
C4561	C456	0.917300	0.561100	0.701500
H3431	H343	0.908700	0.548200	0.670500
C4571	C457	0.941300	0.604600	0.704700
H3441	H344	0.949600	0.620900	0.675800
C4581	C458	0.813000	0.702500	0.752800
C4591	C459	0.777500	0.707400	0.752900
H3451	H345	0.780700	0.734700	0.749300
C4601	C460	0.737400	0.672300	0.758200
H3461	H346	0.713500	0.676000	0.759900
C4611	C461	0.731900	0.633200	0.761100
H3471	H347	0.704300	0.609500	0.764300
C4621	C462	0.766300	0.627600	0.759500
H3481	H348	0.762300	0.599900	0.761100
C4631	C463	0.805800	0.661200	0.755700
H3491	H349	0.829200	0.656700	0.754900
C4641	C464	0.866000	0.767000	0.687000
C4651	C465	0.900000	0.807500	0.676000
H3501	H350	0.919900	0.824500	0.699900
C4661	C466	0.902600	0.821400	0.627100
H3511	H351	0.925000	0.848500	0.618500
C4671	C467	0.874500	0.797800	0.592300
H3521	H352	0.878100	0.808000	0.560000
C4681	C468	0.840900	0.759000	0.603700
H3531	H353	0.820400	0.742700	0.579800
C4691	C469	0.837100	0.743500	0.651900
H3541	H354	0.814200	0.716400	0.659900
C4701	C470	0.831100	0.461900	0.774500
C4711	C471	0.835400	0.465700	0.823400
H3551	H355	0.862200	0.476600	0.838300
C4721	C472	0.799400	0.453300	0.851300
H3561	H356	0.802300	0.456800	0.885600
C4731	C473	0.762000	0.437100	0.832800
H3571	H357	0.738300	0.428600	0.853500
C4741	C474	0.756400	0.432200	0.784800
H3581	H358	0.728900	0.420500	0.771200
C4751	C475	0.792100	0.444600	0.754000
H3591	H359	0.788800	0.440900	0.719800
C4761	C476	0.906500	0.460400	0.764300
C4771	C477	0.946700	0.485100	0.778800
H3601	H360	0.960000	0.514800	0.774700
C4781	C478	0.969600	0.467200	0.800100
H3611	H361	0.997500	0.484900	0.811600
C4791	C479	0.951100	0.424500	0.803900
H3621	H362	0.967200	0.411900	0.813600
C4801	C480	0.908900	0.399800	0.793600
H3631	H363	0.894400	0.370600	0.801500
C4811	C481	0.887400	0.417900	0.771500
H3641	H364	0.859000	0.400400	0.761300
O131	O13	0.887700	0.862900	0.776800
Ag141	Ag14	0.539810	0.130790	0.147260
P271	P27	0.531040	0.082070	0.081710
P281	P28	0.543060	0.813400	0.066830
C4821	C482	0.646670	0.005830	0.089430
C4831	C483	0.620770	0.027230	0.083430
C4841	C484	0.610070	0.040730	0.126030
H3651	H365	0.621470	0.038530	0.156130
C4851	C485	0.583370	0.057030	0.125530
H3661	H366	0.576170	0.065330	0.155030
C4861	C486	0.566970	0.061630	0.080830
C4871	C487	0.578970	0.050230	0.039530
H3671	H367	0.569470	0.053930	0.008730
C4881	C488	0.605870	0.032630	0.042430
H3681	H368	0.613570	0.024530	0.013130
C4891	C489	0.620670	0.958630	0.083530
C4901	C490	0.607670	0.933930	0.123930
H3691	H369	0.615270	0.946230	0.155330
C4911	C491	0.582770	0.889730	0.118630
H3701	H370	0.572870	0.873030	0.147230
C4921	C492	0.572370	0.870030	0.075030
C4931	C493	0.583970	0.894430	0.034830
H3711	H371	0.575370	0.881530	0.003830
C4941	C494	0.607970	0.937930	0.038030
H3721	H372	0.616270	0.954230	0.009130
C4951	C495	0.479670	0.035830	0.086130
C4961	C496	0.444170	0.040730	0.086230
H3731	H373	0.447370	0.068030	0.082630
C4971	C497	0.404070	0.005630	0.091530
H3741	H374	0.380170	0.009330	0.093230
C4981	C498	0.398570	0.966530	0.094430
H3751	H375	0.370970	0.942830	0.097630
C4991	C499	0.432970	0.960930	0.092830
H3761	H376	0.428970	0.933230	0.094430
C5001	C500	0.472470	0.994530	0.089030
H3771	H377	0.495870	0.990030	0.088230
C5011	C501	0.532670	0.100330	0.020330
C5021	C502	0.566670	0.140830	0.009330
H3781	H378	0.586570	0.157830	0.033230
C5031	C503	0.569270	0.154730	0.960430
H3791	H379	0.591670	0.181830	0.951830
C5041	C504	0.541170	0.131130	0.925630
H3801	H380	0.544770	0.141330	0.893330
C5051	C505	0.507570	0.092330	0.937030
H3811	H381	0.487070	0.076030	0.913130
C5061	C506	0.503770	0.076830	0.985230
H3821	H382	0.480870	0.049730	0.993230
C5071	C507	0.497770	0.795230	0.107830
C5081	C508	0.502070	0.799030	0.156730
H3831	H383	0.528870	0.809930	0.171630
C5091	C509	0.466070	0.786630	0.184630
H3841	H384	0.468970	0.790130	0.218930
C5101	C510	0.428670	0.770430	0.166130
H3851	H385	0.404970	0.761930	0.186830
C5111	C511	0.423070	0.765530	0.118130
H3861	H386	0.395570	0.753830	0.104530
C5121	C512	0.458770	0.777930	0.087330
H3871	H387	0.455470	0.774230	0.053130
C5131	C513	0.573170	0.793730	0.097630
C5141	C514	0.613370	0.818430	0.112130
H3881	H388	0.626670	0.848130	0.108030
C5151	C515	0.636270	0.800530	0.133430
H3891	H389	0.664170	0.818230	0.144930
C5161	C516	0.617770	0.757830	0.137230
H3901	H390	0.633870	0.745230	0.146930
C5171	C517	0.575570	0.733130	0.126930
H3911	H391	0.561070	0.703930	0.134830
C5181	C518	0.554070	0.751230	0.104830
H3921	H392	0.525670	0.733730	0.094630
O141	O14	0.554370	0.196230	0.110130
Ag151	Ag15	0.206470	0.464130	0.480600
P291	P29	0.197700	0.415410	0.415050
P301	P30	0.209720	0.146740	0.400170
C5191	C519	0.313330	0.339170	0.422770
C5201	C520	0.287430	0.360570	0.416770
C5211	C521	0.276730	0.374070	0.459370
H3931	H393	0.288130	0.371870	0.489470
C5221	C522	0.250030	0.390370	0.458870
H3941	H394	0.242830	0.398670	0.488370
C5231	C523	0.233630	0.394970	0.414170
C5241	C524	0.245630	0.383570	0.372870
H3951	H395	0.236130	0.387270	0.342070
C5251	C525	0.272530	0.365970	0.375770
H3961	H396	0.280230	0.357870	0.346470
C5261	C526	0.287330	0.291970	0.416870
C5271	C527	0.274330	0.267270	0.457270
H3971	H397	0.281930	0.279570	0.488670
C5281	C528	0.249430	0.223070	0.451970
H3981	H398	0.239530	0.206370	0.480570
C5291	C529	0.239030	0.203370	0.408370
C5301	C530	0.250630	0.227770	0.368170
H3991	H399	0.242030	0.214870	0.337170
C5311	C531	0.274630	0.271270	0.371370
H4001	H400	0.282930	0.287570	0.342470
C5321	C532	0.146330	0.369170	0.419470
C5331	C533	0.110830	0.374070	0.419570
H4011	H401	0.114030	0.401370	0.415970
C5341	C534	0.070730	0.338970	0.424870
H4021	H402	0.046830	0.342670	0.426570
C5351	C535	0.065230	0.299870	0.427770
H4031	H403	0.037630	0.276170	0.430970
C5361	C536	0.099630	0.294270	0.426170
H4041	H404	0.095630	0.266570	0.427770
C5371	C537	0.139130	0.327870	0.422370
H4051	H405	0.162530	0.323370	0.421570
C5381	C538	0.199330	0.433670	0.353670
C5391	C539	0.233330	0.474170	0.342670
H4061	H406	0.253230	0.491170	0.366570
C5401	C540	0.235930	0.488070	0.293770
H4071	H407	0.258330	0.515170	0.285170
C5411	C541	0.207830	0.464470	0.258970
H4081	H408	0.211430	0.474670	0.226670
C5421	C542	0.174230	0.425670	0.270370
H4091	H409	0.153730	0.409370	0.246470
C5431	C543	0.170430	0.410170	0.318570
H4101	H410	0.147530	0.383070	0.326570
C5441	C544	0.164430	0.128570	0.441170
C5451	C545	0.168730	0.132370	0.490070
H4111	H411	0.195530	0.143270	0.504970
C5461	C546	0.132730	0.119970	0.517970
H4121	H412	0.135630	0.123470	0.552270
C5471	C547	0.095330	0.103770	0.499470
H4131	H413	0.071630	0.095270	0.520170
C5481	C548	0.089730	0.098870	0.451470
H4141	H414	0.062230	0.087170	0.437870
C5491	C549	0.125430	0.111270	0.420670
H4151	H415	0.122130	0.107570	0.386470
C5501	C550	0.239830	0.127070	0.430970
C5511	C551	0.280030	0.151770	0.445470
H4161	H416	0.293330	0.181470	0.441370
C5521	C552	0.302930	0.133870	0.466770
H4171	H417	0.330830	0.151570	0.478270
C5531	C553	0.284430	0.091170	0.470570
H4181	H418	0.300530	0.078570	0.480270
C5541	C554	0.242230	0.066470	0.460270
H4191	H419	0.227730	0.037270	0.468170
C5551	C555	0.220730	0.084570	0.438170
H4201	H420	0.192330	0.067070	0.427970
O151	O15	0.221030	0.529570	0.443470
Ag161	Ag16	0.924320	0.126860	0.813930
P311	P31	0.884370	0.135630	0.748380
P321	P32	0.603680	0.123610	0.733500
C5561	C556	0.692500	0.020000	0.756100
C5571	C557	0.739800	0.045900	0.750100
C5581	C558	0.764000	0.056600	0.792700
H4211	H421	0.750400	0.045200	0.822800
C5591	C559	0.807000	0.083300	0.792200
H4221	H422	0.822500	0.090500	0.821700
C5601	C560	0.828000	0.099700	0.747500
C5611	C561	0.804600	0.087700	0.706200
H4231	H423	0.817800	0.097200	0.675400
C5621	C562	0.760100	0.060800	0.709100
H4241	H424	0.744300	0.053100	0.679800
C5631	C563	0.671300	0.046000	0.750200
C5641	C564	0.659600	0.059000	0.790600
H4251	H425	0.664300	0.051400	0.822000
C5651	C565	0.640300	0.083900	0.785300
H4261	H426	0.633500	0.093800	0.813900
C5661	C566	0.631000	0.094300	0.741700
C5671	C567	0.643800	0.082700	0.701500
H4271	H427	0.639500	0.091300	0.670500
C5681	C568	0.663300	0.058700	0.704700
H4281	H428	0.671300	0.050400	0.675800
C5691	C569	0.889500	0.187000	0.752800
C5701	C570	0.929900	0.222500	0.752900
H4291	H429	0.954000	0.219300	0.749300
C5711	C571	0.934900	0.262600	0.758200
H4301	H430	0.962500	0.286500	0.759900
C5721	C572	0.901300	0.268100	0.761100
H4311	H431	0.905200	0.295700	0.764300
C5731	C573	0.861300	0.233700	0.759500
H4321	H432	0.837600	0.237700	0.761100
C5741	C574	0.855400	0.194200	0.755700
H4331	H433	0.827500	0.170800	0.754900
C5751	C575	0.901000	0.134000	0.687000
C5761	C576	0.907500	0.100000	0.676000
H4341	H434	0.904600	0.080100	0.699900
C5771	C577	0.918800	0.097400	0.627100
H4351	H435	0.923500	0.075000	0.618500
C5781	C578	0.923300	0.125500	0.592300
H4361	H436	0.929900	0.121900	0.560000
C5791	C579	0.918100	0.159100	0.603700
H4371	H437	0.922300	0.179600	0.579800
C5801	C580	0.906400	0.162900	0.651900
H4381	H438	0.902200	0.185800	0.659900
C5811	C581	0.630800	0.168900	0.774500
C5821	C582	0.630300	0.164600	0.823400
H4391	H439	0.614400	0.137800	0.838300
C5831	C583	0.653900	0.200600	0.851300
H4401	H440	0.654500	0.197700	0.885600
C5841	C584	0.675100	0.238000	0.832800
H4411	H441	0.690300	0.261700	0.853500
C5851	C585	0.675800	0.243600	0.784800
H4421	H442	0.691600	0.271100	0.771200
C5861	C586	0.652500	0.207900	0.754000
H4431	H443	0.652100	0.211200	0.719800
C5871	C587	0.553900	0.093500	0.764300
C5881	C588	0.538400	0.053300	0.778800
H4441	H444	0.554800	0.040000	0.774700
C5891	C589	0.497600	0.030400	0.800100
H4451	H445	0.487400	0.002500	0.811600
C5901	C590	0.473400	0.048900	0.803900
H4461	H446	0.444700	0.032800	0.813600
C5911	C591	0.490900	0.091100	0.793600
H4471	H447	0.476200	0.105600	0.801500
C5921	C592	0.530500	0.112600	0.771500
H4481	H448	0.541400	0.141000	0.761300
O161	O16	0.975200	0.112300	0.776800
Ag171	Ag17	0.590990	0.460190	0.147260
P331	P33	0.551040	0.468960	0.081710
P341	P34	0.270350	0.456940	0.066830
C5931	C593	0.359170	0.353330	0.089430
C5941	C594	0.406470	0.379230	0.083430
C5951	C595	0.430670	0.389930	0.126030
H4491	H449	0.417070	0.378530	0.156130
C5961	C596	0.473670	0.416630	0.125530
H4501	H450	0.489170	0.423830	0.155030
C5971	C597	0.494670	0.433030	0.080830
C5981	C598	0.471270	0.421030	0.039530
H4511	H451	0.484470	0.430530	0.008730
C5991	C599	0.426770	0.394130	0.042430
H4521	H452	0.410970	0.386430	0.013130
C6001	C600	0.337970	0.379330	0.083530
C6011	C601	0.326270	0.392330	0.123930
H4531	H453	0.330970	0.384730	0.155330
C6021	C602	0.306970	0.417230	0.118630
H4541	H454	0.300170	0.427130	0.147230
C6031	C603	0.297670	0.427630	0.075030
C6041	C604	0.310470	0.416030	0.034830
H4551	H455	0.306170	0.424630	0.003830
C6051	C605	0.329970	0.392030	0.038030
H4561	H456	0.337970	0.383730	0.009130
C6061	C606	0.556170	0.520330	0.086130
C6071	C607	0.596570	0.555830	0.086230
H4571	H457	0.620670	0.552630	0.082630
C6081	C608	0.601570	0.595930	0.091530
H4581	H458	0.629170	0.619830	0.093230
C6091	C609	0.567970	0.601430	0.094430
H4591	H459	0.571870	0.629030	0.097630
C6101	C610	0.527970	0.567030	0.092830
H4601	H460	0.504270	0.571030	0.094430
C6111	C611	0.522070	0.527530	0.089030
H4611	H461	0.494170	0.504130	0.088230
C6121	C612	0.567670	0.467330	0.020330
C6131	C613	0.574170	0.433330	0.009330
H4621	H462	0.571270	0.413430	0.033230
C6141	C614	0.585470	0.430730	0.960430
H4631	H463	0.590170	0.408330	0.951830
C6151	C615	0.589970	0.458830	0.925630
H4641	H464	0.596570	0.455230	0.893330
C6161	C616	0.584770	0.492430	0.937030
H4651	H465	0.588970	0.512930	0.913130
C6171	C617	0.573070	0.496230	0.985230
H4661	H466	0.568870	0.519130	0.993230
C6181	C618	0.297470	0.502230	0.107830
C6191	C619	0.296970	0.497930	0.156730
H4671	H467	0.281070	0.471130	0.171630
C6201	C620	0.320570	0.533930	0.184630
H4681	H468	0.321170	0.531030	0.218930
C6211	C621	0.341770	0.571330	0.166130
H4691	H469	0.356970	0.595030	0.186830
C6221	C622	0.342470	0.576930	0.118130
H4701	H470	0.358270	0.604430	0.104530
C6231	C623	0.319170	0.541230	0.087330
H4711	H471	0.318770	0.544530	0.053130
C6241	C624	0.220570	0.426830	0.097630
C6251	C625	0.205070	0.386630	0.112130
H4721	H472	0.221470	0.373330	0.108030
C6261	C626	0.164270	0.363730	0.133430
H4731	H473	0.154070	0.335830	0.144930
C6271	C627	0.140070	0.382230	0.137230
H4741	H474	0.111370	0.366130	0.146930
C6281	C628	0.157570	0.424430	0.126930
H4751	H475	0.142870	0.438930	0.134830
C6291	C629	0.197170	0.445930	0.104830
H4761	H476	0.208070	0.474330	0.094630
O171	O17	0.641870	0.445630	0.110130
Ag181	Ag18	0.257650	0.793530	0.480600
P351	P35	0.217700	0.802300	0.415050
P361	P36	0.937010	0.790280	0.400170
C6301	C630	0.025830	0.686670	0.422770
C6311	C631	0.073130	0.712570	0.416770
C6321	C632	0.097330	0.723270	0.459370
H4771	H477	0.083730	0.711870	0.489470
C6331	C633	0.140330	0.749970	0.458870
H4781	H478	0.155830	0.757170	0.488370
C6341	C634	0.161330	0.766370	0.414170
C6351	C635	0.137930	0.754370	0.372870
H4791	H479	0.151130	0.763870	0.342070
C6361	C636	0.093430	0.727470	0.375770
H4801	H480	0.077630	0.719770	0.346470
C6371	C637	0.004630	0.712670	0.416870
C6381	C638	0.992930	0.725670	0.457270
H4811	H481	0.997630	0.718070	0.488670
C6391	C639	0.973630	0.750570	0.451970
H4821	H482	0.966830	0.760470	0.480570
C6401	C640	0.964330	0.760970	0.408370
C6411	C641	0.977130	0.749370	0.368170
H4831	H483	0.972830	0.757970	0.337170
C6421	C642	0.996630	0.725370	0.371370
H4841	H484	0.004630	0.717070	0.342470
C6431	C643	0.222830	0.853670	0.419470
C6441	C644	0.263230	0.889170	0.419570
H4851	H485	0.287330	0.885970	0.415970
C6451	C645	0.268230	0.929270	0.424870
H4861	H486	0.295830	0.953170	0.426570
C6461	C646	0.234630	0.934770	0.427770
H4871	H487	0.238530	0.962370	0.430970
C6471	C647	0.194630	0.900370	0.426170
H4881	H488	0.170930	0.904370	0.427770
C6481	C648	0.188730	0.860870	0.422370
H4891	H489	0.160830	0.837470	0.421570
C6491	C649	0.234330	0.800670	0.353670
C6501	C650	0.240830	0.766670	0.342670
H4901	H490	0.237930	0.746770	0.366570
C6511	C651	0.252130	0.764070	0.293770
H4911	H491	0.256830	0.741670	0.285170
C6521	C652	0.256630	0.792170	0.258970
H4921	H492	0.263230	0.788570	0.226670
C6531	C653	0.251430	0.825770	0.270370
H4931	H493	0.255630	0.846270	0.246470
C6541	C654	0.239730	0.829570	0.318570
H4941	H494	0.235530	0.852470	0.326570
C6551	C655	0.964130	0.835570	0.441170
C6561	C656	0.963630	0.831270	0.490070
H4951	H495	0.947730	0.804470	0.504970
C6571	C657	0.987230	0.867270	0.517970
H4961	H496	0.987830	0.864370	0.552270
C6581	C658	0.008430	0.904670	0.499470
H4971	H497	0.023630	0.928370	0.520170
C6591	C659	0.009130	0.910270	0.451470
H4981	H498	0.024930	0.937770	0.437870
C6601	C660	0.985830	0.874570	0.420670
H4991	H499	0.985430	0.877870	0.386470
C6611	C661	0.887230	0.760170	0.430970
C6621	C662	0.871730	0.719970	0.445470
H5001	H500	0.888130	0.706670	0.441370
C6631	C663	0.830930	0.697070	0.466770
H5011	H501	0.820730	0.669170	0.478270
C6641	C664	0.806730	0.715570	0.470570
H5021	H502	0.778030	0.699470	0.480270
C6651	C665	0.824230	0.757770	0.460270
H5031	H503	0.809530	0.772270	0.468170
C6661	C666	0.863830	0.779270	0.438170
H5041	H504	0.874730	0.807670	0.427970
O181	O18	0.308530	0.778970	0.443470
Ag191	Ag19	0.924320	0.797460	0.313930
P371	P37	0.884370	0.748740	0.248380
P381	P38	0.603680	0.480070	0.233500
C6671	C667	0.692500	0.672500	0.256100
C6681	C668	0.739800	0.693900	0.250100
C6691	C669	0.764000	0.707400	0.292700
H5051	H505	0.750400	0.705200	0.322800
C6701	C670	0.807000	0.723700	0.292200
H5061	H506	0.822500	0.732000	0.321700
C6711	C671	0.828000	0.728300	0.247500
C6721	C672	0.804600	0.716900	0.206200
H5071	H507	0.817800	0.720600	0.175400
C6731	C673	0.760100	0.699300	0.209100
H5081	H508	0.744300	0.691200	0.179800
C6741	C674	0.671300	0.625300	0.250200
C6751	C675	0.659600	0.600600	0.290600
H5091	H509	0.664300	0.612900	0.322000
C6761	C676	0.640300	0.556400	0.285300
H5101	H510	0.633500	0.539700	0.313900
C6771	C677	0.631000	0.536700	0.241700
C6781	C678	0.643800	0.561100	0.201500
H5111	H511	0.639500	0.548200	0.170500
C6791	C679	0.663300	0.604600	0.204700
H5121	H512	0.671300	0.620900	0.175800
C6801	C680	0.889500	0.702500	0.252800
C6811	C681	0.929900	0.707400	0.252900
H5131	H513	0.954000	0.734700	0.249300
C6821	C682	0.934900	0.672300	0.258200
H5141	H514	0.962500	0.676000	0.259900
C6831	C683	0.901300	0.633200	0.261100
H5151	H515	0.905200	0.609500	0.264300
C6841	C684	0.861300	0.627600	0.259500
H5161	H516	0.837600	0.599900	0.261100
C6851	C685	0.855400	0.661200	0.255700
H5171	H517	0.827500	0.656700	0.254900
C6861	C686	0.901000	0.767000	0.187000
C6871	C687	0.907500	0.807500	0.176000
H5181	H518	0.904600	0.824500	0.199900
C6881	C688	0.918800	0.821400	0.127100
H5191	H519	0.923500	0.848500	0.118500
C6891	C689	0.923300	0.797800	0.092300
H5201	H520	0.929900	0.808000	0.060000
C6901	C690	0.918100	0.759000	0.103700
H5211	H521	0.922300	0.742700	0.079800
C6911	C691	0.906400	0.743500	0.151900
H5221	H522	0.902200	0.716400	0.159900
C6921	C692	0.630800	0.461900	0.274500
C6931	C693	0.630300	0.465700	0.323400
H5231	H523	0.614400	0.476600	0.338300
C6941	C694	0.653900	0.453300	0.351300
H5241	H524	0.654500	0.456800	0.385600
C6951	C695	0.675100	0.437100	0.332800
H5251	H525	0.690300	0.428600	0.353500
C6961	C696	0.675800	0.432200	0.284800
H5261	H526	0.691600	0.420500	0.271200
C6971	C697	0.652500	0.444600	0.254000
H5271	H527	0.652100	0.440900	0.219800
C6981	C698	0.553900	0.460400	0.264300
C6991	C699	0.538400	0.485100	0.278800
H5281	H528	0.554800	0.514800	0.274700
C7001	C700	0.497600	0.467200	0.300100
H5291	H529	0.487400	0.484900	0.311600
C7011	C701	0.473400	0.424500	0.303900
H5301	H530	0.444700	0.411900	0.313600
C7021	C702	0.490900	0.399800	0.293600
H5311	H531	0.476200	0.370600	0.301500
C7031	C703	0.530500	0.417900	0.271500
H5321	H532	0.541400	0.400400	0.261300
O191	O19	0.975200	0.862900	0.276800
Ag201	Ag20	0.590990	0.130790	0.647260
P391	P39	0.551040	0.082070	0.581710
P401	P40	0.270350	0.813400	0.566830
C7041	C704	0.359170	0.005830	0.589430
C7051	C705	0.406470	0.027230	0.583430
C7061	C706	0.430670	0.040730	0.626030
H5331	H533	0.417070	0.038530	0.656130
C7071	C707	0.473670	0.057030	0.625530
H5341	H534	0.489170	0.065330	0.655030
C7081	C708	0.494670	0.061630	0.580830
C7091	C709	0.471270	0.050230	0.539530
H5351	H535	0.484470	0.053930	0.508730
C7101	C710	0.426770	0.032630	0.542430
H5361	H536	0.410970	0.024530	0.513130
C7111	C711	0.337970	0.958630	0.583530
C7121	C712	0.326270	0.933930	0.623930
H5371	H537	0.330970	0.946230	0.655330
C7131	C713	0.306970	0.889730	0.618630
H5381	H538	0.300170	0.873030	0.647230
C7141	C714	0.297670	0.870030	0.575030
C7151	C715	0.310470	0.894430	0.534830
H5391	H539	0.306170	0.881530	0.503830
C7161	C716	0.329970	0.937930	0.538030
H5401	H540	0.337970	0.954230	0.509130
C7171	C717	0.556170	0.035830	0.586130
C7181	C718	0.596570	0.040730	0.586230
H5411	H541	0.620670	0.068030	0.582630
C7191	C719	0.601570	0.005630	0.591530
H5421	H542	0.629170	0.009330	0.593230
C7201	C720	0.567970	0.966530	0.594430
H5431	H543	0.571870	0.942830	0.597630
C7211	C721	0.527970	0.960930	0.592830
H5441	H544	0.504270	0.933230	0.594430
C7221	C722	0.522070	0.994530	0.589030
H5451	H545	0.494170	0.990030	0.588230
C7231	C723	0.567670	0.100330	0.520330
C7241	C724	0.574170	0.140830	0.509330
H5461	H546	0.571270	0.157830	0.533230
C7251	C725	0.585470	0.154730	0.460430
H5471	H547	0.590170	0.181830	0.451830
C7261	C726	0.589970	0.131130	0.425630
H5481	H548	0.596570	0.141330	0.393330
C7271	C727	0.584770	0.092330	0.437030
H5491	H549	0.588970	0.076030	0.413130
C7281	C728	0.573070	0.076830	0.485230
H5501	H550	0.568870	0.049730	0.493230
C7291	C729	0.297470	0.795230	0.607830
C7301	C730	0.296970	0.799030	0.656730
H5511	H551	0.281070	0.809930	0.671630
C7311	C731	0.320570	0.786630	0.684630
H5521	H552	0.321170	0.790130	0.718930
C7321	C732	0.341770	0.770430	0.666130
H5531	H553	0.356970	0.761930	0.686830
C7331	C733	0.342470	0.765530	0.618130
H5541	H554	0.358270	0.753830	0.604530
C7341	C734	0.319170	0.777930	0.587330
H5551	H555	0.318770	0.774230	0.553130
C7351	C735	0.220570	0.793730	0.597630
C7361	C736	0.205070	0.818430	0.612130
H5561	H556	0.221470	0.848130	0.608030
C7371	C737	0.164270	0.800530	0.633430
H5571	H557	0.154070	0.818230	0.644930
C7381	C738	0.140070	0.757830	0.637230
H5581	H558	0.111370	0.745230	0.646930
C7391	C739	0.157570	0.733130	0.626930
H5591	H559	0.142870	0.703930	0.634830
C7401	C740	0.197170	0.751230	0.604830
H5601	H560	0.208070	0.733730	0.594630
O201	O20	0.641870	0.196230	0.610130
Ag211	Ag21	0.257650	0.464130	0.980600
P411	P41	0.217700	0.415410	0.915050
P421	P42	0.937010	0.146740	0.900170
C7411	C741	0.025830	0.339170	0.922770
C7421	C742	0.073130	0.360570	0.916770
C7431	C743	0.097330	0.374070	0.959370
H5611	H561	0.083730	0.371870	0.989470
C7441	C744	0.140330	0.390370	0.958870
H5621	H562	0.155830	0.398670	0.988370
C7451	C745	0.161330	0.394970	0.914170
C7461	C746	0.137930	0.383570	0.872870
H5631	H563	0.151130	0.387270	0.842070
C7471	C747	0.093430	0.365970	0.875770
H5641	H564	0.077630	0.357870	0.846470
C7481	C748	0.004630	0.291970	0.916870
C7491	C749	0.992930	0.267270	0.957270
H5651	H565	0.997630	0.279570	0.988670
C7501	C750	0.973630	0.223070	0.951970
H5661	H566	0.966830	0.206370	0.980570
C7511	C751	0.964330	0.203370	0.908370
C7521	C752	0.977130	0.227770	0.868170
H5671	H567	0.972830	0.214870	0.837170
C7531	C753	0.996630	0.271270	0.871370
H5681	H568	0.004630	0.287570	0.842470
C7541	C754	0.222830	0.369170	0.919470
C7551	C755	0.263230	0.374070	0.919570
H5691	H569	0.287330	0.401370	0.915970
C7561	C756	0.268230	0.338970	0.924870
H5701	H570	0.295830	0.342670	0.926570
C7571	C757	0.234630	0.299870	0.927770
H5711	H571	0.238530	0.276170	0.930970
C7581	C758	0.194630	0.294270	0.926170
H5721	H572	0.170930	0.266570	0.927770
C7591	C759	0.188730	0.327870	0.922370
H5731	H573	0.160830	0.323370	0.921570
C7601	C760	0.234330	0.433670	0.853670
C7611	C761	0.240830	0.474170	0.842670
H5741	H574	0.237930	0.491170	0.866570
C7621	C762	0.252130	0.488070	0.793770
H5751	H575	0.256830	0.515170	0.785170
C7631	C763	0.256630	0.464470	0.758970
H5761	H576	0.263230	0.474670	0.726670
C7641	C764	0.251430	0.425670	0.770370
H5771	H577	0.255630	0.409370	0.746470
C7651	C765	0.239730	0.410170	0.818570
H5781	H578	0.235530	0.383070	0.826570
C7661	C766	0.964130	0.128570	0.941170
C7671	C767	0.963630	0.132370	0.990070
H5791	H579	0.947730	0.143270	0.004970
C7681	C768	0.987230	0.119970	0.017970
H5801	H580	0.987830	0.123470	0.052270
C7691	C769	0.008430	0.103770	0.999470
H5811	H581	0.023630	0.095270	0.020170
C7701	C770	0.009130	0.098870	0.951470
H5821	H582	0.024930	0.087170	0.937870
C7711	C771	0.985830	0.111270	0.920670
H5831	H583	0.985430	0.107570	0.886470
C7721	C772	0.887230	0.127070	0.930970
C7731	C773	0.871730	0.151770	0.945470
H5841	H584	0.888130	0.181470	0.941370
C7741	C774	0.830930	0.133870	0.966770
H5851	H585	0.820730	0.151570	0.978270
C7751	C775	0.806730	0.091170	0.970570
H5861	H586	0.778030	0.078570	0.980270
C7761	C776	0.824230	0.066470	0.960270
H5871	H587	0.809530	0.037270	0.968170
C7771	C777	0.863830	0.084570	0.938170
H5881	H588	0.874730	0.067070	0.927970
O211	O21	0.308530	0.529570	0.943470
Ag221	Ag22	0.202540	0.126860	0.313930
P431	P43	0.251260	0.135630	0.248380
P441	P44	0.519930	0.123610	0.233500
C7781	C778	0.327500	0.020000	0.256100
C7791	C779	0.306100	0.045900	0.250100
C7801	C780	0.292600	0.056600	0.292700
H5891	H589	0.294800	0.045200	0.322800
C7811	C781	0.276300	0.083300	0.292200
H5901	H590	0.268000	0.090500	0.321700
C7821	C782	0.271700	0.099700	0.247500
C7831	C783	0.283100	0.087700	0.206200
H5911	H591	0.279400	0.097200	0.175400
C7841	C784	0.300700	0.060800	0.209100
H5921	H592	0.308800	0.053100	0.179800
C7851	C785	0.374700	0.046000	0.250200
C7861	C786	0.399400	0.059000	0.290600
H5931	H593	0.387100	0.051400	0.322000
C7871	C787	0.443600	0.083900	0.285300
H5941	H594	0.460300	0.093800	0.313900
C7881	C788	0.463300	0.094300	0.241700
C7891	C789	0.438900	0.082700	0.201500
H5951	H595	0.451800	0.091300	0.170500
C7901	C790	0.395400	0.058700	0.204700
H5961	H596	0.379100	0.050400	0.175800
C7911	C791	0.297500	0.187000	0.252800
C7921	C792	0.292600	0.222500	0.252900
H5971	H597	0.265300	0.219300	0.249300
C7931	C793	0.327700	0.262600	0.258200
H5981	H598	0.324000	0.286500	0.259900
C7941	C794	0.366800	0.268100	0.261100
H5991	H599	0.390500	0.295700	0.264300
C7951	C795	0.372400	0.233700	0.259500
H6001	H600	0.400100	0.237700	0.261100
C7961	C796	0.338800	0.194200	0.255700
H6011	H601	0.343300	0.170800	0.254900
C7971	C797	0.233000	0.134000	0.187000
C7981	C798	0.192500	0.100000	0.176000
H6021	H602	0.175500	0.080100	0.199900
C7991	C799	0.178600	0.097400	0.127100
H6031	H603	0.151500	0.075000	0.118500
C8001	C800	0.202200	0.125500	0.092300
H6041	H604	0.192000	0.121900	0.060000
C8011	C801	0.241000	0.159100	0.103700
H6051	H605	0.257300	0.179600	0.079800
C8021	C802	0.256500	0.162900	0.151900
H6061	H606	0.283600	0.185800	0.159900
C8031	C803	0.538100	0.168900	0.274500
C8041	C804	0.534300	0.164600	0.323400
H6071	H607	0.523400	0.137800	0.338300
C8051	C805	0.546700	0.200600	0.351300
H6081	H608	0.543200	0.197700	0.385600
C8061	C806	0.562900	0.238000	0.332800
H6091	H609	0.571400	0.261700	0.353500
C8071	C807	0.567800	0.243600	0.284800
H6101	H610	0.579500	0.271100	0.271200
C8081	C808	0.555400	0.207900	0.254000
H6111	H611	0.559100	0.211200	0.219800
C8091	C809	0.539600	0.093500	0.264300
C8101	C810	0.514900	0.053300	0.278800
H6121	H612	0.485200	0.040000	0.274700
C8111	C811	0.532800	0.030400	0.300100
H6131	H613	0.515100	0.002500	0.311600
C8121	C812	0.575500	0.048900	0.303900
H6141	H614	0.588100	0.032800	0.313600
C8131	C813	0.600200	0.091100	0.293600
H6151	H615	0.629400	0.105600	0.301500
C8141	C814	0.582100	0.112600	0.271500
H6161	H616	0.599600	0.141000	0.261300
O221	O22	0.137100	0.112300	0.276800
Ag231	Ag23	0.869210	0.460190	0.647260
P451	P45	0.917930	0.468960	0.581710
P461	P46	0.186600	0.456940	0.566830
C8151	C815	0.994170	0.353330	0.589430
C8161	C816	0.972770	0.379230	0.583430
C8171	C817	0.959270	0.389930	0.626030
H6171	H617	0.961470	0.378530	0.656130
C8181	C818	0.942970	0.416630	0.625530
H6181	H618	0.934670	0.423830	0.655030
C8191	C819	0.938370	0.433030	0.580830
C8201	C820	0.949770	0.421030	0.539530
H6191	H619	0.946070	0.430530	0.508730
C8211	C821	0.967370	0.394130	0.542430
H6201	H620	0.975470	0.386430	0.513130
C8221	C822	0.041370	0.379330	0.583530
C8231	C823	0.066070	0.392330	0.623930
H6211	H621	0.053770	0.384730	0.655330
C8241	C824	0.110270	0.417230	0.618630
H6221	H622	0.126970	0.427130	0.647230
C8251	C825	0.129970	0.427630	0.575030
C8261	C826	0.105570	0.416030	0.534830
H6231	H623	0.118470	0.424630	0.503830
C8271	C827	0.062070	0.392030	0.538030
H6241	H624	0.045770	0.383730	0.509130
C8281	C828	0.964170	0.520330	0.586130
C8291	C829	0.959270	0.555830	0.586230
H6251	H625	0.931970	0.552630	0.582630
C8301	C830	0.994370	0.595930	0.591530
H6261	H626	0.990670	0.619830	0.593230
C8311	C831	0.033470	0.601430	0.594430
H6271	H627	0.057170	0.629030	0.597630
C8321	C832	0.039070	0.567030	0.592830
H6281	H628	0.066770	0.571030	0.594430
C8331	C833	0.005470	0.527530	0.589030
H6291	H629	0.009970	0.504130	0.588230
C8341	C834	0.899670	0.467330	0.520330
C8351	C835	0.859170	0.433330	0.509330
H6301	H630	0.842170	0.413430	0.533230
C8361	C836	0.845270	0.430730	0.460430
H6311	H631	0.818170	0.408330	0.451830
C8371	C837	0.868870	0.458830	0.425630
H6321	H632	0.858670	0.455230	0.393330
C8381	C838	0.907670	0.492430	0.437030
H6331	H633	0.923970	0.512930	0.413130
C8391	C839	0.923170	0.496230	0.485230
H6341	H634	0.950270	0.519130	0.493230
C8401	C840	0.204770	0.502230	0.607830
C8411	C841	0.200970	0.497930	0.656730
H6351	H635	0.190070	0.471130	0.671630
C8421	C842	0.213370	0.533930	0.684630
H6361	H636	0.209870	0.531030	0.718930
C8431	C843	0.229570	0.571330	0.666130
H6371	H637	0.238070	0.595030	0.686830
C8441	C844	0.234470	0.576930	0.618130
H6381	H638	0.246170	0.604430	0.604530
C8451	C845	0.222070	0.541230	0.587330
H6391	H639	0.225770	0.544530	0.553130
C8461	C846	0.206270	0.426830	0.597630
C8471	C847	0.181570	0.386630	0.612130
H6401	H640	0.151870	0.373330	0.608030
C8481	C848	0.199470	0.363730	0.633430
H6411	H641	0.181770	0.335830	0.644930
C8491	C849	0.242170	0.382230	0.637230
H6421	H642	0.254770	0.366130	0.646930
C8501	C850	0.266870	0.424430	0.626930
H6431	H643	0.296070	0.438930	0.634830
C8511	C851	0.248770	0.445930	0.604830
H6441	H644	0.266270	0.474330	0.594630
O231	O23	0.803770	0.445630	0.610130
Ag241	Ag24	0.535870	0.793530	0.980600
P471	P47	0.584590	0.802300	0.915050
P481	P48	0.853260	0.790280	0.900170
C8521	C852	0.660830	0.686670	0.922770
C8531	C853	0.639430	0.712570	0.916770
C8541	C854	0.625930	0.723270	0.959370
H6451	H645	0.628130	0.711870	0.989470
C8551	C855	0.609630	0.749970	0.958870
H6461	H646	0.601330	0.757170	0.988370
C8561	C856	0.605030	0.766370	0.914170
C8571	C857	0.616430	0.754370	0.872870
H6471	H647	0.612730	0.763870	0.842070
C8581	C858	0.634030	0.727470	0.875770
H6481	H648	0.642130	0.719770	0.846470
C8591	C859	0.708030	0.712670	0.916870
C8601	C860	0.732730	0.725670	0.957270
H6491	H649	0.720430	0.718070	0.988670
C8611	C861	0.776930	0.750570	0.951970
H6501	H650	0.793630	0.760470	0.980570
C8621	C862	0.796630	0.760970	0.908370
C8631	C863	0.772230	0.749370	0.868170
H6511	H651	0.785130	0.757970	0.837170
C8641	C864	0.728730	0.725370	0.871370
H6521	H652	0.712430	0.717070	0.842470
C8651	C865	0.630830	0.853670	0.919470
C8661	C866	0.625930	0.889170	0.919570
H6531	H653	0.598630	0.885970	0.915970
C8671	C867	0.661030	0.929270	0.924870
H6541	H654	0.657330	0.953170	0.926570
C8681	C868	0.700130	0.934770	0.927770
H6551	H655	0.723830	0.962370	0.930970
C8691	C869	0.705730	0.900370	0.926170
H6561	H656	0.733430	0.904370	0.927770
C8701	C870	0.672130	0.860870	0.922370
H6571	H657	0.676630	0.837470	0.921570
C8711	C871	0.566330	0.800670	0.853670
C8721	C872	0.525830	0.766670	0.842670
H6581	H658	0.508830	0.746770	0.866570
C8731	C873	0.511930	0.764070	0.793770
H6591	H659	0.484830	0.741670	0.785170
C8741	C874	0.535530	0.792170	0.758970
H6601	H660	0.525330	0.788570	0.726670
C8751	C875	0.574330	0.825770	0.770370
H6611	H661	0.590630	0.846270	0.746470
C8761	C876	0.589830	0.829570	0.818570
H6621	H662	0.616930	0.852470	0.826570
C8771	C877	0.871430	0.835570	0.941170
C8781	C878	0.867630	0.831270	0.990070
H6631	H663	0.856730	0.804470	0.004970
C8791	C879	0.880030	0.867270	0.017970
H6641	H664	0.876530	0.864370	0.052270
C8801	C880	0.896230	0.904670	0.999470
H6651	H665	0.904730	0.928370	0.020170
C8811	C881	0.901130	0.910270	0.951470
H6661	H666	0.912830	0.937770	0.937870
C8821	C882	0.888730	0.874570	0.920670
H6671	H667	0.892430	0.877870	0.886470
C8831	C883	0.872930	0.760170	0.930970
C8841	C884	0.848230	0.719970	0.945470
H6681	H668	0.818530	0.706670	0.941370
C8851	C885	0.866130	0.697070	0.966770
H6691	H669	0.848430	0.669170	0.978270
C8861	C886	0.908830	0.715570	0.970570
H6701	H670	0.921430	0.699470	0.980270
C8871	C887	0.933530	0.757770	0.960270
H6711	H671	0.962730	0.772270	0.968170
C8881	C888	0.915430	0.779270	0.938170
H6721	H672	0.932930	0.807670	0.927970
O241	O24	0.470430	0.778970	0.943470
Ag251	Ag25	0.873140	0.075680	0.313930
P491	P49	0.864370	0.115630	0.248380
P501	P50	0.876390	0.396320	0.233500
C8891	C889	0.980000	0.307500	0.256100
C8901	C890	0.954100	0.260200	0.250100
C8911	C891	0.943400	0.236000	0.292700
H6731	H673	0.954800	0.249600	0.322800
C8921	C892	0.916700	0.193000	0.292200
H6741	H674	0.909500	0.177500	0.321700
C8931	C893	0.900300	0.172000	0.247500
C8941	C894	0.912300	0.195400	0.206200
H6751	H675	0.902800	0.182200	0.175400
C8951	C895	0.939200	0.239900	0.209100
H6761	H676	0.946900	0.255700	0.179800
C8961	C896	0.954000	0.328700	0.250200
C8971	C897	0.941000	0.340400	0.290600
H6771	H677	0.948600	0.335700	0.322000
C8981	C898	0.916100	0.359700	0.285300
H6781	H678	0.906200	0.366500	0.313900
C8991	C899	0.905700	0.369000	0.241700
C9001	C900	0.917300	0.356200	0.201500
H6791	H679	0.908700	0.360500	0.170500
C9011	C901	0.941300	0.336700	0.204700
H6801	H680	0.949600	0.328700	0.175800
C9021	C902	0.813000	0.110500	0.252800
C9031	C903	0.777500	0.070100	0.252900
H6811	H681	0.780700	0.046000	0.249300
C9041	C904	0.737400	0.065100	0.258200
H6821	H682	0.713500	0.037500	0.259900
C9051	C905	0.731900	0.098700	0.261100
H6831	H683	0.704300	0.094800	0.264300
C9061	C906	0.766300	0.138700	0.259500
H6841	H684	0.762300	0.162400	0.261100
C9071	C907	0.805800	0.144600	0.255700
H6851	H685	0.829200	0.172500	0.254900
C9081	C908	0.866000	0.099000	0.187000
C9091	C909	0.900000	0.092500	0.176000
H6861	H686	0.919900	0.095400	0.199900
C9101	C910	0.902600	0.081200	0.127100
H6871	H687	0.925000	0.076500	0.118500
C9111	C911	0.874500	0.076700	0.092300
H6881	H688	0.878100	0.070100	0.060000
C9121	C912	0.840900	0.081900	0.103700
H6891	H689	0.820400	0.077700	0.079800
C9131	C913	0.837100	0.093600	0.151900
H6901	H690	0.814200	0.097800	0.159900
C9141	C914	0.831100	0.369200	0.274500
C9151	C915	0.835400	0.369700	0.323400
H6911	H691	0.862200	0.385600	0.338300
C9161	C916	0.799400	0.346100	0.351300
H6921	H692	0.802300	0.345500	0.385600
C9171	C917	0.762000	0.324900	0.332800
H6931	H693	0.738300	0.309700	0.353500
C9181	C918	0.756400	0.324200	0.284800
H6941	H694	0.728900	0.308400	0.271200
C9191	C919	0.792100	0.347500	0.254000
H6951	H695	0.788800	0.347900	0.219800
C9201	C920	0.906500	0.446100	0.264300
C9211	C921	0.946700	0.461600	0.278800
H6961	H696	0.960000	0.445200	0.274700
C9221	C922	0.969600	0.502400	0.300100
H6971	H697	0.997500	0.512600	0.311600
C9231	C923	0.951100	0.526600	0.303900
H6981	H698	0.967200	0.555300	0.313600
C9241	C924	0.908900	0.509100	0.293600
H6991	H699	0.894400	0.523800	0.301500
C9251	C925	0.887400	0.469500	0.271500
H7001	H700	0.859000	0.458600	0.261300
O251	O25	0.887700	0.024800	0.276800
Ag261	Ag26	0.539810	0.409010	0.647260
P511	P51	0.531040	0.448960	0.581710
P521	P52	0.543060	0.729650	0.566830
C9261	C926	0.646670	0.640830	0.589430
C9271	C927	0.620770	0.593530	0.583430
C9281	C928	0.610070	0.569330	0.626030
H7011	H701	0.621470	0.582930	0.656130
C9291	C929	0.583370	0.526330	0.625530
H7021	H702	0.576170	0.510830	0.655030
C9301	C930	0.566970	0.505330	0.580830
C9311	C931	0.578970	0.528730	0.539530
H7031	H703	0.569470	0.515530	0.508730
C9321	C932	0.605870	0.573230	0.542430
H7041	H704	0.613570	0.589030	0.513130
C9331	C933	0.620670	0.662030	0.583530
C9341	C934	0.607670	0.673730	0.623930
H7051	H705	0.615270	0.669030	0.655330
C9351	C935	0.582770	0.693030	0.618630
H7061	H706	0.572870	0.699830	0.647230
C9361	C936	0.572370	0.702330	0.575030
C9371	C937	0.583970	0.689530	0.534830
H7071	H707	0.575370	0.693830	0.503830
C9381	C938	0.607970	0.670030	0.538030
H7081	H708	0.616270	0.662030	0.509130
C9391	C939	0.479670	0.443830	0.586130
C9401	C940	0.444170	0.403430	0.586230
H7091	H709	0.447370	0.379330	0.582630
C9411	C941	0.404070	0.398430	0.591530
H7101	H710	0.380170	0.370830	0.593230
C9421	C942	0.398570	0.432030	0.594430
H7111	H711	0.370970	0.428130	0.597630
C9431	C943	0.432970	0.472030	0.592830
H7121	H712	0.428970	0.495730	0.594430
C9441	C944	0.472470	0.477930	0.589030
H7131	H713	0.495870	0.505830	0.588230
C9451	C945	0.532670	0.432330	0.520330
C9461	C946	0.566670	0.425830	0.509330
H7141	H714	0.586570	0.428730	0.533230
C9471	C947	0.569270	0.414530	0.460430
H7151	H715	0.591670	0.409830	0.451830
C9481	C948	0.541170	0.410030	0.425630
H7161	H716	0.544770	0.403430	0.393330
C9491	C949	0.507570	0.415230	0.437030
H7171	H717	0.487070	0.411030	0.413130
C9501	C950	0.503770	0.426930	0.485230
H7181	H718	0.480870	0.431130	0.493230
C9511	C951	0.497770	0.702530	0.607830
C9521	C952	0.502070	0.703030	0.656730
H7191	H719	0.528870	0.718930	0.671630
C9531	C953	0.466070	0.679430	0.684630
H7201	H720	0.468970	0.678830	0.718930
C9541	C954	0.428670	0.658230	0.666130
H7211	H721	0.404970	0.643030	0.686830
C9551	C955	0.423070	0.657530	0.618130
H7221	H722	0.395570	0.641730	0.604530
C9561	C956	0.458770	0.680830	0.587330
H7231	H723	0.455470	0.681230	0.553130
C9571	C957	0.573170	0.779430	0.597630
C9581	C958	0.613370	0.794930	0.612130
H7241	H724	0.626670	0.778530	0.608030
C9591	C959	0.636270	0.835730	0.633430
H7251	H725	0.664170	0.845930	0.644930
C9601	C960	0.617770	0.859930	0.637230
H7261	H726	0.633870	0.888630	0.646930
C9611	C961	0.575570	0.842430	0.626930
H7271	H727	0.561070	0.857130	0.634830
C9621	C962	0.554070	0.802830	0.604830
H7281	H728	0.525670	0.791930	0.594630
O261	O26	0.554370	0.358130	0.610130
Ag271	Ag27	0.206470	0.742350	0.980600
P531	P53	0.197700	0.782300	0.915050
P541	P54	0.209720	0.062990	0.900170
C9631	C963	0.313330	0.974170	0.922770
C9641	C964	0.287430	0.926870	0.916770
C9651	C965	0.276730	0.902670	0.959370
H7291	H729	0.288130	0.916270	0.989470
C9661	C966	0.250030	0.859670	0.958870
H7301	H730	0.242830	0.844170	0.988370
C9671	C967	0.233630	0.838670	0.914170
C9681	C968	0.245630	0.862070	0.872870
H7311	H731	0.236130	0.848870	0.842070
C9691	C969	0.272530	0.906570	0.875770
H7321	H732	0.280230	0.922370	0.846470
C9701	C970	0.287330	0.995370	0.916870
C9711	C971	0.274330	0.007070	0.957270
H7331	H733	0.281930	0.002370	0.988670
C9721	C972	0.249430	0.026370	0.951970
H7341	H734	0.239530	0.033170	0.980570
C9731	C973	0.239030	0.035670	0.908370
C9741	C974	0.250630	0.022870	0.868170
H7351	H735	0.242030	0.027170	0.837170
C9751	C975	0.274630	0.003370	0.871370
H7361	H736	0.282930	0.995370	0.842470
C9761	C976	0.146330	0.777170	0.919470
C9771	C977	0.110830	0.736770	0.919570
H7371	H737	0.114030	0.712670	0.915970
C9781	C978	0.070730	0.731770	0.924870
H7381	H738	0.046830	0.704170	0.926570
C9791	C979	0.065230	0.765370	0.927770
H7391	H739	0.037630	0.761470	0.930970
C9801	C980	0.099630	0.805370	0.926170
H7401	H740	0.095630	0.829070	0.927770
C9811	C981	0.139130	0.811270	0.922370
H7411	H741	0.162530	0.839170	0.921570
C9821	C982	0.199330	0.765670	0.853670
C9831	C983	0.233330	0.759170	0.842670
H7421	H742	0.253230	0.762070	0.866570
C9841	C984	0.235930	0.747870	0.793770
H7431	H743	0.258330	0.743170	0.785170
C9851	C985	0.207830	0.743370	0.758970
H7441	H744	0.211430	0.736770	0.726670
C9861	C986	0.174230	0.748570	0.770370
H7451	H745	0.153730	0.744370	0.746470
C9871	C987	0.170430	0.760270	0.818570
H7461	H746	0.147530	0.764470	0.826570
C9881	C988	0.164430	0.035870	0.941170
C9891	C989	0.168730	0.036370	0.990070
H7471	H747	0.195530	0.052270	0.004970
C9901	C990	0.132730	0.012770	0.017970
H7481	H748	0.135630	0.012170	0.052270
C9911	C991	0.095330	0.991570	0.999470
H7491	H749	0.071630	0.976370	0.020170
C9921	C992	0.089730	0.990870	0.951470
H7501	H750	0.062230	0.975070	0.937870
C9931	C993	0.125430	0.014170	0.920670
H7511	H751	0.122130	0.014570	0.886470
C9941	C994	0.239830	0.112770	0.930970
C9951	C995	0.280030	0.128270	0.945470
H7521	H752	0.293330	0.111870	0.941370
C9961	C996	0.302930	0.169070	0.966770
H7531	H753	0.330830	0.179270	0.978270
C9971	C997	0.284430	0.193270	0.970570
H7541	H754	0.300530	0.221970	0.980270
C9981	C998	0.242230	0.175770	0.960270
H7551	H755	0.227730	0.190470	0.968170
C9991	C999	0.220730	0.136170	0.938170
H7561	H756	0.192330	0.125270	0.927970
O271	O27	0.221030	0.691470	0.943470
Ag281	Ag28	0.797460	0.924320	0.186070
P551	P55	0.748740	0.884370	0.251620
P561	P56	0.480070	0.603680	0.266500
C10001	C1000	0.672500	0.692500	0.243900
C10011	C1001	0.693900	0.739800	0.249900
C10021	C1002	0.707400	0.764000	0.207300
H7571	H757	0.705200	0.750400	0.177200
C10031	C1003	0.723700	0.807000	0.207800
H7581	H758	0.732000	0.822500	0.178300
C10041	C1004	0.728300	0.828000	0.252500
C10051	C1005	0.716900	0.804600	0.293800
H7591	H759	0.720600	0.817800	0.324600
C10061	C1006	0.699300	0.760100	0.290900
H7601	H760	0.691200	0.744300	0.320200
C10071	C1007	0.625300	0.671300	0.249800
C10081	C1008	0.600600	0.659600	0.209400
H7611	H761	0.612900	0.664300	0.178000
C10091	C1009	0.556400	0.640300	0.214700
H7621	H762	0.539700	0.633500	0.186100
C10101	C1010	0.536700	0.631000	0.258300
C10111	C1011	0.561100	0.643800	0.298500
H7631	H763	0.548200	0.639500	0.329500
C10121	C1012	0.604600	0.663300	0.295300
H7641	H764	0.620900	0.671300	0.324200
C10131	C1013	0.702500	0.889500	0.247200
C10141	C1014	0.707400	0.929900	0.247100
H7651	H765	0.734700	0.954000	0.250700
C10151	C1015	0.672300	0.934900	0.241800
H7661	H766	0.676000	0.962500	0.240100
C10161	C1016	0.633200	0.901300	0.238900
H7671	H767	0.609500	0.905200	0.235700
C10171	C1017	0.627600	0.861300	0.240500
H7681	H768	0.599900	0.837600	0.238900
C10181	C1018	0.661200	0.855400	0.244300
H7691	H769	0.656700	0.827500	0.245100
C10191	C1019	0.767000	0.901000	0.313000
C10201	C1020	0.807500	0.907500	0.324000
H7701	H770	0.824500	0.904600	0.300100
C10211	C1021	0.821400	0.918800	0.372900
H7711	H771	0.848500	0.923500	0.381500
C10221	C1022	0.797800	0.923300	0.407700
H7721	H772	0.808000	0.929900	0.440000
C10231	C1023	0.759000	0.918100	0.396300
H7731	H773	0.742700	0.922300	0.420200
C10241	C1024	0.743500	0.906400	0.348100
H7741	H774	0.716400	0.902200	0.340100
C10251	C1025	0.461900	0.630800	0.225500
C10261	C1026	0.465700	0.630300	0.176600
H7751	H775	0.476600	0.614400	0.161700
C10271	C1027	0.453300	0.653900	0.148700
H7761	H776	0.456800	0.654500	0.114400
C10281	C1028	0.437100	0.675100	0.167200
H7771	H777	0.428600	0.690300	0.146500
C10291	C1029	0.432200	0.675800	0.215200
H7781	H778	0.420500	0.691600	0.228800
C10301	C1030	0.444600	0.652500	0.246000
H7791	H779	0.440900	0.652100	0.280200
C10311	C1031	0.460400	0.553900	0.235700
C10321	C1032	0.485100	0.538400	0.221200
H7801	H780	0.514800	0.554800	0.225300
C10331	C1033	0.467200	0.497600	0.199900
H7811	H781	0.484900	0.487400	0.188400
C10341	C1034	0.424500	0.473400	0.196100
H7821	H782	0.411900	0.444700	0.186400
C10351	C1035	0.399800	0.490900	0.206400
H7831	H783	0.370600	0.476200	0.198500
C10361	C1036	0.417900	0.530500	0.228500
H7841	H784	0.400400	0.541400	0.238700
O281	O28	0.862900	0.975200	0.223200
Ag291	Ag29	0.464130	0.257650	0.519400
P571	P57	0.415410	0.217700	0.584950
P581	P58	0.146740	0.937010	0.599830
C10371	C1037	0.339170	0.025830	0.577230
C10381	C1038	0.360570	0.073130	0.583230
C10391	C1039	0.374070	0.097330	0.540630
H7851	H785	0.371870	0.083730	0.510530
C10401	C1040	0.390370	0.140330	0.541130
H7861	H786	0.398670	0.155830	0.511630
C10411	C1041	0.394970	0.161330	0.585830
C10421	C1042	0.383570	0.137930	0.627130
H7871	H787	0.387270	0.151130	0.657930
C10431	C1043	0.365970	0.093430	0.624230
H7881	H788	0.357870	0.077630	0.653530
C10441	C1044	0.291970	0.004630	0.583130
C10451	C1045	0.267270	0.992930	0.542730
H7891	H789	0.279570	0.997630	0.511330
C10461	C1046	0.223070	0.973630	0.548030
H7901	H790	0.206370	0.966830	0.519430
C10471	C1047	0.203370	0.964330	0.591630
C10481	C1048	0.227770	0.977130	0.631830
H7911	H791	0.214870	0.972830	0.662830
C10491	C1049	0.271270	0.996630	0.628630
H7921	H792	0.287570	0.004630	0.657530
C10501	C1050	0.369170	0.222830	0.580530
C10511	C1051	0.374070	0.263230	0.580430
H7931	H793	0.401370	0.287330	0.584030
C10521	C1052	0.338970	0.268230	0.575130
H7941	H794	0.342670	0.295830	0.573430
C10531	C1053	0.299870	0.234630	0.572230
H7951	H795	0.276170	0.238530	0.569030
C10541	C1054	0.294270	0.194630	0.573830
H7961	H796	0.266570	0.170930	0.572230
C10551	C1055	0.327870	0.188730	0.577630
H7971	H797	0.323370	0.160830	0.578430
C10561	C1056	0.433670	0.234330	0.646330
C10571	C1057	0.474170	0.240830	0.657330
H7981	H798	0.491170	0.237930	0.633430
C10581	C1058	0.488070	0.252130	0.706230
H7991	H799	0.515170	0.256830	0.714830
C10591	C1059	0.464470	0.256630	0.741030
H8001	H800	0.474670	0.263230	0.773330
C10601	C1060	0.425670	0.251430	0.729630
H8011	H801	0.409370	0.255630	0.753530
C10611	C1061	0.410170	0.239730	0.681430
H8021	H802	0.383070	0.235530	0.673430
C10621	C1062	0.128570	0.964130	0.558830
C10631	C1063	0.132370	0.963630	0.509930
H8031	H803	0.143270	0.947730	0.495030
C10641	C1064	0.119970	0.987230	0.482030
H8041	H804	0.123470	0.987830	0.447730
C10651	C1065	0.103770	0.008430	0.500530
H8051	H805	0.095270	0.023630	0.479830
C10661	C1066	0.098870	0.009130	0.548530
H8061	H806	0.087170	0.024930	0.562130
C10671	C1067	0.111270	0.985830	0.579330
H8071	H807	0.107570	0.985430	0.613530
C10681	C1068	0.127070	0.887230	0.569030
C10691	C1069	0.151770	0.871730	0.554530
H8081	H808	0.181470	0.888130	0.558630
C10701	C1070	0.133870	0.830930	0.533230
H8091	H809	0.151570	0.820730	0.521730
C10711	C1071	0.091170	0.806730	0.529430
H8101	H810	0.078570	0.778030	0.519730
C10721	C1072	0.066470	0.824230	0.539730
H8111	H811	0.037270	0.809530	0.531830
C10731	C1073	0.084570	0.863830	0.561830
H8121	H812	0.067070	0.874730	0.572030
O291	O29	0.529570	0.308530	0.556530
Ag301	Ag30	0.130790	0.590990	0.852740
P591	P59	0.082070	0.551040	0.918290
P601	P60	0.813400	0.270350	0.933170
C10741	C1074	0.005830	0.359170	0.910570
C10751	C1075	0.027230	0.406470	0.916570
C10761	C1076	0.040730	0.430670	0.873970
H8131	H813	0.038530	0.417070	0.843870
C10771	C1077	0.057030	0.473670	0.874470
H8141	H814	0.065330	0.489170	0.844970
C10781	C1078	0.061630	0.494670	0.919170
C10791	C1079	0.050230	0.471270	0.960470
H8151	H815	0.053930	0.484470	0.991270
C10801	C1080	0.032630	0.426770	0.957570
H8161	H816	0.024530	0.410970	0.986870
C10811	C1081	0.958630	0.337970	0.916470
C10821	C1082	0.933930	0.326270	0.876070
H8171	H817	0.946230	0.330970	0.844670
C10831	C1083	0.889730	0.306970	0.881370
H8181	H818	0.873030	0.300170	0.852770
C10841	C1084	0.870030	0.297670	0.924970
C10851	C1085	0.894430	0.310470	0.965170
H8191	H819	0.881530	0.306170	0.996170
C10861	C1086	0.937930	0.329970	0.961970
H8201	H820	0.954230	0.337970	0.990870
C10871	C1087	0.035830	0.556170	0.913870
C10881	C1088	0.040730	0.596570	0.913770
H8211	H821	0.068030	0.620670	0.917370
C10891	C1089	0.005630	0.601570	0.908470
H8221	H822	0.009330	0.629170	0.906770
C10901	C1090	0.966530	0.567970	0.905570
H8231	H823	0.942830	0.571870	0.902370
C10911	C1091	0.960930	0.527970	0.907170
H8241	H824	0.933230	0.504270	0.905570
C10921	C1092	0.994530	0.522070	0.910970
H8251	H825	0.990030	0.494170	0.911770
C10931	C1093	0.100330	0.567670	0.979670
C10941	C1094	0.140830	0.574170	0.990670
H8261	H826	0.157830	0.571270	0.966770
C10951	C1095	0.154730	0.585470	0.039570
H8271	H827	0.181830	0.590170	0.048170
C10961	C1096	0.131130	0.589970	0.074370
H8281	H828	0.141330	0.596570	0.106670
C10971	C1097	0.092330	0.584770	0.062970
H8291	H829	0.076030	0.588970	0.086870
C10981	C1098	0.076830	0.573070	0.014770
H8301	H830	0.049730	0.568870	0.006770
C10991	C1099	0.795230	0.297470	0.892170
C11001	C1100	0.799030	0.296970	0.843270
H8311	H831	0.809930	0.281070	0.828370
C11011	C1101	0.786630	0.320570	0.815370
H8321	H832	0.790130	0.321170	0.781070
C11021	C1102	0.770430	0.341770	0.833870
H8331	H833	0.761930	0.356970	0.813170
C11031	C1103	0.765530	0.342470	0.881870
H8341	H834	0.753830	0.358270	0.895470
C11041	C1104	0.777930	0.319170	0.912670
H8351	H835	0.774230	0.318770	0.946870
C11051	C1105	0.793730	0.220570	0.902370
C11061	C1106	0.818430	0.205070	0.887870
H8361	H836	0.848130	0.221470	0.891970
C11071	C1107	0.800530	0.164270	0.866570
H8371	H837	0.818230	0.154070	0.855070
C11081	C1108	0.757830	0.140070	0.862770
H8381	H838	0.745230	0.111370	0.853070
C11091	C1109	0.733130	0.157570	0.873070
H8391	H839	0.703930	0.142870	0.865170
C11101	C1110	0.751230	0.197170	0.895170
H8401	H840	0.733730	0.208070	0.905370
O301	O30	0.196230	0.641870	0.889870
Ag311	Ag31	0.126860	0.202540	0.186070
P611	P61	0.135630	0.251260	0.251620
P621	P62	0.123610	0.519930	0.266500
C11111	C1111	0.020000	0.327500	0.243900
C11121	C1112	0.045900	0.306100	0.249900
C11131	C1113	0.056600	0.292600	0.207300
H8411	H841	0.045200	0.294800	0.177200
C11141	C1114	0.083300	0.276300	0.207800
H8421	H842	0.090500	0.268000	0.178300
C11151	C1115	0.099700	0.271700	0.252500
C11161	C1116	0.087700	0.283100	0.293800
H8431	H843	0.097200	0.279400	0.324600
C11171	C1117	0.060800	0.300700	0.290900
H8441	H844	0.053100	0.308800	0.320200
C11181	C1118	0.046000	0.374700	0.249800
C11191	C1119	0.059000	0.399400	0.209400
H8451	H845	0.051400	0.387100	0.178000
C11201	C1120	0.083900	0.443600	0.214700
H8461	H846	0.093800	0.460300	0.186100
C11211	C1121	0.094300	0.463300	0.258300
C11221	C1122	0.082700	0.438900	0.298500
H8471	H847	0.091300	0.451800	0.329500
C11231	C1123	0.058700	0.395400	0.295300
H8481	H848	0.050400	0.379100	0.324200
C11241	C1124	0.187000	0.297500	0.247200
C11251	C1125	0.222500	0.292600	0.247100
H8491	H849	0.219300	0.265300	0.250700
C11261	C1126	0.262600	0.327700	0.241800
H8501	H850	0.286500	0.324000	0.240100
C11271	C1127	0.268100	0.366800	0.238900
H8511	H851	0.295700	0.390500	0.235700
C11281	C1128	0.233700	0.372400	0.240500
H8521	H852	0.237700	0.400100	0.238900
C11291	C1129	0.194200	0.338800	0.244300
H8531	H853	0.170800	0.343300	0.245100
C11301	C1130	0.134000	0.233000	0.313000
C11311	C1131	0.100000	0.192500	0.324000
H8541	H854	0.080100	0.175500	0.300100
C11321	C1132	0.097400	0.178600	0.372900
H8551	H855	0.075000	0.151500	0.381500
C11331	C1133	0.125500	0.202200	0.407700
H8561	H856	0.121900	0.192000	0.440000
C11341	C1134	0.159100	0.241000	0.396300
H8571	H857	0.179600	0.257300	0.420200
C11351	C1135	0.162900	0.256500	0.348100
H8581	H858	0.185800	0.283600	0.340100
C11361	C1136	0.168900	0.538100	0.225500
C11371	C1137	0.164600	0.534300	0.176600
H8591	H859	0.137800	0.523400	0.161700
C11381	C1138	0.200600	0.546700	0.148700
H8601	H860	0.197700	0.543200	0.114400
C11391	C1139	0.238000	0.562900	0.167200
H8611	H861	0.261700	0.571400	0.146500
C11401	C1140	0.243600	0.567800	0.215200
H8621	H862	0.271100	0.579500	0.228800
C11411	C1141	0.207900	0.555400	0.246000
H8631	H863	0.211200	0.559100	0.280200
C11421	C1142	0.093500	0.539600	0.235700
C11431	C1143	0.053300	0.514900	0.221200
H8641	H864	0.040000	0.485200	0.225300
C11441	C1144	0.030400	0.532800	0.199900
H8651	H865	0.002500	0.515100	0.188400
C11451	C1145	0.048900	0.575500	0.196100
H8661	H866	0.032800	0.588100	0.186400
C11461	C1146	0.091100	0.600200	0.206400
H8671	H867	0.105600	0.629400	0.198500
C11471	C1147	0.112600	0.582100	0.228500
H8681	H868	0.141000	0.599600	0.238700
O311	O31	0.112300	0.137100	0.223200
Ag321	Ag32	0.793530	0.535870	0.519400
P631	P63	0.802300	0.584590	0.584950
P641	P64	0.790280	0.853260	0.599830
C11481	C1148	0.686670	0.660830	0.577230
C11491	C1149	0.712570	0.639430	0.583230
C11501	C1150	0.723270	0.625930	0.540630
H8691	H869	0.711870	0.628130	0.510530
C11511	C1151	0.749970	0.609630	0.541130
H8701	H870	0.757170	0.601330	0.511630
C11521	C1152	0.766370	0.605030	0.585830
C11531	C1153	0.754370	0.616430	0.627130
H8711	H871	0.763870	0.612730	0.657930
C11541	C1154	0.727470	0.634030	0.624230
H8721	H872	0.719770	0.642130	0.653530
C11551	C1155	0.712670	0.708030	0.583130
C11561	C1156	0.725670	0.732730	0.542730
H8731	H873	0.718070	0.720430	0.511330
C11571	C1157	0.750570	0.776930	0.548030
H8741	H874	0.760470	0.793630	0.519430
C11581	C1158	0.760970	0.796630	0.591630
C11591	C1159	0.749370	0.772230	0.631830
H8751	H875	0.757970	0.785130	0.662830
C11601	C1160	0.725370	0.728730	0.628630
H8761	H876	0.717070	0.712430	0.657530
C11611	C1161	0.853670	0.630830	0.580530
C11621	C1162	0.889170	0.625930	0.580430
H8771	H877	0.885970	0.598630	0.584030
C11631	C1163	0.929270	0.661030	0.575130
H8781	H878	0.953170	0.657330	0.573430
C11641	C1164	0.934770	0.700130	0.572230
H8791	H879	0.962370	0.723830	0.569030
C11651	C1165	0.900370	0.705730	0.573830
H8801	H880	0.904370	0.733430	0.572230
C11661	C1166	0.860870	0.672130	0.577630
H8811	H881	0.837470	0.676630	0.578430
C11671	C1167	0.800670	0.566330	0.646330
C11681	C1168	0.766670	0.525830	0.657330
H8821	H882	0.746770	0.508830	0.633430
C11691	C1169	0.764070	0.511930	0.706230
H8831	H883	0.741670	0.484830	0.714830
C11701	C1170	0.792170	0.535530	0.741030
H8841	H884	0.788570	0.525330	0.773330
C11711	C1171	0.825770	0.574330	0.729630
H8851	H885	0.846270	0.590630	0.753530
C11721	C1172	0.829570	0.589830	0.681430
H8861	H886	0.852470	0.616930	0.673430
C11731	C1173	0.835570	0.871430	0.558830
C11741	C1174	0.831270	0.867630	0.509930
H8871	H887	0.804470	0.856730	0.495030
C11751	C1175	0.867270	0.880030	0.482030
H8881	H888	0.864370	0.876530	0.447730
C11761	C1176	0.904670	0.896230	0.500530
H8891	H889	0.928370	0.904730	0.479830
C11771	C1177	0.910270	0.901130	0.548530
H8901	H890	0.937770	0.912830	0.562130
C11781	C1178	0.874570	0.888730	0.579330
H8911	H891	0.877870	0.892430	0.613530
C11791	C1179	0.760170	0.872930	0.569030
C11801	C1180	0.719970	0.848230	0.554530
H8921	H892	0.706670	0.818530	0.558630
C11811	C1181	0.697070	0.866130	0.533230
H8931	H893	0.669170	0.848430	0.521730
C11821	C1182	0.715570	0.908830	0.529430
H8941	H894	0.699470	0.921430	0.519730
C11831	C1183	0.757770	0.933530	0.539730
H8951	H895	0.772270	0.962730	0.531830
C11841	C1184	0.779270	0.915430	0.561830
H8961	H896	0.807670	0.932930	0.572030
O321	O32	0.778970	0.470430	0.556530
Ag331	Ag33	0.460190	0.869210	0.852740
P651	P65	0.468960	0.917930	0.918290
P661	P66	0.456940	0.186600	0.933170
C11851	C1185	0.353330	0.994170	0.910570
C11861	C1186	0.379230	0.972770	0.916570
C11871	C1187	0.389930	0.959270	0.873970
H8971	H897	0.378530	0.961470	0.843870
C11881	C1188	0.416630	0.942970	0.874470
H8981	H898	0.423830	0.934670	0.844970
C11891	C1189	0.433030	0.938370	0.919170
C11901	C1190	0.421030	0.949770	0.960470
H8991	H899	0.430530	0.946070	0.991270
C11911	C1191	0.394130	0.967370	0.957570
H9001	H900	0.386430	0.975470	0.986870
C11921	C1192	0.379330	0.041370	0.916470
C11931	C1193	0.392330	0.066070	0.876070
H9011	H901	0.384730	0.053770	0.844670
C11941	C1194	0.417230	0.110270	0.881370
H9021	H902	0.427130	0.126970	0.852770
C11951	C1195	0.427630	0.129970	0.924970
C11961	C1196	0.416030	0.105570	0.965170
H9031	H903	0.424630	0.118470	0.996170
C11971	C1197	0.392030	0.062070	0.961970
H9041	H904	0.383730	0.045770	0.990870
C11981	C1198	0.520330	0.964170	0.913870
C11991	C1199	0.555830	0.959270	0.913770
H9051	H905	0.552630	0.931970	0.917370
C12001	C1200	0.595930	0.994370	0.908470
H9061	H906	0.619830	0.990670	0.906770
C12011	C1201	0.601430	0.033470	0.905570
H9071	H907	0.629030	0.057170	0.902370
C12021	C1202	0.567030	0.039070	0.907170
H9081	H908	0.571030	0.066770	0.905570
C12031	C1203	0.527530	0.005470	0.910970
H9091	H909	0.504130	0.009970	0.911770
C12041	C1204	0.467330	0.899670	0.979670
C12051	C1205	0.433330	0.859170	0.990670
H9101	H910	0.413430	0.842170	0.966770
C12061	C1206	0.430730	0.845270	0.039570
H9111	H911	0.408330	0.818170	0.048170
C12071	C1207	0.458830	0.868870	0.074370
H9121	H912	0.455230	0.858670	0.106670
C12081	C1208	0.492430	0.907670	0.062970
H9131	H913	0.512930	0.923970	0.086870
C12091	C1209	0.496230	0.923170	0.014770
H9141	H914	0.519130	0.950270	0.006770
C12101	C1210	0.502230	0.204770	0.892170
C12111	C1211	0.497930	0.200970	0.843270
H9151	H915	0.471130	0.190070	0.828370
C12121	C1212	0.533930	0.213370	0.815370
H9161	H916	0.531030	0.209870	0.781070
C12131	C1213	0.571330	0.229570	0.833870
H9171	H917	0.595030	0.238070	0.813170
C12141	C1214	0.576930	0.234470	0.881870
H9181	H918	0.604430	0.246170	0.895470
C12151	C1215	0.541230	0.222070	0.912670
H9191	H919	0.544530	0.225770	0.946870
C12161	C1216	0.426830	0.206270	0.902370
C12171	C1217	0.386630	0.181570	0.887870
H9201	H920	0.373330	0.151870	0.891970
C12181	C1218	0.363730	0.199470	0.866570
H9211	H921	0.335830	0.181770	0.855070
C12191	C1219	0.382230	0.242170	0.862770
H9221	H922	0.366130	0.254770	0.853070
C12201	C1220	0.424430	0.266870	0.873070
H9231	H923	0.438930	0.296070	0.865170
C12211	C1221	0.445930	0.248770	0.895170
H9241	H924	0.474330	0.266270	0.905370
O331	O33	0.445630	0.803770	0.889870
Ag341	Ag34	0.075680	0.873140	0.186070
P671	P67	0.115630	0.864370	0.251620
P681	P68	0.396320	0.876390	0.266500
C12221	C1222	0.307500	0.980000	0.243900
C12231	C1223	0.260200	0.954100	0.249900
C12241	C1224	0.236000	0.943400	0.207300
H9251	H925	0.249600	0.954800	0.177200
C12251	C1225	0.193000	0.916700	0.207800
H9261	H926	0.177500	0.909500	0.178300
C12261	C1226	0.172000	0.900300	0.252500
C12271	C1227	0.195400	0.912300	0.293800
H9271	H927	0.182200	0.902800	0.324600
C12281	C1228	0.239900	0.939200	0.290900
H9281	H928	0.255700	0.946900	0.320200
C12291	C1229	0.328700	0.954000	0.249800
C12301	C1230	0.340400	0.941000	0.209400
H9291	H929	0.335700	0.948600	0.178000
C12311	C1231	0.359700	0.916100	0.214700
H9301	H930	0.366500	0.906200	0.186100
C12321	C1232	0.369000	0.905700	0.258300
C12331	C1233	0.356200	0.917300	0.298500
H9311	H931	0.360500	0.908700	0.329500
C12341	C1234	0.336700	0.941300	0.295300
H9321	H932	0.328700	0.949600	0.324200
C12351	C1235	0.110500	0.813000	0.247200
C12361	C1236	0.070100	0.777500	0.247100
H9331	H933	0.046000	0.780700	0.250700
C12371	C1237	0.065100	0.737400	0.241800
H9341	H934	0.037500	0.713500	0.240100
C12381	C1238	0.098700	0.731900	0.238900
H9351	H935	0.094800	0.704300	0.235700
C12391	C1239	0.138700	0.766300	0.240500
H9361	H936	0.162400	0.762300	0.238900
C12401	C1240	0.144600	0.805800	0.244300
H9371	H937	0.172500	0.829200	0.245100
C12411	C1241	0.099000	0.866000	0.313000
C12421	C1242	0.092500	0.900000	0.324000
H9381	H938	0.095400	0.919900	0.300100
C12431	C1243	0.081200	0.902600	0.372900
H9391	H939	0.076500	0.925000	0.381500
C12441	C1244	0.076700	0.874500	0.407700
H9401	H940	0.070100	0.878100	0.440000
C12451	C1245	0.081900	0.840900	0.396300
H9411	H941	0.077700	0.820400	0.420200
C12461	C1246	0.093600	0.837100	0.348100
H9421	H942	0.097800	0.814200	0.340100
C12471	C1247	0.369200	0.831100	0.225500
C12481	C1248	0.369700	0.835400	0.176600
H9431	H943	0.385600	0.862200	0.161700
C12491	C1249	0.346100	0.799400	0.148700
H9441	H944	0.345500	0.802300	0.114400
C12501	C1250	0.324900	0.762000	0.167200
H9451	H945	0.309700	0.738300	0.146500
C12511	C1251	0.324200	0.756400	0.215200
H9461	H946	0.308400	0.728900	0.228800
C12521	C1252	0.347500	0.792100	0.246000
H9471	H947	0.347900	0.788800	0.280200
C12531	C1253	0.446100	0.906500	0.235700
C12541	C1254	0.461600	0.946700	0.221200
H9481	H948	0.445200	0.960000	0.225300
C12551	C1255	0.502400	0.969600	0.199900
H9491	H949	0.512600	0.997500	0.188400
C12561	C1256	0.526600	0.951100	0.196100
H9501	H950	0.555300	0.967200	0.186400
C12571	C1257	0.509100	0.908900	0.206400
H9511	H951	0.523800	0.894400	0.198500
C12581	C1258	0.469500	0.887400	0.228500
H9521	H952	0.458600	0.859000	0.238700
O341	O34	0.024800	0.887700	0.223200
Ag351	Ag35	0.742350	0.206470	0.519400
P691	P69	0.782300	0.197700	0.584950
P701	P70	0.062990	0.209720	0.599830
C12591	C1259	0.974170	0.313330	0.577230
C12601	C1260	0.926870	0.287430	0.583230
C12611	C1261	0.902670	0.276730	0.540630
H9531	H953	0.916270	0.288130	0.510530
C12621	C1262	0.859670	0.250030	0.541130
H9541	H954	0.844170	0.242830	0.511630
C12631	C1263	0.838670	0.233630	0.585830
C12641	C1264	0.862070	0.245630	0.627130
H9551	H955	0.848870	0.236130	0.657930
C12651	C1265	0.906570	0.272530	0.624230
H9561	H956	0.922370	0.280230	0.653530
C12661	C1266	0.995370	0.287330	0.583130
C12671	C1267	0.007070	0.274330	0.542730
H9571	H957	0.002370	0.281930	0.511330
C12681	C1268	0.026370	0.249430	0.548030
H9581	H958	0.033170	0.239530	0.519430
C12691	C1269	0.035670	0.239030	0.591630
C12701	C1270	0.022870	0.250630	0.631830
H9591	H959	0.027170	0.242030	0.662830
C12711	C1271	0.003370	0.274630	0.628630
H9601	H960	0.995370	0.282930	0.657530
C12721	C1272	0.777170	0.146330	0.580530
C12731	C1273	0.736770	0.110830	0.580430
H9611	H961	0.712670	0.114030	0.584030
C12741	C1274	0.731770	0.070730	0.575130
H9621	H962	0.704170	0.046830	0.573430
C12751	C1275	0.765370	0.065230	0.572230
H9631	H963	0.761470	0.037630	0.569030
C12761	C1276	0.805370	0.099630	0.573830
H9641	H964	0.829070	0.095630	0.572230
C12771	C1277	0.811270	0.139130	0.577630
H9651	H965	0.839170	0.162530	0.578430
C12781	C1278	0.765670	0.199330	0.646330
C12791	C1279	0.759170	0.233330	0.657330
H9661	H966	0.762070	0.253230	0.633430
C12801	C1280	0.747870	0.235930	0.706230
H9671	H967	0.743170	0.258330	0.714830
C12811	C1281	0.743370	0.207830	0.741030
H9681	H968	0.736770	0.211430	0.773330
C12821	C1282	0.748570	0.174230	0.729630
H9691	H969	0.744370	0.153730	0.753530
C12831	C1283	0.760270	0.170430	0.681430
H9701	H970	0.764470	0.147530	0.673430
C12841	C1284	0.035870	0.164430	0.558830
C12851	C1285	0.036370	0.168730	0.509930
H9711	H971	0.052270	0.195530	0.495030
C12861	C1286	0.012770	0.132730	0.482030
H9721	H972	0.012170	0.135630	0.447730
C12871	C1287	0.991570	0.095330	0.500530
H9731	H973	0.976370	0.071630	0.479830
C12881	C1288	0.990870	0.089730	0.548530
H9741	H974	0.975070	0.062230	0.562130
C12891	C1289	0.014170	0.125430	0.579330
H9751	H975	0.014570	0.122130	0.613530
C12901	C1290	0.112770	0.239830	0.569030
C12911	C1291	0.128270	0.280030	0.554530
H9761	H976	0.111870	0.293330	0.558630
C12921	C1292	0.169070	0.302930	0.533230
H9771	H977	0.179270	0.330830	0.521730
C12931	C1293	0.193270	0.284430	0.529430
H9781	H978	0.221970	0.300530	0.519730
C12941	C1294	0.175770	0.242230	0.539730
H9791	H979	0.190470	0.227730	0.531830
C12951	C1295	0.136170	0.220730	0.561830
H9801	H980	0.125270	0.192330	0.572030
O351	O35	0.691470	0.221030	0.556530
Ag361	Ag36	0.409010	0.539810	0.852740
P711	P71	0.448960	0.531040	0.918290
P721	P72	0.729650	0.543060	0.933170
C12961	C1296	0.640830	0.646670	0.910570
C12971	C1297	0.593530	0.620770	0.916570
C12981	C1298	0.569330	0.610070	0.873970
H9811	H981	0.582930	0.621470	0.843870
C12991	C1299	0.526330	0.583370	0.874470
H9821	H982	0.510830	0.576170	0.844970
C13001	C1300	0.505330	0.566970	0.919170
C13011	C1301	0.528730	0.578970	0.960470
H9831	H983	0.515530	0.569470	0.991270
C13021	C1302	0.573230	0.605870	0.957570
H9841	H984	0.589030	0.613570	0.986870
C13031	C1303	0.662030	0.620670	0.916470
C13041	C1304	0.673730	0.607670	0.876070
H9851	H985	0.669030	0.615270	0.844670
C13051	C1305	0.693030	0.582770	0.881370
H9861	H986	0.699830	0.572870	0.852770
C13061	C1306	0.702330	0.572370	0.924970
C13071	C1307	0.689530	0.583970	0.965170
H9871	H987	0.693830	0.575370	0.996170
C13081	C1308	0.670030	0.607970	0.961970
H9881	H988	0.662030	0.616270	0.990870
C13091	C1309	0.443830	0.479670	0.913870
C13101	C1310	0.403430	0.444170	0.913770
H9891	H989	0.379330	0.447370	0.917370
C13111	C1311	0.398430	0.404070	0.908470
H9901	H990	0.370830	0.380170	0.906770
C13121	C1312	0.432030	0.398570	0.905570
H9911	H991	0.428130	0.370970	0.902370
C13131	C1313	0.472030	0.432970	0.907170
H9921	H992	0.495730	0.428970	0.905570
C13141	C1314	0.477930	0.472470	0.910970
H9931	H993	0.505830	0.495870	0.911770
C13151	C1315	0.432330	0.532670	0.979670
C13161	C1316	0.425830	0.566670	0.990670
H9941	H994	0.428730	0.586570	0.966770
C13171	C1317	0.414530	0.569270	0.039570
H9951	H995	0.409830	0.591670	0.048170
C13181	C1318	0.410030	0.541170	0.074370
H9961	H996	0.403430	0.544770	0.106670
C13191	C1319	0.415230	0.507570	0.062970
H9971	H997	0.411030	0.487070	0.086870
C13201	C1320	0.426930	0.503770	0.014770
H9981	H998	0.431130	0.480870	0.006770
C13211	C1321	0.702530	0.497770	0.892170
C13221	C1322	0.703030	0.502070	0.843270
H9991	H999	0.718930	0.528870	0.828370
C13231	C1323	0.679430	0.466070	0.815370
H10001	H1000	0.678830	0.468970	0.781070
C13241	C1324	0.658230	0.428670	0.833870
H10011	H1001	0.643030	0.404970	0.813170
C13251	C1325	0.657530	0.423070	0.881870
H10021	H1002	0.641730	0.395570	0.895470
C13261	C1326	0.680830	0.458770	0.912670
H10031	H1003	0.681230	0.455470	0.946870
C13271	C1327	0.779430	0.573170	0.902370
C13281	C1328	0.794930	0.613370	0.887870
H10041	H1004	0.778530	0.626670	0.891970
C13291	C1329	0.835730	0.636270	0.866570
H10051	H1005	0.845930	0.664170	0.855070
C13301	C1330	0.859930	0.617770	0.862770
H10061	H1006	0.888630	0.633870	0.853070
C13311	C1331	0.842430	0.575570	0.873070
H10071	H1007	0.857130	0.561070	0.865170
C13321	C1332	0.802830	0.554070	0.895170
H10081	H1008	0.791930	0.525670	0.905370
O361	O36	0.358130	0.554370	0.889870
C13331	C1333	0.000000	0.143500	0.750000
O371	O37	0.000000	0.176800	0.750000
C13341	C1334	0.666670	0.476830	0.083330
O381	O38	0.666670	0.510130	0.083330
C13351	C1335	0.333330	0.810170	0.416670
O391	O39	0.333330	0.843470	0.416670
C13361	C1336	0.856500	0.856500	0.750000
O401	O40	0.823200	0.823200	0.750000
C13371	C1337	0.523170	0.189830	0.083330
O411	O41	0.489870	0.156530	0.083330
C13381	C1338	0.189830	0.523170	0.416670
O421	O42	0.156530	0.489870	0.416670
C13391	C1339	0.143500	0.000000	0.750000
O431	O43	0.176800	0.000000	0.750000
C13401	C1340	0.810170	0.333330	0.083330
O441	O44	0.843470	0.333330	0.083330
C13411	C1341	0.476830	0.666670	0.416670
O451	O45	0.510130	0.666670	0.416670
C13421	C1342	0.000000	0.856500	0.250000
O461	O46	0.000000	0.823200	0.250000
C13431	C1343	0.666670	0.189830	0.583330
O471	O47	0.666670	0.156530	0.583330
C13441	C1344	0.333330	0.523170	0.916670
O481	O48	0.333330	0.489870	0.916670
C13451	C1345	0.143500	0.143500	0.250000
O491	O49	0.176800	0.176800	0.250000
C13461	C1346	0.810170	0.476830	0.583330
O501	O50	0.843470	0.510130	0.583330
C13471	C1347	0.476830	0.810170	0.916670
O511	O51	0.510130	0.843470	0.916670
C13481	C1348	0.856500	0.000000	0.250000
O521	O52	0.823200	0.000000	0.250000
C13491	C1349	0.523170	0.333330	0.583330
O531	O53	0.489870	0.333330	0.583330
C13501	C1350	0.189830	0.666670	0.916670
O541	O54	0.156530	0.666670	0.916670
