data_COQTEJ_clean_PM
_symmetry_space_group_name_H-M	'P1'
_cell_length_a	34.341300
_cell_length_b	10.044700
_cell_length_c	17.738200
_cell_angle_alpha	90.000000
_cell_angle_beta	96.234000
_cell_angle_gamma	90.000000
_symmetry_Int_Tables_number 1

loop_
_symmetry_equiv_pos_as_xyz
'x,y,z'

loop_
_atom_site_label
_atom_site_type_symbol
_atom_site_fract_x
_atom_site_fract_y
_atom_site_fract_z
Mg11	Mg1	0.225810	0.937870	0.236810
Mg21	Mg2	0.303570	0.717350	0.276170
O11	O1	0.249220	0.633500	0.255150
O21	O2	0.304060	0.205500	0.670400
O31	O3	0.396310	0.196400	0.420000
O41	O4	0.398110	0.835900	0.572700
O51	O5	0.280020	0.900500	0.307100
O61	O6	0.228400	0.965300	0.360270
O71	O7	0.249740	0.084900	0.640060
O81	O8	0.197650	0.765500	0.230420
O91	O9	0.177090	0.059000	0.202710
O101	O10	0.233970	0.149900	0.235260
O111	O11	0.061880	0.433200	0.214200
O121	O12	0.122270	0.489900	0.003200
N11	N1	0.091050	0.458900	0.107850
N21	N2	0.397820	0.015100	0.496300
C11	C1	0.275370	0.031800	0.495900
H11	H1	0.248300	0.034000	0.496600
C21	C2	0.143820	0.314000	0.164600
H21	H2	0.128700	0.240200	0.148600
C31	C3	0.264410	0.945500	0.363800
C41	C4	0.188510	0.535500	0.210800
C51	C5	0.198320	0.159300	0.213500
C61	C6	0.214310	0.653000	0.234600
C71	C7	0.339950	0.075200	0.558300
H31	H3	0.356500	0.108600	0.598900
C81	C8	0.479240	0.003300	0.499500
C91	C9	0.354700	0.023000	0.496500
C101	C10	0.020020	0.467400	0.098700
C111	C11	0.203740	0.406500	0.222600
H41	H4	0.229300	0.394800	0.245100
C121	C12	0.091320	0.483600	0.031200
C131	C13	0.018630	0.493100	0.022400
C141	C14	0.129090	0.441900	0.152000
C151	C15	0.458770	0.102500	0.455900
C161	C16	0.181160	0.297800	0.201100
C171	C17	0.290850	0.983400	0.432400
C181	C18	0.299750	0.077500	0.559100
C191	C19	0.151290	0.550800	0.175200
H51	H5	0.141000	0.635800	0.166800
C201	C20	0.282650	0.126700	0.629100
C211	C21	0.415330	0.110100	0.453900
C221	C22	0.331270	0.980200	0.433300
H61	H6	0.341100	0.951500	0.396600
C231	C23	0.985340	0.464100	0.134100
H71	H7	0.989800	0.454100	0.187500
C241	C24	0.050300	0.522400	0.909100
H81	H8	0.073200	0.529700	0.885800
C251	C25	0.052810	0.498300	0.985800
C261	C26	0.058270	0.455000	0.146400
C271	C27	0.416570	0.913500	0.539700
C281	C28	0.460350	0.909600	0.539600
C291	C29	0.518470	0.186100	0.417100
H91	H9	0.532700	0.264200	0.411900
C301	C30	0.478200	0.191800	0.415500
H101	H10	0.465100	0.236900	0.374600
Mg31	Mg3	0.774190	0.937870	0.263190
Mg41	Mg4	0.696430	0.717350	0.223830
O131	O13	0.750780	0.633500	0.244850
O141	O14	0.695940	0.205500	0.829600
O151	O15	0.603690	0.196400	0.080000
O161	O16	0.601890	0.835900	0.927300
O171	O17	0.719980	0.900500	0.192900
O181	O18	0.771600	0.965300	0.139730
O191	O19	0.750260	0.084900	0.859940
O201	O20	0.802350	0.765500	0.269580
O211	O21	0.822910	0.059000	0.297290
O221	O22	0.766030	0.149900	0.264740
O231	O23	0.938120	0.433200	0.285800
O241	O24	0.877730	0.489900	0.496800
N31	N3	0.908950	0.458900	0.392150
N41	N4	0.602180	0.015100	0.003700
C311	C31	0.724630	0.031800	0.004100
H111	H11	0.751700	0.034000	0.003400
C321	C32	0.856180	0.314000	0.335400
H121	H12	0.871300	0.240200	0.351400
C331	C33	0.735590	0.945500	0.136200
C341	C34	0.811490	0.535500	0.289200
C351	C35	0.801680	0.159300	0.286500
C361	C36	0.785690	0.653000	0.265400
C371	C37	0.660050	0.075200	0.941700
H131	H13	0.643500	0.108600	0.901100
C381	C38	0.520760	0.003300	0.000500
C391	C39	0.645300	0.023000	0.003500
C401	C40	0.979980	0.467400	0.401300
C411	C41	0.796260	0.406500	0.277400
H141	H14	0.770700	0.394800	0.254900
C421	C42	0.908680	0.483600	0.468800
C431	C43	0.981370	0.493100	0.477600
C441	C44	0.870910	0.441900	0.348000
C451	C45	0.541230	0.102500	0.044100
C461	C46	0.818840	0.297800	0.298900
C471	C47	0.709150	0.983400	0.067600
C481	C48	0.700250	0.077500	0.940900
C491	C49	0.848710	0.550800	0.324800
H151	H15	0.859000	0.635800	0.333200
C501	C50	0.717350	0.126700	0.870900
C511	C51	0.584670	0.110100	0.046100
C521	C52	0.668730	0.980200	0.066700
H161	H16	0.658900	0.951500	0.103400
C531	C53	0.014660	0.464100	0.365900
H171	H17	0.010200	0.454100	0.312500
C541	C54	0.949700	0.522400	0.590900
H181	H18	0.926800	0.529700	0.614200
C551	C55	0.947190	0.498300	0.514200
C561	C56	0.941730	0.455000	0.353600
C571	C57	0.583430	0.913500	0.960300
C581	C58	0.539650	0.909600	0.960400
C591	C59	0.481530	0.186100	0.082900
H191	H19	0.467300	0.264200	0.088100
C601	C60	0.521800	0.191800	0.084500
H201	H20	0.534900	0.236900	0.125400
Mg51	Mg5	0.774190	0.062130	0.763190
Mg61	Mg6	0.696430	0.282650	0.723830
O251	O25	0.750780	0.366500	0.744850
O261	O26	0.695940	0.794500	0.329600
O271	O27	0.603690	0.803600	0.580000
O281	O28	0.601890	0.164100	0.427300
O291	O29	0.719980	0.099500	0.692900
O301	O30	0.771600	0.034700	0.639730
O311	O31	0.750260	0.915100	0.359940
O321	O32	0.802350	0.234500	0.769580
O331	O33	0.822910	0.941000	0.797290
O341	O34	0.766030	0.850100	0.764740
O351	O35	0.938120	0.566800	0.785800
O361	O36	0.877730	0.510100	0.996800
N51	N5	0.908950	0.541100	0.892150
N61	N6	0.602180	0.984900	0.503700
C611	C61	0.724630	0.968200	0.504100
H211	H21	0.751700	0.966000	0.503400
C621	C62	0.856180	0.686000	0.835400
H221	H22	0.871300	0.759800	0.851400
C631	C63	0.735590	0.054500	0.636200
C641	C64	0.811490	0.464500	0.789200
C651	C65	0.801680	0.840700	0.786500
C661	C66	0.785690	0.347000	0.765400
C671	C67	0.660050	0.924800	0.441700
H231	H23	0.643500	0.891400	0.401100
C681	C68	0.520760	0.996700	0.500500
C691	C69	0.645300	0.977000	0.503500
C701	C70	0.979980	0.532600	0.901300
C711	C71	0.796260	0.593500	0.777400
H241	H24	0.770700	0.605200	0.754900
C721	C72	0.908680	0.516400	0.968800
C731	C73	0.981370	0.506900	0.977600
C741	C74	0.870910	0.558100	0.848000
C751	C75	0.541230	0.897500	0.544100
C761	C76	0.818840	0.702200	0.798900
C771	C77	0.709150	0.016600	0.567600
C781	C78	0.700250	0.922500	0.440900
C791	C79	0.848710	0.449200	0.824800
H251	H25	0.859000	0.364200	0.833200
C801	C80	0.717350	0.873300	0.370900
C811	C81	0.584670	0.889900	0.546100
C821	C82	0.668730	0.019800	0.566700
H261	H26	0.658900	0.048500	0.603400
C831	C83	0.014660	0.535900	0.865900
H271	H27	0.010200	0.545900	0.812500
C841	C84	0.949700	0.477600	0.090900
H281	H28	0.926800	0.470300	0.114200
C851	C85	0.947190	0.501700	0.014200
C861	C86	0.941730	0.545000	0.853600
C871	C87	0.583430	0.086500	0.460300
C881	C88	0.539650	0.090400	0.460400
C891	C89	0.481530	0.813900	0.582900
H291	H29	0.467300	0.735800	0.588100
C901	C90	0.521800	0.808200	0.584500
H301	H30	0.534900	0.763100	0.625400
Mg71	Mg7	0.225810	0.062130	0.736810
Mg81	Mg8	0.303570	0.282650	0.776170
O371	O37	0.249220	0.366500	0.755150
O381	O38	0.304060	0.794500	0.170400
O391	O39	0.396310	0.803600	0.920000
O401	O40	0.398110	0.164100	0.072700
O411	O41	0.280020	0.099500	0.807100
O421	O42	0.228400	0.034700	0.860270
O431	O43	0.249740	0.915100	0.140060
O441	O44	0.197650	0.234500	0.730420
O451	O45	0.177090	0.941000	0.702710
O461	O46	0.233970	0.850100	0.735260
O471	O47	0.061880	0.566800	0.714200
O481	O48	0.122270	0.510100	0.503200
N71	N7	0.091050	0.541100	0.607850
N81	N8	0.397820	0.984900	0.996300
C911	C91	0.275370	0.968200	0.995900
H311	H31	0.248300	0.966000	0.996600
C921	C92	0.143820	0.686000	0.664600
H321	H32	0.128700	0.759800	0.648600
C931	C93	0.264410	0.054500	0.863800
C941	C94	0.188510	0.464500	0.710800
C951	C95	0.198320	0.840700	0.713500
C961	C96	0.214310	0.347000	0.734600
C971	C97	0.339950	0.924800	0.058300
H331	H33	0.356500	0.891400	0.098900
C981	C98	0.479240	0.996700	0.999500
C991	C99	0.354700	0.977000	0.996500
C1001	C100	0.020020	0.532600	0.598700
C1011	C101	0.203740	0.593500	0.722600
H341	H34	0.229300	0.605200	0.745100
C1021	C102	0.091320	0.516400	0.531200
C1031	C103	0.018630	0.506900	0.522400
C1041	C104	0.129090	0.558100	0.652000
C1051	C105	0.458770	0.897500	0.955900
C1061	C106	0.181160	0.702200	0.701100
C1071	C107	0.290850	0.016600	0.932400
C1081	C108	0.299750	0.922500	0.059100
C1091	C109	0.151290	0.449200	0.675200
H351	H35	0.141000	0.364200	0.666800
C1101	C110	0.282650	0.873300	0.129100
C1111	C111	0.415330	0.889900	0.953900
C1121	C112	0.331270	0.019800	0.933300
H361	H36	0.341100	0.048500	0.896600
C1131	C113	0.985340	0.535900	0.634100
H371	H37	0.989800	0.545900	0.687500
C1141	C114	0.050300	0.477600	0.409100
H381	H38	0.073200	0.470300	0.385800
C1151	C115	0.052810	0.501700	0.485800
C1161	C116	0.058270	0.545000	0.646400
C1171	C117	0.416570	0.086500	0.039700
C1181	C118	0.460350	0.090400	0.039600
C1191	C119	0.518470	0.813900	0.917100
H391	H39	0.532700	0.735800	0.911900
C1201	C120	0.478200	0.808200	0.915500
H401	H40	0.465100	0.763100	0.874600
