data_CORZIU_clean_PM
_symmetry_space_group_name_H-M	'P1'
_cell_length_a	24.681000
_cell_length_b	24.681000
_cell_length_c	10.819000
_cell_angle_alpha	90.000000
_cell_angle_beta	90.000000
_cell_angle_gamma	90.000000
_symmetry_Int_Tables_number 1

loop_
_symmetry_equiv_pos_as_xyz
'x,y,z'

loop_
_atom_site_label
_atom_site_type_symbol
_atom_site_fract_x
_atom_site_fract_y
_atom_site_fract_z
In11	In1	0.380160	0.789800	0.355560
O11	O1	0.599100	0.860400	0.321700
O21	O2	0.627400	0.863300	0.126700
O31	O3	0.191400	0.728200	0.111400
O41	O4	0.200900	0.728900	0.908000
N11	N1	0.448000	0.807700	0.217500
N21	N2	0.348400	0.776500	0.161900
C11	C1	0.497600	0.823500	0.250400
H11	H1	0.505400	0.825900	0.334300
C21	C2	0.537900	0.836600	0.167800
C31	C3	0.525400	0.832200	0.044400
H21	H2	0.550900	0.838800	0.983000
C41	C4	0.471300	0.816900	0.015800
H31	H3	0.461200	0.814700	0.933200
C51	C5	0.435900	0.805900	0.098600
C61	C6	0.379700	0.787000	0.063800
C71	C7	0.359700	0.779800	0.950800
H41	H4	0.383200	0.786300	0.885200
C81	C8	0.310400	0.764700	0.922100
H51	H5	0.298700	0.761400	0.840700
C91	C9	0.276000	0.753800	0.024700
C101	C10	0.298500	0.759400	0.143400
H61	H6	0.277300	0.750600	0.211600
C111	C11	0.591600	0.853200	0.207800
C121	C12	0.218400	0.735200	0.016300
In21	In2	0.880160	0.289800	0.855560
O51	O5	0.099100	0.360400	0.821700
O61	O6	0.127400	0.363300	0.626700
O71	O7	0.691400	0.228200	0.611400
O81	O8	0.700900	0.228900	0.408000
N31	N3	0.948000	0.307700	0.717500
N41	N4	0.848400	0.276500	0.661900
C131	C13	0.997600	0.323500	0.750400
H71	H7	0.005400	0.325900	0.834300
C141	C14	0.037900	0.336600	0.667800
C151	C15	0.025400	0.332200	0.544400
H81	H8	0.050900	0.338800	0.483000
C161	C16	0.971300	0.316900	0.515800
H91	H9	0.961200	0.314700	0.433200
C171	C17	0.935900	0.305900	0.598600
C181	C18	0.879700	0.287000	0.563800
C191	C19	0.859700	0.279800	0.450800
H101	H10	0.883200	0.286300	0.385200
C201	C20	0.810400	0.264700	0.422100
H111	H11	0.798700	0.261400	0.340700
C211	C21	0.776000	0.253800	0.524700
C221	C22	0.798500	0.259400	0.643400
H121	H12	0.777300	0.250600	0.711600
C231	C23	0.091600	0.353200	0.707800
C241	C24	0.718400	0.235200	0.516300
In31	In3	0.619840	0.210200	0.355560
O91	O9	0.400900	0.139600	0.321700
O101	O10	0.372600	0.136700	0.126700
O111	O11	0.808600	0.271800	0.111400
O121	O12	0.799100	0.271100	0.908000
N51	N5	0.552000	0.192300	0.217500
N61	N6	0.651600	0.223500	0.161900
C251	C25	0.502400	0.176500	0.250400
H131	H13	0.494600	0.174100	0.334300
C261	C26	0.462100	0.163400	0.167800
C271	C27	0.474600	0.167800	0.044400
H141	H14	0.449100	0.161200	0.983000
C281	C28	0.528700	0.183100	0.015800
H151	H15	0.538800	0.185300	0.933200
C291	C29	0.564100	0.194100	0.098600
C301	C30	0.620300	0.213000	0.063800
C311	C31	0.640300	0.220200	0.950800
H161	H16	0.616800	0.213700	0.885200
C321	C32	0.689600	0.235300	0.922100
H171	H17	0.701300	0.238600	0.840700
C331	C33	0.724000	0.246200	0.024700
C341	C34	0.701500	0.240600	0.143400
H181	H18	0.722700	0.249400	0.211600
C351	C35	0.408400	0.146800	0.207800
C361	C36	0.781600	0.264800	0.016300
In41	In4	0.119840	0.710200	0.855560
O131	O13	0.900900	0.639600	0.821700
O141	O14	0.872600	0.636700	0.626700
O151	O15	0.308600	0.771800	0.611400
O161	O16	0.299100	0.771100	0.408000
N71	N7	0.052000	0.692300	0.717500
N81	N8	0.151600	0.723500	0.661900
C371	C37	0.002400	0.676500	0.750400
H191	H19	0.994600	0.674100	0.834300
C381	C38	0.962100	0.663400	0.667800
C391	C39	0.974600	0.667800	0.544400
H201	H20	0.949100	0.661200	0.483000
C401	C40	0.028700	0.683100	0.515800
H211	H21	0.038800	0.685300	0.433200
C411	C41	0.064100	0.694100	0.598600
C421	C42	0.120300	0.713000	0.563800
C431	C43	0.140300	0.720200	0.450800
H221	H22	0.116800	0.713700	0.385200
C441	C44	0.189600	0.735300	0.422100
H231	H23	0.201300	0.738600	0.340700
C451	C45	0.224000	0.746200	0.524700
C461	C46	0.201500	0.740600	0.643400
H241	H24	0.222700	0.749400	0.711600
C471	C47	0.908400	0.646800	0.707800
C481	C48	0.281600	0.764800	0.516300
In51	In5	0.789800	0.619840	0.644440
O171	O17	0.860400	0.400900	0.678300
O181	O18	0.863300	0.372600	0.873300
O191	O19	0.728200	0.808600	0.888600
O201	O20	0.728900	0.799100	0.092000
N91	N9	0.807700	0.552000	0.782500
N101	N10	0.776500	0.651600	0.838100
C491	C49	0.823500	0.502400	0.749600
H251	H25	0.825900	0.494600	0.665700
C501	C50	0.836600	0.462100	0.832200
C511	C51	0.832200	0.474600	0.955600
H261	H26	0.838800	0.449100	0.017000
C521	C52	0.816900	0.528700	0.984200
H271	H27	0.814700	0.538800	0.066800
C531	C53	0.805900	0.564100	0.901400
C541	C54	0.787000	0.620300	0.936200
C551	C55	0.779800	0.640300	0.049200
H281	H28	0.786300	0.616800	0.114800
C561	C56	0.764700	0.689600	0.077900
H291	H29	0.761400	0.701300	0.159300
C571	C57	0.753800	0.724000	0.975300
C581	C58	0.759400	0.701500	0.856600
H301	H30	0.750600	0.722700	0.788400
C591	C59	0.853200	0.408400	0.792200
C601	C60	0.735200	0.781600	0.983700
In61	In6	0.289800	0.119840	0.144440
O211	O21	0.360400	0.900900	0.178300
O221	O22	0.363300	0.872600	0.373300
O231	O23	0.228200	0.308600	0.388600
O241	O24	0.228900	0.299100	0.592000
N111	N11	0.307700	0.052000	0.282500
N121	N12	0.276500	0.151600	0.338100
C611	C61	0.323500	0.002400	0.249600
H311	H31	0.325900	0.994600	0.165700
C621	C62	0.336600	0.962100	0.332200
C631	C63	0.332200	0.974600	0.455600
H321	H32	0.338800	0.949100	0.517000
C641	C64	0.316900	0.028700	0.484200
H331	H33	0.314700	0.038800	0.566800
C651	C65	0.305900	0.064100	0.401400
C661	C66	0.287000	0.120300	0.436200
C671	C67	0.279800	0.140300	0.549200
H341	H34	0.286300	0.116800	0.614800
C681	C68	0.264700	0.189600	0.577900
H351	H35	0.261400	0.201300	0.659300
C691	C69	0.253800	0.224000	0.475300
C701	C70	0.259400	0.201500	0.356600
H361	H36	0.250600	0.222700	0.288400
C711	C71	0.353200	0.908400	0.292200
C721	C72	0.235200	0.281600	0.483700
In71	In7	0.210200	0.380160	0.644440
O251	O25	0.139600	0.599100	0.678300
O261	O26	0.136700	0.627400	0.873300
O271	O27	0.271800	0.191400	0.888600
O281	O28	0.271100	0.200900	0.092000
N131	N13	0.192300	0.448000	0.782500
N141	N14	0.223500	0.348400	0.838100
C731	C73	0.176500	0.497600	0.749600
H371	H37	0.174100	0.505400	0.665700
C741	C74	0.163400	0.537900	0.832200
C751	C75	0.167800	0.525400	0.955600
H381	H38	0.161200	0.550900	0.017000
C761	C76	0.183100	0.471300	0.984200
H391	H39	0.185300	0.461200	0.066800
C771	C77	0.194100	0.435900	0.901400
C781	C78	0.213000	0.379700	0.936200
C791	C79	0.220200	0.359700	0.049200
H401	H40	0.213700	0.383200	0.114800
C801	C80	0.235300	0.310400	0.077900
H411	H41	0.238600	0.298700	0.159300
C811	C81	0.246200	0.276000	0.975300
C821	C82	0.240600	0.298500	0.856600
H421	H42	0.249400	0.277300	0.788400
C831	C83	0.146800	0.591600	0.792200
C841	C84	0.264800	0.218400	0.983700
In81	In8	0.710200	0.880160	0.144440
O291	O29	0.639600	0.099100	0.178300
O301	O30	0.636700	0.127400	0.373300
O311	O31	0.771800	0.691400	0.388600
O321	O32	0.771100	0.700900	0.592000
N151	N15	0.692300	0.948000	0.282500
N161	N16	0.723500	0.848400	0.338100
C851	C85	0.676500	0.997600	0.249600
H431	H43	0.674100	0.005400	0.165700
C861	C86	0.663400	0.037900	0.332200
C871	C87	0.667800	0.025400	0.455600
H441	H44	0.661200	0.050900	0.517000
C881	C88	0.683100	0.971300	0.484200
H451	H45	0.685300	0.961200	0.566800
C891	C89	0.694100	0.935900	0.401400
C901	C90	0.713000	0.879700	0.436200
C911	C91	0.720200	0.859700	0.549200
H461	H46	0.713700	0.883200	0.614800
C921	C92	0.735300	0.810400	0.577900
H471	H47	0.738600	0.798700	0.659300
C931	C93	0.746200	0.776000	0.475300
C941	C94	0.740600	0.798500	0.356600
H481	H48	0.749400	0.777300	0.288400
C951	C95	0.646800	0.091600	0.292200
C961	C96	0.764800	0.718400	0.483700
