data_COTXOA_clean_PM
_symmetry_space_group_name_H-M	'P1'
_cell_length_a	15.908200
_cell_length_b	15.908200
_cell_length_c	21.618400
_cell_angle_alpha	90.000000
_cell_angle_beta	90.000000
_cell_angle_gamma	90.000000
_symmetry_Int_Tables_number 1

loop_
_symmetry_equiv_pos_as_xyz
'x,y,z'

loop_
_atom_site_label
_atom_site_type_symbol
_atom_site_fract_x
_atom_site_fract_y
_atom_site_fract_z
C11	C1	0.913400	0.859400	0.358800
H11	H1	0.962300	0.888000	0.348100
C21	C2	0.884500	0.797800	0.318900
H21	H2	0.914000	0.785700	0.282800
C31	C3	0.810800	0.753700	0.332800
C41	C4	0.768100	0.780900	0.385600
H31	H3	0.716500	0.757200	0.395600
C51	C5	0.801300	0.842000	0.422800
H41	H4	0.771200	0.858100	0.457700
C61	C6	0.780000	0.681500	0.295900
C71	C7	0.809500	0.665100	0.236500
H51	H5	0.849700	0.700400	0.219000
C81	C8	0.779900	0.597300	0.203200
H61	H6	0.799700	0.588000	0.163300
C91	C9	0.720900	0.542800	0.228500
H71	H7	0.702200	0.496400	0.206300
C101	C10	0.690200	0.558800	0.287790
C111	C11	0.719800	0.626900	0.320520
H81	H8	0.699300	0.636800	0.360100
C121	C12	0.627200	0.503300	0.318570
C131	C13	0.576700	0.408300	0.381050
C141	C14	0.568700	0.338900	0.425550
C151	C15	0.497000	0.337000	0.463000
H91	H9	0.456700	0.379000	0.459500
C161	C16	0.486200	0.273200	0.505100
H101	H10	0.438800	0.272900	0.530400
C171	C17	0.545000	0.208900	0.510600
H111	H11	0.537300	0.166500	0.539600
C181	C18	0.616700	0.208400	0.471700
C191	C19	0.627100	0.273200	0.429600
H121	H12	0.673600	0.273200	0.403600
C201	C20	0.681300	0.142700	0.477900
C211	C21	0.690900	0.095000	0.531800
H131	H13	0.653500	0.101700	0.564400
C221	C22	0.756400	0.037600	0.536400
H141	H14	0.761100	0.006600	0.572700
C231	C23	0.802700	0.067000	0.439400
H151	H15	0.840400	0.057500	0.407200
C241	C24	0.738900	0.124800	0.430300
H161	H16	0.734100	0.152200	0.392500
N11	N1	0.875600	0.880200	0.411470
N21	N2	0.545600	0.507700	0.316120
N31	N3	0.512700	0.446800	0.355550
N41	N4	0.649300	0.442200	0.358650
N51	N5	0.731600	0.421400	0.378300
H171	H17	0.776000	0.453300	0.377000
H181	H18	0.758100	0.391300	0.349900
N61	N6	0.813000	0.024100	0.492020
C251	C25	0.086600	0.140600	0.858800
H191	H19	0.037700	0.112000	0.848100
C261	C26	0.115500	0.202200	0.818900
H201	H20	0.086000	0.214300	0.782800
C271	C27	0.189200	0.246300	0.832800
C281	C28	0.231900	0.219100	0.885600
H211	H21	0.283500	0.242800	0.895600
C291	C29	0.198700	0.158000	0.922800
H221	H22	0.228800	0.141900	0.957700
C301	C30	0.220000	0.318500	0.795900
C311	C31	0.190500	0.334900	0.736500
H231	H23	0.150300	0.299600	0.719000
C321	C32	0.220100	0.402700	0.703200
H241	H24	0.200300	0.412000	0.663300
C331	C33	0.279100	0.457200	0.728500
H251	H25	0.297800	0.503600	0.706300
C341	C34	0.309800	0.441200	0.787790
C351	C35	0.280200	0.373100	0.820520
H261	H26	0.300700	0.363200	0.860100
C361	C36	0.372800	0.496700	0.818570
C371	C37	0.423300	0.591700	0.881050
C381	C38	0.431300	0.661100	0.925550
C391	C39	0.503000	0.663000	0.963000
H271	H27	0.543300	0.621000	0.959500
C401	C40	0.513800	0.726800	0.005100
H281	H28	0.561200	0.727100	0.030400
C411	C41	0.455000	0.791100	0.010600
H291	H29	0.462700	0.833500	0.039600
C421	C42	0.383300	0.791600	0.971700
C431	C43	0.372900	0.726800	0.929600
H301	H30	0.326400	0.726800	0.903600
C441	C44	0.318700	0.857300	0.977900
C451	C45	0.309100	0.905000	0.031800
H311	H31	0.346500	0.898300	0.064400
C461	C46	0.243600	0.962400	0.036400
H321	H32	0.238900	0.993400	0.072700
C471	C47	0.197300	0.933000	0.939400
H331	H33	0.159600	0.942500	0.907200
C481	C48	0.261100	0.875200	0.930300
H341	H34	0.265900	0.847800	0.892500
N71	N7	0.124400	0.119800	0.911470
N81	N8	0.454400	0.492300	0.816120
N91	N9	0.487300	0.553200	0.855550
N101	N10	0.350700	0.557800	0.858650
N111	N11	0.268400	0.578600	0.878300
H351	H35	0.224000	0.546700	0.877000
H361	H36	0.241900	0.608700	0.849900
N121	N12	0.187000	0.975900	0.992020
C491	C49	0.640600	0.413400	0.608800
H371	H37	0.612000	0.462300	0.598100
C501	C50	0.702200	0.384500	0.568900
H381	H38	0.714300	0.414000	0.532800
C511	C51	0.746300	0.310800	0.582800
C521	C52	0.719100	0.268100	0.635600
H391	H39	0.742800	0.216500	0.645600
C531	C53	0.658000	0.301300	0.672800
H401	H40	0.641900	0.271200	0.707700
C541	C54	0.818500	0.280000	0.545900
C551	C55	0.834900	0.309500	0.486500
H411	H41	0.799600	0.349700	0.469000
C561	C56	0.902700	0.279900	0.453200
H421	H42	0.912000	0.299700	0.413300
C571	C57	0.957200	0.220900	0.478500
H431	H43	0.003600	0.202200	0.456300
C581	C58	0.941200	0.190200	0.537790
C591	C59	0.873100	0.219800	0.570520
H441	H44	0.863200	0.199300	0.610100
C601	C60	0.996700	0.127200	0.568570
C611	C61	0.091700	0.076700	0.631050
C621	C62	0.161100	0.068700	0.675550
C631	C63	0.163000	0.997000	0.713000
H451	H45	0.121000	0.956700	0.709500
C641	C64	0.226800	0.986200	0.755100
H461	H46	0.227100	0.938800	0.780400
C651	C65	0.291100	0.045000	0.760600
H471	H47	0.333500	0.037300	0.789600
C661	C66	0.291600	0.116700	0.721700
C671	C67	0.226800	0.127100	0.679600
H481	H48	0.226800	0.173600	0.653600
C681	C68	0.357300	0.181300	0.727900
C691	C69	0.405000	0.190900	0.781800
H491	H49	0.398300	0.153500	0.814400
C701	C70	0.462400	0.256400	0.786400
H501	H50	0.493400	0.261100	0.822700
C711	C71	0.433000	0.302700	0.689400
H511	H51	0.442500	0.340400	0.657200
C721	C72	0.375200	0.238900	0.680300
H521	H52	0.347800	0.234100	0.642500
N131	N13	0.619800	0.375600	0.661470
N141	N14	0.992300	0.045600	0.566120
N151	N15	0.053200	0.012700	0.605550
N161	N16	0.057800	0.149300	0.608650
N171	N17	0.078600	0.231600	0.628300
H531	H53	0.046700	0.276000	0.627000
H541	H54	0.108700	0.258100	0.599900
N181	N18	0.475900	0.313000	0.742020
C731	C73	0.359400	0.586600	0.108800
H551	H55	0.388000	0.537700	0.098100
C741	C74	0.297800	0.615500	0.068900
H561	H56	0.285700	0.586000	0.032800
C751	C75	0.253700	0.689200	0.082800
C761	C76	0.280900	0.731900	0.135600
H571	H57	0.257200	0.783500	0.145600
C771	C77	0.342000	0.698700	0.172800
H581	H58	0.358100	0.728800	0.207700
C781	C78	0.181500	0.720000	0.045900
C791	C79	0.165100	0.690500	0.986500
H591	H59	0.200400	0.650300	0.969000
C801	C80	0.097300	0.720100	0.953200
H601	H60	0.088000	0.700300	0.913300
C811	C81	0.042800	0.779100	0.978500
H611	H61	0.996400	0.797800	0.956300
C821	C82	0.058800	0.809800	0.037790
C831	C83	0.126900	0.780200	0.070520
H621	H62	0.136800	0.800700	0.110100
C841	C84	0.003300	0.872800	0.068570
C851	C85	0.908300	0.923300	0.131050
C861	C86	0.838900	0.931300	0.175550
C871	C87	0.837000	0.003000	0.213000
H631	H63	0.879000	0.043300	0.209500
C881	C88	0.773200	0.013800	0.255100
H641	H64	0.772900	0.061200	0.280400
C891	C89	0.708900	0.955000	0.260600
H651	H65	0.666500	0.962700	0.289600
C901	C90	0.708400	0.883300	0.221700
C911	C91	0.773200	0.872900	0.179600
H661	H66	0.773200	0.826400	0.153600
C921	C92	0.642700	0.818700	0.227900
C931	C93	0.595000	0.809100	0.281800
H671	H67	0.601700	0.846500	0.314400
C941	C94	0.537600	0.743600	0.286400
H681	H68	0.506600	0.738900	0.322700
C951	C95	0.567000	0.697300	0.189400
H691	H69	0.557500	0.659600	0.157200
C961	C96	0.624800	0.761100	0.180300
H701	H70	0.652200	0.765900	0.142500
N191	N19	0.380200	0.624400	0.161470
N201	N20	0.007700	0.954400	0.066120
N211	N21	0.946800	0.987300	0.105550
N221	N22	0.942200	0.850700	0.108650
N231	N23	0.921400	0.768400	0.128300
H711	H71	0.953300	0.724000	0.127000
H721	H72	0.891300	0.741900	0.099900
N241	N24	0.524100	0.687000	0.242020
C971	C97	0.586600	0.359400	0.891200
H731	H73	0.537700	0.388000	0.901900
C981	C98	0.615500	0.297800	0.931100
H741	H74	0.586000	0.285700	0.967200
C991	C99	0.689200	0.253700	0.917200
C1001	C100	0.731900	0.280900	0.864400
H751	H75	0.783500	0.257200	0.854400
C1011	C101	0.698700	0.342000	0.827200
H761	H76	0.728800	0.358100	0.792300
C1021	C102	0.720000	0.181500	0.954100
C1031	C103	0.690500	0.165100	0.013500
H771	H77	0.650300	0.200400	0.031000
C1041	C104	0.720100	0.097300	0.046800
H781	H78	0.700300	0.088000	0.086700
C1051	C105	0.779100	0.042800	0.021500
H791	H79	0.797800	0.996400	0.043700
C1061	C106	0.809800	0.058800	0.962210
C1071	C107	0.780200	0.126900	0.929480
H801	H80	0.800700	0.136800	0.889900
C1081	C108	0.872800	0.003300	0.931430
C1091	C109	0.923300	0.908300	0.868950
C1101	C110	0.931300	0.838900	0.824450
C1111	C111	0.003000	0.837000	0.787000
H811	H81	0.043300	0.879000	0.790500
C1121	C112	0.013800	0.773200	0.744900
H821	H82	0.061200	0.772900	0.719600
C1131	C113	0.955000	0.708900	0.739400
H831	H83	0.962700	0.666500	0.710400
C1141	C114	0.883300	0.708400	0.778300
C1151	C115	0.872900	0.773200	0.820400
H841	H84	0.826400	0.773200	0.846400
C1161	C116	0.818700	0.642700	0.772100
C1171	C117	0.809100	0.595000	0.718200
H851	H85	0.846500	0.601700	0.685600
C1181	C118	0.743600	0.537600	0.713600
H861	H86	0.738900	0.506600	0.677300
C1191	C119	0.697300	0.567000	0.810600
H871	H87	0.659600	0.557500	0.842800
C1201	C120	0.761100	0.624800	0.819700
H881	H88	0.765900	0.652200	0.857500
N251	N25	0.624400	0.380200	0.838530
N261	N26	0.954400	0.007700	0.933880
N271	N27	0.987300	0.946800	0.894450
N281	N28	0.850700	0.942200	0.891350
N291	N29	0.768400	0.921400	0.871700
H891	H89	0.724000	0.953300	0.873000
H901	H90	0.741900	0.891300	0.900100
N301	N30	0.687000	0.524100	0.757980
C1211	C121	0.413400	0.640600	0.391200
H911	H91	0.462300	0.612000	0.401900
C1221	C122	0.384500	0.702200	0.431100
H921	H92	0.414000	0.714300	0.467200
C1231	C123	0.310800	0.746300	0.417200
C1241	C124	0.268100	0.719100	0.364400
H931	H93	0.216500	0.742800	0.354400
C1251	C125	0.301300	0.658000	0.327200
H941	H94	0.271200	0.641900	0.292300
C1261	C126	0.280000	0.818500	0.454100
C1271	C127	0.309500	0.834900	0.513500
H951	H95	0.349700	0.799600	0.531000
C1281	C128	0.279900	0.902700	0.546800
H961	H96	0.299700	0.912000	0.586700
C1291	C129	0.220900	0.957200	0.521500
H971	H97	0.202200	0.003600	0.543700
C1301	C130	0.190200	0.941200	0.462210
C1311	C131	0.219800	0.873100	0.429480
H981	H98	0.199300	0.863200	0.389900
C1321	C132	0.127200	0.996700	0.431430
C1331	C133	0.076700	0.091700	0.368950
C1341	C134	0.068700	0.161100	0.324450
C1351	C135	0.997000	0.163000	0.287000
H991	H99	0.956700	0.121000	0.290500
C1361	C136	0.986200	0.226800	0.244900
H1001	H100	0.938800	0.227100	0.219600
C1371	C137	0.045000	0.291100	0.239400
H1011	H101	0.037300	0.333500	0.210400
C1381	C138	0.116700	0.291600	0.278300
C1391	C139	0.127100	0.226800	0.320400
H1021	H102	0.173600	0.226800	0.346400
C1401	C140	0.181300	0.357300	0.272100
C1411	C141	0.190900	0.405000	0.218200
H1031	H103	0.153500	0.398300	0.185600
C1421	C142	0.256400	0.462400	0.213600
H1041	H104	0.261100	0.493400	0.177300
C1431	C143	0.302700	0.433000	0.310600
H1051	H105	0.340400	0.442500	0.342800
C1441	C144	0.238900	0.375200	0.319700
H1061	H106	0.234100	0.347800	0.357500
N311	N31	0.375600	0.619800	0.338530
N321	N32	0.045600	0.992300	0.433880
N331	N33	0.012700	0.053200	0.394450
N341	N34	0.149300	0.057800	0.391350
N351	N35	0.231600	0.078600	0.371700
H1071	H107	0.276000	0.046700	0.373000
H1081	H108	0.258100	0.108700	0.400100
N361	N36	0.313000	0.475900	0.257980
C1451	C145	0.859400	0.913400	0.641200
H1091	H109	0.888000	0.962300	0.651900
C1461	C146	0.797800	0.884500	0.681100
H1101	H110	0.785700	0.914000	0.717200
C1471	C147	0.753700	0.810800	0.667200
C1481	C148	0.780900	0.768100	0.614400
H1111	H111	0.757200	0.716500	0.604400
C1491	C149	0.842000	0.801300	0.577200
H1121	H112	0.858100	0.771200	0.542300
C1501	C150	0.681500	0.780000	0.704100
C1511	C151	0.665100	0.809500	0.763500
H1131	H113	0.700400	0.849700	0.781000
C1521	C152	0.597300	0.779900	0.796800
H1141	H114	0.588000	0.799700	0.836700
C1531	C153	0.542800	0.720900	0.771500
H1151	H115	0.496400	0.702200	0.793700
C1541	C154	0.558800	0.690200	0.712210
C1551	C155	0.626900	0.719800	0.679480
H1161	H116	0.636800	0.699300	0.639900
C1561	C156	0.503300	0.627200	0.681430
C1571	C157	0.408300	0.576700	0.618950
C1581	C158	0.338900	0.568700	0.574450
C1591	C159	0.337000	0.497000	0.537000
H1171	H117	0.379000	0.456700	0.540500
C1601	C160	0.273200	0.486200	0.494900
H1181	H118	0.272900	0.438800	0.469600
C1611	C161	0.208900	0.545000	0.489400
H1191	H119	0.166500	0.537300	0.460400
C1621	C162	0.208400	0.616700	0.528300
C1631	C163	0.273200	0.627100	0.570400
H1201	H120	0.273200	0.673600	0.596400
C1641	C164	0.142700	0.681300	0.522100
C1651	C165	0.095000	0.690900	0.468200
H1211	H121	0.101700	0.653500	0.435600
C1661	C166	0.037600	0.756400	0.463600
H1221	H122	0.006600	0.761100	0.427300
C1671	C167	0.067000	0.802700	0.560600
H1231	H123	0.057500	0.840400	0.592800
C1681	C168	0.124800	0.738900	0.569700
H1241	H124	0.152200	0.734100	0.607500
N371	N37	0.880200	0.875600	0.588530
N381	N38	0.507700	0.545600	0.683880
N391	N39	0.446800	0.512700	0.644450
N401	N40	0.442200	0.649300	0.641350
N411	N41	0.421400	0.731600	0.621700
H1251	H125	0.453300	0.776000	0.623000
H1261	H126	0.391300	0.758100	0.650100
N421	N42	0.024100	0.813000	0.507980
C1691	C169	0.140600	0.086600	0.141200
H1271	H127	0.112000	0.037700	0.151900
C1701	C170	0.202200	0.115500	0.181100
H1281	H128	0.214300	0.086000	0.217200
C1711	C171	0.246300	0.189200	0.167200
C1721	C172	0.219100	0.231900	0.114400
H1291	H129	0.242800	0.283500	0.104400
C1731	C173	0.158000	0.198700	0.077200
H1301	H130	0.141900	0.228800	0.042300
C1741	C174	0.318500	0.220000	0.204100
C1751	C175	0.334900	0.190500	0.263500
H1311	H131	0.299600	0.150300	0.281000
C1761	C176	0.402700	0.220100	0.296800
H1321	H132	0.412000	0.200300	0.336700
C1771	C177	0.457200	0.279100	0.271500
H1331	H133	0.503600	0.297800	0.293700
C1781	C178	0.441200	0.309800	0.212210
C1791	C179	0.373100	0.280200	0.179480
H1341	H134	0.363200	0.300700	0.139900
C1801	C180	0.496700	0.372800	0.181430
C1811	C181	0.591700	0.423300	0.118950
C1821	C182	0.661100	0.431300	0.074450
C1831	C183	0.663000	0.503000	0.037000
H1351	H135	0.621000	0.543300	0.040500
C1841	C184	0.726800	0.513800	0.994900
H1361	H136	0.727100	0.561200	0.969600
C1851	C185	0.791100	0.455000	0.989400
H1371	H137	0.833500	0.462700	0.960400
C1861	C186	0.791600	0.383300	0.028300
C1871	C187	0.726800	0.372900	0.070400
H1381	H138	0.726800	0.326400	0.096400
C1881	C188	0.857300	0.318700	0.022100
C1891	C189	0.905000	0.309100	0.968200
H1391	H139	0.898300	0.346500	0.935600
C1901	C190	0.962400	0.243600	0.963600
H1401	H140	0.993400	0.238900	0.927300
C1911	C191	0.933000	0.197300	0.060600
H1411	H141	0.942500	0.159600	0.092800
C1921	C192	0.875200	0.261100	0.069700
H1421	H142	0.847800	0.265900	0.107500
N431	N43	0.119800	0.124400	0.088530
N441	N44	0.492300	0.454400	0.183880
N451	N45	0.553200	0.487300	0.144450
N461	N46	0.557800	0.350700	0.141350
N471	N47	0.578600	0.268400	0.121700
H1431	H143	0.546700	0.224000	0.123000
H1441	H144	0.608700	0.241900	0.150100
N481	N48	0.975900	0.187000	0.007980
Cd11	Cd1	0.441150	0.558850	0.250000
Cd21	Cd2	0.558850	0.441150	0.750000
Cd31	Cd3	0.941150	0.941150	0.500000
Cd41	Cd4	0.058850	0.058850	0.000000
