data_COVJAA_clean_PM
_symmetry_space_group_name_H-M	'P1'
_cell_length_a	15.197300
_cell_length_b	15.197300
_cell_length_c	22.152900
_cell_angle_alpha	90.000000
_cell_angle_beta	90.000000
_cell_angle_gamma	90.000000
_symmetry_Int_Tables_number 1

loop_
_symmetry_equiv_pos_as_xyz
'x,y,z'

loop_
_atom_site_label
_atom_site_type_symbol
_atom_site_fract_x
_atom_site_fract_y
_atom_site_fract_z
Ni11	Ni1	0.960960	0.013410	0.057850
N11	N1	0.880000	0.965800	0.284600
C11	C1	0.834300	0.032500	0.306400
H11	H1	0.818300	0.028800	0.346800
N21	N2	0.807900	0.106000	0.276300
C21	C2	0.836800	0.107000	0.217900
C31	C3	0.883400	0.037300	0.190000
C41	C4	0.904800	0.965600	0.225500
N31	N3	0.950100	0.896300	0.204600
H21	H2	0.962800	0.853400	0.228300
H31	H3	0.966400	0.894800	0.167400
N41	N4	0.901100	0.063900	0.132000
C51	C5	0.866800	0.143000	0.128800
H41	H4	0.869200	0.176400	0.093700
N51	N5	0.828300	0.172900	0.179100
O11	O1	0.923500	0.109800	0.999900
O21	O2	0.983200	0.098200	0.910800
C61	C6	0.933000	0.133400	0.946900
C71	C7	0.876600	0.207300	0.923400
H51	H5	0.913300	0.250500	0.903200
H61	H6	0.847000	0.236100	0.956700
C81	C8	0.803900	0.168900	0.876000
H71	H7	0.828700	0.125200	0.849000
H81	H8	0.776000	0.215200	0.852800
Ni21	Ni2	0.460960	0.513410	0.557850
N61	N6	0.380000	0.465800	0.784600
C91	C9	0.334300	0.532500	0.806400
H91	H9	0.318300	0.528800	0.846800
N71	N7	0.307900	0.606000	0.776300
C101	C10	0.336800	0.607000	0.717900
C111	C11	0.383400	0.537300	0.690000
C121	C12	0.404800	0.465600	0.725500
N81	N8	0.450100	0.396300	0.704600
H101	H10	0.462800	0.353400	0.728300
H111	H11	0.466400	0.394800	0.667400
N91	N9	0.401100	0.563900	0.632000
C131	C13	0.366800	0.643000	0.628800
H121	H12	0.369200	0.676400	0.593700
N101	N10	0.328300	0.672900	0.679100
O31	O3	0.423500	0.609800	0.499900
O41	O4	0.483200	0.598200	0.410800
C141	C14	0.433000	0.633400	0.446900
C151	C15	0.376600	0.707300	0.423400
H131	H13	0.413300	0.750500	0.403200
H141	H14	0.347000	0.736100	0.456700
C161	C16	0.303900	0.668900	0.376000
H151	H15	0.328700	0.625200	0.349000
H161	H16	0.276000	0.715200	0.352800
Ni31	Ni3	0.539040	0.986590	0.557850
N111	N11	0.620000	0.034200	0.784600
C171	C17	0.665700	0.967500	0.806400
H171	H17	0.681700	0.971200	0.846800
N121	N12	0.692100	0.894000	0.776300
C181	C18	0.663200	0.893000	0.717900
C191	C19	0.616600	0.962700	0.690000
C201	C20	0.595200	0.034400	0.725500
N131	N13	0.549900	0.103700	0.704600
H181	H18	0.537200	0.146600	0.728300
H191	H19	0.533600	0.105200	0.667400
N141	N14	0.598900	0.936100	0.632000
C211	C21	0.633200	0.857000	0.628800
H201	H20	0.630800	0.823600	0.593700
N151	N15	0.671700	0.827100	0.679100
O51	O5	0.576500	0.890200	0.499900
O61	O6	0.516800	0.901800	0.410800
C221	C22	0.567000	0.866600	0.446900
C231	C23	0.623400	0.792700	0.423400
H211	H21	0.586700	0.749500	0.403200
H221	H22	0.653000	0.763900	0.456700
C241	C24	0.696100	0.831100	0.376000
H231	H23	0.671300	0.874800	0.349000
H241	H24	0.724000	0.784800	0.352800
Ni41	Ni4	0.039040	0.486590	0.057850
N161	N16	0.120000	0.534200	0.284600
C251	C25	0.165700	0.467500	0.306400
H251	H25	0.181700	0.471200	0.346800
N171	N17	0.192100	0.394000	0.276300
C261	C26	0.163200	0.393000	0.217900
C271	C27	0.116600	0.462700	0.190000
C281	C28	0.095200	0.534400	0.225500
N181	N18	0.049900	0.603700	0.204600
H261	H26	0.037200	0.646600	0.228300
H271	H27	0.033600	0.605200	0.167400
N191	N19	0.098900	0.436100	0.132000
C291	C29	0.133200	0.357000	0.128800
H281	H28	0.130800	0.323600	0.093700
N201	N20	0.171700	0.327100	0.179100
O71	O7	0.076500	0.390200	0.999900
O81	O8	0.016800	0.401800	0.910800
C301	C30	0.067000	0.366600	0.946900
C311	C31	0.123400	0.292700	0.923400
H291	H29	0.086700	0.249500	0.903200
H301	H30	0.153000	0.263900	0.956700
C321	C32	0.196100	0.331100	0.876000
H311	H31	0.171300	0.374800	0.849000
H321	H32	0.224000	0.284800	0.852800
Ni51	Ni5	0.736590	0.210960	0.307850
N211	N21	0.784200	0.130000	0.534600
C331	C33	0.717500	0.084300	0.556400
H331	H33	0.721200	0.068300	0.596800
N221	N22	0.644000	0.057900	0.526300
C341	C34	0.643000	0.086800	0.467900
C351	C35	0.712700	0.133400	0.440000
C361	C36	0.784400	0.154800	0.475500
N231	N23	0.853700	0.200100	0.454600
H341	H34	0.896600	0.212800	0.478300
H351	H35	0.855200	0.216400	0.417400
N241	N24	0.686100	0.151100	0.382000
C371	C37	0.607000	0.116800	0.378800
H361	H36	0.573600	0.119200	0.343700
N251	N25	0.577100	0.078300	0.429100
O91	O9	0.640200	0.173500	0.249900
O101	O10	0.651800	0.233200	0.160800
C381	C38	0.616600	0.183000	0.196900
C391	C39	0.542700	0.126600	0.173400
H371	H37	0.499500	0.163300	0.153200
H381	H38	0.513900	0.097000	0.206700
C401	C40	0.581100	0.053900	0.126000
H391	H39	0.624800	0.078700	0.099000
H401	H40	0.534800	0.026000	0.102800
Ni61	Ni6	0.236590	0.710960	0.807850
N261	N26	0.284200	0.630000	0.034600
C411	C41	0.217500	0.584300	0.056400
H411	H41	0.221200	0.568300	0.096800
N271	N27	0.144000	0.557900	0.026300
C421	C42	0.143000	0.586800	0.967900
C431	C43	0.212700	0.633400	0.940000
C441	C44	0.284400	0.654800	0.975500
N281	N28	0.353700	0.700100	0.954600
H421	H42	0.396600	0.712800	0.978300
H431	H43	0.355200	0.716400	0.917400
N291	N29	0.186100	0.651100	0.882000
C451	C45	0.107000	0.616800	0.878800
H441	H44	0.073600	0.619200	0.843700
N301	N30	0.077100	0.578300	0.929100
O111	O11	0.140200	0.673500	0.749900
O121	O12	0.151800	0.733200	0.660800
C461	C46	0.116600	0.683000	0.696900
C471	C47	0.042700	0.626600	0.673400
H451	H45	0.999500	0.663300	0.653200
H461	H46	0.013900	0.597000	0.706700
C481	C48	0.081100	0.553900	0.626000
H471	H47	0.124800	0.578700	0.599000
H481	H48	0.034800	0.526000	0.602800
Ni71	Ni7	0.763410	0.789040	0.807850
N311	N31	0.715800	0.870000	0.034600
C491	C49	0.782500	0.915700	0.056400
H491	H49	0.778800	0.931700	0.096800
N321	N32	0.856000	0.942100	0.026300
C501	C50	0.857000	0.913200	0.967900
C511	C51	0.787300	0.866600	0.940000
C521	C52	0.715600	0.845200	0.975500
N331	N33	0.646300	0.799900	0.954600
H501	H50	0.603400	0.787200	0.978300
H511	H51	0.644800	0.783600	0.917400
N341	N34	0.813900	0.848900	0.882000
C531	C53	0.893000	0.883200	0.878800
H521	H52	0.926400	0.880800	0.843700
N351	N35	0.922900	0.921700	0.929100
O131	O13	0.859800	0.826500	0.749900
O141	O14	0.848200	0.766800	0.660800
C541	C54	0.883400	0.817000	0.696900
C551	C55	0.957300	0.873400	0.673400
H531	H53	0.000500	0.836700	0.653200
H541	H54	0.986100	0.903000	0.706700
C561	C56	0.918900	0.946100	0.626000
H551	H55	0.875200	0.921300	0.599000
H561	H56	0.965200	0.974000	0.602800
Ni81	Ni8	0.263410	0.289040	0.307850
N361	N36	0.215800	0.370000	0.534600
C571	C57	0.282500	0.415700	0.556400
H571	H57	0.278800	0.431700	0.596800
N371	N37	0.356000	0.442100	0.526300
C581	C58	0.357000	0.413200	0.467900
C591	C59	0.287300	0.366600	0.440000
C601	C60	0.215600	0.345200	0.475500
N381	N38	0.146300	0.299900	0.454600
H581	H58	0.103400	0.287200	0.478300
H591	H59	0.144800	0.283600	0.417400
N391	N39	0.313900	0.348900	0.382000
C611	C61	0.393000	0.383200	0.378800
H601	H60	0.426400	0.380800	0.343700
N401	N40	0.422900	0.421700	0.429100
O151	O15	0.359800	0.326500	0.249900
O161	O16	0.348200	0.266800	0.160800
C621	C62	0.383400	0.317000	0.196900
C631	C63	0.457300	0.373400	0.173400
H611	H61	0.500500	0.336700	0.153200
H621	H62	0.486100	0.403000	0.206700
C641	C64	0.418900	0.446100	0.126000
H631	H63	0.375200	0.421300	0.099000
H641	H64	0.465200	0.474000	0.102800
Ni91	Ni9	0.039040	0.986590	0.942150
N411	N41	0.120000	0.034200	0.715400
C651	C65	0.165700	0.967500	0.693600
H651	H65	0.181700	0.971200	0.653200
N421	N42	0.192100	0.894000	0.723700
C661	C66	0.163200	0.893000	0.782100
C671	C67	0.116600	0.962700	0.810000
C681	C68	0.095200	0.034400	0.774500
N431	N43	0.049900	0.103700	0.795400
H661	H66	0.037200	0.146600	0.771700
H671	H67	0.033600	0.105200	0.832600
N441	N44	0.098900	0.936100	0.868000
C691	C69	0.133200	0.857000	0.871200
H681	H68	0.130800	0.823600	0.906300
N451	N45	0.171700	0.827100	0.820900
O171	O17	0.076500	0.890200	0.000100
O181	O18	0.016800	0.901800	0.089200
C701	C70	0.067000	0.866600	0.053100
C711	C71	0.123400	0.792700	0.076600
H691	H69	0.086700	0.749500	0.096800
H701	H70	0.153000	0.763900	0.043300
C721	C72	0.196100	0.831100	0.124000
H711	H71	0.171300	0.874800	0.151000
H721	H72	0.224000	0.784800	0.147200
Ni101	Ni10	0.539040	0.486590	0.442150
N461	N46	0.620000	0.534200	0.215400
C731	C73	0.665700	0.467500	0.193600
H731	H73	0.681700	0.471200	0.153200
N471	N47	0.692100	0.394000	0.223700
C741	C74	0.663200	0.393000	0.282100
C751	C75	0.616600	0.462700	0.310000
C761	C76	0.595200	0.534400	0.274500
N481	N48	0.549900	0.603700	0.295400
H741	H74	0.537200	0.646600	0.271700
H751	H75	0.533600	0.605200	0.332600
N491	N49	0.598900	0.436100	0.368000
C771	C77	0.633200	0.357000	0.371200
H761	H76	0.630800	0.323600	0.406300
N501	N50	0.671700	0.327100	0.320900
O191	O19	0.576500	0.390200	0.500100
O201	O20	0.516800	0.401800	0.589200
C781	C78	0.567000	0.366600	0.553100
C791	C79	0.623400	0.292700	0.576600
H771	H77	0.586700	0.249500	0.596800
H781	H78	0.653000	0.263900	0.543300
C801	C80	0.696100	0.331100	0.624000
H791	H79	0.671300	0.374800	0.651000
H801	H80	0.724000	0.284800	0.647200
Ni111	Ni11	0.460960	0.013410	0.442150
N511	N51	0.380000	0.965800	0.215400
C811	C81	0.334300	0.032500	0.193600
H811	H81	0.318300	0.028800	0.153200
N521	N52	0.307900	0.106000	0.223700
C821	C82	0.336800	0.107000	0.282100
C831	C83	0.383400	0.037300	0.310000
C841	C84	0.404800	0.965600	0.274500
N531	N53	0.450100	0.896300	0.295400
H821	H82	0.462800	0.853400	0.271700
H831	H83	0.466400	0.894800	0.332600
N541	N54	0.401100	0.063900	0.368000
C851	C85	0.366800	0.143000	0.371200
H841	H84	0.369200	0.176400	0.406300
N551	N55	0.328300	0.172900	0.320900
O211	O21	0.423500	0.109800	0.500100
O221	O22	0.483200	0.098200	0.589200
C861	C86	0.433000	0.133400	0.553100
C871	C87	0.376600	0.207300	0.576600
H851	H85	0.413300	0.250500	0.596800
H861	H86	0.347000	0.236100	0.543300
C881	C88	0.303900	0.168900	0.624000
H871	H87	0.328700	0.125200	0.651000
H881	H88	0.276000	0.215200	0.647200
Ni121	Ni12	0.960960	0.513410	0.942150
N561	N56	0.880000	0.465800	0.715400
C891	C89	0.834300	0.532500	0.693600
H891	H89	0.818300	0.528800	0.653200
N571	N57	0.807900	0.606000	0.723700
C901	C90	0.836800	0.607000	0.782100
C911	C91	0.883400	0.537300	0.810000
C921	C92	0.904800	0.465600	0.774500
N581	N58	0.950100	0.396300	0.795400
H901	H90	0.962800	0.353400	0.771700
H911	H91	0.966400	0.394800	0.832600
N591	N59	0.901100	0.563900	0.868000
C931	C93	0.866800	0.643000	0.871200
H921	H92	0.869200	0.676400	0.906300
N601	N60	0.828300	0.672900	0.820900
O231	O23	0.923500	0.609800	0.000100
O241	O24	0.983200	0.598200	0.089200
C941	C94	0.933000	0.633400	0.053100
C951	C95	0.876600	0.707300	0.076600
H931	H93	0.913300	0.750500	0.096800
H941	H94	0.847000	0.736100	0.043300
C961	C96	0.803900	0.668900	0.124000
H951	H95	0.828700	0.625200	0.151000
H961	H96	0.776000	0.715200	0.147200
Ni131	Ni13	0.263410	0.789040	0.692150
N611	N61	0.215800	0.870000	0.465400
C971	C97	0.282500	0.915700	0.443600
H971	H97	0.278800	0.931700	0.403200
N621	N62	0.356000	0.942100	0.473700
C981	C98	0.357000	0.913200	0.532100
C991	C99	0.287300	0.866600	0.560000
C1001	C100	0.215600	0.845200	0.524500
N631	N63	0.146300	0.799900	0.545400
H981	H98	0.103400	0.787200	0.521700
H991	H99	0.144800	0.783600	0.582600
N641	N64	0.313900	0.848900	0.618000
C1011	C101	0.393000	0.883200	0.621200
H1001	H100	0.426400	0.880800	0.656300
N651	N65	0.422900	0.921700	0.570900
O251	O25	0.359800	0.826500	0.750100
O261	O26	0.348200	0.766800	0.839200
C1021	C102	0.383400	0.817000	0.803100
C1031	C103	0.457300	0.873400	0.826600
H1011	H101	0.500500	0.836700	0.846800
H1021	H102	0.486100	0.903000	0.793300
C1041	C104	0.418900	0.946100	0.874000
H1031	H103	0.375200	0.921300	0.901000
H1041	H104	0.465200	0.974000	0.897200
Ni141	Ni14	0.763410	0.289040	0.192150
N661	N66	0.715800	0.370000	0.965400
C1051	C105	0.782500	0.415700	0.943600
H1051	H105	0.778800	0.431700	0.903200
N671	N67	0.856000	0.442100	0.973700
C1061	C106	0.857000	0.413200	0.032100
C1071	C107	0.787300	0.366600	0.060000
C1081	C108	0.715600	0.345200	0.024500
N681	N68	0.646300	0.299900	0.045400
H1061	H106	0.603400	0.287200	0.021700
H1071	H107	0.644800	0.283600	0.082600
N691	N69	0.813900	0.348900	0.118000
C1091	C109	0.893000	0.383200	0.121200
H1081	H108	0.926400	0.380800	0.156300
N701	N70	0.922900	0.421700	0.070900
O271	O27	0.859800	0.326500	0.250100
O281	O28	0.848200	0.266800	0.339200
C1101	C110	0.883400	0.317000	0.303100
C1111	C111	0.957300	0.373400	0.326600
H1091	H109	0.000500	0.336700	0.346800
H1101	H110	0.986100	0.403000	0.293300
C1121	C112	0.918900	0.446100	0.374000
H1111	H111	0.875200	0.421300	0.401000
H1121	H112	0.965200	0.474000	0.397200
Ni151	Ni15	0.236590	0.210960	0.192150
N711	N71	0.284200	0.130000	0.965400
C1131	C113	0.217500	0.084300	0.943600
H1131	H113	0.221200	0.068300	0.903200
N721	N72	0.144000	0.057900	0.973700
C1141	C114	0.143000	0.086800	0.032100
C1151	C115	0.212700	0.133400	0.060000
C1161	C116	0.284400	0.154800	0.024500
N731	N73	0.353700	0.200100	0.045400
H1141	H114	0.396600	0.212800	0.021700
H1151	H115	0.355200	0.216400	0.082600
N741	N74	0.186100	0.151100	0.118000
C1171	C117	0.107000	0.116800	0.121200
H1161	H116	0.073600	0.119200	0.156300
N751	N75	0.077100	0.078300	0.070900
O291	O29	0.140200	0.173500	0.250100
O301	O30	0.151800	0.233200	0.339200
C1181	C118	0.116600	0.183000	0.303100
C1191	C119	0.042700	0.126600	0.326600
H1171	H117	0.999500	0.163300	0.346800
H1181	H118	0.013900	0.097000	0.293300
C1201	C120	0.081100	0.053900	0.374000
H1191	H119	0.124800	0.078700	0.401000
H1201	H120	0.034800	0.026000	0.397200
Ni161	Ni16	0.736590	0.710960	0.692150
N761	N76	0.784200	0.630000	0.465400
C1211	C121	0.717500	0.584300	0.443600
H1211	H121	0.721200	0.568300	0.403200
N771	N77	0.644000	0.557900	0.473700
C1221	C122	0.643000	0.586800	0.532100
C1231	C123	0.712700	0.633400	0.560000
C1241	C124	0.784400	0.654800	0.524500
N781	N78	0.853700	0.700100	0.545400
H1221	H122	0.896600	0.712800	0.521700
H1231	H123	0.855200	0.716400	0.582600
N791	N79	0.686100	0.651100	0.618000
C1251	C125	0.607000	0.616800	0.621200
H1241	H124	0.573600	0.619200	0.656300
N801	N80	0.577100	0.578300	0.570900
O311	O31	0.640200	0.673500	0.750100
O321	O32	0.651800	0.733200	0.839200
C1261	C126	0.616600	0.683000	0.803100
C1271	C127	0.542700	0.626600	0.826600
H1251	H125	0.499500	0.663300	0.846800
H1261	H126	0.513900	0.597000	0.793300
C1281	C128	0.581100	0.553900	0.874000
H1271	H127	0.624800	0.578700	0.901000
H1281	H128	0.534800	0.526000	0.897200
