data_COVYIX_clean_PM
_symmetry_space_group_name_H-M	'P1'
_cell_length_a	10.552600
_cell_length_b	10.874900
_cell_length_c	15.364300
_cell_angle_alpha	76.545000
_cell_angle_beta	82.101000
_cell_angle_gamma	79.927000
_symmetry_Int_Tables_number 1

loop_
_symmetry_equiv_pos_as_xyz
'x,y,z'

loop_
_atom_site_label
_atom_site_type_symbol
_atom_site_fract_x
_atom_site_fract_y
_atom_site_fract_z
Cu11	Cu1	0.159060	0.510200	0.159690
Cu21	Cu2	0.926890	0.761190	0.091590
Cu31	Cu3	0.320160	0.495670	0.342450
Cu41	Cu4	0.619370	0.603610	0.284620
O11	O1	0.208900	0.394400	0.304500
O21	O2	0.313800	0.203500	0.362400
O31	O3	0.752000	0.457200	0.268600
O41	O4	0.638800	0.341000	0.381300
O51	O5	0.163000	0.638000	0.981100
O61	O6	0.061900	0.828500	0.002600
O71	O7	0.238400	0.231900	0.828900
O81	O8	0.423600	0.201700	0.749300
O91	O9	0.983300	0.542100	0.120500
H11	H1	0.921100	0.496900	0.164200
O101	O10	0.443300	0.580900	0.381900
H21	H2	0.399600	0.667100	0.385500
N11	N1	0.030500	0.760300	0.190600
N21	N2	0.108300	0.654100	0.221500
N31	N3	0.169300	0.670100	0.288700
N41	N4	0.348600	0.537200	0.146100
N51	N5	0.407400	0.533100	0.218300
N61	N6	0.517000	0.579400	0.192800
N71	N7	0.201300	0.353300	0.107600
N81	N8	0.133600	0.357400	0.039600
N91	N9	0.169100	0.250500	0.010300
N101	N10	0.711400	0.616600	0.386400
N111	N11	0.660400	0.571800	0.468400
N121	N12	0.742700	0.567500	0.528500
C11	C1	0.125600	0.789700	0.298900
H31	H3	0.150300	0.827600	0.341000
C21	C2	0.039400	0.847300	0.238000
H41	H4	0.995400	0.930300	0.230700
C31	C3	0.530800	0.612700	0.102900
H51	H5	0.599800	0.647100	0.066900
C41	C4	0.422600	0.586100	0.074300
H61	H6	0.404800	0.600000	0.014900
C51	C5	0.261100	0.176700	0.059800
H71	H7	0.303400	0.096200	0.053500
C61	C6	0.280300	0.242900	0.120600
H81	H8	0.338600	0.215600	0.163900
C71	C7	0.846800	0.613200	0.483300
H91	H9	0.919500	0.623000	0.507600
C81	C8	0.827200	0.643100	0.393900
H101	H10	0.885000	0.676400	0.346500
C91	C9	0.091600	0.220600	0.345600
C101	C10	0.978600	0.303200	0.329100
H111	H11	0.982300	0.390000	0.308000
C111	C11	0.859500	0.260900	0.342900
C121	C12	0.855000	0.130800	0.375100
H121	H12	0.775800	0.100600	0.386800
C131	C13	0.967400	0.047000	0.389600
H131	H13	0.964400	0.959900	0.408900
C141	C14	0.084800	0.091800	0.375400
H141	H14	0.160300	0.034400	0.386100
C151	C15	0.216800	0.271200	0.337600
C161	C16	0.738400	0.358800	0.330400
C171	C17	0.242300	0.824500	0.892900
C181	C18	0.241000	0.956000	0.881000
H151	H15	0.182500	0.003200	0.916300
C191	C19	0.329200	0.015800	0.814900
C201	C20	0.414100	0.945600	0.762900
H161	H16	0.472400	0.985800	0.719200
C211	C21	0.414400	0.815900	0.774400
H171	H17	0.471800	0.769100	0.738300
C221	C22	0.328700	0.756200	0.840200
H181	H18	0.329600	0.668500	0.848800
C231	C23	0.150100	0.756800	0.963800
C241	C24	0.329700	0.158600	0.797800
Cu51	Cu5	0.840940	0.489800	0.840310
Cu61	Cu6	0.073110	0.238810	0.908410
Cu71	Cu7	0.679840	0.504330	0.657550
Cu81	Cu8	0.380630	0.396390	0.715380
O111	O11	0.791100	0.605600	0.695500
O121	O12	0.686200	0.796500	0.637600
O131	O13	0.248000	0.542800	0.731400
O141	O14	0.361200	0.659000	0.618700
O151	O15	0.837000	0.362000	0.018900
O161	O16	0.938100	0.171500	0.997400
O171	O17	0.761600	0.768100	0.171100
O181	O18	0.576400	0.798300	0.250700
O191	O19	0.016700	0.457900	0.879500
H191	H19	0.078900	0.503100	0.835800
O201	O20	0.556700	0.419100	0.618100
H201	H20	0.600400	0.332900	0.614500
N131	N13	0.969500	0.239700	0.809400
N141	N14	0.891700	0.345900	0.778500
N151	N15	0.830700	0.329900	0.711300
N161	N16	0.651400	0.462800	0.853900
N171	N17	0.592600	0.466900	0.781700
N181	N18	0.483000	0.420600	0.807200
N191	N19	0.798700	0.646700	0.892400
N201	N20	0.866400	0.642600	0.960400
N211	N21	0.830900	0.749500	0.989700
N221	N22	0.288600	0.383400	0.613600
N231	N23	0.339600	0.428200	0.531600
N241	N24	0.257300	0.432500	0.471500
C251	C25	0.874400	0.210300	0.701100
H211	H21	0.849700	0.172400	0.659000
C261	C26	0.960600	0.152700	0.762000
H221	H22	0.004600	0.069700	0.769300
C271	C27	0.469200	0.387300	0.897100
H231	H23	0.400200	0.352900	0.933100
C281	C28	0.577400	0.413900	0.925700
H241	H24	0.595200	0.400000	0.985100
C291	C29	0.738900	0.823300	0.940200
H251	H25	0.696600	0.903800	0.946500
C301	C30	0.719700	0.757100	0.879400
H261	H26	0.661400	0.784400	0.836100
C311	C31	0.153200	0.386800	0.516700
H271	H27	0.080500	0.377000	0.492400
C321	C32	0.172800	0.356900	0.606100
H281	H28	0.115000	0.323600	0.653500
C331	C33	0.908400	0.779400	0.654400
C341	C34	0.021400	0.696800	0.670900
H291	H29	0.017700	0.610000	0.692000
C351	C35	0.140500	0.739100	0.657100
C361	C36	0.145000	0.869200	0.624900
H301	H30	0.224200	0.899400	0.613200
C371	C37	0.032600	0.953000	0.610400
H311	H31	0.035600	0.040100	0.591100
C381	C38	0.915200	0.908200	0.624600
H321	H32	0.839700	0.965600	0.613900
C391	C39	0.783200	0.728800	0.662400
C401	C40	0.261600	0.641200	0.669600
C411	C41	0.757700	0.175500	0.107100
C421	C42	0.759000	0.044000	0.119000
H331	H33	0.817500	0.996800	0.083700
C431	C43	0.670800	0.984200	0.185100
C441	C44	0.585900	0.054400	0.237100
H341	H34	0.527600	0.014200	0.280800
C451	C45	0.585600	0.184100	0.225600
H351	H35	0.528200	0.230900	0.261700
C461	C46	0.671300	0.243800	0.159800
H361	H36	0.670400	0.331500	0.151200
C471	C47	0.849900	0.243200	0.036200
C481	C48	0.670300	0.841400	0.202200
Cu91	Cu9	0.000000	0.500000	0.000000
Cu101	Cu10	0.500000	0.500000	0.500000
