data_COWRIR_clean_PM
_symmetry_space_group_name_H-M	'P1'
_cell_length_a	16.703300
_cell_length_b	20.019500
_cell_length_c	17.460200
_cell_angle_alpha	90.000000
_cell_angle_beta	100.423000
_cell_angle_gamma	90.000000
_symmetry_Int_Tables_number 1

loop_
_symmetry_equiv_pos_as_xyz
'x,y,z'

loop_
_atom_site_label
_atom_site_type_symbol
_atom_site_fract_x
_atom_site_fract_y
_atom_site_fract_z
Co11	Co1	0.968510	0.330960	0.741360
Co21	Co2	0.865430	0.366390	0.547540
Co31	Co3	0.090650	0.352200	0.937440
S11	S1	0.454300	0.222360	0.738440
S21	S2	0.607460	0.489770	0.955450
S31	S3	0.454690	0.430970	0.652490
O11	O1	0.485900	0.239100	0.158900
O21	O2	0.090900	0.355800	0.746700
O31	O3	0.948900	0.397400	0.828300
O41	O4	0.502600	0.757500	0.672800
O51	O5	0.560400	0.908000	0.839700
O61	O6	0.844100	0.306600	0.730600
O71	O7	0.590900	0.957500	0.950500
O81	O8	0.448500	0.200700	0.035800
O91	O9	0.785700	0.327200	0.605400
O101	O10	0.409800	0.755200	0.564600
O111	O11	0.990400	0.393100	0.957700
O121	O12	0.155500	0.389100	0.864200
O131	O13	0.401100	0.215200	0.663900
O141	O14	0.430600	0.264800	0.797500
O151	O15	0.557400	0.504400	0.880900
O161	O16	0.616200	0.538300	0.017400
O171	O17	0.524600	0.414900	0.710800
O181	O18	0.444300	0.401500	0.576100
C11	C1	0.784700	0.308700	0.676000
C21	C2	0.703000	0.286900	0.692200
C31	C3	0.640000	0.275400	0.629600
H11	H1	0.648600	0.281400	0.578900
C41	C4	0.564000	0.254800	0.643100
H21	H2	0.522300	0.245800	0.601400
C51	C5	0.550800	0.247900	0.719600
C61	C6	0.613100	0.260000	0.783100
H31	H3	0.603900	0.256000	0.833900
C71	C7	0.688400	0.277900	0.768400
H41	H4	0.731000	0.284200	0.810200
C81	C8	0.474200	0.142700	0.780200
C91	C9	0.476500	0.088600	0.730900
H51	H5	0.462500	0.093400	0.677100
C101	C10	0.500100	0.027900	0.763900
H61	H6	0.500600	0.990500	0.732400
C111	C11	0.523100	0.022200	0.844100
C121	C12	0.521000	0.075700	0.893000
H71	H7	0.536600	0.070900	0.946600
C131	C13	0.495600	0.136700	0.861000
H81	H8	0.492700	0.173500	0.892900
C141	C14	0.557300	0.958500	0.878800
C151	C15	0.937500	0.404400	0.897500
C161	C16	0.856400	0.429300	0.911900
C171	C17	0.789900	0.425100	0.851000
H91	H9	0.796500	0.409900	0.802100
C181	C18	0.713800	0.443800	0.864600
H101	H10	0.668400	0.439800	0.825400
C191	C19	0.705800	0.468700	0.937400
C201	C20	0.771300	0.475400	0.997700
H111	H11	0.765000	0.493300	0.045400
C211	C21	0.847200	0.454600	0.984500
H121	H12	0.892200	0.457500	0.024400
C221	C22	0.572700	0.416100	0.992300
C231	C23	0.532100	0.369800	0.941500
H131	H13	0.524300	0.376700	0.888000
C241	C24	0.503100	0.313000	0.971500
H141	H14	0.475400	0.281200	0.938000
C251	C25	0.515100	0.302700	0.052400
C261	C26	0.556100	0.349500	0.102100
H151	H15	0.564200	0.342600	0.155600
C271	C27	0.585200	0.406700	0.072800
H161	H16	0.612800	0.438600	0.106300
C281	C28	0.481500	0.241900	0.085800
C291	C29	0.150500	0.377700	0.791400
C301	C30	0.226700	0.392400	0.756600
C311	C31	0.296200	0.415500	0.803700
H171	H17	0.296600	0.423000	0.856400
C321	C32	0.366000	0.427900	0.772600
H181	H18	0.412400	0.444900	0.804100
C331	C33	0.366200	0.414600	0.693800
C341	C34	0.297900	0.389100	0.646800
H191	H19	0.298200	0.379700	0.594700
C351	C35	0.228500	0.377800	0.678500
H201	H20	0.182400	0.360100	0.647200
C361	C36	0.452200	0.518500	0.641100
C371	C37	0.488700	0.556500	0.704100
H211	H21	0.512600	0.536300	0.750500
C381	C38	0.488700	0.624000	0.696500
H221	H22	0.513200	0.650400	0.738000
C391	C39	0.452300	0.653600	0.626800
C401	C40	0.413300	0.614800	0.565500
H231	H23	0.386400	0.634900	0.520000
C411	C41	0.414700	0.546900	0.572500
H241	H24	0.390400	0.520200	0.531200
C421	C42	0.454900	0.727500	0.621800
Co41	Co4	0.531490	0.830960	0.758640
Co51	Co5	0.634570	0.866390	0.952460
Co61	Co6	0.409350	0.852200	0.562560
S41	S4	0.045700	0.722360	0.761560
S51	S5	0.892540	0.989770	0.544550
S61	S6	0.045310	0.930970	0.847510
O191	O19	0.014100	0.739100	0.341100
O201	O20	0.409100	0.855800	0.753300
O211	O21	0.551100	0.897400	0.671700
O221	O22	0.997400	0.257500	0.827200
O231	O23	0.939600	0.408000	0.660300
O241	O24	0.655900	0.806600	0.769400
O251	O25	0.909100	0.457500	0.549500
O261	O26	0.051500	0.700700	0.464200
O271	O27	0.714300	0.827200	0.894600
O281	O28	0.090200	0.255200	0.935400
O291	O29	0.509600	0.893100	0.542300
O301	O30	0.344500	0.889100	0.635800
O311	O31	0.098900	0.715200	0.836100
O321	O32	0.069400	0.764800	0.702500
O331	O33	0.942600	0.004400	0.619100
O341	O34	0.883800	0.038300	0.482600
O351	O35	0.975400	0.914900	0.789200
O361	O36	0.055700	0.901500	0.923900
C431	C43	0.715300	0.808700	0.824000
C441	C44	0.797000	0.786900	0.807800
C451	C45	0.860000	0.775400	0.870400
H251	H25	0.851400	0.781400	0.921100
C461	C46	0.936000	0.754800	0.856900
H261	H26	0.977700	0.745800	0.898600
C471	C47	0.949200	0.747900	0.780400
C481	C48	0.886900	0.760000	0.716900
H271	H27	0.896100	0.756000	0.666100
C491	C49	0.811600	0.777900	0.731600
H281	H28	0.769000	0.784200	0.689800
C501	C50	0.025800	0.642700	0.719800
C511	C51	0.023500	0.588600	0.769100
H291	H29	0.037500	0.593400	0.822900
C521	C52	0.999900	0.527900	0.736100
H301	H30	0.999400	0.490500	0.767600
C531	C53	0.976900	0.522200	0.655900
C541	C54	0.979000	0.575700	0.607000
H311	H31	0.963400	0.570900	0.553400
C551	C55	0.004400	0.636700	0.639000
H321	H32	0.007300	0.673500	0.607100
C561	C56	0.942700	0.458500	0.621200
C571	C57	0.562500	0.904400	0.602500
C581	C58	0.643600	0.929300	0.588100
C591	C59	0.710100	0.925100	0.649000
H331	H33	0.703500	0.909900	0.697900
C601	C60	0.786200	0.943800	0.635400
H341	H34	0.831600	0.939800	0.674600
C611	C61	0.794200	0.968700	0.562600
C621	C62	0.728700	0.975400	0.502300
H351	H35	0.735000	0.993300	0.454600
C631	C63	0.652800	0.954600	0.515500
H361	H36	0.607800	0.957500	0.475600
C641	C64	0.927300	0.916100	0.507700
C651	C65	0.967900	0.869800	0.558500
H371	H37	0.975700	0.876700	0.612000
C661	C66	0.996900	0.813000	0.528500
H381	H38	0.024600	0.781200	0.562000
C671	C67	0.984900	0.802700	0.447600
C681	C68	0.943900	0.849500	0.397900
H391	H39	0.935800	0.842600	0.344400
C691	C69	0.914800	0.906700	0.427200
H401	H40	0.887200	0.938600	0.393700
C701	C70	0.018500	0.741900	0.414200
C711	C71	0.349500	0.877700	0.708600
C721	C72	0.273300	0.892400	0.743400
C731	C73	0.203800	0.915500	0.696300
H411	H41	0.203400	0.923000	0.643600
C741	C74	0.134000	0.927900	0.727400
H421	H42	0.087600	0.944900	0.695900
C751	C75	0.133800	0.914600	0.806200
C761	C76	0.202100	0.889100	0.853200
H431	H43	0.201800	0.879700	0.905300
C771	C77	0.271500	0.877800	0.821500
H441	H44	0.317600	0.860100	0.852800
C781	C78	0.047800	0.018500	0.858900
C791	C79	0.011300	0.056500	0.795900
H451	H45	0.987400	0.036300	0.749500
C801	C80	0.011300	0.124000	0.803500
H461	H46	0.986800	0.150400	0.762000
C811	C81	0.047700	0.153600	0.873200
C821	C82	0.086700	0.114800	0.934500
H471	H47	0.113600	0.134900	0.980000
C831	C83	0.085300	0.046900	0.927500
H481	H48	0.109600	0.020200	0.968800
C841	C84	0.045100	0.227500	0.878200
Co71	Co7	0.031490	0.669040	0.258640
Co81	Co8	0.134570	0.633610	0.452460
Co91	Co9	0.909350	0.647800	0.062560
S71	S7	0.545700	0.777640	0.261560
S81	S8	0.392540	0.510230	0.044550
S91	S9	0.545310	0.569030	0.347510
O371	O37	0.514100	0.760900	0.841100
O381	O38	0.909100	0.644200	0.253300
O391	O39	0.051100	0.602600	0.171700
O401	O40	0.497400	0.242500	0.327200
O411	O41	0.439600	0.092000	0.160300
O421	O42	0.155900	0.693400	0.269400
O431	O43	0.409100	0.042500	0.049500
O441	O44	0.551500	0.799300	0.964200
O451	O45	0.214300	0.672800	0.394600
O461	O46	0.590200	0.244800	0.435400
O471	O47	0.009600	0.606900	0.042300
O481	O48	0.844500	0.610900	0.135800
O491	O49	0.598900	0.784800	0.336100
O501	O50	0.569400	0.735200	0.202500
O511	O51	0.442600	0.495600	0.119100
O521	O52	0.383800	0.461700	0.982600
O531	O53	0.475400	0.585100	0.289200
O541	O54	0.555700	0.598500	0.423900
C851	C85	0.215300	0.691300	0.324000
C861	C86	0.297000	0.713100	0.307800
C871	C87	0.360000	0.724600	0.370400
H491	H49	0.351400	0.718600	0.421100
C881	C88	0.436000	0.745200	0.356900
H501	H50	0.477700	0.754200	0.398600
C891	C89	0.449200	0.752100	0.280400
C901	C90	0.386900	0.740000	0.216900
H511	H51	0.396100	0.744000	0.166100
C911	C91	0.311600	0.722100	0.231600
H521	H52	0.269000	0.715800	0.189800
C921	C92	0.525800	0.857300	0.219800
C931	C93	0.523500	0.911400	0.269100
H531	H53	0.537500	0.906600	0.322900
C941	C94	0.499900	0.972100	0.236100
H541	H54	0.499400	0.009500	0.267600
C951	C95	0.476900	0.977800	0.155900
C961	C96	0.479000	0.924300	0.107000
H551	H55	0.463400	0.929100	0.053400
C971	C97	0.504400	0.863300	0.139000
H561	H56	0.507300	0.826500	0.107100
C981	C98	0.442700	0.041500	0.121200
C991	C99	0.062500	0.595600	0.102500
C1001	C100	0.143600	0.570700	0.088100
C1011	C101	0.210100	0.574900	0.149000
H571	H57	0.203500	0.590100	0.197900
C1021	C102	0.286200	0.556200	0.135400
H581	H58	0.331600	0.560200	0.174600
C1031	C103	0.294200	0.531300	0.062600
C1041	C104	0.228700	0.524600	0.002300
H591	H59	0.235000	0.506700	0.954600
C1051	C105	0.152800	0.545400	0.015500
H601	H60	0.107800	0.542500	0.975600
C1061	C106	0.427300	0.583900	0.007700
C1071	C107	0.467900	0.630200	0.058500
H611	H61	0.475700	0.623300	0.112000
C1081	C108	0.496900	0.687000	0.028500
H621	H62	0.524600	0.718800	0.062000
C1091	C109	0.484900	0.697300	0.947600
C1101	C110	0.443900	0.650500	0.897900
H631	H63	0.435800	0.657400	0.844400
C1111	C111	0.414800	0.593300	0.927200
H641	H64	0.387200	0.561400	0.893700
C1121	C112	0.518500	0.758100	0.914200
C1131	C113	0.849500	0.622300	0.208600
C1141	C114	0.773300	0.607600	0.243400
C1151	C115	0.703800	0.584500	0.196300
H651	H65	0.703400	0.577000	0.143600
C1161	C116	0.634000	0.572100	0.227400
H661	H66	0.587600	0.555100	0.195900
C1171	C117	0.633800	0.585400	0.306200
C1181	C118	0.702100	0.610900	0.353200
H671	H67	0.701800	0.620300	0.405300
C1191	C119	0.771500	0.622200	0.321500
H681	H68	0.817600	0.639900	0.352800
C1201	C120	0.547800	0.481500	0.358900
C1211	C121	0.511300	0.443500	0.295900
H691	H69	0.487400	0.463700	0.249500
C1221	C122	0.511300	0.376000	0.303500
H701	H70	0.486800	0.349600	0.262000
C1231	C123	0.547700	0.346400	0.373200
C1241	C124	0.586700	0.385200	0.434500
H711	H71	0.613600	0.365100	0.480000
C1251	C125	0.585300	0.453100	0.427500
H721	H72	0.609600	0.479800	0.468800
C1261	C126	0.545100	0.272500	0.378200
Co101	Co10	0.468510	0.169040	0.241360
Co111	Co11	0.365430	0.133610	0.047540
Co121	Co12	0.590650	0.147800	0.437440
S101	S10	0.954300	0.277640	0.238440
S111	S11	0.107460	0.010230	0.455450
S121	S12	0.954690	0.069030	0.152490
O551	O55	0.985900	0.260900	0.658900
O561	O56	0.590900	0.144200	0.246700
O571	O57	0.448900	0.102600	0.328300
O581	O58	0.002600	0.742500	0.172800
O591	O59	0.060400	0.592000	0.339700
O601	O60	0.344100	0.193400	0.230600
O611	O61	0.090900	0.542500	0.450500
O621	O62	0.948500	0.299300	0.535800
O631	O63	0.285700	0.172800	0.105400
O641	O64	0.909800	0.744800	0.064600
O651	O65	0.490400	0.106900	0.457700
O661	O66	0.655500	0.110900	0.364200
O671	O67	0.901100	0.284800	0.163900
O681	O68	0.930600	0.235200	0.297500
O691	O69	0.057400	0.995600	0.380900
O701	O70	0.116200	0.961700	0.517400
O711	O71	0.024600	0.085100	0.210800
O721	O72	0.944300	0.098500	0.076100
C1271	C127	0.284700	0.191300	0.176000
C1281	C128	0.203000	0.213100	0.192200
C1291	C129	0.140000	0.224600	0.129600
H731	H73	0.148600	0.218600	0.078900
C1301	C130	0.064000	0.245200	0.143100
H741	H74	0.022300	0.254200	0.101400
C1311	C131	0.050800	0.252100	0.219600
C1321	C132	0.113100	0.240000	0.283100
H751	H75	0.103900	0.244000	0.333900
C1331	C133	0.188400	0.222100	0.268400
H761	H76	0.231000	0.215800	0.310200
C1341	C134	0.974200	0.357300	0.280200
C1351	C135	0.976500	0.411400	0.230900
H771	H77	0.962500	0.406600	0.177100
C1361	C136	0.000100	0.472100	0.263900
H781	H78	0.000600	0.509500	0.232400
C1371	C137	0.023100	0.477800	0.344100
C1381	C138	0.021000	0.424300	0.393000
H791	H79	0.036600	0.429100	0.446600
C1391	C139	0.995600	0.363300	0.361000
H801	H80	0.992700	0.326500	0.392900
C1401	C140	0.057300	0.541500	0.378800
C1411	C141	0.437500	0.095600	0.397500
C1421	C142	0.356400	0.070700	0.411900
C1431	C143	0.289900	0.074900	0.351000
H811	H81	0.296500	0.090100	0.302100
C1441	C144	0.213800	0.056200	0.364600
H821	H82	0.168400	0.060200	0.325400
C1451	C145	0.205800	0.031300	0.437400
C1461	C146	0.271300	0.024600	0.497700
H831	H83	0.265000	0.006700	0.545400
C1471	C147	0.347200	0.045400	0.484500
H841	H84	0.392200	0.042500	0.524400
C1481	C148	0.072700	0.083900	0.492300
C1491	C149	0.032100	0.130200	0.441500
H851	H85	0.024300	0.123300	0.388000
C1501	C150	0.003100	0.187000	0.471500
H861	H86	0.975400	0.218800	0.438000
C1511	C151	0.015100	0.197300	0.552400
C1521	C152	0.056100	0.150500	0.602100
H871	H87	0.064200	0.157400	0.655600
C1531	C153	0.085200	0.093300	0.572800
H881	H88	0.112800	0.061400	0.606300
C1541	C154	0.981500	0.258100	0.585800
C1551	C155	0.650500	0.122300	0.291400
C1561	C156	0.726700	0.107600	0.256600
C1571	C157	0.796200	0.084500	0.303700
H891	H89	0.796600	0.077000	0.356400
C1581	C158	0.866000	0.072100	0.272600
H901	H90	0.912400	0.055100	0.304100
C1591	C159	0.866200	0.085400	0.193800
C1601	C160	0.797900	0.110900	0.146800
H911	H91	0.798200	0.120300	0.094700
C1611	C161	0.728500	0.122200	0.178500
H921	H92	0.682400	0.139900	0.147200
C1621	C162	0.952200	0.981500	0.141100
C1631	C163	0.988700	0.943500	0.204100
H931	H93	0.012600	0.963700	0.250500
C1641	C164	0.988700	0.876000	0.196500
H941	H94	0.013200	0.849600	0.238000
C1651	C165	0.952300	0.846400	0.126800
C1661	C166	0.913300	0.885200	0.065500
H951	H95	0.886400	0.865100	0.020000
C1671	C167	0.914700	0.953100	0.072500
H961	H96	0.890400	0.979800	0.031200
C1681	C168	0.954900	0.772500	0.121800
