data_COWRAJ_clean_PM
_symmetry_space_group_name_H-M	'P1'
_cell_length_a	16.703300
_cell_length_b	20.019500
_cell_length_c	17.460200
_cell_angle_alpha	90.000000
_cell_angle_beta	100.423000
_cell_angle_gamma	90.000000
_symmetry_Int_Tables_number 1

loop_
_symmetry_equiv_pos_as_xyz
'x,y,z'

loop_
_atom_site_label
_atom_site_type_symbol
_atom_site_fract_x
_atom_site_fract_y
_atom_site_fract_z
Co11	Co1	0.959110	0.165800	0.243320
Co21	Co2	0.853490	0.125170	0.055580
Co31	Co3	0.085280	0.145940	0.439070
S11	S1	0.052380	0.775110	0.265850
S21	S2	0.603130	0.016490	0.460480
S31	S3	0.444460	0.069890	0.165600
O11	O1	0.478400	0.265100	0.662600
O21	O2	0.939000	0.100700	0.330800
O31	O3	0.080400	0.136900	0.249000
O41	O4	0.663500	0.693500	0.266900
O51	O5	0.508200	0.740300	0.172200
O61	O6	0.926500	0.086660	0.164400
O71	O7	0.718400	0.684500	0.393400
O81	O8	0.438100	0.305900	0.542100
O91	O9	0.932900	0.043800	0.051500
O101	O10	0.984500	0.108600	0.457900
O111	O11	0.146900	0.106900	0.366900
O121	O12	0.411700	0.743600	0.065700
O131	O13	0.071900	0.732000	0.206200
O141	O14	0.106900	0.779900	0.338500
O151	O15	0.551900	0.001200	0.387700
O161	O16	0.614400	0.967400	0.521300
O171	O17	0.513400	0.086900	0.223500
O181	O18	0.434200	0.101400	0.090900
C11	C1	0.949800	0.040100	0.123400
C21	C2	0.988500	0.979100	0.161400
C31	C3	0.005200	0.926700	0.115800
H11	H1	0.001100	0.933200	0.062500
C41	C4	0.027900	0.864900	0.147100
H21	H2	0.037300	0.829600	0.115400
C51	C5	0.036200	0.856700	0.225600
C61	C6	0.024500	0.909000	0.274400
H31	H3	0.031700	0.902800	0.328000
C71	C7	0.001700	0.971100	0.241400
H41	H4	0.995300	0.007200	0.273300
C81	C8	0.955300	0.752500	0.282900
C91	C9	0.892600	0.742700	0.220700
H51	H5	0.902100	0.747000	0.170100
C101	C10	0.816300	0.726600	0.233300
H61	H6	0.773700	0.721000	0.191500
C111	C11	0.803300	0.718900	0.309000
C121	C12	0.867700	0.727600	0.371200
H71	H7	0.859400	0.720400	0.421900
C131	C13	0.943300	0.746800	0.358400
H81	H8	0.985300	0.755600	0.399900
C141	C14	0.720400	0.697300	0.323000
C151	C15	0.930000	0.096400	0.399700
C161	C16	0.849800	0.073700	0.414600
C171	C17	0.782300	0.079400	0.355300
H91	H9	0.788200	0.094800	0.306300
C181	C18	0.706200	0.061800	0.369900
H101	H10	0.660000	0.066300	0.331600
C191	C19	0.700600	0.037700	0.442500
C201	C20	0.767000	0.030400	0.501000
H111	H11	0.761000	0.013400	0.549200
C211	C21	0.842500	0.048800	0.487300
H121	H12	0.888200	0.044600	0.526300
C221	C22	0.568700	0.090700	0.497100
C231	C23	0.524400	0.136900	0.446800
H131	H13	0.515200	0.130000	0.393300
C241	C24	0.494400	0.192500	0.477000
H141	H14	0.464200	0.223300	0.443800
C251	C25	0.508500	0.203600	0.556500
C261	C26	0.554400	0.158100	0.605800
H151	H15	0.565400	0.166000	0.659200
C271	C27	0.584000	0.101000	0.576000
H161	H16	0.613800	0.069900	0.609200
C281	C28	0.472400	0.263100	0.589700
C291	C29	0.140900	0.117000	0.295600
C301	C30	0.216400	0.103900	0.262400
C311	C31	0.287200	0.081900	0.311100
H171	H17	0.287100	0.074300	0.363600
C321	C32	0.357500	0.071500	0.281500
H181	H18	0.404800	0.056600	0.313500
C331	C33	0.355900	0.083600	0.203200
C341	C34	0.287600	0.107600	0.155300
H191	H19	0.288700	0.117500	0.103400
C351	C35	0.217400	0.117000	0.184900
H201	H20	0.170500	0.132200	0.152600
C361	C36	0.446300	0.982200	0.152800
C371	C37	0.486200	0.942700	0.212300
H211	H21	0.510500	0.961900	0.259300
C381	C38	0.489900	0.874600	0.201500
H221	H22	0.518500	0.848100	0.240900
C391	C39	0.451000	0.844900	0.132000
C401	C40	0.407900	0.886500	0.074000
H231	H23	0.380100	0.867400	0.028200
C411	C41	0.405900	0.953100	0.083000
H241	H24	0.377900	0.979900	0.043500
C421	C42	0.457600	0.771000	0.123400
Co41	Co4	0.540890	0.665800	0.256680
Co51	Co5	0.646510	0.625170	0.444420
Co61	Co6	0.414720	0.645940	0.060930
S41	S4	0.447620	0.275110	0.234150
S51	S5	0.896870	0.516490	0.039520
S61	S6	0.055540	0.569890	0.334400
O191	O19	0.021600	0.765100	0.837400
O201	O20	0.561000	0.600700	0.169200
O211	O21	0.419600	0.636900	0.251000
O221	O22	0.836500	0.193500	0.233100
O231	O23	0.991800	0.240300	0.327800
O241	O24	0.573500	0.586660	0.335600
O251	O25	0.781600	0.184500	0.106600
O261	O26	0.061900	0.805900	0.957900
O271	O27	0.567100	0.543800	0.448500
O281	O28	0.515500	0.608600	0.042100
O291	O29	0.353100	0.606900	0.133100
O301	O30	0.088300	0.243600	0.434300
O311	O31	0.428100	0.232000	0.293800
O321	O32	0.393100	0.279900	0.161500
O331	O33	0.948100	0.501200	0.112300
O341	O34	0.885600	0.467400	0.978700
O351	O35	0.986600	0.586900	0.276500
O361	O36	0.065800	0.601400	0.409100
C431	C43	0.550200	0.540100	0.376600
C441	C44	0.511500	0.479100	0.338600
C451	C45	0.494800	0.426700	0.384200
H251	H25	0.498900	0.433200	0.437500
C461	C46	0.472100	0.364900	0.352900
H261	H26	0.462700	0.329600	0.384600
C471	C47	0.463800	0.356700	0.274400
C481	C48	0.475500	0.409000	0.225600
H271	H27	0.468300	0.402800	0.172000
C491	C49	0.498300	0.471100	0.258600
H281	H28	0.504700	0.507200	0.226700
C501	C50	0.544700	0.252500	0.217100
C511	C51	0.607400	0.242700	0.279300
H291	H29	0.597900	0.247000	0.329900
C521	C52	0.683700	0.226600	0.266700
H301	H30	0.726300	0.221000	0.308500
C531	C53	0.696700	0.218900	0.191000
C541	C54	0.632300	0.227600	0.128800
H311	H31	0.640600	0.220400	0.078100
C551	C55	0.556700	0.246800	0.141600
H321	H32	0.514700	0.255600	0.100100
C561	C56	0.779600	0.197300	0.177000
C571	C57	0.570000	0.596400	0.100300
C581	C58	0.650200	0.573700	0.085400
C591	C59	0.717700	0.579400	0.144700
H331	H33	0.711800	0.594800	0.193700
C601	C60	0.793800	0.561800	0.130100
H341	H34	0.840000	0.566300	0.168400
C611	C61	0.799400	0.537700	0.057500
C621	C62	0.733000	0.530400	0.999000
H351	H35	0.739000	0.513400	0.950800
C631	C63	0.657500	0.548800	0.012700
H361	H36	0.611800	0.544600	0.973700
C641	C64	0.931300	0.590700	0.002900
C651	C65	0.975600	0.636900	0.053200
H371	H37	0.984800	0.630000	0.106700
C661	C66	0.005600	0.692500	0.023000
H381	H38	0.035800	0.723300	0.056200
C671	C67	0.991500	0.703600	0.943500
C681	C68	0.945600	0.658100	0.894200
H391	H39	0.934600	0.666000	0.840800
C691	C69	0.916000	0.601000	0.924000
H401	H40	0.886200	0.569900	0.890800
C701	C70	0.027600	0.763100	0.910300
C711	C71	0.359100	0.617000	0.204400
C721	C72	0.283600	0.603900	0.237600
C731	C73	0.212800	0.581900	0.188900
H411	H41	0.212900	0.574300	0.136400
C741	C74	0.142500	0.571500	0.218500
H421	H42	0.095200	0.556600	0.186500
C751	C75	0.144100	0.583600	0.296800
C761	C76	0.212400	0.607600	0.344700
H431	H43	0.211300	0.617500	0.396600
C771	C77	0.282600	0.617000	0.315100
H441	H44	0.329500	0.632200	0.347400
C781	C78	0.053700	0.482200	0.347200
C791	C79	0.013800	0.442700	0.287700
H451	H45	0.989500	0.461900	0.240700
C801	C80	0.010100	0.374600	0.298500
H461	H46	0.981500	0.348100	0.259100
C811	C81	0.049000	0.344900	0.368000
C821	C82	0.092100	0.386500	0.426000
H471	H47	0.119900	0.367400	0.471800
C831	C83	0.094100	0.453100	0.417000
H481	H48	0.122100	0.479900	0.456500
C841	C84	0.042400	0.271000	0.376600
Co71	Co7	0.040890	0.834200	0.756680
Co81	Co8	0.146510	0.874830	0.944420
Co91	Co9	0.914720	0.854060	0.560930
S71	S7	0.947620	0.224890	0.734150
S81	S8	0.396870	0.983510	0.539520
S91	S9	0.555540	0.930110	0.834400
O371	O37	0.521600	0.734900	0.337400
O381	O38	0.061000	0.899300	0.669200
O391	O39	0.919600	0.863100	0.751000
O401	O40	0.336500	0.306500	0.733100
O411	O41	0.491800	0.259700	0.827800
O421	O42	0.073500	0.913340	0.835600
O431	O43	0.281600	0.315500	0.606600
O441	O44	0.561900	0.694100	0.457900
O451	O45	0.067100	0.956200	0.948500
O461	O46	0.015500	0.891400	0.542100
O471	O47	0.853100	0.893100	0.633100
O481	O48	0.588300	0.256400	0.934300
O491	O49	0.928100	0.268000	0.793800
O501	O50	0.893100	0.220100	0.661500
O511	O51	0.448100	0.998800	0.612300
O521	O52	0.385600	0.032600	0.478700
O531	O53	0.486600	0.913100	0.776500
O541	O54	0.565800	0.898600	0.909100
C851	C85	0.050200	0.959900	0.876600
C861	C86	0.011500	0.020900	0.838600
C871	C87	0.994800	0.073300	0.884200
H491	H49	0.998900	0.066800	0.937500
C881	C88	0.972100	0.135100	0.852900
H501	H50	0.962700	0.170400	0.884600
C891	C89	0.963800	0.143300	0.774400
C901	C90	0.975500	0.091000	0.725600
H511	H51	0.968300	0.097200	0.672000
C911	C91	0.998300	0.028900	0.758600
H521	H52	0.004700	0.992800	0.726700
C921	C92	0.044700	0.247500	0.717100
C931	C93	0.107400	0.257300	0.779300
H531	H53	0.097900	0.253000	0.829900
C941	C94	0.183700	0.273400	0.766700
H541	H54	0.226300	0.279000	0.808500
C951	C95	0.196700	0.281100	0.691000
C961	C96	0.132300	0.272400	0.628800
H551	H55	0.140600	0.279600	0.578100
C971	C97	0.056700	0.253200	0.641600
H561	H56	0.014700	0.244400	0.600100
C981	C98	0.279600	0.302700	0.677000
C991	C99	0.070000	0.903600	0.600300
C1001	C100	0.150200	0.926300	0.585400
C1011	C101	0.217700	0.920600	0.644700
H571	H57	0.211800	0.905200	0.693700
C1021	C102	0.293800	0.938200	0.630100
H581	H58	0.340000	0.933700	0.668400
C1031	C103	0.299400	0.962300	0.557500
C1041	C104	0.233000	0.969600	0.499000
H591	H59	0.239000	0.986600	0.450800
C1051	C105	0.157500	0.951200	0.512700
H601	H60	0.111800	0.955400	0.473700
C1061	C106	0.431300	0.909300	0.502900
C1071	C107	0.475600	0.863100	0.553200
H611	H61	0.484800	0.870000	0.606700
C1081	C108	0.505600	0.807500	0.523000
H621	H62	0.535800	0.776700	0.556200
C1091	C109	0.491500	0.796400	0.443500
C1101	C110	0.445600	0.841900	0.394200
H631	H63	0.434600	0.834000	0.340800
C1111	C111	0.416000	0.899000	0.424000
H641	H64	0.386200	0.930100	0.390800
C1121	C112	0.527600	0.736900	0.410300
C1131	C113	0.859100	0.883000	0.704400
C1141	C114	0.783600	0.896100	0.737600
C1151	C115	0.712800	0.918100	0.688900
H651	H65	0.712900	0.925700	0.636400
C1161	C116	0.642500	0.928500	0.718500
H661	H66	0.595200	0.943400	0.686500
C1171	C117	0.644100	0.916400	0.796800
C1181	C118	0.712400	0.892400	0.844700
H671	H67	0.711300	0.882500	0.896600
C1191	C119	0.782600	0.883000	0.815100
H681	H68	0.829500	0.867800	0.847400
C1201	C120	0.553700	0.017800	0.847200
C1211	C121	0.513800	0.057300	0.787700
H691	H69	0.489500	0.038100	0.740700
C1221	C122	0.510100	0.125400	0.798500
H701	H70	0.481500	0.151900	0.759100
C1231	C123	0.549000	0.155100	0.868000
C1241	C124	0.592100	0.113500	0.926000
H711	H71	0.619900	0.132600	0.971800
C1251	C125	0.594100	0.046900	0.917000
H721	H72	0.622100	0.020100	0.956500
C1261	C126	0.542400	0.229000	0.876600
Co101	Co10	0.459110	0.334200	0.743320
Co111	Co11	0.353490	0.374830	0.555580
Co121	Co12	0.585280	0.354060	0.939070
S101	S10	0.552380	0.724890	0.765850
S111	S11	0.103130	0.483510	0.960480
S121	S12	0.944460	0.430110	0.665600
O551	O55	0.978400	0.234900	0.162600
O561	O56	0.439000	0.399300	0.830800
O571	O57	0.580400	0.363100	0.749000
O581	O58	0.163500	0.806500	0.766900
O591	O59	0.008200	0.759700	0.672200
O601	O60	0.426500	0.413340	0.664400
O611	O61	0.218400	0.815500	0.893400
O621	O62	0.938100	0.194100	0.042100
O631	O63	0.432900	0.456200	0.551500
O641	O64	0.484500	0.391400	0.957900
O651	O65	0.646900	0.393100	0.866900
O661	O66	0.911700	0.756400	0.565700
O671	O67	0.571900	0.768000	0.706200
O681	O68	0.606900	0.720100	0.838500
O691	O69	0.051900	0.498800	0.887700
O701	O70	0.114400	0.532600	0.021300
O711	O71	0.013400	0.413100	0.723500
O721	O72	0.934200	0.398600	0.590900
C1271	C127	0.449800	0.459900	0.623400
C1281	C128	0.488500	0.520900	0.661400
C1291	C129	0.505200	0.573300	0.615800
H731	H73	0.501100	0.566800	0.562500
C1301	C130	0.527900	0.635100	0.647100
H741	H74	0.537300	0.670400	0.615400
C1311	C131	0.536200	0.643300	0.725600
C1321	C132	0.524500	0.591000	0.774400
H751	H75	0.531700	0.597200	0.828000
C1331	C133	0.501700	0.528900	0.741400
H761	H76	0.495300	0.492800	0.773300
C1341	C134	0.455300	0.747500	0.782900
C1351	C135	0.392600	0.757300	0.720700
H771	H77	0.402100	0.753000	0.670100
C1361	C136	0.316300	0.773400	0.733300
H781	H78	0.273700	0.779000	0.691500
C1371	C137	0.303300	0.781100	0.809000
C1381	C138	0.367700	0.772400	0.871200
H791	H79	0.359400	0.779600	0.921900
C1391	C139	0.443300	0.753200	0.858400
H801	H80	0.485300	0.744400	0.899900
C1401	C140	0.220400	0.802700	0.823000
C1411	C141	0.430000	0.403600	0.899700
C1421	C142	0.349800	0.426300	0.914600
C1431	C143	0.282300	0.420600	0.855300
H811	H81	0.288200	0.405200	0.806300
C1441	C144	0.206200	0.438200	0.869900
H821	H82	0.160000	0.433700	0.831600
C1451	C145	0.200600	0.462300	0.942500
C1461	C146	0.267000	0.469600	0.001000
H831	H83	0.261000	0.486600	0.049200
C1471	C147	0.342500	0.451200	0.987300
H841	H84	0.388200	0.455400	0.026300
C1481	C148	0.068700	0.409300	0.997100
C1491	C149	0.024400	0.363100	0.946800
H851	H85	0.015200	0.370000	0.893300
C1501	C150	0.994400	0.307500	0.977000
H861	H86	0.964200	0.276700	0.943800
C1511	C151	0.008500	0.296400	0.056500
C1521	C152	0.054400	0.341900	0.105800
H871	H87	0.065400	0.334000	0.159200
C1531	C153	0.084000	0.399000	0.076000
H881	H88	0.113800	0.430100	0.109200
C1541	C154	0.972400	0.236900	0.089700
C1551	C155	0.640900	0.383000	0.795600
C1561	C156	0.716400	0.396100	0.762400
C1571	C157	0.787200	0.418100	0.811100
H891	H89	0.787100	0.425700	0.863600
C1581	C158	0.857500	0.428500	0.781500
H901	H90	0.904800	0.443400	0.813500
C1591	C159	0.855900	0.416400	0.703200
C1601	C160	0.787600	0.392400	0.655300
H911	H91	0.788700	0.382500	0.603400
C1611	C161	0.717400	0.383000	0.684900
H921	H92	0.670500	0.367800	0.652600
C1621	C162	0.946300	0.517800	0.652800
C1631	C163	0.986200	0.557300	0.712300
H931	H93	0.010500	0.538100	0.759300
C1641	C164	0.989900	0.625400	0.701500
H941	H94	0.018500	0.651900	0.740900
C1651	C165	0.951000	0.655100	0.632000
C1661	C166	0.907900	0.613500	0.574000
H951	H95	0.880100	0.632600	0.528200
C1671	C167	0.905900	0.546900	0.583000
H961	H96	0.877900	0.520100	0.543500
C1681	C168	0.957600	0.729000	0.623400
