data_COWREN_clean_PM
_symmetry_space_group_name_H-M	'P1'
_cell_length_a	16.703300
_cell_length_b	20.019500
_cell_length_c	17.460200
_cell_angle_alpha	90.000000
_cell_angle_beta	100.423000
_cell_angle_gamma	90.000000
_symmetry_Int_Tables_number 1

loop_
_symmetry_equiv_pos_as_xyz
'x,y,z'

loop_
_atom_site_label
_atom_site_type_symbol
_atom_site_fract_x
_atom_site_fract_y
_atom_site_fract_z
Co11	Co1	0.038840	0.164950	0.254650
Co21	Co2	0.143560	0.125420	0.444730
Co31	Co3	0.913110	0.143450	0.057370
S11	S1	0.551030	0.273620	0.267880
S21	S2	0.396280	0.015330	0.041120
S31	S3	0.555630	0.068810	0.341440
N11	N1	0.233400	0.049200	0.434300
O11	O1	0.521500	0.265900	0.838000
O21	O2	0.917600	0.137300	0.251000
O31	O3	0.161400	0.191400	0.262500
O41	O4	0.054800	0.099300	0.164200
O51	O5	0.494400	0.739700	0.330200
O61	O6	0.427900	0.585900	0.165700
O71	O7	0.213600	0.183400	0.391300
O81	O8	0.557500	0.307300	0.960400
O91	O9	0.428200	0.539800	0.051300
O101	O10	0.013900	0.106500	0.035000
O111	O11	0.851200	0.105400	0.132200
O121	O12	0.589400	0.741800	0.437500
O131	O13	0.603000	0.278700	0.343400
O141	O14	0.573600	0.230800	0.208700
O151	O15	0.445100	0.000300	0.116200
O161	O16	0.387600	0.966600	0.979000
O171	O17	0.486300	0.086000	0.283900
O181	O18	0.566300	0.099000	0.418000
C11	C1	0.217600	0.195300	0.320300
C21	C2	0.301100	0.215500	0.306200
C31	C3	0.361700	0.227300	0.370900
H11	H1	0.350700	0.222800	0.421000
C41	C4	0.438300	0.245700	0.359400
H21	H2	0.479200	0.255100	0.401700
C51	C5	0.453400	0.249900	0.283600
C61	C6	0.393800	0.237900	0.218700
H31	H3	0.405600	0.241000	0.168700
C71	C7	0.316500	0.221200	0.230000
H41	H4	0.275100	0.213700	0.187500
C81	C8	0.534200	0.354900	0.227400
C91	C9	0.522500	0.407600	0.276100
H51	H5	0.531000	0.401900	0.329800
C101	C10	0.497900	0.469300	0.242900
H61	H6	0.489200	0.505000	0.274400
C111	C11	0.486400	0.477200	0.162500
C121	C12	0.504100	0.424800	0.115200
H71	H7	0.499700	0.431200	0.061900
C131	C13	0.528300	0.363400	0.148300
H81	H8	0.540400	0.328300	0.117400
C141	C14	0.447000	0.538600	0.124000
C151	C15	0.066300	0.094000	0.095000
C161	C16	0.147400	0.072400	0.082200
C171	C17	0.212700	0.074300	0.143800
H91	H9	0.204800	0.087100	0.193100
C181	C18	0.289200	0.057100	0.131700
H101	H10	0.333800	0.059900	0.172000
C191	C19	0.298700	0.035400	0.057700
C201	C20	0.233500	0.031000	0.996100
H111	H11	0.240900	0.015400	0.947700
C211	C21	0.158800	0.050100	0.008100
H121	H12	0.114700	0.048500	0.967200
C221	C22	0.431200	0.090000	0.005700
C231	C23	0.474300	0.135300	0.056200
H131	H13	0.483300	0.127800	0.109700
C241	C24	0.504500	0.192700	0.025800
H141	H14	0.534000	0.223700	0.059200
C251	C25	0.490300	0.203900	0.944900
C261	C26	0.445500	0.157400	0.895000
H151	H15	0.435500	0.165000	0.841600
C271	C27	0.416200	0.100700	0.924200
H161	H16	0.386800	0.069500	0.890800
C281	C28	0.525500	0.264000	0.911300
C291	C29	0.857100	0.116500	0.205100
C301	C30	0.781700	0.104000	0.239400
C311	C31	0.711800	0.081400	0.191900
H171	H17	0.711600	0.073100	0.139400
C321	C32	0.642100	0.071100	0.222400
H181	H18	0.594900	0.055700	0.190700
C331	C33	0.643000	0.083900	0.300600
C341	C34	0.711400	0.108100	0.348400
H191	H19	0.711000	0.117300	0.400600
C351	C35	0.780600	0.118400	0.317400
H201	H20	0.827200	0.135200	0.348900
C361	C36	0.555500	0.981000	0.353800
C371	C37	0.515900	0.942300	0.292400
H211	H21	0.491500	0.961900	0.245800
C381	C38	0.513800	0.873300	0.302300
H221	H22	0.487300	0.846700	0.261900
C391	C39	0.550900	0.843600	0.372100
C401	C40	0.591800	0.883800	0.432300
H231	H23	0.617800	0.864200	0.478500
C411	C41	0.593800	0.952100	0.423500
H241	H24	0.620500	0.978700	0.463800
C421	C42	0.544000	0.768900	0.379800
C431	C43	0.277500	0.037400	0.402600
C441	C44	0.343900	0.027800	0.343300
H251	H25	0.315300	0.018200	0.291700
H261	H26	0.380000	0.991600	0.361400
H271	H27	0.374700	0.068200	0.342500
Co41	Co4	0.461160	0.664950	0.245350
Co51	Co5	0.356440	0.625420	0.055270
Co61	Co6	0.586890	0.643450	0.442630
S41	S4	0.948970	0.773620	0.232120
S51	S5	0.103720	0.515330	0.458880
S61	S6	0.944370	0.568810	0.158560
N21	N2	0.266600	0.549200	0.065700
O191	O19	0.978500	0.765900	0.662000
O201	O20	0.582400	0.637300	0.249000
O211	O21	0.338600	0.691400	0.237500
O221	O22	0.445200	0.599300	0.335800
O231	O23	0.005600	0.239700	0.169800
O241	O24	0.072100	0.085900	0.334300
O251	O25	0.286400	0.683400	0.108700
O261	O26	0.942500	0.807300	0.539600
O271	O27	0.071800	0.039800	0.448700
O281	O28	0.486100	0.606500	0.465000
O291	O29	0.648800	0.605400	0.367800
O301	O30	0.910600	0.241800	0.062500
O311	O31	0.897000	0.778700	0.156600
O321	O32	0.926400	0.730800	0.291300
O331	O33	0.054900	0.500300	0.383800
O341	O34	0.112400	0.466600	0.521000
O351	O35	0.013700	0.586000	0.216100
O361	O36	0.933700	0.599000	0.082000
C451	C45	0.282400	0.695300	0.179700
C461	C46	0.198900	0.715500	0.193800
C471	C47	0.138300	0.727300	0.129100
H281	H28	0.149300	0.722800	0.079000
C481	C48	0.061700	0.745700	0.140600
H291	H29	0.020800	0.755100	0.098300
C491	C49	0.046600	0.749900	0.216400
C501	C50	0.106200	0.737900	0.281300
H301	H30	0.094400	0.741000	0.331300
C511	C51	0.183500	0.721200	0.270000
H311	H31	0.224900	0.713700	0.312500
C521	C52	0.965800	0.854900	0.272600
C531	C53	0.977500	0.907600	0.223900
H321	H32	0.969000	0.901900	0.170200
C541	C54	0.002100	0.969300	0.257100
H331	H33	0.010800	0.005000	0.225600
C551	C55	0.013600	0.977200	0.337500
C561	C56	0.995900	0.924800	0.384800
H341	H34	0.000300	0.931200	0.438100
C571	C57	0.971700	0.863400	0.351700
H351	H35	0.959600	0.828300	0.382600
C581	C58	0.053000	0.038600	0.376000
C591	C59	0.433700	0.594000	0.405000
C601	C60	0.352600	0.572400	0.417800
C611	C61	0.287300	0.574300	0.356200
H361	H36	0.295200	0.587100	0.306900
C621	C62	0.210800	0.557100	0.368300
H371	H37	0.166200	0.559900	0.328000
C631	C63	0.201300	0.535400	0.442300
C641	C64	0.266500	0.531000	0.503900
H381	H38	0.259100	0.515400	0.552300
C651	C65	0.341200	0.550100	0.491900
H391	H39	0.385300	0.548500	0.532800
C661	C66	0.068800	0.590000	0.494300
C671	C67	0.025700	0.635300	0.443800
H401	H40	0.016700	0.627800	0.390300
C681	C68	0.995500	0.692700	0.474200
H411	H41	0.966000	0.723700	0.440800
C691	C69	0.009700	0.703900	0.555100
C701	C70	0.054500	0.657400	0.605000
H421	H42	0.064500	0.665000	0.658400
C711	C71	0.083800	0.600700	0.575800
H431	H43	0.113200	0.569500	0.609200
C721	C72	0.974500	0.764000	0.588700
C731	C73	0.642900	0.616500	0.294900
C741	C74	0.718300	0.604000	0.260600
C751	C75	0.788200	0.581400	0.308100
H441	H44	0.788400	0.573100	0.360600
C761	C76	0.857900	0.571100	0.277600
H451	H45	0.905100	0.555700	0.309300
C771	C77	0.857000	0.583900	0.199400
C781	C78	0.788600	0.608100	0.151600
H461	H46	0.789000	0.617300	0.099400
C791	C79	0.719400	0.618400	0.182600
H471	H47	0.672800	0.635200	0.151100
C801	C80	0.944500	0.481000	0.146200
C811	C81	0.984100	0.442300	0.207600
H481	H48	0.008500	0.461900	0.254200
C821	C82	0.986200	0.373300	0.197700
H491	H49	0.012700	0.346700	0.238100
C831	C83	0.949100	0.343600	0.127900
C841	C84	0.908200	0.383800	0.067700
H501	H50	0.882200	0.364200	0.021500
C851	C85	0.906200	0.452100	0.076500
H511	H51	0.879500	0.478700	0.036200
C861	C86	0.956000	0.268900	0.120200
C871	C87	0.222500	0.537400	0.097400
C881	C88	0.156100	0.527800	0.156700
H521	H52	0.184700	0.518200	0.208300
H531	H53	0.120000	0.491600	0.138600
H541	H54	0.125300	0.568200	0.157500
Co71	Co7	0.961160	0.835050	0.745350
Co81	Co8	0.856440	0.874580	0.555270
Co91	Co9	0.086890	0.856550	0.942630
S71	S7	0.448970	0.726380	0.732120
S81	S8	0.603720	0.984670	0.958880
S91	S9	0.444370	0.931190	0.658560
N31	N3	0.766600	0.950800	0.565700
O371	O37	0.478500	0.734100	0.162000
O381	O38	0.082400	0.862700	0.749000
O391	O39	0.838600	0.808600	0.737500
O401	O40	0.945200	0.900700	0.835800
O411	O41	0.505600	0.260300	0.669800
O421	O42	0.572100	0.414100	0.834300
O431	O43	0.786400	0.816600	0.608700
O441	O44	0.442500	0.692700	0.039600
O451	O45	0.571800	0.460200	0.948700
O461	O46	0.986100	0.893500	0.965000
O471	O47	0.148800	0.894600	0.867800
O481	O48	0.410600	0.258200	0.562500
O491	O49	0.397000	0.721300	0.656600
O501	O50	0.426400	0.769200	0.791300
O511	O51	0.554900	0.999700	0.883800
O521	O52	0.612400	0.033400	0.021000
O531	O53	0.513700	0.914000	0.716100
O541	O54	0.433700	0.901000	0.582000
C891	C89	0.782400	0.804700	0.679700
C901	C90	0.698900	0.784500	0.693800
C911	C91	0.638300	0.772700	0.629100
H551	H55	0.649300	0.777200	0.579000
C921	C92	0.561700	0.754300	0.640600
H561	H56	0.520800	0.744900	0.598300
C931	C93	0.546600	0.750100	0.716400
C941	C94	0.606200	0.762100	0.781300
H571	H57	0.594400	0.759000	0.831300
C951	C95	0.683500	0.778800	0.770000
H581	H58	0.724900	0.786300	0.812500
C961	C96	0.465800	0.645100	0.772600
C971	C97	0.477500	0.592400	0.723900
H591	H59	0.469000	0.598100	0.670200
C981	C98	0.502100	0.530700	0.757100
H601	H60	0.510800	0.495000	0.725600
C991	C99	0.513600	0.522800	0.837500
C1001	C100	0.495900	0.575200	0.884800
H611	H61	0.500300	0.568800	0.938100
C1011	C101	0.471700	0.636600	0.851700
H621	H62	0.459600	0.671700	0.882600
C1021	C102	0.553000	0.461400	0.876000
C1031	C103	0.933700	0.906000	0.905000
C1041	C104	0.852600	0.927600	0.917800
C1051	C105	0.787300	0.925700	0.856200
H631	H63	0.795200	0.912900	0.806900
C1061	C106	0.710800	0.942900	0.868300
H641	H64	0.666200	0.940100	0.828000
C1071	C107	0.701300	0.964600	0.942300
C1081	C108	0.766500	0.969000	0.003900
H651	H65	0.759100	0.984600	0.052300
C1091	C109	0.841200	0.949900	0.991900
H661	H66	0.885300	0.951500	0.032800
C1101	C110	0.568800	0.910000	0.994300
C1111	C111	0.525700	0.864700	0.943800
H671	H67	0.516700	0.872200	0.890300
C1121	C112	0.495500	0.807300	0.974200
H681	H68	0.466000	0.776300	0.940800
C1131	C113	0.509700	0.796100	0.055100
C1141	C114	0.554500	0.842600	0.105000
H691	H69	0.564500	0.835000	0.158400
C1151	C115	0.583800	0.899300	0.075800
H701	H70	0.613200	0.930500	0.109200
C1161	C116	0.474500	0.736000	0.088700
C1171	C117	0.142900	0.883500	0.794900
C1181	C118	0.218300	0.896000	0.760600
C1191	C119	0.288200	0.918600	0.808100
H711	H71	0.288400	0.926900	0.860600
C1201	C120	0.357900	0.928900	0.777600
H721	H72	0.405100	0.944300	0.809300
C1211	C121	0.357000	0.916100	0.699400
C1221	C122	0.288600	0.891900	0.651600
H731	H73	0.289000	0.882700	0.599400
C1231	C123	0.219400	0.881600	0.682600
H741	H74	0.172800	0.864800	0.651100
C1241	C124	0.444500	0.019000	0.646200
C1251	C125	0.484100	0.057700	0.707600
H751	H75	0.508500	0.038100	0.754200
C1261	C126	0.486200	0.126700	0.697700
H761	H76	0.512700	0.153300	0.738100
C1271	C127	0.449100	0.156400	0.627900
C1281	C128	0.408200	0.116200	0.567700
H771	H77	0.382200	0.135800	0.521500
C1291	C129	0.406200	0.047900	0.576500
H781	H78	0.379500	0.021300	0.536200
C1301	C130	0.456000	0.231100	0.620200
C1311	C131	0.722500	0.962600	0.597400
C1321	C132	0.656100	0.972200	0.656700
H791	H79	0.684700	0.981800	0.708300
H801	H80	0.620000	0.008400	0.638600
H811	H81	0.625300	0.931800	0.657500
Co101	Co10	0.538840	0.335050	0.754650
Co111	Co11	0.643560	0.374580	0.944730
Co121	Co12	0.413110	0.356550	0.557370
S101	S10	0.051030	0.226380	0.767880
S111	S11	0.896280	0.484670	0.541120
S121	S12	0.055630	0.431190	0.841440
N41	N4	0.733400	0.450800	0.934300
O551	O55	0.021500	0.234100	0.338000
O561	O56	0.417600	0.362700	0.751000
O571	O57	0.661400	0.308600	0.762500
O581	O58	0.554800	0.400700	0.664200
O591	O59	0.994400	0.760300	0.830200
O601	O60	0.927900	0.914100	0.665700
O611	O61	0.713600	0.316600	0.891300
O621	O62	0.057500	0.192700	0.460400
O631	O63	0.928200	0.960200	0.551300
O641	O64	0.513900	0.393500	0.535000
O651	O65	0.351200	0.394600	0.632200
O661	O66	0.089400	0.758200	0.937500
O671	O67	0.103000	0.221300	0.843400
O681	O68	0.073600	0.269200	0.708700
O691	O69	0.945100	0.499700	0.616200
O701	O70	0.887600	0.533400	0.479000
O711	O71	0.986300	0.414000	0.783900
O721	O72	0.066300	0.401000	0.918000
C1331	C133	0.717600	0.304700	0.820300
C1341	C134	0.801100	0.284500	0.806200
C1351	C135	0.861700	0.272700	0.870900
H821	H82	0.850700	0.277200	0.921000
C1361	C136	0.938300	0.254300	0.859400
H831	H83	0.979200	0.244900	0.901700
C1371	C137	0.953400	0.250100	0.783600
C1381	C138	0.893800	0.262100	0.718700
H841	H84	0.905600	0.259000	0.668700
C1391	C139	0.816500	0.278800	0.730000
H851	H85	0.775100	0.286300	0.687500
C1401	C140	0.034200	0.145100	0.727400
C1411	C141	0.022500	0.092400	0.776100
H861	H86	0.031000	0.098100	0.829800
C1421	C142	0.997900	0.030700	0.742900
H871	H87	0.989200	0.995000	0.774400
C1431	C143	0.986400	0.022800	0.662500
C1441	C144	0.004100	0.075200	0.615200
H881	H88	0.999700	0.068800	0.561900
C1451	C145	0.028300	0.136600	0.648300
H891	H89	0.040400	0.171700	0.617400
C1461	C146	0.947000	0.961400	0.624000
C1471	C147	0.566300	0.406000	0.595000
C1481	C148	0.647400	0.427600	0.582200
C1491	C149	0.712700	0.425700	0.643800
H901	H90	0.704800	0.412900	0.693100
C1501	C150	0.789200	0.442900	0.631700
H911	H91	0.833800	0.440100	0.672000
C1511	C151	0.798700	0.464600	0.557700
C1521	C152	0.733500	0.469000	0.496100
H921	H92	0.740900	0.484600	0.447700
C1531	C153	0.658800	0.449900	0.508100
H931	H93	0.614700	0.451500	0.467200
C1541	C154	0.931200	0.410000	0.505700
C1551	C155	0.974300	0.364700	0.556200
H941	H94	0.983300	0.372200	0.609700
C1561	C156	0.004500	0.307300	0.525800
H951	H95	0.034000	0.276300	0.559200
C1571	C157	0.990300	0.296100	0.444900
C1581	C158	0.945500	0.342600	0.395000
H961	H96	0.935500	0.335000	0.341600
C1591	C159	0.916200	0.399300	0.424200
H971	H97	0.886800	0.430500	0.390800
C1601	C160	0.025500	0.236000	0.411300
C1611	C161	0.357100	0.383500	0.705100
C1621	C162	0.281700	0.396000	0.739400
C1631	C163	0.211800	0.418600	0.691900
H981	H98	0.211600	0.426900	0.639400
C1641	C164	0.142100	0.428900	0.722400
H991	H99	0.094900	0.444300	0.690700
C1651	C165	0.143000	0.416100	0.800600
C1661	C166	0.211400	0.391900	0.848400
H1001	H100	0.211000	0.382700	0.900600
C1671	C167	0.280600	0.381600	0.817400
H1011	H101	0.327200	0.364800	0.848900
C1681	C168	0.055500	0.519000	0.853800
C1691	C169	0.015900	0.557700	0.792400
H1021	H102	0.991500	0.538100	0.745800
C1701	C170	0.013800	0.626700	0.802300
H1031	H103	0.987300	0.653300	0.761900
C1711	C171	0.050900	0.656400	0.872100
C1721	C172	0.091800	0.616200	0.932300
H1041	H104	0.117800	0.635800	0.978500
C1731	C173	0.093800	0.547900	0.923500
H1051	H105	0.120500	0.521300	0.963800
C1741	C174	0.044000	0.731100	0.879800
C1751	C175	0.777500	0.462600	0.902600
C1761	C176	0.843900	0.472200	0.843300
H1061	H106	0.815300	0.481800	0.791700
H1071	H107	0.880000	0.508400	0.861400
H1081	H108	0.874700	0.431800	0.842500
