data_COYCEZ_clean_PM
_symmetry_space_group_name_H-M	'P1'
_cell_length_a	9.999800
_cell_length_b	17.664000
_cell_length_c	27.294000
_cell_angle_alpha	90.000000
_cell_angle_beta	90.000000
_cell_angle_gamma	100.510000
_symmetry_Int_Tables_number 1

loop_
_symmetry_equiv_pos_as_xyz
'x,y,z'

loop_
_atom_site_label
_atom_site_type_symbol
_atom_site_fract_x
_atom_site_fract_y
_atom_site_fract_z
Cu11	Cu1	0.754050	0.176260	0.592160
Cu21	Cu2	0.115310	0.180530	0.549550
Cu31	Cu3	0.054190	0.298370	0.657880
Cu41	Cu4	0.245950	0.323740	0.092160
Cu51	Cu5	0.884690	0.319470	0.049550
Cu61	Cu6	0.945810	0.201630	0.157880
Cu71	Cu7	0.245950	0.823740	0.407840
Cu81	Cu8	0.884690	0.819470	0.450450
Cu91	Cu9	0.945810	0.701630	0.342120
Cu101	Cu10	0.754050	0.676260	0.907840
Cu111	Cu11	0.115310	0.680530	0.950450
Cu121	Cu12	0.054190	0.798370	0.842120
Mo11	Mo1	0.984270	0.148790	0.635560
Mo21	Mo2	0.015730	0.351210	0.135560
Mo31	Mo3	0.015730	0.851210	0.364440
Mo41	Mo4	0.984270	0.648790	0.864440
H11	H1	0.149100	0.017900	0.553900
H21	H2	0.310700	0.940600	0.539300
H31	H3	0.541700	0.123300	0.473900
H41	H4	0.373400	0.193300	0.489900
H51	H5	0.327800	0.812900	0.794900
H61	H6	0.461100	0.887000	0.737500
H71	H7	0.133600	0.975900	0.696300
H81	H8	0.008900	0.898500	0.754500
H91	H9	0.304400	0.082800	0.676500
H101	H10	0.459400	0.163400	0.628000
H111	H11	0.677700	0.002500	0.611400
H121	H12	0.530400	0.917700	0.658900
H131	H13	0.281500	0.333700	0.516700
H141	H14	0.251400	0.443100	0.473200
H151	H15	0.868800	0.334600	0.442500
H161	H16	0.912200	0.228900	0.484300
H171	H17	0.170500	0.551100	0.461900
H181	H18	0.117600	0.657300	0.421700
H191	H19	0.829400	0.526800	0.346600
H201	H20	0.863700	0.419200	0.388400
H211	H21	0.850900	0.482100	0.053900
H221	H22	0.689300	0.559400	0.039300
H231	H23	0.458300	0.376700	0.973900
H241	H24	0.626600	0.306700	0.989900
H251	H25	0.672200	0.687100	0.294900
H261	H26	0.538900	0.613000	0.237500
H271	H27	0.866400	0.524100	0.196300
H281	H28	0.991100	0.601500	0.254500
H291	H29	0.695600	0.417200	0.176500
H301	H30	0.540600	0.336600	0.128000
H311	H31	0.322300	0.497500	0.111400
H321	H32	0.469600	0.582300	0.158900
H331	H33	0.718500	0.166300	0.016700
H341	H34	0.748600	0.056900	0.973200
H351	H35	0.131200	0.165400	0.942500
H361	H36	0.087800	0.271100	0.984300
H371	H37	0.829500	0.948900	0.961900
H381	H38	0.882400	0.842700	0.921700
H391	H39	0.170600	0.973200	0.846600
H401	H40	0.136300	0.080800	0.888400
H411	H41	0.850900	0.982100	0.446100
H421	H42	0.689300	0.059400	0.460700
H431	H43	0.458300	0.876700	0.526100
H441	H44	0.626600	0.806700	0.510100
H451	H45	0.672200	0.187100	0.205100
H461	H46	0.538900	0.113000	0.262500
H471	H47	0.866400	0.024100	0.303700
H481	H48	0.991100	0.101500	0.245500
H491	H49	0.695600	0.917200	0.323500
H501	H50	0.540600	0.836600	0.372000
H511	H51	0.322300	0.997500	0.388600
H521	H52	0.469600	0.082300	0.341100
H531	H53	0.718500	0.666300	0.483300
H541	H54	0.748600	0.556900	0.526800
H551	H55	0.131200	0.665400	0.557500
H561	H56	0.087800	0.771100	0.515700
H571	H57	0.829500	0.448900	0.538100
H581	H58	0.882400	0.342700	0.578300
H591	H59	0.170600	0.473200	0.653400
H601	H60	0.136300	0.580800	0.611600
H611	H61	0.149100	0.517900	0.946100
H621	H62	0.310700	0.440600	0.960700
H631	H63	0.541700	0.623300	0.026100
H641	H64	0.373400	0.693300	0.010100
H651	H65	0.327800	0.312900	0.705100
H661	H66	0.461100	0.387000	0.762500
H671	H67	0.133600	0.475900	0.803700
H681	H68	0.008900	0.398500	0.745500
H691	H69	0.304400	0.582800	0.823500
H701	H70	0.459400	0.663400	0.872000
H711	H71	0.677700	0.502500	0.888600
H721	H72	0.530400	0.417700	0.841100
H731	H73	0.281500	0.833700	0.983300
H741	H74	0.251400	0.943100	0.026800
H751	H75	0.868800	0.834600	0.057500
H761	H76	0.912200	0.728900	0.015700
H771	H77	0.170500	0.051100	0.038100
H781	H78	0.117600	0.157300	0.078300
H791	H79	0.829400	0.026800	0.153400
H801	H80	0.863700	0.919200	0.111600
C11	C1	0.636900	0.283200	0.520300
C21	C2	0.230900	0.039800	0.537500
C31	C3	0.327100	0.992800	0.528900
C41	C4	0.446900	0.023800	0.504800
C51	C5	0.461700	0.099500	0.490600
C61	C6	0.360500	0.141300	0.500600
C71	C7	0.288100	0.847100	0.775000
C81	C8	0.368000	0.891100	0.740700
C91	C9	0.314300	0.940900	0.710900
C101	C10	0.176100	0.943200	0.716400
C111	C11	0.103100	0.897100	0.751400
C121	C12	0.402900	0.992400	0.676000
C131	C13	0.382400	0.065300	0.664500
C141	C14	0.475500	0.113200	0.635300
C151	C15	0.602000	0.019800	0.625700
C161	C16	0.514800	0.968700	0.654200
C171	C17	0.196500	0.334000	0.501300
C181	C18	0.178700	0.400400	0.475800
C191	C19	0.053400	0.403200	0.454200
C201	C20	0.954900	0.336500	0.457600
C211	C21	0.981700	0.273400	0.482700
C221	C22	0.025300	0.472400	0.429000
C231	C23	0.098500	0.544600	0.438700
C241	C24	0.066200	0.608000	0.414200
C251	C25	0.897600	0.532300	0.371200
C261	C26	0.920000	0.467500	0.395000
C271	C27	0.363100	0.216800	0.020300
C281	C28	0.769100	0.460200	0.037500
C291	C29	0.672900	0.507200	0.028900
C301	C30	0.553100	0.476200	0.004800
C311	C31	0.538300	0.400500	0.990600
C321	C32	0.639500	0.358700	0.000600
C331	C33	0.711900	0.652900	0.275000
C341	C34	0.632000	0.608900	0.240700
C351	C35	0.685700	0.559100	0.210900
C361	C36	0.823900	0.556800	0.216400
C371	C37	0.896900	0.602900	0.251400
C381	C38	0.597100	0.507600	0.176000
C391	C39	0.617600	0.434700	0.164500
C401	C40	0.524500	0.386800	0.135300
C411	C41	0.398000	0.480200	0.125700
C421	C42	0.485200	0.531300	0.154200
C431	C43	0.803500	0.166000	0.001300
C441	C44	0.821300	0.099600	0.975800
C451	C45	0.946600	0.096800	0.954200
C461	C46	0.045100	0.163500	0.957600
C471	C47	0.018300	0.226600	0.982700
C481	C48	0.974700	0.027600	0.929000
C491	C49	0.901500	0.955400	0.938700
C501	C50	0.933800	0.892000	0.914200
C511	C51	0.102400	0.967700	0.871200
C521	C52	0.080000	0.032500	0.895000
C531	C53	0.363100	0.716800	0.479700
C541	C54	0.769100	0.960200	0.462500
C551	C55	0.672900	0.007200	0.471100
C561	C56	0.553100	0.976200	0.495200
C571	C57	0.538300	0.900500	0.509400
C581	C58	0.639500	0.858700	0.499400
C591	C59	0.711900	0.152900	0.225000
C601	C60	0.632000	0.108900	0.259300
C611	C61	0.685700	0.059100	0.289100
C621	C62	0.823900	0.056800	0.283600
C631	C63	0.896900	0.102900	0.248600
C641	C64	0.597100	0.007600	0.324000
C651	C65	0.617600	0.934700	0.335500
C661	C66	0.524500	0.886800	0.364700
C671	C67	0.398000	0.980200	0.374300
C681	C68	0.485200	0.031300	0.345800
C691	C69	0.803500	0.666000	0.498700
C701	C70	0.821300	0.599600	0.524200
C711	C71	0.946600	0.596800	0.545800
C721	C72	0.045100	0.663500	0.542400
C731	C73	0.018300	0.726600	0.517300
C741	C74	0.974700	0.527600	0.571000
C751	C75	0.901500	0.455400	0.561300
C761	C76	0.933800	0.392000	0.585800
C771	C77	0.102400	0.467700	0.628800
C781	C78	0.080000	0.532500	0.605000
C791	C79	0.636900	0.783200	0.979700
C801	C80	0.230900	0.539800	0.962500
C811	C81	0.327100	0.492800	0.971100
C821	C82	0.446900	0.523800	0.995200
C831	C83	0.461700	0.599500	0.009400
C841	C84	0.360500	0.641300	0.999400
C851	C85	0.288100	0.347100	0.725000
C861	C86	0.368000	0.391100	0.759300
C871	C87	0.314300	0.440900	0.789100
C881	C88	0.176100	0.443200	0.783600
C891	C89	0.103100	0.397100	0.748600
C901	C90	0.402900	0.492400	0.824000
C911	C91	0.382400	0.565300	0.835500
C921	C92	0.475500	0.613200	0.864700
C931	C93	0.602000	0.519800	0.874300
C941	C94	0.514800	0.468700	0.845800
C951	C95	0.196500	0.834000	0.998700
C961	C96	0.178700	0.900400	0.024200
C971	C97	0.053400	0.903200	0.045800
C981	C98	0.954900	0.836500	0.042400
C991	C99	0.981700	0.773400	0.017300
C1001	C100	0.025300	0.972400	0.071000
C1011	C101	0.098500	0.044600	0.061300
C1021	C102	0.066200	0.108000	0.085800
C1031	C103	0.897600	0.032300	0.128800
C1041	C104	0.920000	0.967500	0.105000
S11	S1	0.844000	0.224170	0.666420
S21	S2	0.192220	0.222880	0.624980
S31	S3	0.905560	0.106060	0.560500
S41	S4	0.581300	0.338300	0.478990
S51	S5	0.156000	0.275830	0.166420
S61	S6	0.807780	0.277120	0.124980
S71	S7	0.094440	0.393940	0.060500
S81	S8	0.418700	0.161700	0.978990
S91	S9	0.156000	0.775830	0.333580
S101	S10	0.807780	0.777120	0.375020
S111	S11	0.094440	0.893940	0.439500
S121	S12	0.418700	0.661700	0.521010
S131	S13	0.844000	0.724170	0.833580
S141	S14	0.192220	0.722880	0.875020
S151	S15	0.905560	0.606060	0.939500
S161	S16	0.581300	0.838300	0.021010
N11	N1	0.247400	0.113200	0.524100
N21	N2	0.156000	0.850500	0.781500
N31	N3	0.587600	0.091500	0.616800
N41	N4	0.100100	0.271100	0.504900
N51	N5	0.967900	0.603800	0.381100
N61	N6	0.675500	0.244200	0.548600
N71	N7	0.752600	0.386800	0.024100
N81	N8	0.844000	0.649500	0.281500
N91	N9	0.412400	0.408500	0.116800
N101	N10	0.899900	0.228900	0.004900
N111	N11	0.032100	0.896200	0.881100
N121	N12	0.324500	0.255800	0.048600
N131	N13	0.752600	0.886800	0.475900
N141	N14	0.844000	0.149500	0.218500
N151	N15	0.412400	0.908500	0.383200
N161	N16	0.899900	0.728900	0.495100
N171	N17	0.032100	0.396200	0.618900
N181	N18	0.324500	0.755800	0.451400
N191	N19	0.247400	0.613200	0.975900
N201	N20	0.156000	0.350500	0.718500
N211	N21	0.587600	0.591500	0.883200
N221	N22	0.100100	0.771100	0.995100
N231	N23	0.967900	0.103800	0.118900
N241	N24	0.675500	0.744200	0.951400
