data_COYVAO01_clean_PM
_symmetry_space_group_name_H-M	'P1'
_cell_length_a	12.102500
_cell_length_b	12.680500
_cell_length_c	21.695000
_cell_angle_alpha	82.759000
_cell_angle_beta	74.685000
_cell_angle_gamma	61.496700
_symmetry_Int_Tables_number 1

loop_
_symmetry_equiv_pos_as_xyz
'x,y,z'

loop_
_atom_site_label
_atom_site_type_symbol
_atom_site_fract_x
_atom_site_fract_y
_atom_site_fract_z
Dy11	Dy1	0.508490	0.260340	0.474290
Dy21	Dy2	0.231170	0.260340	0.025710
Dy31	Dy3	0.491510	0.739660	0.525710
Dy41	Dy4	0.768830	0.739660	0.974290
Dy51	Dy5	0.753060	0.493880	0.250000
Dy61	Dy6	0.246940	0.506120	0.750000
Dy71	Dy7	0.213360	0.573280	0.250000
Dy81	Dy8	0.786640	0.426720	0.750000
H11	H1	0.900100	0.128600	0.414700
H21	H2	0.120700	0.300600	0.381300
H31	H3	0.106400	0.959400	0.405500
H41	H4	0.168500	0.196000	0.481500
H51	H5	0.471400	0.120200	0.337600
H61	H6	0.474700	0.942200	0.346200
H71	H7	0.971300	0.128600	0.085300
H81	H8	0.578700	0.300600	0.118700
H91	H9	0.934200	0.959400	0.094500
H101	H10	0.635500	0.196000	0.018500
H111	H11	0.408400	0.120200	0.162400
H121	H12	0.583100	0.942200	0.153800
H131	H13	0.099900	0.871400	0.585300
H141	H14	0.879300	0.699400	0.618700
H151	H15	0.893600	0.040600	0.594500
H161	H16	0.831500	0.804000	0.518500
H171	H17	0.528600	0.879800	0.662400
H181	H18	0.525300	0.057800	0.653800
H191	H19	0.028700	0.871400	0.914700
H201	H20	0.421300	0.699400	0.881300
H211	H21	0.065800	0.040600	0.905500
H221	H22	0.364500	0.804000	0.981500
H231	H23	0.591600	0.879800	0.837600
H241	H24	0.416900	0.057800	0.846200
C11	C1	0.353600	0.362800	0.352100
C21	C2	0.582300	0.699200	0.361800
C31	C3	0.722100	0.284400	0.346900
C41	C4	0.843000	0.278200	0.359200
C51	C5	0.920300	0.190600	0.395200
C61	C6	0.030200	0.195000	0.402400
C71	C7	0.050400	0.292000	0.375400
C81	C8	0.967400	0.374800	0.340200
C91	C9	0.983300	0.480800	0.306500
C101	C10	0.275500	0.757000	0.456000
C111	C11	0.239700	0.888400	0.459000
C121	C12	0.149300	0.978200	0.430000
C131	C13	0.120700	0.097400	0.436500
C141	C14	0.187300	0.116400	0.473600
C151	C15	0.280200	0.020800	0.499000
C161	C16	0.379600	0.030200	0.526200
C171	C17	0.373700	0.285600	0.299800
C181	C18	0.437600	0.161200	0.301800
C191	C19	0.580900	0.778000	0.304000
C201	C20	0.517500	0.901800	0.306300
C211	C21	0.283600	0.362800	0.147900
C221	C22	0.718500	0.699200	0.138200
C231	C23	0.993500	0.284400	0.153100
C241	C24	0.878800	0.278200	0.140800
C251	C25	0.889100	0.190600	0.104800
C261	C26	0.774800	0.195000	0.097600
C271	C27	0.657600	0.292000	0.124600
C281	C28	0.657800	0.374800	0.159800
C291	C29	0.535900	0.480800	0.193500
C301	C30	0.967500	0.757000	0.044000
C311	C31	0.871900	0.888400	0.041000
C321	C32	0.872500	0.978200	0.070000
C331	C33	0.781900	0.097400	0.063500
C341	C34	0.696300	0.116400	0.026400
C351	C35	0.699000	0.020800	0.001000
C361	C36	0.590200	0.030200	0.973800
C371	C37	0.340700	0.285600	0.200200
C381	C38	0.401200	0.161200	0.198200
C391	C39	0.641100	0.778000	0.196000
C401	C40	0.580700	0.901800	0.193700
C411	C41	0.646400	0.637200	0.647900
C421	C42	0.417700	0.300800	0.638200
C431	C43	0.277900	0.715600	0.653100
C441	C44	0.157000	0.721800	0.640800
C451	C45	0.079700	0.809400	0.604800
C461	C46	0.969800	0.805000	0.597600
C471	C47	0.949600	0.708000	0.624600
C481	C48	0.032600	0.625200	0.659800
C491	C49	0.016700	0.519200	0.693500
C501	C50	0.724500	0.243000	0.544000
C511	C51	0.760300	0.111600	0.541000
C521	C52	0.850700	0.021800	0.570000
C531	C53	0.879300	0.902600	0.563500
C541	C54	0.812700	0.883600	0.526400
C551	C55	0.719800	0.979200	0.501000
C561	C56	0.620400	0.969800	0.473800
C571	C57	0.626300	0.714400	0.700200
C581	C58	0.562400	0.838800	0.698200
C591	C59	0.419100	0.222000	0.696000
C601	C60	0.482500	0.098200	0.693700
C611	C61	0.716400	0.637200	0.852100
C621	C62	0.281500	0.300800	0.861800
C631	C63	0.006500	0.715600	0.846900
C641	C64	0.121200	0.721800	0.859200
C651	C65	0.110900	0.809400	0.895200
C661	C66	0.225200	0.805000	0.902400
C671	C67	0.342400	0.708000	0.875400
C681	C68	0.342200	0.625200	0.840200
C691	C69	0.464100	0.519200	0.806500
C701	C70	0.032500	0.243000	0.956000
C711	C71	0.128100	0.111600	0.959000
C721	C72	0.127500	0.021800	0.930000
C731	C73	0.218100	0.902600	0.936500
C741	C74	0.303700	0.883600	0.973600
C751	C75	0.301000	0.979200	0.999000
C761	C76	0.409800	0.969800	0.026200
C771	C77	0.659300	0.714400	0.799800
C781	C78	0.598800	0.838800	0.801800
C791	C79	0.358900	0.222000	0.804000
C801	C80	0.419300	0.098200	0.806300
C811	C81	0.451000	0.098000	0.250000
C821	C82	0.516500	0.967000	0.250000
C831	C83	0.549000	0.902000	0.750000
C841	C84	0.483500	0.033000	0.750000
N11	N1	0.867000	0.367400	0.331500
N21	N2	0.300700	0.911600	0.493600
N31	N3	0.765600	0.367400	0.168500
N41	N4	0.787700	0.911600	0.006400
N51	N5	0.133000	0.632600	0.668500
N61	N6	0.699300	0.088400	0.506400
N71	N7	0.234400	0.632600	0.831500
N81	N8	0.212300	0.088400	0.993600
N91	N9	0.327600	0.344800	0.250000
N101	N10	0.641900	0.716200	0.250000
N111	N11	0.672400	0.655200	0.750000
N121	N12	0.358100	0.283800	0.750000
O11	O1	0.681000	0.350400	0.301600
O21	O2	0.674200	0.221800	0.381300
O31	O3	0.899800	0.548400	0.275300
O41	O4	0.076400	0.493800	0.310900
O51	O5	0.353000	0.685200	0.489900
O61	O6	0.227500	0.725000	0.423100
O71	O7	0.396500	0.953600	0.575100
O81	O8	0.433600	0.104800	0.502000
O91	O9	0.305400	0.474600	0.342200
O101	O10	0.381800	0.309600	0.402900
O111	O11	0.629400	0.588000	0.352500
O121	O12	0.535700	0.751800	0.414100
O131	O13	0.968600	0.350400	0.198400
O141	O14	0.104000	0.221800	0.118700
O151	O15	0.551800	0.548400	0.224700
O161	O16	0.429800	0.493800	0.189100
O171	O17	0.961800	0.685200	0.010100
O181	O18	0.047500	0.725000	0.076900
O191	O19	0.649900	0.953600	0.924900
O201	O20	0.461600	0.104800	0.998000
O211	O21	0.220000	0.474600	0.157800
O221	O22	0.308600	0.309600	0.097100
O231	O23	0.782600	0.588000	0.147500
O241	O24	0.712500	0.751800	0.085900
O251	O25	0.319000	0.649600	0.698400
O261	O26	0.325800	0.778200	0.618700
O271	O27	0.100200	0.451600	0.724700
O281	O28	0.923600	0.506200	0.689100
O291	O29	0.647000	0.314800	0.510100
O301	O30	0.772500	0.275000	0.576900
O311	O31	0.603500	0.046400	0.424900
O321	O32	0.566400	0.895200	0.498000
O331	O33	0.694600	0.525400	0.657800
O341	O34	0.618200	0.690400	0.597100
O351	O35	0.370600	0.412000	0.647500
O361	O36	0.464300	0.248200	0.585900
O371	O37	0.031400	0.649600	0.801600
O381	O38	0.896000	0.778200	0.881300
O391	O39	0.448200	0.451600	0.775300
O401	O40	0.570200	0.506200	0.810900
O411	O41	0.038200	0.314800	0.989900
O421	O42	0.952500	0.275000	0.923100
O431	O43	0.350100	0.046400	0.075100
O441	O44	0.538400	0.895200	0.002000
O451	O45	0.780000	0.525400	0.842200
O461	O46	0.691400	0.690400	0.902900
O471	O47	0.217400	0.412000	0.852500
O481	O48	0.287500	0.248200	0.914100
