data_COYVES_clean_PM
_symmetry_space_group_name_H-M	'P1'
_cell_length_a	12.126000
_cell_length_b	12.678700
_cell_length_c	21.568000
_cell_angle_alpha	82.758700
_cell_angle_beta	74.717000
_cell_angle_gamma	61.431800
_symmetry_Int_Tables_number 1

loop_
_symmetry_equiv_pos_as_xyz
'x,y,z'

loop_
_atom_site_label
_atom_site_type_symbol
_atom_site_fract_x
_atom_site_fract_y
_atom_site_fract_z
Ho11	Ho1	0.769990	0.739280	0.474320
Ho21	Ho2	0.490730	0.739280	0.025680
Ho31	Ho3	0.230010	0.260720	0.525680
Ho41	Ho4	0.509270	0.260720	0.974320
Ho51	Ho5	0.785110	0.429780	0.250000
Ho61	Ho6	0.214890	0.570220	0.750000
Ho71	Ho7	0.246890	0.506220	0.250000
Ho81	Ho8	0.753110	0.493780	0.750000
H11	H1	0.029100	0.869400	0.414800
H21	H2	0.420000	0.701000	0.380600
H31	H3	0.063700	0.042200	0.405600
H41	H4	0.368100	0.807200	0.479800
H51	H5	0.592700	0.878800	0.336700
H61	H6	0.420300	0.059800	0.346700
H71	H7	0.101500	0.869400	0.085200
H81	H8	0.879000	0.701000	0.119400
H91	H9	0.894100	0.042200	0.094400
H101	H10	0.824700	0.807200	0.020200
H111	H11	0.528500	0.878800	0.163300
H121	H12	0.519900	0.059800	0.153300
H131	H13	0.970900	0.130600	0.585200
H141	H14	0.580000	0.299000	0.619400
H151	H15	0.936300	0.957800	0.594400
H161	H16	0.631900	0.192800	0.520200
H171	H17	0.407300	0.121200	0.663300
H181	H18	0.579700	0.940200	0.653300
H191	H19	0.898500	0.130600	0.914800
H201	H20	0.121000	0.299000	0.880600
H211	H21	0.105900	0.957800	0.905600
H221	H22	0.175300	0.192800	0.979800
H231	H23	0.471500	0.121200	0.836700
H241	H24	0.480100	0.940200	0.846700
C11	C1	0.719500	0.635000	0.352100
C21	C2	0.278800	0.304400	0.361300
C31	C3	0.005300	0.716400	0.348000
C41	C4	0.122000	0.720800	0.359700
C51	C5	0.111800	0.808600	0.394900
C61	C6	0.222700	0.809000	0.401500
C71	C7	0.341300	0.709400	0.374600
C81	C8	0.343400	0.625200	0.340000
C91	C9	0.462300	0.517400	0.304100
C101	C10	0.030200	0.245600	0.456000
C111	C11	0.126600	0.112800	0.458700
C121	C12	0.126300	0.023400	0.429800
C131	C13	0.216600	0.904800	0.435700
C141	C14	0.304800	0.886400	0.472900
C151	C15	0.299400	0.981200	0.498600
C161	C16	0.371700	0.002400	0.539700
C171	C17	0.658400	0.715200	0.299700
C181	C18	0.599100	0.837800	0.300900
C191	C19	0.357500	0.223000	0.304200
C201	C20	0.419800	0.100400	0.306600
C211	C21	0.645500	0.635000	0.147900
C221	C22	0.416800	0.304400	0.138700
C231	C23	0.278300	0.716400	0.152000
C241	C24	0.157200	0.720800	0.140300
C251	C25	0.079600	0.808600	0.105100
C261	C26	0.968300	0.809000	0.098500
C271	C27	0.949300	0.709400	0.125400
C281	C28	0.031400	0.625200	0.160000
C291	C29	0.020300	0.517400	0.195900
C301	C30	0.724200	0.245600	0.044000
C311	C31	0.760600	0.112800	0.041300
C321	C32	0.850300	0.023400	0.070200
C331	C33	0.878600	0.904800	0.064300
C341	C34	0.808800	0.886400	0.027100
C351	C35	0.719400	0.981200	0.001400
C361	C36	0.625900	0.002400	0.960300
C371	C37	0.626400	0.715200	0.200300
C381	C38	0.563100	0.837800	0.199100
C391	C39	0.419500	0.223000	0.195800
C401	C40	0.479800	0.100400	0.193400
C411	C41	0.280500	0.365000	0.647900
C421	C42	0.721200	0.695600	0.638700
C431	C43	0.994700	0.283600	0.652000
C441	C44	0.878000	0.279200	0.640300
C451	C45	0.888200	0.191400	0.605100
C461	C46	0.777300	0.191000	0.598500
C471	C47	0.658700	0.290600	0.625400
C481	C48	0.656600	0.374800	0.660000
C491	C49	0.537700	0.482600	0.695900
C501	C50	0.969800	0.754400	0.544000
C511	C51	0.873400	0.887200	0.541300
C521	C52	0.873700	0.976600	0.570200
C531	C53	0.783400	0.095200	0.564300
C541	C54	0.695200	0.113600	0.527100
C551	C55	0.700600	0.018800	0.501400
C561	C56	0.628300	0.997600	0.460300
C571	C57	0.341600	0.284800	0.700300
C581	C58	0.400900	0.162200	0.699100
C591	C59	0.642500	0.777000	0.695800
C601	C60	0.580200	0.899600	0.693400
C611	C61	0.354500	0.365000	0.852100
C621	C62	0.583200	0.695600	0.861300
C631	C63	0.721700	0.283600	0.848000
C641	C64	0.842800	0.279200	0.859700
C651	C65	0.920400	0.191400	0.894900
C661	C66	0.031700	0.191000	0.901500
C671	C67	0.050700	0.290600	0.874600
C681	C68	0.968600	0.374800	0.840000
C691	C69	0.979700	0.482600	0.804100
C701	C70	0.275800	0.754400	0.956000
C711	C71	0.239400	0.887200	0.958700
C721	C72	0.149700	0.976600	0.929800
C731	C73	0.121400	0.095200	0.935700
C741	C74	0.191200	0.113600	0.972900
C751	C75	0.280600	0.018800	0.998600
C761	C76	0.374100	0.997600	0.039700
C771	C77	0.373600	0.284800	0.799700
C781	C78	0.436900	0.162200	0.800900
C791	C79	0.580500	0.777000	0.804200
C801	C80	0.520200	0.899600	0.806600
C811	C81	0.549100	0.901800	0.250000
C821	C82	0.481500	0.037000	0.250000
C831	C83	0.450900	0.098200	0.750000
C841	C84	0.518500	0.963000	0.750000
N11	N1	0.234600	0.632400	0.330600
N21	N2	0.211500	0.088600	0.493800
N31	N3	0.133000	0.632400	0.169400
N41	N4	0.699900	0.088600	0.006200
N51	N5	0.765400	0.367600	0.669400
N61	N6	0.788500	0.911400	0.506200
N71	N7	0.867000	0.367600	0.830600
N81	N8	0.300100	0.911400	0.993800
N91	N9	0.672800	0.654400	0.250000
N101	N10	0.357500	0.285000	0.250000
N111	N11	0.327200	0.345600	0.750000
N121	N12	0.642500	0.715000	0.750000
O11	O1	0.031300	0.648800	0.302100
O21	O2	0.895800	0.777200	0.382000
O31	O3	0.448100	0.451800	0.274300
O41	O4	0.569400	0.509200	0.309900
O51	O5	0.041800	0.314400	0.488800
O61	O6	0.953100	0.277800	0.422600
O71	O7	0.403300	0.089400	0.531500
O81	O8	0.385800	0.912400	0.580400
O91	O9	0.779700	0.526600	0.342300
O101	O10	0.691100	0.691000	0.403800
O111	O11	0.218100	0.414000	0.352400
O121	O12	0.287200	0.249600	0.414400
O131	O13	0.319900	0.648800	0.197900
O141	O14	0.327000	0.777200	0.118000
O151	O15	0.100100	0.451800	0.225700
O161	O16	0.921400	0.509200	0.190100
O171	O17	0.643800	0.314400	0.011200
O181	O18	0.769100	0.277800	0.077400
O191	O19	0.507300	0.089400	0.968500
O201	O20	0.701800	0.912400	0.919600
O211	O21	0.693700	0.526600	0.157700
O221	O22	0.617900	0.691000	0.096200
O231	O23	0.367900	0.414000	0.147600
O241	O24	0.463200	0.249600	0.085600
O251	O25	0.968700	0.351200	0.697900
O261	O26	0.104200	0.222800	0.618000
O271	O27	0.551900	0.548200	0.725700
O281	O28	0.430600	0.490800	0.690100
O291	O29	0.958200	0.685600	0.511200
O301	O30	0.046900	0.722200	0.577400
O311	O31	0.596700	0.910600	0.468500
O321	O32	0.614200	0.087600	0.419600
O331	O33	0.220300	0.473400	0.657700
O341	O34	0.308900	0.309000	0.596200
O351	O35	0.781900	0.586000	0.647600
O361	O36	0.712800	0.750400	0.585600
O371	O37	0.680100	0.351200	0.802100
O381	O38	0.673000	0.222800	0.882000
O391	O39	0.899900	0.548200	0.774300
O401	O40	0.078600	0.490800	0.809900
O411	O41	0.356200	0.685600	0.988800
O421	O42	0.230900	0.722200	0.922600
O431	O43	0.492700	0.910600	0.031500
O441	O44	0.298200	0.087600	0.080400
O451	O45	0.306300	0.473400	0.842300
O461	O46	0.382100	0.309000	0.903800
O471	O47	0.632100	0.586000	0.852400
O481	O48	0.536800	0.750400	0.914400
