data_CUBHOY_clean_PM
_symmetry_space_group_name_H-M	'P1'
_cell_length_a	23.286000
_cell_length_b	17.257700
_cell_length_c	18.222100
_cell_angle_alpha	90.000000
_cell_angle_beta	126.661000
_cell_angle_gamma	90.000000
_symmetry_Int_Tables_number 1

loop_
_symmetry_equiv_pos_as_xyz
'x,y,z'

loop_
_atom_site_label
_atom_site_type_symbol
_atom_site_fract_x
_atom_site_fract_y
_atom_site_fract_z
Cd11	Cd1	0.225090	0.140020	0.218350
Cd21	Cd2	0.286620	0.381970	0.277870
N11	N1	0.101700	0.176400	0.141000
N21	N2	0.039300	0.139000	0.086700
N31	N3	0.307200	0.398000	0.163200
N41	N4	0.313100	0.355800	0.105500
O11	O1	0.150500	0.372300	0.135000
O21	O2	0.216700	0.273300	0.222300
O31	O3	0.282900	0.511100	0.245100
O41	O4	0.271500	0.601200	0.151000
O51	O5	0.279800	0.419600	0.894100
O61	O6	0.309600	0.301600	0.950000
O71	O7	0.903700	0.090300	0.919400
O81	O8	0.872900	0.211200	0.884600
C11	C1	0.008100	0.002100	0.218400
H11	H1	0.014800	0.954800	0.200000
C21	C2	0.007100	0.134000	0.216600
H21	H2	0.011500	0.180800	0.195000
C31	C3	0.014100	0.065800	0.184800
C41	C4	0.030000	0.062600	0.115100
H31	H3	0.073400	0.032600	0.140800
H41	H4	0.991300	0.035400	0.061200
C51	C5	0.988200	0.188400	0.016000
C61	C6	0.022700	0.258000	0.031100
H51	H5	0.003300	0.302800	0.996200
C71	C7	0.092300	0.247600	0.109200
C81	C8	0.280600	0.531100	0.176000
C91	C9	0.156700	0.302700	0.157800
C101	C10	0.296800	0.369300	0.954800
C111	C11	0.297200	0.399300	0.031800
C121	C12	0.283900	0.472500	0.046400
H61	H6	0.273700	0.515700	0.009800
C131	C13	0.288600	0.470700	0.127100
C141	C14	0.917400	0.158900	0.936700
C151	C15	0.342100	0.275700	0.131900
H71	H7	0.324800	0.245700	0.077300
H81	H8	0.325400	0.251100	0.163700
C161	C16	0.424300	0.276600	0.194000
C171	C17	0.461600	0.274500	0.155400
H91	H9	0.436800	0.272700	0.092300
C181	C18	0.464100	0.275000	0.287300
H101	H10	0.440100	0.274200	0.313800
Cd31	Cd3	0.725090	0.640020	0.218350
Cd41	Cd4	0.786620	0.881970	0.277870
N51	N5	0.601700	0.676400	0.141000
N61	N6	0.539300	0.639000	0.086700
N71	N7	0.807200	0.898000	0.163200
N81	N8	0.813100	0.855800	0.105500
O91	O9	0.650500	0.872300	0.135000
O101	O10	0.716700	0.773300	0.222300
O111	O11	0.782900	0.011100	0.245100
O121	O12	0.771500	0.101200	0.151000
O131	O13	0.779800	0.919600	0.894100
O141	O14	0.809600	0.801600	0.950000
O151	O15	0.403700	0.590300	0.919400
O161	O16	0.372900	0.711200	0.884600
C191	C19	0.508100	0.502100	0.218400
H111	H11	0.514800	0.454800	0.200000
C201	C20	0.507100	0.634000	0.216600
H121	H12	0.511500	0.680800	0.195000
C211	C21	0.514100	0.565800	0.184800
C221	C22	0.530000	0.562600	0.115100
H131	H13	0.573400	0.532600	0.140800
H141	H14	0.491300	0.535400	0.061200
C231	C23	0.488200	0.688400	0.016000
C241	C24	0.522700	0.758000	0.031100
H151	H15	0.503300	0.802800	0.996200
C251	C25	0.592300	0.747600	0.109200
C261	C26	0.780600	0.031100	0.176000
C271	C27	0.656700	0.802700	0.157800
C281	C28	0.796800	0.869300	0.954800
C291	C29	0.797200	0.899300	0.031800
C301	C30	0.783900	0.972500	0.046400
H161	H16	0.773700	0.015700	0.009800
C311	C31	0.788600	0.970700	0.127100
C321	C32	0.417400	0.658900	0.936700
C331	C33	0.842100	0.775700	0.131900
H171	H17	0.824800	0.745700	0.077300
H181	H18	0.825400	0.751100	0.163700
C341	C34	0.924300	0.776600	0.194000
C351	C35	0.961600	0.774500	0.155400
H191	H19	0.936800	0.772700	0.092300
C361	C36	0.964100	0.775000	0.287300
H201	H20	0.940100	0.774200	0.313800
Cd51	Cd5	0.774910	0.140020	0.281650
Cd61	Cd6	0.713380	0.381970	0.222130
N91	N9	0.898300	0.176400	0.359000
N101	N10	0.960700	0.139000	0.413300
N111	N11	0.692800	0.398000	0.336800
N121	N12	0.686900	0.355800	0.394500
O171	O17	0.849500	0.372300	0.365000
O181	O18	0.783300	0.273300	0.277700
O191	O19	0.717100	0.511100	0.254900
O201	O20	0.728500	0.601200	0.349000
O211	O21	0.720200	0.419600	0.605900
O221	O22	0.690400	0.301600	0.550000
O231	O23	0.096300	0.090300	0.580600
O241	O24	0.127100	0.211200	0.615400
C371	C37	0.991900	0.002100	0.281600
H211	H21	0.985200	0.954800	0.300000
C381	C38	0.992900	0.134000	0.283400
H221	H22	0.988500	0.180800	0.305000
C391	C39	0.985900	0.065800	0.315200
C401	C40	0.970000	0.062600	0.384900
H231	H23	0.926600	0.032600	0.359200
H241	H24	0.008700	0.035400	0.438800
C411	C41	0.011800	0.188400	0.484000
C421	C42	0.977300	0.258000	0.468900
H251	H25	0.996700	0.302800	0.503800
C431	C43	0.907700	0.247600	0.390800
C441	C44	0.719400	0.531100	0.324000
C451	C45	0.843300	0.302700	0.342200
C461	C46	0.703200	0.369300	0.545200
C471	C47	0.702800	0.399300	0.468200
C481	C48	0.716100	0.472500	0.453600
H261	H26	0.726300	0.515700	0.490200
C491	C49	0.711400	0.470700	0.372900
C501	C50	0.082600	0.158900	0.563300
C511	C51	0.657900	0.275700	0.368100
H271	H27	0.675200	0.245700	0.422700
H281	H28	0.674600	0.251100	0.336300
C521	C52	0.575700	0.276600	0.306000
C531	C53	0.538400	0.274500	0.344600
H291	H29	0.563200	0.272700	0.407700
C541	C54	0.535900	0.275000	0.212700
H301	H30	0.559900	0.274200	0.186200
Cd71	Cd7	0.274910	0.640020	0.281650
Cd81	Cd8	0.213380	0.881970	0.222130
N131	N13	0.398300	0.676400	0.359000
N141	N14	0.460700	0.639000	0.413300
N151	N15	0.192800	0.898000	0.336800
N161	N16	0.186900	0.855800	0.394500
O251	O25	0.349500	0.872300	0.365000
O261	O26	0.283300	0.773300	0.277700
O271	O27	0.217100	0.011100	0.254900
O281	O28	0.228500	0.101200	0.349000
O291	O29	0.220200	0.919600	0.605900
O301	O30	0.190400	0.801600	0.550000
O311	O31	0.596300	0.590300	0.580600
O321	O32	0.627100	0.711200	0.615400
C551	C55	0.491900	0.502100	0.281600
H311	H31	0.485200	0.454800	0.300000
C561	C56	0.492900	0.634000	0.283400
H321	H32	0.488500	0.680800	0.305000
C571	C57	0.485900	0.565800	0.315200
C581	C58	0.470000	0.562600	0.384900
H331	H33	0.426600	0.532600	0.359200
H341	H34	0.508700	0.535400	0.438800
C591	C59	0.511800	0.688400	0.484000
C601	C60	0.477300	0.758000	0.468900
H351	H35	0.496700	0.802800	0.503800
C611	C61	0.407700	0.747600	0.390800
C621	C62	0.219400	0.031100	0.324000
C631	C63	0.343300	0.802700	0.342200
C641	C64	0.203200	0.869300	0.545200
C651	C65	0.202800	0.899300	0.468200
C661	C66	0.216100	0.972500	0.453600
H361	H36	0.226300	0.015700	0.490200
C671	C67	0.211400	0.970700	0.372900
C681	C68	0.582600	0.658900	0.563300
C691	C69	0.157900	0.775700	0.368100
H371	H37	0.175200	0.745700	0.422700
H381	H38	0.174600	0.751100	0.336300
C701	C70	0.075700	0.776600	0.306000
C711	C71	0.038400	0.774500	0.344600
H391	H39	0.063200	0.772700	0.407700
C721	C72	0.035900	0.775000	0.212700
H401	H40	0.059900	0.774200	0.186200
Cd91	Cd9	0.774910	0.859980	0.781650
Cd101	Cd10	0.713380	0.618030	0.722130
N171	N17	0.898300	0.823600	0.859000
N181	N18	0.960700	0.861000	0.913300
N191	N19	0.692800	0.602000	0.836800
N201	N20	0.686900	0.644200	0.894500
O331	O33	0.849500	0.627700	0.865000
O341	O34	0.783300	0.726700	0.777700
O351	O35	0.717100	0.488900	0.754900
O361	O36	0.728500	0.398800	0.849000
O371	O37	0.720200	0.580400	0.105900
O381	O38	0.690400	0.698400	0.050000
O391	O39	0.096300	0.909700	0.080600
O401	O40	0.127100	0.788800	0.115400
C731	C73	0.991900	0.997900	0.781600
H411	H41	0.985200	0.045200	0.800000
C741	C74	0.992900	0.866000	0.783400
H421	H42	0.988500	0.819200	0.805000
C751	C75	0.985900	0.934200	0.815200
C761	C76	0.970000	0.937400	0.884900
H431	H43	0.926600	0.967400	0.859200
H441	H44	0.008700	0.964600	0.938800
C771	C77	0.011800	0.811600	0.984000
C781	C78	0.977300	0.742000	0.968900
H451	H45	0.996700	0.697200	0.003800
C791	C79	0.907700	0.752400	0.890800
C801	C80	0.719400	0.468900	0.824000
C811	C81	0.843300	0.697300	0.842200
C821	C82	0.703200	0.630700	0.045200
C831	C83	0.702800	0.600700	0.968200
C841	C84	0.716100	0.527500	0.953600
H461	H46	0.726300	0.484300	0.990200
C851	C85	0.711400	0.529300	0.872900
C861	C86	0.082600	0.841100	0.063300
C871	C87	0.657900	0.724300	0.868100
H471	H47	0.675200	0.754300	0.922700
H481	H48	0.674600	0.748900	0.836300
C881	C88	0.575700	0.723400	0.806000
C891	C89	0.538400	0.725500	0.844600
H491	H49	0.563200	0.727300	0.907700
C901	C90	0.535900	0.725000	0.712700
H501	H50	0.559900	0.725800	0.686200
Cd111	Cd11	0.274910	0.359980	0.781650
Cd121	Cd12	0.213380	0.118030	0.722130
N211	N21	0.398300	0.323600	0.859000
N221	N22	0.460700	0.361000	0.913300
N231	N23	0.192800	0.102000	0.836800
N241	N24	0.186900	0.144200	0.894500
O411	O41	0.349500	0.127700	0.865000
O421	O42	0.283300	0.226700	0.777700
O431	O43	0.217100	0.988900	0.754900
O441	O44	0.228500	0.898800	0.849000
O451	O45	0.220200	0.080400	0.105900
O461	O46	0.190400	0.198400	0.050000
O471	O47	0.596300	0.409700	0.080600
O481	O48	0.627100	0.288800	0.115400
C911	C91	0.491900	0.497900	0.781600
H511	H51	0.485200	0.545200	0.800000
C921	C92	0.492900	0.366000	0.783400
H521	H52	0.488500	0.319200	0.805000
C931	C93	0.485900	0.434200	0.815200
C941	C94	0.470000	0.437400	0.884900
H531	H53	0.426600	0.467400	0.859200
H541	H54	0.508700	0.464600	0.938800
C951	C95	0.511800	0.311600	0.984000
C961	C96	0.477300	0.242000	0.968900
H551	H55	0.496700	0.197200	0.003800
C971	C97	0.407700	0.252400	0.890800
C981	C98	0.219400	0.968900	0.824000
C991	C99	0.343300	0.197300	0.842200
C1001	C100	0.203200	0.130700	0.045200
C1011	C101	0.202800	0.100700	0.968200
C1021	C102	0.216100	0.027500	0.953600
H561	H56	0.226300	0.984300	0.990200
C1031	C103	0.211400	0.029300	0.872900
C1041	C104	0.582600	0.341100	0.063300
C1051	C105	0.157900	0.224300	0.868100
H571	H57	0.175200	0.254300	0.922700
H581	H58	0.174600	0.248900	0.836300
C1061	C106	0.075700	0.223400	0.806000
C1071	C107	0.038400	0.225500	0.844600
H591	H59	0.063200	0.227300	0.907700
C1081	C108	0.035900	0.225000	0.712700
H601	H60	0.059900	0.225800	0.686200
Cd131	Cd13	0.225090	0.859980	0.718350
Cd141	Cd14	0.286620	0.618030	0.777870
N251	N25	0.101700	0.823600	0.641000
N261	N26	0.039300	0.861000	0.586700
N271	N27	0.307200	0.602000	0.663200
N281	N28	0.313100	0.644200	0.605500
O491	O49	0.150500	0.627700	0.635000
O501	O50	0.216700	0.726700	0.722300
O511	O51	0.282900	0.488900	0.745100
O521	O52	0.271500	0.398800	0.651000
O531	O53	0.279800	0.580400	0.394100
O541	O54	0.309600	0.698400	0.450000
O551	O55	0.903700	0.909700	0.419400
O561	O56	0.872900	0.788800	0.384600
C1091	C109	0.008100	0.997900	0.718400
H611	H61	0.014800	0.045200	0.700000
C1101	C110	0.007100	0.866000	0.716600
H621	H62	0.011500	0.819200	0.695000
C1111	C111	0.014100	0.934200	0.684800
C1121	C112	0.030000	0.937400	0.615100
H631	H63	0.073400	0.967400	0.640800
H641	H64	0.991300	0.964600	0.561200
C1131	C113	0.988200	0.811600	0.516000
C1141	C114	0.022700	0.742000	0.531100
H651	H65	0.003300	0.697200	0.496200
C1151	C115	0.092300	0.752400	0.609200
C1161	C116	0.280600	0.468900	0.676000
C1171	C117	0.156700	0.697300	0.657800
C1181	C118	0.296800	0.630700	0.454800
C1191	C119	0.297200	0.600700	0.531800
C1201	C120	0.283900	0.527500	0.546400
H661	H66	0.273700	0.484300	0.509800
C1211	C121	0.288600	0.529300	0.627100
C1221	C122	0.917400	0.841100	0.436700
C1231	C123	0.342100	0.724300	0.631900
H671	H67	0.324800	0.754300	0.577300
H681	H68	0.325400	0.748900	0.663700
C1241	C124	0.424300	0.723400	0.694000
C1251	C125	0.461600	0.725500	0.655400
H691	H69	0.436800	0.727300	0.592300
C1261	C126	0.464100	0.725000	0.787300
H701	H70	0.440100	0.725800	0.813800
Cd151	Cd15	0.725090	0.359980	0.718350
Cd161	Cd16	0.786620	0.118030	0.777870
N291	N29	0.601700	0.323600	0.641000
N301	N30	0.539300	0.361000	0.586700
N311	N31	0.807200	0.102000	0.663200
N321	N32	0.813100	0.144200	0.605500
O571	O57	0.650500	0.127700	0.635000
O581	O58	0.716700	0.226700	0.722300
O591	O59	0.782900	0.988900	0.745100
O601	O60	0.771500	0.898800	0.651000
O611	O61	0.779800	0.080400	0.394100
O621	O62	0.809600	0.198400	0.450000
O631	O63	0.403700	0.409700	0.419400
O641	O64	0.372900	0.288800	0.384600
C1271	C127	0.508100	0.497900	0.718400
H711	H71	0.514800	0.545200	0.700000
C1281	C128	0.507100	0.366000	0.716600
H721	H72	0.511500	0.319200	0.695000
C1291	C129	0.514100	0.434200	0.684800
C1301	C130	0.530000	0.437400	0.615100
H731	H73	0.573400	0.467400	0.640800
H741	H74	0.491300	0.464600	0.561200
C1311	C131	0.488200	0.311600	0.516000
C1321	C132	0.522700	0.242000	0.531100
H751	H75	0.503300	0.197200	0.496200
C1331	C133	0.592300	0.252400	0.609200
C1341	C134	0.780600	0.968900	0.676000
C1351	C135	0.656700	0.197300	0.657800
C1361	C136	0.796800	0.130700	0.454800
C1371	C137	0.797200	0.100700	0.531800
C1381	C138	0.783900	0.027500	0.546400
H761	H76	0.773700	0.984300	0.509800
C1391	C139	0.788600	0.029300	0.627100
C1401	C140	0.417400	0.341100	0.436700
C1411	C141	0.842100	0.224300	0.631900
H771	H77	0.824800	0.254300	0.577300
H781	H78	0.825400	0.248900	0.663700
C1421	C142	0.924300	0.223400	0.694000
C1431	C143	0.961600	0.225500	0.655400
H791	H79	0.936800	0.227300	0.592300
C1441	C144	0.964100	0.225000	0.787300
H801	H80	0.940100	0.225800	0.813800
