data_CUCTAX_clean_PM
_symmetry_space_group_name_H-M	'P1'
_cell_length_a	28.654000
_cell_length_b	15.033200
_cell_length_c	16.589900
_cell_angle_alpha	90.000000
_cell_angle_beta	119.904000
_cell_angle_gamma	90.000000
_symmetry_Int_Tables_number 1

loop_
_symmetry_equiv_pos_as_xyz
'x,y,z'

loop_
_atom_site_label
_atom_site_type_symbol
_atom_site_fract_x
_atom_site_fract_y
_atom_site_fract_z
Zn11	Zn1	0.361240	0.197660	0.687240
N11	N1	0.291340	0.127900	0.624200
N21	N2	0.412500	0.127800	0.800800
N31	N3	0.059580	0.871400	0.338100
O11	O1	0.481700	0.272000	0.384300
O21	O2	0.447200	0.200100	0.255300
O31	O3	0.151300	0.178800	0.299600
O41	O4	0.187100	0.214900	0.213800
O51	O5	0.280330	0.097000	0.387700
O61	O6	0.380200	0.207900	0.588000
O71	O7	0.384500	0.061600	0.578100
C11	C1	0.446900	0.219800	0.327100
C21	C2	0.403300	0.185500	0.343200
C31	C3	0.355500	0.159100	0.269500
H11	H1	0.350900	0.160500	0.209900
C41	C4	0.313500	0.130200	0.282200
H21	H2	0.280400	0.115500	0.231200
C51	C5	0.321300	0.123500	0.370700
C61	C6	0.369200	0.148700	0.446600
C71	C7	0.409000	0.183400	0.430800
H31	H3	0.440300	0.205700	0.480700
C81	C8	0.379000	0.136600	0.544500
C91	C9	0.243200	0.035300	0.324000
C101	C10	0.258300	0.947000	0.328200
H41	H4	0.293000	0.929800	0.372400
C111	C11	0.223900	0.886100	0.269900
H51	H5	0.235100	0.827800	0.270800
C121	C12	0.169100	0.912900	0.205300
H61	H6	0.144000	0.870800	0.166900
C131	C13	0.154100	0.000600	0.200900
H71	H7	0.119100	0.018100	0.158500
C141	C14	0.191500	0.063400	0.260100
C151	C15	0.176000	0.159200	0.256800
C161	C16	0.292700	0.038200	0.618500
H81	H8	0.325700	0.009400	0.651800
C171	C17	0.247500	0.988100	0.565400
H91	H9	0.250200	0.926600	0.563600
C181	C18	0.197900	0.029000	0.514600
C191	C19	0.196000	0.121600	0.520600
H101	H10	0.163300	0.151500	0.487700
C201	C20	0.242700	0.168100	0.575500
H111	H11	0.240800	0.229600	0.579400
C211	C21	0.149200	0.975600	0.453800
C221	C22	0.139100	0.893300	0.484700
H121	H12	0.162500	0.872400	0.544400
C231	C23	0.093800	0.844800	0.424100
H131	H13	0.087100	0.791400	0.444600
C241	C24	0.067800	0.948800	0.309900
H141	H14	0.043300	0.967700	0.250000
C251	C25	0.112300	0.004500	0.366200
H151	H15	0.116400	0.059300	0.344300
C261	C26	0.450000	0.073400	0.802000
H161	H16	0.452600	0.069600	0.748400
C271	C27	0.484700	0.022800	0.877600
H171	H17	0.509800	0.986300	0.874200
C281	C28	0.482100	0.026600	0.958700
C291	C29	0.443100	0.082800	0.956900
H181	H18	0.439300	0.087600	0.009200
C301	C30	0.409500	0.132300	0.877200
H191	H19	0.384000	0.169800	0.878400
Zn21	Zn2	0.861240	0.697660	0.687240
N41	N4	0.791340	0.627900	0.624200
N51	N5	0.912500	0.627800	0.800800
N61	N6	0.559580	0.371400	0.338100
O81	O8	0.981700	0.772000	0.384300
O91	O9	0.947200	0.700100	0.255300
O101	O10	0.651300	0.678800	0.299600
O111	O11	0.687100	0.714900	0.213800
O121	O12	0.780330	0.597000	0.387700
O131	O13	0.880200	0.707900	0.588000
O141	O14	0.884500	0.561600	0.578100
C311	C31	0.946900	0.719800	0.327100
C321	C32	0.903300	0.685500	0.343200
C331	C33	0.855500	0.659100	0.269500
H201	H20	0.850900	0.660500	0.209900
C341	C34	0.813500	0.630200	0.282200
H211	H21	0.780400	0.615500	0.231200
C351	C35	0.821300	0.623500	0.370700
C361	C36	0.869200	0.648700	0.446600
C371	C37	0.909000	0.683400	0.430800
H221	H22	0.940300	0.705700	0.480700
C381	C38	0.879000	0.636600	0.544500
C391	C39	0.743200	0.535300	0.324000
C401	C40	0.758300	0.447000	0.328200
H231	H23	0.793000	0.429800	0.372400
C411	C41	0.723900	0.386100	0.269900
H241	H24	0.735100	0.327800	0.270800
C421	C42	0.669100	0.412900	0.205300
H251	H25	0.644000	0.370800	0.166900
C431	C43	0.654100	0.500600	0.200900
H261	H26	0.619100	0.518100	0.158500
C441	C44	0.691500	0.563400	0.260100
C451	C45	0.676000	0.659200	0.256800
C461	C46	0.792700	0.538200	0.618500
H271	H27	0.825700	0.509400	0.651800
C471	C47	0.747500	0.488100	0.565400
H281	H28	0.750200	0.426600	0.563600
C481	C48	0.697900	0.529000	0.514600
C491	C49	0.696000	0.621600	0.520600
H291	H29	0.663300	0.651500	0.487700
C501	C50	0.742700	0.668100	0.575500
H301	H30	0.740800	0.729600	0.579400
C511	C51	0.649200	0.475600	0.453800
C521	C52	0.639100	0.393300	0.484700
H311	H31	0.662500	0.372400	0.544400
C531	C53	0.593800	0.344800	0.424100
H321	H32	0.587100	0.291400	0.444600
C541	C54	0.567800	0.448800	0.309900
H331	H33	0.543300	0.467700	0.250000
C551	C55	0.612300	0.504500	0.366200
H341	H34	0.616400	0.559300	0.344300
C561	C56	0.950000	0.573400	0.802000
H351	H35	0.952600	0.569600	0.748400
C571	C57	0.984700	0.522800	0.877600
H361	H36	0.009800	0.486300	0.874200
C581	C58	0.982100	0.526600	0.958700
C591	C59	0.943100	0.582800	0.956900
H371	H37	0.939300	0.587600	0.009200
C601	C60	0.909500	0.632300	0.877200
H381	H38	0.884000	0.669800	0.878400
Zn31	Zn3	0.638760	0.197660	0.812760
N71	N7	0.708660	0.127900	0.875800
N81	N8	0.587500	0.127800	0.699200
N91	N9	0.940420	0.871400	0.161900
O151	O15	0.518300	0.272000	0.115700
O161	O16	0.552800	0.200100	0.244700
O171	O17	0.848700	0.178800	0.200400
O181	O18	0.812900	0.214900	0.286200
O191	O19	0.719670	0.097000	0.112300
O201	O20	0.619800	0.207900	0.912000
O211	O21	0.615500	0.061600	0.921900
C611	C61	0.553100	0.219800	0.172900
C621	C62	0.596700	0.185500	0.156800
C631	C63	0.644500	0.159100	0.230500
H391	H39	0.649100	0.160500	0.290100
C641	C64	0.686500	0.130200	0.217800
H401	H40	0.719600	0.115500	0.268800
C651	C65	0.678700	0.123500	0.129300
C661	C66	0.630800	0.148700	0.053400
C671	C67	0.591000	0.183400	0.069200
H411	H41	0.559700	0.205700	0.019300
C681	C68	0.621000	0.136600	0.955500
C691	C69	0.756800	0.035300	0.176000
C701	C70	0.741700	0.947000	0.171800
H421	H42	0.707000	0.929800	0.127600
C711	C71	0.776100	0.886100	0.230100
H431	H43	0.764900	0.827800	0.229200
C721	C72	0.830900	0.912900	0.294700
H441	H44	0.856000	0.870800	0.333100
C731	C73	0.845900	0.000600	0.299100
H451	H45	0.880900	0.018100	0.341500
C741	C74	0.808500	0.063400	0.239900
C751	C75	0.824000	0.159200	0.243200
C761	C76	0.707300	0.038200	0.881500
H461	H46	0.674300	0.009400	0.848200
C771	C77	0.752500	0.988100	0.934600
H471	H47	0.749800	0.926600	0.936400
C781	C78	0.802100	0.029000	0.985400
C791	C79	0.804000	0.121600	0.979400
H481	H48	0.836700	0.151500	0.012300
C801	C80	0.757300	0.168100	0.924500
H491	H49	0.759200	0.229600	0.920600
C811	C81	0.850800	0.975600	0.046200
C821	C82	0.860900	0.893300	0.015300
H501	H50	0.837500	0.872400	0.955600
C831	C83	0.906200	0.844800	0.075900
H511	H51	0.912900	0.791400	0.055400
C841	C84	0.932200	0.948800	0.190100
H521	H52	0.956700	0.967700	0.250000
C851	C85	0.887700	0.004500	0.133800
H531	H53	0.883600	0.059300	0.155700
C861	C86	0.550000	0.073400	0.698000
H541	H54	0.547400	0.069600	0.751600
C871	C87	0.515300	0.022800	0.622400
H551	H55	0.490200	0.986300	0.625800
C881	C88	0.517900	0.026600	0.541300
C891	C89	0.556900	0.082800	0.543100
H561	H56	0.560700	0.087600	0.490800
C901	C90	0.590500	0.132300	0.622800
H571	H57	0.616000	0.169800	0.621600
Zn41	Zn4	0.138760	0.697660	0.812760
N101	N10	0.208660	0.627900	0.875800
N111	N11	0.087500	0.627800	0.699200
N121	N12	0.440420	0.371400	0.161900
O221	O22	0.018300	0.772000	0.115700
O231	O23	0.052800	0.700100	0.244700
O241	O24	0.348700	0.678800	0.200400
O251	O25	0.312900	0.714900	0.286200
O261	O26	0.219670	0.597000	0.112300
O271	O27	0.119800	0.707900	0.912000
O281	O28	0.115500	0.561600	0.921900
C911	C91	0.053100	0.719800	0.172900
C921	C92	0.096700	0.685500	0.156800
C931	C93	0.144500	0.659100	0.230500
H581	H58	0.149100	0.660500	0.290100
C941	C94	0.186500	0.630200	0.217800
H591	H59	0.219600	0.615500	0.268800
C951	C95	0.178700	0.623500	0.129300
C961	C96	0.130800	0.648700	0.053400
C971	C97	0.091000	0.683400	0.069200
H601	H60	0.059700	0.705700	0.019300
C981	C98	0.121000	0.636600	0.955500
C991	C99	0.256800	0.535300	0.176000
C1001	C100	0.241700	0.447000	0.171800
H611	H61	0.207000	0.429800	0.127600
C1011	C101	0.276100	0.386100	0.230100
H621	H62	0.264900	0.327800	0.229200
C1021	C102	0.330900	0.412900	0.294700
H631	H63	0.356000	0.370800	0.333100
C1031	C103	0.345900	0.500600	0.299100
H641	H64	0.380900	0.518100	0.341500
C1041	C104	0.308500	0.563400	0.239900
C1051	C105	0.324000	0.659200	0.243200
C1061	C106	0.207300	0.538200	0.881500
H651	H65	0.174300	0.509400	0.848200
C1071	C107	0.252500	0.488100	0.934600
H661	H66	0.249800	0.426600	0.936400
C1081	C108	0.302100	0.529000	0.985400
C1091	C109	0.304000	0.621600	0.979400
H671	H67	0.336700	0.651500	0.012300
C1101	C110	0.257300	0.668100	0.924500
H681	H68	0.259200	0.729600	0.920600
C1111	C111	0.350800	0.475600	0.046200
C1121	C112	0.360900	0.393300	0.015300
H691	H69	0.337500	0.372400	0.955600
C1131	C113	0.406200	0.344800	0.075900
H701	H70	0.412900	0.291400	0.055400
C1141	C114	0.432200	0.448800	0.190100
H711	H71	0.456700	0.467700	0.250000
C1151	C115	0.387700	0.504500	0.133800
H721	H72	0.383600	0.559300	0.155700
C1161	C116	0.050000	0.573400	0.698000
H731	H73	0.047400	0.569600	0.751600
C1171	C117	0.015300	0.522800	0.622400
H741	H74	0.990200	0.486300	0.625800
C1181	C118	0.017900	0.526600	0.541300
C1191	C119	0.056900	0.582800	0.543100
H751	H75	0.060700	0.587600	0.490800
C1201	C120	0.090500	0.632300	0.622800
H761	H76	0.116000	0.669800	0.621600
Zn51	Zn5	0.638760	0.802340	0.312760
N131	N13	0.708660	0.872100	0.375800
N141	N14	0.587500	0.872200	0.199200
N151	N15	0.940420	0.128600	0.661900
O291	O29	0.518300	0.728000	0.615700
O301	O30	0.552800	0.799900	0.744700
O311	O31	0.848700	0.821200	0.700400
O321	O32	0.812900	0.785100	0.786200
O331	O33	0.719670	0.903000	0.612300
O341	O34	0.619800	0.792100	0.412000
O351	O35	0.615500	0.938400	0.421900
C1211	C121	0.553100	0.780200	0.672900
C1221	C122	0.596700	0.814500	0.656800
C1231	C123	0.644500	0.840900	0.730500
H771	H77	0.649100	0.839500	0.790100
C1241	C124	0.686500	0.869800	0.717800
H781	H78	0.719600	0.884500	0.768800
C1251	C125	0.678700	0.876500	0.629300
C1261	C126	0.630800	0.851300	0.553400
C1271	C127	0.591000	0.816600	0.569200
H791	H79	0.559700	0.794300	0.519300
C1281	C128	0.621000	0.863400	0.455500
C1291	C129	0.756800	0.964700	0.676000
C1301	C130	0.741700	0.053000	0.671800
H801	H80	0.707000	0.070200	0.627600
C1311	C131	0.776100	0.113900	0.730100
H811	H81	0.764900	0.172200	0.729200
C1321	C132	0.830900	0.087100	0.794700
H821	H82	0.856000	0.129200	0.833100
C1331	C133	0.845900	0.999400	0.799100
H831	H83	0.880900	0.981900	0.841500
C1341	C134	0.808500	0.936600	0.739900
C1351	C135	0.824000	0.840800	0.743200
C1361	C136	0.707300	0.961800	0.381500
H841	H84	0.674300	0.990600	0.348200
C1371	C137	0.752500	0.011900	0.434600
H851	H85	0.749800	0.073400	0.436400
C1381	C138	0.802100	0.971000	0.485400
C1391	C139	0.804000	0.878400	0.479400
H861	H86	0.836700	0.848500	0.512300
C1401	C140	0.757300	0.831900	0.424500
H871	H87	0.759200	0.770400	0.420600
C1411	C141	0.850800	0.024400	0.546200
C1421	C142	0.860900	0.106700	0.515300
H881	H88	0.837500	0.127600	0.455600
C1431	C143	0.906200	0.155200	0.575900
H891	H89	0.912900	0.208600	0.555400
C1441	C144	0.932200	0.051200	0.690100
H901	H90	0.956700	0.032300	0.750000
C1451	C145	0.887700	0.995500	0.633800
H911	H91	0.883600	0.940700	0.655700
C1461	C146	0.550000	0.926600	0.198000
H921	H92	0.547400	0.930400	0.251600
C1471	C147	0.515300	0.977200	0.122400
H931	H93	0.490200	0.013700	0.125800
C1481	C148	0.517900	0.973400	0.041300
C1491	C149	0.556900	0.917200	0.043100
H941	H94	0.560700	0.912400	0.990800
C1501	C150	0.590500	0.867700	0.122800
H951	H95	0.616000	0.830200	0.121600
Zn61	Zn6	0.138760	0.302340	0.312760
N161	N16	0.208660	0.372100	0.375800
N171	N17	0.087500	0.372200	0.199200
N181	N18	0.440420	0.628600	0.661900
O361	O36	0.018300	0.228000	0.615700
O371	O37	0.052800	0.299900	0.744700
O381	O38	0.348700	0.321200	0.700400
O391	O39	0.312900	0.285100	0.786200
O401	O40	0.219670	0.403000	0.612300
O411	O41	0.119800	0.292100	0.412000
O421	O42	0.115500	0.438400	0.421900
C1511	C151	0.053100	0.280200	0.672900
C1521	C152	0.096700	0.314500	0.656800
C1531	C153	0.144500	0.340900	0.730500
H961	H96	0.149100	0.339500	0.790100
C1541	C154	0.186500	0.369800	0.717800
H971	H97	0.219600	0.384500	0.768800
C1551	C155	0.178700	0.376500	0.629300
C1561	C156	0.130800	0.351300	0.553400
C1571	C157	0.091000	0.316600	0.569200
H981	H98	0.059700	0.294300	0.519300
C1581	C158	0.121000	0.363400	0.455500
C1591	C159	0.256800	0.464700	0.676000
C1601	C160	0.241700	0.553000	0.671800
H991	H99	0.207000	0.570200	0.627600
C1611	C161	0.276100	0.613900	0.730100
H1001	H100	0.264900	0.672200	0.729200
C1621	C162	0.330900	0.587100	0.794700
H1011	H101	0.356000	0.629200	0.833100
C1631	C163	0.345900	0.499400	0.799100
H1021	H102	0.380900	0.481900	0.841500
C1641	C164	0.308500	0.436600	0.739900
C1651	C165	0.324000	0.340800	0.743200
C1661	C166	0.207300	0.461800	0.381500
H1031	H103	0.174300	0.490600	0.348200
C1671	C167	0.252500	0.511900	0.434600
H1041	H104	0.249800	0.573400	0.436400
C1681	C168	0.302100	0.471000	0.485400
C1691	C169	0.304000	0.378400	0.479400
H1051	H105	0.336700	0.348500	0.512300
C1701	C170	0.257300	0.331900	0.424500
H1061	H106	0.259200	0.270400	0.420600
C1711	C171	0.350800	0.524400	0.546200
C1721	C172	0.360900	0.606700	0.515300
H1071	H107	0.337500	0.627600	0.455600
C1731	C173	0.406200	0.655200	0.575900
H1081	H108	0.412900	0.708600	0.555400
C1741	C174	0.432200	0.551200	0.690100
H1091	H109	0.456700	0.532300	0.750000
C1751	C175	0.387700	0.495500	0.633800
H1101	H110	0.383600	0.440700	0.655700
C1761	C176	0.050000	0.426600	0.198000
H1111	H111	0.047400	0.430400	0.251600
C1771	C177	0.015300	0.477200	0.122400
H1121	H112	0.990200	0.513700	0.125800
C1781	C178	0.017900	0.473400	0.041300
C1791	C179	0.056900	0.417200	0.043100
H1131	H113	0.060700	0.412400	0.990800
C1801	C180	0.090500	0.367700	0.122800
H1141	H114	0.116000	0.330200	0.121600
Zn71	Zn7	0.361240	0.802340	0.187240
N191	N19	0.291340	0.872100	0.124200
N201	N20	0.412500	0.872200	0.300800
N211	N21	0.059580	0.128600	0.838100
O431	O43	0.481700	0.728000	0.884300
O441	O44	0.447200	0.799900	0.755300
O451	O45	0.151300	0.821200	0.799600
O461	O46	0.187100	0.785100	0.713800
O471	O47	0.280330	0.903000	0.887700
O481	O48	0.380200	0.792100	0.088000
O491	O49	0.384500	0.938400	0.078100
C1811	C181	0.446900	0.780200	0.827100
C1821	C182	0.403300	0.814500	0.843200
C1831	C183	0.355500	0.840900	0.769500
H1151	H115	0.350900	0.839500	0.709900
C1841	C184	0.313500	0.869800	0.782200
H1161	H116	0.280400	0.884500	0.731200
C1851	C185	0.321300	0.876500	0.870700
C1861	C186	0.369200	0.851300	0.946600
C1871	C187	0.409000	0.816600	0.930800
H1171	H117	0.440300	0.794300	0.980700
C1881	C188	0.379000	0.863400	0.044500
C1891	C189	0.243200	0.964700	0.824000
C1901	C190	0.258300	0.053000	0.828200
H1181	H118	0.293000	0.070200	0.872400
C1911	C191	0.223900	0.113900	0.769900
H1191	H119	0.235100	0.172200	0.770800
C1921	C192	0.169100	0.087100	0.705300
H1201	H120	0.144000	0.129200	0.666900
C1931	C193	0.154100	0.999400	0.700900
H1211	H121	0.119100	0.981900	0.658500
C1941	C194	0.191500	0.936600	0.760100
C1951	C195	0.176000	0.840800	0.756800
C1961	C196	0.292700	0.961800	0.118500
H1221	H122	0.325700	0.990600	0.151800
C1971	C197	0.247500	0.011900	0.065400
H1231	H123	0.250200	0.073400	0.063600
C1981	C198	0.197900	0.971000	0.014600
C1991	C199	0.196000	0.878400	0.020600
H1241	H124	0.163300	0.848500	0.987700
C2001	C200	0.242700	0.831900	0.075500
H1251	H125	0.240800	0.770400	0.079400
C2011	C201	0.149200	0.024400	0.953800
C2021	C202	0.139100	0.106700	0.984700
H1261	H126	0.162500	0.127600	0.044400
C2031	C203	0.093800	0.155200	0.924100
H1271	H127	0.087100	0.208600	0.944600
C2041	C204	0.067800	0.051200	0.809900
H1281	H128	0.043300	0.032300	0.750000
C2051	C205	0.112300	0.995500	0.866200
H1291	H129	0.116400	0.940700	0.844300
C2061	C206	0.450000	0.926600	0.302000
H1301	H130	0.452600	0.930400	0.248400
C2071	C207	0.484700	0.977200	0.377600
H1311	H131	0.509800	0.013700	0.374200
C2081	C208	0.482100	0.973400	0.458700
C2091	C209	0.443100	0.917200	0.456900
H1321	H132	0.439300	0.912400	0.509200
C2101	C210	0.409500	0.867700	0.377200
H1331	H133	0.384000	0.830200	0.378400
Zn81	Zn8	0.861240	0.302340	0.187240
N221	N22	0.791340	0.372100	0.124200
N231	N23	0.912500	0.372200	0.300800
N241	N24	0.559580	0.628600	0.838100
O501	O50	0.981700	0.228000	0.884300
O511	O51	0.947200	0.299900	0.755300
O521	O52	0.651300	0.321200	0.799600
O531	O53	0.687100	0.285100	0.713800
O541	O54	0.780330	0.403000	0.887700
O551	O55	0.880200	0.292100	0.088000
O561	O56	0.884500	0.438400	0.078100
C2111	C211	0.946900	0.280200	0.827100
C2121	C212	0.903300	0.314500	0.843200
C2131	C213	0.855500	0.340900	0.769500
H1341	H134	0.850900	0.339500	0.709900
C2141	C214	0.813500	0.369800	0.782200
H1351	H135	0.780400	0.384500	0.731200
C2151	C215	0.821300	0.376500	0.870700
C2161	C216	0.869200	0.351300	0.946600
C2171	C217	0.909000	0.316600	0.930800
H1361	H136	0.940300	0.294300	0.980700
C2181	C218	0.879000	0.363400	0.044500
C2191	C219	0.743200	0.464700	0.824000
C2201	C220	0.758300	0.553000	0.828200
H1371	H137	0.793000	0.570200	0.872400
C2211	C221	0.723900	0.613900	0.769900
H1381	H138	0.735100	0.672200	0.770800
C2221	C222	0.669100	0.587100	0.705300
H1391	H139	0.644000	0.629200	0.666900
C2231	C223	0.654100	0.499400	0.700900
H1401	H140	0.619100	0.481900	0.658500
C2241	C224	0.691500	0.436600	0.760100
C2251	C225	0.676000	0.340800	0.756800
C2261	C226	0.792700	0.461800	0.118500
H1411	H141	0.825700	0.490600	0.151800
C2271	C227	0.747500	0.511900	0.065400
H1421	H142	0.750200	0.573400	0.063600
C2281	C228	0.697900	0.471000	0.014600
C2291	C229	0.696000	0.378400	0.020600
H1431	H143	0.663300	0.348500	0.987700
C2301	C230	0.742700	0.331900	0.075500
H1441	H144	0.740800	0.270400	0.079400
C2311	C231	0.649200	0.524400	0.953800
C2321	C232	0.639100	0.606700	0.984700
H1451	H145	0.662500	0.627600	0.044400
C2331	C233	0.593800	0.655200	0.924100
H1461	H146	0.587100	0.708600	0.944600
C2341	C234	0.567800	0.551200	0.809900
H1471	H147	0.543300	0.532300	0.750000
C2351	C235	0.612300	0.495500	0.866200
H1481	H148	0.616400	0.440700	0.844300
C2361	C236	0.950000	0.426600	0.302000
H1491	H149	0.952600	0.430400	0.248400
C2371	C237	0.984700	0.477200	0.377600
H1501	H150	0.009800	0.513700	0.374200
C2381	C238	0.982100	0.473400	0.458700
C2391	C239	0.943100	0.417200	0.456900
H1511	H151	0.939300	0.412400	0.509200
C2401	C240	0.909500	0.367700	0.377200
H1521	H152	0.884000	0.330200	0.378400
Zn91	Zn9	0.500000	0.286060	0.250000
Zn101	Zn10	0.000000	0.786060	0.250000
Zn111	Zn11	0.500000	0.713940	0.750000
Zn121	Zn12	0.000000	0.213940	0.750000
