data_CUFFEP_clean_PM
_symmetry_space_group_name_H-M	'P1'
_cell_length_a	20.463900
_cell_length_b	20.463900
_cell_length_c	20.463900
_cell_angle_alpha	90.000000
_cell_angle_beta	90.000000
_cell_angle_gamma	90.000000
_symmetry_Int_Tables_number 1

loop_
_symmetry_equiv_pos_as_xyz
'x,y,z'

loop_
_atom_site_label
_atom_site_type_symbol
_atom_site_fract_x
_atom_site_fract_y
_atom_site_fract_z
O11	O1	0.917100	0.303900	0.336000
O21	O2	0.937200	0.213300	0.280700
C11	C1	0.846000	0.280200	0.247600
C21	C2	0.808000	0.332600	0.260400
C31	C3	0.903900	0.263800	0.290200
O31	O3	0.417100	0.803900	0.836000
O41	O4	0.437200	0.713300	0.780700
C41	C4	0.346000	0.780200	0.747600
C51	C5	0.308000	0.832600	0.760400
C61	C6	0.403900	0.763800	0.790200
O51	O5	0.582900	0.696100	0.836000
O61	O6	0.562800	0.786700	0.780700
C71	C7	0.654000	0.719800	0.747600
C81	C8	0.692000	0.667400	0.760400
C91	C9	0.596100	0.736200	0.790200
O71	O7	0.082900	0.196100	0.336000
O81	O8	0.062800	0.286700	0.280700
C101	C10	0.154000	0.219800	0.247600
C111	C11	0.192000	0.167400	0.260400
C121	C12	0.096100	0.236200	0.290200
O91	O9	0.082900	0.803900	0.164000
O101	O10	0.062800	0.713300	0.219300
C131	C13	0.154000	0.780200	0.252400
C141	C14	0.192000	0.832600	0.239600
C151	C15	0.096100	0.763800	0.209800
O111	O11	0.582900	0.303900	0.664000
O121	O12	0.562800	0.213300	0.719300
C161	C16	0.654000	0.280200	0.752400
C171	C17	0.692000	0.332600	0.739600
C181	C18	0.596100	0.263800	0.709800
O131	O13	0.417100	0.196100	0.664000
O141	O14	0.437200	0.286700	0.719300
C191	C19	0.346000	0.219800	0.752400
C201	C20	0.308000	0.167400	0.739600
C211	C21	0.403900	0.236200	0.709800
O151	O15	0.917100	0.696100	0.164000
O161	O16	0.937200	0.786700	0.219300
C221	C22	0.846000	0.719800	0.252400
C231	C23	0.808000	0.667400	0.239600
C241	C24	0.903900	0.736200	0.209800
O171	O17	0.336000	0.917100	0.303900
O181	O18	0.280700	0.937200	0.213300
C251	C25	0.247600	0.846000	0.280200
C261	C26	0.260400	0.808000	0.332600
C271	C27	0.290200	0.903900	0.263800
O191	O19	0.836000	0.417100	0.803900
O201	O20	0.780700	0.437200	0.713300
C281	C28	0.747600	0.346000	0.780200
C291	C29	0.760400	0.308000	0.832600
C301	C30	0.790200	0.403900	0.763800
O211	O21	0.836000	0.582900	0.696100
O221	O22	0.780700	0.562800	0.786700
C311	C31	0.747600	0.654000	0.719800
C321	C32	0.760400	0.692000	0.667400
C331	C33	0.790200	0.596100	0.736200
O231	O23	0.336000	0.082900	0.196100
O241	O24	0.280700	0.062800	0.286700
C341	C34	0.247600	0.154000	0.219800
C351	C35	0.260400	0.192000	0.167400
C361	C36	0.290200	0.096100	0.236200
O251	O25	0.164000	0.082900	0.803900
O261	O26	0.219300	0.062800	0.713300
C371	C37	0.252400	0.154000	0.780200
C381	C38	0.239600	0.192000	0.832600
C391	C39	0.209800	0.096100	0.763800
O271	O27	0.664000	0.582900	0.303900
O281	O28	0.719300	0.562800	0.213300
C401	C40	0.752400	0.654000	0.280200
C411	C41	0.739600	0.692000	0.332600
C421	C42	0.709800	0.596100	0.263800
O291	O29	0.664000	0.417100	0.196100
O301	O30	0.719300	0.437200	0.286700
C431	C43	0.752400	0.346000	0.219800
C441	C44	0.739600	0.308000	0.167400
C451	C45	0.709800	0.403900	0.236200
O311	O31	0.164000	0.917100	0.696100
O321	O32	0.219300	0.937200	0.786700
C461	C46	0.252400	0.846000	0.719800
C471	C47	0.239600	0.808000	0.667400
C481	C48	0.209800	0.903900	0.736200
O331	O33	0.303900	0.336000	0.917100
O341	O34	0.213300	0.280700	0.937200
C491	C49	0.280200	0.247600	0.846000
C501	C50	0.332600	0.260400	0.808000
C511	C51	0.263800	0.290200	0.903900
O351	O35	0.803900	0.836000	0.417100
O361	O36	0.713300	0.780700	0.437200
C521	C52	0.780200	0.747600	0.346000
C531	C53	0.832600	0.760400	0.308000
C541	C54	0.763800	0.790200	0.403900
O371	O37	0.696100	0.836000	0.582900
O381	O38	0.786700	0.780700	0.562800
C551	C55	0.719800	0.747600	0.654000
C561	C56	0.667400	0.760400	0.692000
C571	C57	0.736200	0.790200	0.596100
O391	O39	0.196100	0.336000	0.082900
O401	O40	0.286700	0.280700	0.062800
C581	C58	0.219800	0.247600	0.154000
C591	C59	0.167400	0.260400	0.192000
C601	C60	0.236200	0.290200	0.096100
O411	O41	0.803900	0.164000	0.082900
O421	O42	0.713300	0.219300	0.062800
C611	C61	0.780200	0.252400	0.154000
C621	C62	0.832600	0.239600	0.192000
C631	C63	0.763800	0.209800	0.096100
O431	O43	0.303900	0.664000	0.582900
O441	O44	0.213300	0.719300	0.562800
C641	C64	0.280200	0.752400	0.654000
C651	C65	0.332600	0.739600	0.692000
C661	C66	0.263800	0.709800	0.596100
O451	O45	0.196100	0.664000	0.417100
O461	O46	0.286700	0.719300	0.437200
C671	C67	0.219800	0.752400	0.346000
C681	C68	0.167400	0.739600	0.308000
C691	C69	0.236200	0.709800	0.403900
O471	O47	0.696100	0.164000	0.917100
O481	O48	0.786700	0.219300	0.937200
C701	C70	0.719800	0.252400	0.846000
C711	C71	0.667400	0.239600	0.808000
C721	C72	0.736200	0.209800	0.903900
O491	O49	0.553900	0.167100	0.586000
O501	O50	0.463300	0.187200	0.530700
C731	C73	0.530200	0.096000	0.497600
C741	C74	0.582600	0.058000	0.510400
C751	C75	0.513800	0.153900	0.540200
O511	O51	0.053900	0.667100	0.086000
O521	O52	0.963300	0.687200	0.030700
C761	C76	0.030200	0.596000	0.997600
C771	C77	0.082600	0.558000	0.010400
C781	C78	0.013800	0.653900	0.040200
O531	O53	0.946100	0.832900	0.086000
O541	O54	0.036700	0.812800	0.030700
C791	C79	0.969800	0.904000	0.997600
C801	C80	0.917400	0.942000	0.010400
C811	C81	0.986200	0.846100	0.040200
O551	O55	0.446100	0.332900	0.586000
O561	O56	0.536700	0.312800	0.530700
C821	C82	0.469800	0.404000	0.497600
C831	C83	0.417400	0.442000	0.510400
C841	C84	0.486200	0.346100	0.540200
O571	O57	0.053900	0.332900	0.414000
O581	O58	0.963300	0.312800	0.469300
C851	C85	0.030200	0.404000	0.502400
C861	C86	0.082600	0.442000	0.489600
C871	C87	0.013800	0.346100	0.459800
O591	O59	0.553900	0.832900	0.914000
O601	O60	0.463300	0.812800	0.969300
C881	C88	0.530200	0.904000	0.002400
C891	C89	0.582600	0.942000	0.989600
C901	C90	0.513800	0.846100	0.959800
O611	O61	0.446100	0.667100	0.914000
O621	O62	0.536700	0.687200	0.969300
C911	C91	0.469800	0.596000	0.002400
C921	C92	0.417400	0.558000	0.989600
C931	C93	0.486200	0.653900	0.959800
O631	O63	0.946100	0.167100	0.414000
O641	O64	0.036700	0.187200	0.469300
C941	C94	0.969800	0.096000	0.502400
C951	C95	0.917400	0.058000	0.489600
C961	C96	0.986200	0.153900	0.459800
O651	O65	0.167100	0.586000	0.553900
O661	O66	0.187200	0.530700	0.463300
C971	C97	0.096000	0.497600	0.530200
C981	C98	0.058000	0.510400	0.582600
C991	C99	0.153900	0.540200	0.513800
O671	O67	0.667100	0.086000	0.053900
O681	O68	0.687200	0.030700	0.963300
C1001	C100	0.596000	0.997600	0.030200
C1011	C101	0.558000	0.010400	0.082600
C1021	C102	0.653900	0.040200	0.013800
O691	O69	0.832900	0.086000	0.946100
O701	O70	0.812800	0.030700	0.036700
C1031	C103	0.904000	0.997600	0.969800
C1041	C104	0.942000	0.010400	0.917400
C1051	C105	0.846100	0.040200	0.986200
O711	O71	0.332900	0.586000	0.446100
O721	O72	0.312800	0.530700	0.536700
C1061	C106	0.404000	0.497600	0.469800
C1071	C107	0.442000	0.510400	0.417400
C1081	C108	0.346100	0.540200	0.486200
O731	O73	0.332900	0.414000	0.053900
O741	O74	0.312800	0.469300	0.963300
C1091	C109	0.404000	0.502400	0.030200
C1101	C110	0.442000	0.489600	0.082600
C1111	C111	0.346100	0.459800	0.013800
O751	O75	0.832900	0.914000	0.553900
O761	O76	0.812800	0.969300	0.463300
C1121	C112	0.904000	0.002400	0.530200
C1131	C113	0.942000	0.989600	0.582600
C1141	C114	0.846100	0.959800	0.513800
O771	O77	0.667100	0.914000	0.446100
O781	O78	0.687200	0.969300	0.536700
C1151	C115	0.596000	0.002400	0.469800
C1161	C116	0.558000	0.989600	0.417400
C1171	C117	0.653900	0.959800	0.486200
O791	O79	0.167100	0.414000	0.946100
O801	O80	0.187200	0.469300	0.036700
C1181	C118	0.096000	0.502400	0.969800
C1191	C119	0.058000	0.489600	0.917400
C1201	C120	0.153900	0.459800	0.986200
O811	O81	0.586000	0.553900	0.167100
O821	O82	0.530700	0.463300	0.187200
C1211	C121	0.497600	0.530200	0.096000
C1221	C122	0.510400	0.582600	0.058000
C1231	C123	0.540200	0.513800	0.153900
O831	O83	0.086000	0.053900	0.667100
O841	O84	0.030700	0.963300	0.687200
C1241	C124	0.997600	0.030200	0.596000
C1251	C125	0.010400	0.082600	0.558000
C1261	C126	0.040200	0.013800	0.653900
O851	O85	0.086000	0.946100	0.832900
O861	O86	0.030700	0.036700	0.812800
C1271	C127	0.997600	0.969800	0.904000
C1281	C128	0.010400	0.917400	0.942000
C1291	C129	0.040200	0.986200	0.846100
O871	O87	0.586000	0.446100	0.332900
O881	O88	0.530700	0.536700	0.312800
C1301	C130	0.497600	0.469800	0.404000
C1311	C131	0.510400	0.417400	0.442000
C1321	C132	0.540200	0.486200	0.346100
O891	O89	0.414000	0.053900	0.332900
O901	O90	0.469300	0.963300	0.312800
C1331	C133	0.502400	0.030200	0.404000
C1341	C134	0.489600	0.082600	0.442000
C1351	C135	0.459800	0.013800	0.346100
O911	O91	0.914000	0.553900	0.832900
O921	O92	0.969300	0.463300	0.812800
C1361	C136	0.002400	0.530200	0.904000
C1371	C137	0.989600	0.582600	0.942000
C1381	C138	0.959800	0.513800	0.846100
O931	O93	0.914000	0.446100	0.667100
O941	O94	0.969300	0.536700	0.687200
C1391	C139	0.002400	0.469800	0.596000
C1401	C140	0.989600	0.417400	0.558000
C1411	C141	0.959800	0.486200	0.653900
O951	O95	0.414000	0.946100	0.167100
O961	O96	0.469300	0.036700	0.187200
C1421	C142	0.502400	0.969800	0.096000
C1431	C143	0.489600	0.917400	0.058000
C1441	C144	0.459800	0.986200	0.153900
In11	In1	0.000000	0.250000	0.375000
In21	In2	0.500000	0.750000	0.875000
In31	In3	0.000000	0.750000	0.125000
In41	In4	0.500000	0.250000	0.625000
In51	In5	0.375000	0.000000	0.250000
In61	In6	0.875000	0.500000	0.750000
In71	In7	0.125000	0.000000	0.750000
In81	In8	0.625000	0.500000	0.250000
In91	In9	0.250000	0.375000	0.000000
In101	In10	0.750000	0.875000	0.500000
In111	In11	0.750000	0.125000	0.000000
In121	In12	0.250000	0.625000	0.500000
