data_CUFJUK_clean_PM
_symmetry_space_group_name_H-M	'P1'
_cell_length_a	10.847100
_cell_length_b	6.338900
_cell_length_c	16.883900
_cell_angle_alpha	90.000000
_cell_angle_beta	105.592000
_cell_angle_gamma	90.000000
_symmetry_Int_Tables_number 1

loop_
_symmetry_equiv_pos_as_xyz
'x,y,z'

loop_
_atom_site_label
_atom_site_type_symbol
_atom_site_fract_x
_atom_site_fract_y
_atom_site_fract_z
Co11	Co1	0.034190	0.503060	0.416050
O11	O1	0.944600	0.689700	0.483300
O21	O2	0.859900	0.374000	0.345200
C11	C1	0.677900	0.258000	0.198800
H11	H1	0.715100	0.390400	0.199700
C21	C2	0.831000	0.185800	0.336000
C31	C3	0.536600	0.346800	0.061900
C41	C4	0.413600	0.432100	0.040800
H21	H2	0.354800	0.385100	0.068000
C51	C5	0.577500	0.199700	0.131900
C61	C6	0.666600	0.923400	0.260600
H31	H3	0.697800	0.826700	0.302600
C71	C7	0.723200	0.119400	0.264500
C81	C8	0.564900	0.868200	0.195700
H41	H4	0.526500	0.736800	0.195100
C91	C9	0.520000	0.005600	0.132100
H51	H5	0.450400	0.968100	0.088800
O31	O3	0.884900	0.037200	0.381900
C101	C10	0.377000	0.583100	0.981100
C111	C11	0.242800	0.672100	0.964400
O41	O4	0.156300	0.533400	0.952300
O51	O5	0.224500	0.861800	0.965800
H61	H6	0.880000	0.684000	0.461000
Co21	Co2	0.965810	0.003060	0.083950
O61	O6	0.055400	0.189700	0.016700
O71	O7	0.140100	0.874000	0.154800
C121	C12	0.322100	0.758000	0.301200
H71	H7	0.284900	0.890400	0.300300
C131	C13	0.169000	0.685800	0.164000
C141	C14	0.463400	0.846800	0.438100
C151	C15	0.586400	0.932100	0.459200
H81	H8	0.645200	0.885100	0.432000
C161	C16	0.422500	0.699700	0.368100
C171	C17	0.333400	0.423400	0.239400
H91	H9	0.302200	0.326700	0.197400
C181	C18	0.276800	0.619400	0.235500
C191	C19	0.435100	0.368200	0.304300
H101	H10	0.473500	0.236800	0.304900
C201	C20	0.480000	0.505600	0.367900
H111	H11	0.549600	0.468100	0.411200
O81	O8	0.115100	0.537200	0.118100
C211	C21	0.623000	0.083100	0.518900
C221	C22	0.757200	0.172100	0.535600
O91	O9	0.843700	0.033400	0.547700
O101	O10	0.775500	0.361800	0.534200
H121	H12	0.120000	0.184000	0.039000
Co31	Co3	0.965810	0.496940	0.583950
O111	O11	0.055400	0.310300	0.516700
O121	O12	0.140100	0.626000	0.654800
C231	C23	0.322100	0.742000	0.801200
H131	H13	0.284900	0.609600	0.800300
C241	C24	0.169000	0.814200	0.664000
C251	C25	0.463400	0.653200	0.938100
C261	C26	0.586400	0.567900	0.959200
H141	H14	0.645200	0.614900	0.932000
C271	C27	0.422500	0.800300	0.868100
C281	C28	0.333400	0.076600	0.739400
H151	H15	0.302200	0.173300	0.697400
C291	C29	0.276800	0.880600	0.735500
C301	C30	0.435100	0.131800	0.804300
H161	H16	0.473500	0.263200	0.804900
C311	C31	0.480000	0.994400	0.867900
H171	H17	0.549600	0.031900	0.911200
O131	O13	0.115100	0.962800	0.618100
C321	C32	0.623000	0.416900	0.018900
C331	C33	0.757200	0.327900	0.035600
O141	O14	0.843700	0.466600	0.047700
O151	O15	0.775500	0.138200	0.034200
H181	H18	0.120000	0.316000	0.539000
Co41	Co4	0.034190	0.996940	0.916050
O161	O16	0.944600	0.810300	0.983300
O171	O17	0.859900	0.126000	0.845200
C341	C34	0.677900	0.242000	0.698800
H191	H19	0.715100	0.109600	0.699700
C351	C35	0.831000	0.314200	0.836000
C361	C36	0.536600	0.153200	0.561900
C371	C37	0.413600	0.067900	0.540800
H201	H20	0.354800	0.114900	0.568000
C381	C38	0.577500	0.300300	0.631900
C391	C39	0.666600	0.576600	0.760600
H211	H21	0.697800	0.673300	0.802600
C401	C40	0.723200	0.380600	0.764500
C411	C41	0.564900	0.631800	0.695700
H221	H22	0.526500	0.763200	0.695100
C421	C42	0.520000	0.494400	0.632100
H231	H23	0.450400	0.531900	0.588800
O181	O18	0.884900	0.462800	0.881900
C431	C43	0.377000	0.916900	0.481100
C441	C44	0.242800	0.827900	0.464400
O191	O19	0.156300	0.966600	0.452300
O201	O20	0.224500	0.638200	0.465800
H241	H24	0.880000	0.816000	0.961000
Co51	Co5	0.000000	0.000000	0.500000
Co61	Co6	0.000000	0.500000	0.000000
