data_CUGFOB_clean_PM
_symmetry_space_group_name_H-M	'P1'
_cell_length_a	9.016200
_cell_length_b	10.747900
_cell_length_c	10.806800
_cell_angle_alpha	97.570000
_cell_angle_beta	97.708000
_cell_angle_gamma	110.100000
_symmetry_Int_Tables_number 1

loop_
_symmetry_equiv_pos_as_xyz
'x,y,z'

loop_
_atom_site_label
_atom_site_type_symbol
_atom_site_fract_x
_atom_site_fract_y
_atom_site_fract_z
Cd11	Cd1	0.705690	0.248140	0.687750
O11	O1	0.680200	0.029300	0.604500
O21	O2	0.555100	0.868700	0.433500
N11	N1	0.973200	0.327100	0.777700
N21	N2	0.219900	0.479200	0.816700
N31	N3	0.307400	0.672300	0.703600
N41	N4	0.408700	0.703500	0.938600
C11	C1	0.058100	0.307200	0.883300
H11	H1	0.017800	0.241600	0.930900
C21	C2	0.209400	0.398400	0.906600
H21	H2	0.292200	0.405700	0.971900
C31	C3	0.073800	0.430200	0.741500
H31	H3	0.046700	0.465500	0.671500
C41	C4	0.218900	0.753700	0.712400
H41	H4	0.194400	0.790600	0.786100
C51	C5	0.312100	0.644500	0.579600
H51	H5	0.364900	0.590600	0.547300
C61	C6	0.514100	0.445500	0.758200
H61	H6	0.433500	0.368400	0.769300
C71	C7	0.549700	0.809100	0.993800
H71	H7	0.642200	0.837500	0.959300
C81	C8	0.567900	0.971000	0.511600
B11	B1	0.363000	0.607100	0.808600
C91	C9	0.174000	0.769700	0.591700
H81	H8	0.111600	0.819400	0.569300
C101	C10	0.646400	0.651700	0.749600
H91	H9	0.677100	0.744000	0.752100
N51	N5	0.505000	0.569000	0.776300
C111	C11	0.312900	0.701600	0.023500
H101	H10	0.208400	0.639100	0.011200
C121	C12	0.733000	0.576100	0.719200
H111	H11	0.834500	0.608100	0.698600
C131	C13	0.529900	0.863800	0.106600
N61	N6	0.234300	0.701600	0.508300
N71	N7	0.647400	0.444500	0.723500
N81	N8	0.380400	0.796400	0.125900
H121	H12	0.599000	0.932000	0.160000
Cd21	Cd2	0.294310	0.751860	0.312250
O31	O3	0.319800	0.970700	0.395500
O41	O4	0.444900	0.131300	0.566500
N91	N9	0.026800	0.672900	0.222300
N101	N10	0.780100	0.520800	0.183300
N111	N11	0.692600	0.327700	0.296400
N121	N12	0.591300	0.296500	0.061400
C141	C14	0.941900	0.692800	0.116700
H131	H13	0.982200	0.758400	0.069100
C151	C15	0.790600	0.601600	0.093400
H141	H14	0.707800	0.594300	0.028100
C161	C16	0.926200	0.569800	0.258500
H151	H15	0.953300	0.534500	0.328500
C171	C17	0.781100	0.246300	0.287600
H161	H16	0.805600	0.209400	0.213900
C181	C18	0.687900	0.355500	0.420400
H171	H17	0.635100	0.409400	0.452700
C191	C19	0.485900	0.554500	0.241800
H181	H18	0.566500	0.631600	0.230700
C201	C20	0.450300	0.190900	0.006200
H191	H19	0.357800	0.162500	0.040700
C211	C21	0.432100	0.029000	0.488400
B21	B2	0.637000	0.392900	0.191400
C221	C22	0.826000	0.230300	0.408300
H201	H20	0.888400	0.180600	0.430700
C231	C23	0.353600	0.348300	0.250400
H211	H21	0.322900	0.256000	0.247900
N131	N13	0.495000	0.431000	0.223700
C241	C24	0.687100	0.298400	0.976500
H221	H22	0.791600	0.360900	0.988800
C251	C25	0.267000	0.423900	0.280800
H231	H23	0.165500	0.391900	0.301400
C261	C26	0.470100	0.136200	0.893400
N141	N14	0.765700	0.298400	0.491700
N151	N15	0.352600	0.555500	0.276500
N161	N16	0.619600	0.203600	0.874100
H241	H24	0.401000	0.068000	0.840000
