data_CUGLTM_clean_PM
_symmetry_space_group_name_H-M	'P1'
_cell_length_a	7.238000
_cell_length_b	10.350000
_cell_length_c	11.084000
_cell_angle_alpha	90.000000
_cell_angle_beta	90.000000
_cell_angle_gamma	90.000000
_symmetry_Int_Tables_number 1

loop_
_symmetry_equiv_pos_as_xyz
'x,y,z'

loop_
_atom_site_label
_atom_site_type_symbol
_atom_site_fract_x
_atom_site_fract_y
_atom_site_fract_z
Cu11	Cu1	0.649700	0.816680	0.720670
Cu21	Cu2	0.350300	0.683320	0.220670
H11	H1	0.583000	0.022000	0.972000
H21	H2	0.839000	0.981000	0.081000
H31	H3	0.741000	0.862000	0.103000
H41	H4	0.039000	0.893000	0.937000
H51	H5	0.908000	0.741000	0.954000
H61	H6	0.476000	0.861000	0.865000
H71	H7	0.574000	0.782000	0.946000
H81	H8	0.417000	0.478000	0.472000
H91	H9	0.161000	0.519000	0.581000
H101	H10	0.259000	0.638000	0.603000
H111	H11	0.961000	0.607000	0.437000
H121	H12	0.092000	0.759000	0.454000
H131	H13	0.524000	0.639000	0.365000
H141	H14	0.426000	0.718000	0.446000
C11	C1	0.778000	0.034000	0.840500
C21	C2	0.669900	0.966100	0.938900
C31	C3	0.801500	0.917600	0.037000
C41	C4	0.957300	0.832600	0.993300
C51	C5	0.075600	0.782900	0.095400
C61	C6	0.222000	0.466000	0.340500
C71	C7	0.330100	0.533900	0.438900
C81	C8	0.198500	0.582400	0.537000
C91	C9	0.042700	0.667400	0.493300
C101	C10	0.924400	0.717100	0.595400
N11	N1	0.560200	0.858300	0.886700
N21	N2	0.439800	0.641700	0.386700
O11	O1	0.768300	0.987200	0.733400
O21	O2	0.874100	0.128600	0.869000
O31	O3	0.224900	0.721400	0.065900
O41	O4	0.035600	0.800600	0.203100
O51	O5	0.231700	0.512800	0.233400
O61	O6	0.125900	0.371400	0.369000
O71	O7	0.775100	0.778600	0.565900
O81	O8	0.964400	0.699400	0.703100
Cu31	Cu3	0.149700	0.183320	0.779330
Cu41	Cu4	0.850300	0.316680	0.279330
H151	H15	0.083000	0.978000	0.528000
H161	H16	0.339000	0.019000	0.419000
H171	H17	0.241000	0.138000	0.397000
H181	H18	0.539000	0.107000	0.563000
H191	H19	0.408000	0.259000	0.546000
H201	H20	0.976000	0.139000	0.635000
H211	H21	0.074000	0.218000	0.554000
H221	H22	0.917000	0.522000	0.028000
H231	H23	0.661000	0.481000	0.919000
H241	H24	0.759000	0.362000	0.897000
H251	H25	0.461000	0.393000	0.063000
H261	H26	0.592000	0.241000	0.046000
H271	H27	0.024000	0.361000	0.135000
H281	H28	0.926000	0.282000	0.054000
C111	C11	0.278000	0.966000	0.659500
C121	C12	0.169900	0.033900	0.561100
C131	C13	0.301500	0.082400	0.463000
C141	C14	0.457300	0.167400	0.506700
C151	C15	0.575600	0.217100	0.404600
C161	C16	0.722000	0.534000	0.159500
C171	C17	0.830100	0.466100	0.061100
C181	C18	0.698500	0.417600	0.963000
C191	C19	0.542700	0.332600	0.006700
C201	C20	0.424400	0.282900	0.904600
N31	N3	0.060200	0.141700	0.613300
N41	N4	0.939800	0.358300	0.113300
O91	O9	0.268300	0.012800	0.766600
O101	O10	0.374100	0.871400	0.631000
O111	O11	0.724900	0.278600	0.434100
O121	O12	0.535600	0.199400	0.296900
O131	O13	0.731700	0.487200	0.266600
O141	O14	0.625900	0.628600	0.131000
O151	O15	0.275100	0.221400	0.934100
O161	O16	0.464400	0.300600	0.796900
