data_CUGVUW_clean_PM
_symmetry_space_group_name_H-M	'P1'
_cell_length_a	8.981000
_cell_length_b	16.001500
_cell_length_c	16.001500
_cell_angle_alpha	63.416700
_cell_angle_beta	79.217200
_cell_angle_gamma	100.783000
_symmetry_Int_Tables_number 1

loop_
_symmetry_equiv_pos_as_xyz
'x,y,z'

loop_
_atom_site_label
_atom_site_type_symbol
_atom_site_fract_x
_atom_site_fract_y
_atom_site_fract_z
Cu11	Cu1	0.000000	0.000000	0.500000
Cu21	Cu2	0.500000	0.500000	0.500000
Cu31	Cu3	0.000000	0.500000	0.000000
H11	H1	0.327900	0.227600	0.638200
H21	H2	0.088300	0.118200	0.741800
H31	H3	0.911700	0.331700	0.699100
H41	H4	0.903000	0.639100	0.627900
H51	H5	0.851400	0.778900	0.615300
H61	H6	0.216900	0.944900	0.381400
H71	H7	0.285500	0.811000	0.390600
H81	H8	0.966100	0.638200	0.134200
H91	H9	0.830100	0.741800	0.140000
H101	H10	0.610800	0.699100	0.969200
H111	H11	0.530900	0.627900	0.733000
H121	H12	0.466700	0.615300	0.605800
H131	H13	0.598300	0.381400	0.673700
H141	H14	0.676100	0.390600	0.798400
H151	H15	0.100300	0.134200	0.227600
H161	H16	0.970100	0.140000	0.118200
H171	H17	0.580000	0.969200	0.331700
H181	H18	0.263900	0.733000	0.639100
H191	H19	0.072500	0.605800	0.778900
H201	H20	0.272000	0.673700	0.944900
H211	H21	0.474500	0.798400	0.811000
H221	H22	0.672100	0.772400	0.361800
H231	H23	0.911700	0.881800	0.258200
H241	H24	0.088300	0.668300	0.300900
H251	H25	0.097000	0.360900	0.372100
H261	H26	0.148600	0.221100	0.384700
H271	H27	0.783100	0.055100	0.618600
H281	H28	0.714500	0.189000	0.609400
H291	H29	0.033900	0.361800	0.865800
H301	H30	0.169900	0.258200	0.860000
H311	H31	0.389200	0.300900	0.030800
H321	H32	0.469100	0.372100	0.267000
H331	H33	0.533300	0.384700	0.394200
H341	H34	0.401700	0.618600	0.326300
H351	H35	0.323900	0.609400	0.201600
H361	H36	0.899700	0.865800	0.772400
H371	H37	0.029900	0.860000	0.881800
H381	H38	0.420000	0.030800	0.668300
H391	H39	0.736100	0.267000	0.360900
H401	H40	0.927500	0.394200	0.221100
H411	H41	0.728000	0.326300	0.055100
H421	H42	0.525500	0.201600	0.189000
C11	C1	0.243200	0.250700	0.650200
C21	C2	0.098900	0.185000	0.712300
C31	C3	0.997290	0.309080	0.687610
C41	C4	0.140320	0.375380	0.626320
C51	C5	0.169880	0.482090	0.577750
C61	C6	0.156560	0.623160	0.527180
C71	C7	0.105370	0.709800	0.513590
C81	C8	0.971190	0.700710	0.578840
C91	C9	0.940220	0.785230	0.569670
C101	C10	0.155370	0.882680	0.432970
C111	C11	0.197060	0.802760	0.437680
C121	C12	0.893400	0.650200	0.099100
C131	C13	0.811200	0.712300	0.102700
C141	C14	0.684900	0.687610	0.003310
C151	C15	0.766640	0.626320	0.998300
C161	C16	0.747630	0.577750	0.940160
C171	C17	0.683740	0.527180	0.849660
C181	C18	0.618960	0.513590	0.776610
C191	C19	0.550030	0.578840	0.720450
C201	C20	0.509890	0.569670	0.645100
C211	C21	0.588340	0.432970	0.684350
C221	C22	0.634740	0.437680	0.759560
C231	C23	0.992500	0.099100	0.250700
C241	C24	0.913900	0.102700	0.185000
C251	C25	0.688210	0.003310	0.309080
C261	C26	0.764940	0.998300	0.375380
C271	C27	0.687790	0.940160	0.482090
C281	C28	0.533400	0.849660	0.623160
C291	C29	0.395570	0.776610	0.709800
C301	C30	0.270480	0.720450	0.700710
C311	C31	0.154990	0.645100	0.785230
C321	C32	0.272690	0.684350	0.882680
C331	C33	0.394300	0.759560	0.802760
C341	C34	0.756800	0.749300	0.349800
C351	C35	0.901100	0.815000	0.287700
C361	C36	0.002710	0.690920	0.312390
C371	C37	0.859680	0.624620	0.373680
C381	C38	0.830120	0.517910	0.422250
C391	C39	0.843440	0.376840	0.472820
C401	C40	0.894630	0.290200	0.486410
C411	C41	0.028810	0.299290	0.421160
C421	C42	0.059780	0.214770	0.430330
C431	C43	0.844630	0.117320	0.567030
C441	C44	0.802940	0.197240	0.562320
C451	C45	0.106600	0.349800	0.900900
C461	C46	0.188800	0.287700	0.897300
C471	C47	0.315100	0.312390	0.996690
C481	C48	0.233360	0.373680	0.001700
C491	C49	0.252370	0.422250	0.059840
C501	C50	0.316260	0.472820	0.150340
C511	C51	0.381040	0.486410	0.223390
C521	C52	0.449970	0.421160	0.279550
C531	C53	0.490110	0.430330	0.354900
C541	C54	0.411660	0.567030	0.315650
C551	C55	0.365260	0.562320	0.240440
C561	C56	0.007500	0.900900	0.749300
C571	C57	0.086100	0.897300	0.815000
C581	C58	0.311790	0.996690	0.690920
C591	C59	0.235060	0.001700	0.624620
C601	C60	0.312210	0.059840	0.517910
C611	C61	0.466600	0.150340	0.376840
C621	C62	0.604430	0.223390	0.290200
C631	C63	0.729520	0.279550	0.299290
C641	C64	0.845010	0.354900	0.214770
C651	C65	0.727310	0.315650	0.117320
C661	C66	0.605700	0.240440	0.197240
N11	N1	0.266840	0.346860	0.606140
N21	N2	0.974070	0.211940	0.732430
N31	N3	0.313530	0.542240	0.516850
N41	N4	0.307210	0.636300	0.482270
N51	N5	0.064360	0.528940	0.588060
N61	N6	0.030850	0.875190	0.499040
N71	N7	0.872980	0.606140	0.047000
N81	N8	0.706500	0.732430	0.055630
N91	N9	0.830380	0.516850	0.940910
N101	N10	0.789480	0.482270	0.881430
N111	N11	0.652420	0.588060	0.883000
N121	N12	0.529890	0.499040	0.625770
N131	N13	0.919980	0.047000	0.346860
N141	N14	0.762130	0.055630	0.211940
N151	N15	0.771290	0.940910	0.542240
N161	N16	0.670910	0.881430	0.636300
N171	N17	0.535420	0.883000	0.528940
N181	N18	0.155660	0.625770	0.875190
N191	N19	0.733160	0.653140	0.393860
N201	N20	0.025930	0.788060	0.267570
N211	N21	0.686470	0.457760	0.483150
N221	N22	0.692790	0.363700	0.517730
N231	N23	0.935640	0.471060	0.411940
N241	N24	0.969150	0.124810	0.500960
N251	N25	0.127020	0.393860	0.953000
N261	N26	0.293500	0.267570	0.944370
N271	N27	0.169620	0.483150	0.059090
N281	N28	0.210520	0.517730	0.118570
N291	N29	0.347580	0.411940	0.117000
N301	N30	0.470110	0.500960	0.374230
N311	N31	0.080020	0.953000	0.653140
N321	N32	0.237870	0.944370	0.788060
N331	N33	0.228710	0.059090	0.457760
N341	N34	0.329090	0.118570	0.363700
N351	N35	0.464580	0.117000	0.471060
N361	N36	0.844340	0.374230	0.124810
