data_CUGVUX_clean_PM
_symmetry_space_group_name_H-M	'P1'
_cell_length_a	10.772000
_cell_length_b	21.752400
_cell_length_c	9.857800
_cell_angle_alpha	90.000000
_cell_angle_beta	111.728000
_cell_angle_gamma	90.000000
_symmetry_Int_Tables_number 1

loop_
_symmetry_equiv_pos_as_xyz
'x,y,z'

loop_
_atom_site_label
_atom_site_type_symbol
_atom_site_fract_x
_atom_site_fract_y
_atom_site_fract_z
Cu11	Cu1	0.963440	0.110050	0.563820
Cu21	Cu2	0.508150	0.865880	0.004030
O11	O1	0.789660	0.083480	0.554500
O21	O2	0.666910	0.168450	0.479200
O31	O3	0.155270	0.100780	0.621150
O41	O4	0.194200	0.156440	0.450800
O51	O5	0.477500	0.933730	0.868200
O61	O6	0.683100	0.939680	0.862500
O71	O7	0.799620	0.165480	0.865100
N11	N1	0.920500	0.083200	0.356300
N21	N2	0.678500	0.134080	0.003900
N31	N3	0.473900	0.198940	0.846300
N41	N4	0.485100	0.287840	0.652400
C11	C1	0.817800	0.110530	0.252100
H11	H1	0.765600	0.137900	0.280300
C21	C2	0.785500	0.100150	0.104300
C31	C3	0.963600	0.027040	0.172400
H21	H2	0.013800	0.997500	0.147500
C41	C4	0.992500	0.041890	0.315800
H31	H3	0.064300	0.022700	0.387400
C51	C5	0.858700	0.056430	0.064200
H41	H4	0.838100	0.046900	0.966300
C61	C6	0.371000	0.236640	0.784100
H51	H5	0.294000	0.232600	0.805000
C71	C7	0.378500	0.281640	0.688700
H61	H6	0.306900	0.308400	0.648600
C81	C8	0.586500	0.249010	0.713500
H71	H7	0.661500	0.251600	0.688400
C91	C9	0.582600	0.204860	0.813700
C101	C10	0.698900	0.164270	0.897100
C111	C11	0.685200	0.116020	0.530800
C121	C12	0.580400	0.086390	0.576600
C131	C13	0.613100	0.035080	0.667300
H81	H8	0.697100	0.017200	0.692200
C141	C14	0.454300	0.111950	0.537200
H91	H9	0.431500	0.145800	0.475400
C151	C15	0.227000	0.117800	0.547800
C161	C16	0.360800	0.087260	0.589600
C171	C17	0.395400	0.036400	0.682300
H101	H10	0.333800	0.020000	0.718100
C181	C18	0.521400	0.010210	0.721300
C191	C19	0.565200	0.956860	0.824800
Cu31	Cu3	0.036560	0.610050	0.936180
Cu41	Cu4	0.491850	0.365880	0.495970
O81	O8	0.210340	0.583480	0.945500
O91	O9	0.333090	0.668450	0.020800
O101	O10	0.844730	0.600780	0.878850
O111	O11	0.805800	0.656440	0.049200
O121	O12	0.522500	0.433730	0.631800
O131	O13	0.316900	0.439680	0.637500
O141	O14	0.200380	0.665480	0.634900
N51	N5	0.079500	0.583200	0.143700
N61	N6	0.321500	0.634080	0.496100
N71	N7	0.526100	0.698940	0.653700
N81	N8	0.514900	0.787840	0.847600
C201	C20	0.182200	0.610530	0.247900
H111	H11	0.234400	0.637900	0.219700
C211	C21	0.214500	0.600150	0.395700
C221	C22	0.036400	0.527040	0.327600
H121	H12	0.986200	0.497500	0.352500
C231	C23	0.007500	0.541890	0.184200
H131	H13	0.935700	0.522700	0.112600
C241	C24	0.141300	0.556430	0.435800
H141	H14	0.161900	0.546900	0.533700
C251	C25	0.629000	0.736640	0.715900
H151	H15	0.706000	0.732600	0.695000
C261	C26	0.621500	0.781640	0.811300
H161	H16	0.693100	0.808400	0.851400
C271	C27	0.413500	0.749010	0.786500
H171	H17	0.338500	0.751600	0.811600
C281	C28	0.417400	0.704860	0.686300
C291	C29	0.301100	0.664270	0.602900
C301	C30	0.314800	0.616020	0.969200
C311	C31	0.419600	0.586390	0.923400
C321	C32	0.386900	0.535080	0.832700
H181	H18	0.302900	0.517200	0.807800
C331	C33	0.545700	0.611950	0.962800
H191	H19	0.568500	0.645800	0.024600
C341	C34	0.773000	0.617800	0.952200
C351	C35	0.639200	0.587260	0.910400
C361	C36	0.604600	0.536400	0.817700
H201	H20	0.666200	0.520000	0.781900
C371	C37	0.478600	0.510210	0.778700
C381	C38	0.434800	0.456860	0.675200
Cu51	Cu5	0.036560	0.889950	0.436180
Cu61	Cu6	0.491850	0.134120	0.995970
O151	O15	0.210340	0.916520	0.445500
O161	O16	0.333090	0.831550	0.520800
O171	O17	0.844730	0.899220	0.378850
O181	O18	0.805800	0.843560	0.549200
O191	O19	0.522500	0.066270	0.131800
O201	O20	0.316900	0.060320	0.137500
O211	O21	0.200380	0.834520	0.134900
N91	N9	0.079500	0.916800	0.643700
N101	N10	0.321500	0.865920	0.996100
N111	N11	0.526100	0.801060	0.153700
N121	N12	0.514900	0.712160	0.347600
C391	C39	0.182200	0.889470	0.747900
H211	H21	0.234400	0.862100	0.719700
C401	C40	0.214500	0.899850	0.895700
C411	C41	0.036400	0.972960	0.827600
H221	H22	0.986200	0.002500	0.852500
C421	C42	0.007500	0.958110	0.684200
H231	H23	0.935700	0.977300	0.612600
C431	C43	0.141300	0.943570	0.935800
H241	H24	0.161900	0.953100	0.033700
C441	C44	0.629000	0.763360	0.215900
H251	H25	0.706000	0.767400	0.195000
C451	C45	0.621500	0.718360	0.311300
H261	H26	0.693100	0.691600	0.351400
C461	C46	0.413500	0.750990	0.286500
H271	H27	0.338500	0.748400	0.311600
C471	C47	0.417400	0.795140	0.186300
C481	C48	0.301100	0.835730	0.102900
C491	C49	0.314800	0.883980	0.469200
C501	C50	0.419600	0.913610	0.423400
C511	C51	0.386900	0.964920	0.332700
H281	H28	0.302900	0.982800	0.307800
C521	C52	0.545700	0.888050	0.462800
H291	H29	0.568500	0.854200	0.524600
C531	C53	0.773000	0.882200	0.452200
C541	C54	0.639200	0.912740	0.410400
C551	C55	0.604600	0.963600	0.317700
H301	H30	0.666200	0.980000	0.281900
C561	C56	0.478600	0.989790	0.278700
C571	C57	0.434800	0.043140	0.175200
Cu71	Cu7	0.963440	0.389950	0.063820
Cu81	Cu8	0.508150	0.634120	0.504030
O221	O22	0.789660	0.416520	0.054500
O231	O23	0.666910	0.331550	0.979200
O241	O24	0.155270	0.399220	0.121150
O251	O25	0.194200	0.343560	0.950800
O261	O26	0.477500	0.566270	0.368200
O271	O27	0.683100	0.560320	0.362500
O281	O28	0.799620	0.334520	0.365100
N131	N13	0.920500	0.416800	0.856300
N141	N14	0.678500	0.365920	0.503900
N151	N15	0.473900	0.301060	0.346300
N161	N16	0.485100	0.212160	0.152400
C581	C58	0.817800	0.389470	0.752100
H311	H31	0.765600	0.362100	0.780300
C591	C59	0.785500	0.399850	0.604300
C601	C60	0.963600	0.472960	0.672400
H321	H32	0.013800	0.502500	0.647500
C611	C61	0.992500	0.458110	0.815800
H331	H33	0.064300	0.477300	0.887400
C621	C62	0.858700	0.443570	0.564200
H341	H34	0.838100	0.453100	0.466300
C631	C63	0.371000	0.263360	0.284100
H351	H35	0.294000	0.267400	0.305000
C641	C64	0.378500	0.218360	0.188700
H361	H36	0.306900	0.191600	0.148600
C651	C65	0.586500	0.250990	0.213500
H371	H37	0.661500	0.248400	0.188400
C661	C66	0.582600	0.295140	0.313700
C671	C67	0.698900	0.335730	0.397100
C681	C68	0.685200	0.383980	0.030800
C691	C69	0.580400	0.413610	0.076600
C701	C70	0.613100	0.464920	0.167300
H381	H38	0.697100	0.482800	0.192200
C711	C71	0.454300	0.388050	0.037200
H391	H39	0.431500	0.354200	0.975400
C721	C72	0.227000	0.382200	0.047800
C731	C73	0.360800	0.412740	0.089600
C741	C74	0.395400	0.463600	0.182300
H401	H40	0.333800	0.480000	0.218100
C751	C75	0.521400	0.489790	0.221300
C761	C76	0.565200	0.543140	0.324800
