data_CUGXAF_clean_PM
_symmetry_space_group_name_H-M	'P1'
_cell_length_a	38.012000
_cell_length_b	38.012000
_cell_length_c	29.603000
_cell_angle_alpha	90.000000
_cell_angle_beta	90.000000
_cell_angle_gamma	120.000000
_symmetry_Int_Tables_number 1

loop_
_symmetry_equiv_pos_as_xyz
'x,y,z'

loop_
_atom_site_label
_atom_site_type_symbol
_atom_site_fract_x
_atom_site_fract_y
_atom_site_fract_z
Co11	Co1	0.233290	0.107420	0.952550
O11	O1	0.242850	0.081480	0.011650
O21	O2	0.295700	0.130400	0.977150
O31	O3	0.497710	0.101140	0.244730
O41	O4	0.428900	0.240020	0.932200
O51	O5	0.363670	0.204590	0.950990
O61	O6	0.461990	0.035550	0.225080
N11	N1	0.022440	0.041670	0.942850
N21	N2	0.169310	0.078120	0.951110
C11	C1	0.374670	0.126880	0.076300
H11	H1	0.402100	0.146300	0.076900
C21	C2	0.039510	0.018350	0.942930
C31	C3	0.084760	0.039030	0.944780
C41	C4	0.387090	0.089730	0.138820
C51	C5	0.349390	0.130330	0.044620
H21	H2	0.360200	0.151600	0.024000
C61	C6	0.406630	0.264100	0.992450
C71	C7	0.440080	0.078590	0.195820
C81	C8	0.308050	0.102080	0.043790
C91	C9	0.469270	0.071260	0.223900
C101	C10	0.104910	0.017420	0.947830
H31	H3	0.090400	0.989200	0.948000
C111	C11	0.280710	0.104610	0.008990
C121	C12	0.108430	0.081370	0.944880
H41	H4	0.096200	0.097300	0.942800
C131	C13	0.359370	0.094750	0.107220
C141	C14	0.449840	0.117220	0.181630
H51	H5	0.474000	0.139700	0.191000
C151	C15	0.398840	0.233670	0.955680
C161	C16	0.149930	0.099210	0.948090
H61	H6	0.165300	0.127400	0.948200
C171	C17	0.403980	0.045670	0.181650
H71	H7	0.397200	0.019600	0.190800
C181	C18	0.292300	0.070860	0.075330
H81	H8	0.264600	0.052100	0.075600
C191	C19	0.395040	0.279570	0.067390
H91	H9	0.380300	0.271100	0.094100
C201	C20	0.377700	0.051110	0.153930
H101	H10	0.353300	0.028600	0.145200
C211	C21	0.317850	0.067570	0.106430
H111	H11	0.306800	0.046500	0.127400
C221	C22	0.423690	0.122430	0.153580
H121	H12	0.430700	0.148500	0.144300
C231	C23	0.146630	0.037880	0.950630
H131	H13	0.159700	0.022700	0.952300
C241	C24	0.385430	0.252050	0.031470
H141	H14	0.364400	0.225400	0.034600
C251	C25	0.445900	0.331350	0.022320
H151	H15	0.465600	0.358400	0.018200
C261	C26	0.426200	0.319000	0.063100
C271	C27	0.436750	0.304000	0.987450
H161	H16	0.451000	0.312600	0.960400
Co21	Co2	0.899950	0.440750	0.285890
O71	O7	0.909520	0.414810	0.344980
O81	O8	0.962370	0.463730	0.310480
O91	O9	0.164380	0.434470	0.578060
O101	O10	0.095570	0.573350	0.265530
O111	O11	0.030340	0.537920	0.284320
O121	O12	0.128660	0.368880	0.558410
N31	N3	0.689110	0.375000	0.276180
N41	N4	0.835980	0.411450	0.284440
C281	C28	0.041340	0.460210	0.409630
H171	H17	0.068770	0.479630	0.410230
C291	C29	0.706180	0.351680	0.276260
C301	C30	0.751430	0.372360	0.278110
C311	C31	0.053760	0.423060	0.472150
C321	C32	0.016060	0.463660	0.377950
H181	H18	0.026870	0.484930	0.357330
C331	C33	0.073300	0.597430	0.325780
C341	C34	0.106750	0.411920	0.529150
C351	C35	0.974720	0.435410	0.377120
C361	C36	0.135940	0.404590	0.557230
C371	C37	0.771580	0.350750	0.281160
H191	H19	0.757070	0.322530	0.281330
C381	C38	0.947380	0.437940	0.342320
C391	C39	0.775100	0.414700	0.278210
H201	H20	0.762870	0.430630	0.276130
C401	C40	0.026040	0.428080	0.440550
C411	C41	0.116510	0.450550	0.514960
H211	H21	0.140670	0.473030	0.524330
C421	C42	0.065510	0.567000	0.289010
C431	C43	0.816600	0.432540	0.281420
H221	H22	0.831970	0.460730	0.281530
C441	C44	0.070650	0.379000	0.514980
H231	H23	0.063870	0.352930	0.524130
C451	C45	0.958970	0.404190	0.408660
H241	H24	0.931270	0.385430	0.408930
C461	C46	0.061710	0.612900	0.400720
H251	H25	0.046970	0.604430	0.427430
C471	C47	0.044370	0.384440	0.487260
H261	H26	0.019970	0.361930	0.478530
C481	C48	0.984520	0.400900	0.439760
H271	H27	0.973470	0.379830	0.460730
C491	C49	0.090360	0.455760	0.486910
H281	H28	0.097370	0.481830	0.477630
C501	C50	0.813300	0.371210	0.283960
H291	H29	0.826370	0.356030	0.285630
C511	C51	0.052100	0.585380	0.364800
H301	H30	0.031070	0.558730	0.367930
C521	C52	0.112570	0.664680	0.355650
H311	H31	0.132270	0.691730	0.351530
C531	C53	0.092870	0.652330	0.396430
C541	C54	0.103420	0.637330	0.320780
H321	H32	0.117670	0.645930	0.293730
Co31	Co3	0.566620	0.774080	0.619220
O131	O13	0.576180	0.748150	0.678320
O141	O14	0.629030	0.797070	0.643820
O151	O15	0.831040	0.767810	0.911400
O161	O16	0.762230	0.906690	0.598870
O171	O17	0.697000	0.871260	0.617660
O181	O18	0.795320	0.702220	0.891750
N51	N5	0.355770	0.708340	0.609520
N61	N6	0.502640	0.744790	0.617780
C551	C55	0.708000	0.793550	0.742970
H331	H33	0.735430	0.812970	0.743570
C561	C56	0.372840	0.685020	0.609600
C571	C57	0.418090	0.705700	0.611450
C581	C58	0.720420	0.756400	0.805490
C591	C59	0.682720	0.797000	0.711290
H341	H34	0.693530	0.818270	0.690670
C601	C60	0.739960	0.930770	0.659120
C611	C61	0.773410	0.745260	0.862490
C621	C62	0.641380	0.768750	0.710460
C631	C63	0.802600	0.737930	0.890570
C641	C64	0.438240	0.684090	0.614500
H351	H35	0.423730	0.655870	0.614670
C651	C65	0.614040	0.771280	0.675660
C661	C66	0.441760	0.748040	0.611550
H361	H36	0.429530	0.763970	0.609470
C671	C67	0.692700	0.761420	0.773890
C681	C68	0.783170	0.783890	0.848300
H371	H37	0.807330	0.806370	0.857670
C691	C69	0.732170	0.900340	0.622350
C701	C70	0.483260	0.765880	0.614760
H381	H38	0.498630	0.794070	0.614870
C711	C71	0.737310	0.712340	0.848320
H391	H39	0.730530	0.686270	0.857470
C721	C72	0.625630	0.737530	0.742000
H401	H40	0.597930	0.718770	0.742270
C731	C73	0.728370	0.946240	0.734060
H411	H41	0.713630	0.937770	0.760770
C741	C74	0.711030	0.717780	0.820600
H421	H42	0.686630	0.695270	0.811870
C751	C75	0.651180	0.734240	0.773100
H431	H43	0.640130	0.713170	0.794070
C761	C76	0.757020	0.789100	0.820250
H441	H44	0.764030	0.815170	0.810970
C771	C77	0.479960	0.704550	0.617300
H451	H45	0.493030	0.689370	0.618970
C781	C78	0.718760	0.918720	0.698140
H461	H46	0.697730	0.892070	0.701270
C791	C79	0.779230	0.998020	0.688990
H471	H47	0.798930	0.025070	0.684870
C801	C80	0.759530	0.985670	0.729770
C811	C81	0.770080	0.970670	0.654120
H481	H48	0.784330	0.979270	0.627070
Co41	Co4	0.892580	0.125870	0.952550
O191	O19	0.918520	0.161370	0.011650
O201	O20	0.869600	0.165300	0.977150
O211	O21	0.898860	0.396570	0.244730
O221	O22	0.759980	0.188880	0.932200
O231	O23	0.795410	0.159080	0.950990
O241	O24	0.964450	0.426440	0.225080
N71	N7	0.958330	0.980770	0.942850
N81	N8	0.921880	0.091190	0.951110
C821	C82	0.873120	0.247790	0.076300
H491	H49	0.853700	0.255800	0.076900
C831	C83	0.981650	0.021160	0.942930
C841	C84	0.960970	0.045730	0.944780
C851	C85	0.910270	0.297360	0.138820
C861	C86	0.869670	0.219060	0.044620
H501	H50	0.848400	0.208600	0.024000
C871	C87	0.735900	0.142530	0.992450
C881	C88	0.921410	0.361490	0.195820
C891	C89	0.897920	0.205970	0.043790
C901	C90	0.928740	0.398010	0.223900
C911	C91	0.982580	0.087490	0.947830
H511	H51	0.010800	0.101200	0.948000
C921	C92	0.895390	0.176100	0.008990
C931	C93	0.918630	0.027060	0.944880
H521	H52	0.902700	0.998900	0.942800
C941	C94	0.905250	0.264620	0.107220
C951	C95	0.882780	0.332620	0.181630
H531	H53	0.860300	0.334300	0.191000
C961	C96	0.766330	0.165170	0.955680
C971	C97	0.900790	0.050720	0.948090
H541	H54	0.872600	0.037900	0.948200
C981	C98	0.954330	0.358310	0.181650
H551	H55	0.980400	0.377600	0.190800
C991	C99	0.929140	0.221440	0.075330
H561	H56	0.947900	0.212500	0.075600
C1001	C100	0.720430	0.115470	0.067390
H571	H57	0.728900	0.109200	0.094100
C1011	C101	0.948890	0.326590	0.153930
H581	H58	0.971400	0.324700	0.145200
C1021	C102	0.932430	0.250280	0.106430
H591	H59	0.953500	0.260300	0.127400
C1031	C103	0.877570	0.301260	0.153580
H601	H60	0.851500	0.282200	0.144300
C1041	C104	0.962120	0.108750	0.950630
H611	H61	0.977300	0.137000	0.952300
C1051	C105	0.747950	0.133380	0.031470
H621	H62	0.774600	0.139000	0.034600
C1061	C106	0.668650	0.114550	0.022320
H631	H63	0.641600	0.107200	0.018200
C1071	C107	0.681000	0.107200	0.063100
C1081	C108	0.696000	0.132750	0.987450
H641	H64	0.687400	0.138400	0.960400
Co51	Co5	0.559250	0.459200	0.285890
O251	O25	0.585190	0.494700	0.344980
O261	O26	0.536270	0.498630	0.310480
O271	O27	0.565530	0.729900	0.578060
O281	O28	0.426650	0.522210	0.265530
O291	O29	0.462080	0.492410	0.284320
O301	O30	0.631120	0.759770	0.558410
N91	N9	0.625000	0.314100	0.276180
N101	N10	0.588550	0.424520	0.284440
C1091	C109	0.539790	0.581120	0.409630
H651	H65	0.520370	0.589130	0.410230
C1101	C110	0.648320	0.354490	0.276260
C1111	C111	0.627640	0.379060	0.278110
C1121	C112	0.576940	0.630690	0.472150
C1131	C113	0.536340	0.552390	0.377950
H661	H66	0.515070	0.541930	0.357330
C1141	C114	0.402570	0.475860	0.325780
C1151	C115	0.588080	0.694820	0.529150
C1161	C116	0.564590	0.539300	0.377120
C1171	C117	0.595410	0.731340	0.557230
C1181	C118	0.649250	0.420820	0.281160
H671	H67	0.677470	0.434530	0.281330
C1191	C119	0.562060	0.509430	0.342320
C1201	C120	0.585300	0.360390	0.278210
H681	H68	0.569370	0.332230	0.276130
C1211	C121	0.571920	0.597950	0.440550
C1221	C122	0.549450	0.665950	0.514960
H691	H69	0.526970	0.667630	0.524330
C1231	C123	0.433000	0.498500	0.289010
C1241	C124	0.567460	0.384050	0.281420
H701	H70	0.539270	0.371230	0.281530
C1251	C125	0.621000	0.691640	0.514980
H711	H71	0.647070	0.710930	0.524130
C1261	C126	0.595810	0.554770	0.408660
H721	H72	0.614570	0.545830	0.408930
C1271	C127	0.387100	0.448800	0.400720
H731	H73	0.395570	0.442530	0.427430
C1281	C128	0.615560	0.659920	0.487260
H741	H74	0.638070	0.658030	0.478530
C1291	C129	0.599100	0.583610	0.439760
H751	H75	0.620170	0.593630	0.460730
C1301	C130	0.544240	0.634590	0.486910
H761	H76	0.518170	0.615530	0.477630
C1311	C131	0.628790	0.442080	0.283960
H771	H77	0.643970	0.470330	0.285630
C1321	C132	0.414620	0.466710	0.364800
H781	H78	0.441270	0.472330	0.367930
C1331	C133	0.335320	0.447880	0.355650
H791	H79	0.308270	0.440530	0.351530
C1341	C134	0.347670	0.440530	0.396430
C1351	C135	0.362670	0.466080	0.320780
H801	H80	0.354070	0.471730	0.293730
Co61	Co6	0.225920	0.792540	0.619220
O311	O31	0.251850	0.828040	0.678320
O321	O32	0.202930	0.831970	0.643820
O331	O33	0.232190	0.063240	0.911400
O341	O34	0.093310	0.855550	0.598870
O351	O35	0.128740	0.825750	0.617660
O361	O36	0.297780	0.093110	0.891750
N111	N11	0.291660	0.647440	0.609520
N121	N12	0.255210	0.757860	0.617780
C1361	C136	0.206450	0.914460	0.742970
H811	H81	0.187030	0.922470	0.743570
C1371	C137	0.314980	0.687830	0.609600
C1381	C138	0.294300	0.712400	0.611450
C1391	C139	0.243600	0.964030	0.805490
C1401	C140	0.203000	0.885730	0.711290
H821	H82	0.181730	0.875270	0.690670
C1411	C141	0.069230	0.809200	0.659120
C1421	C142	0.254740	0.028160	0.862490
C1431	C143	0.231250	0.872640	0.710460
C1441	C144	0.262070	0.064680	0.890570
C1451	C145	0.315910	0.754160	0.614500
H831	H83	0.344130	0.767870	0.614670
C1461	C146	0.228720	0.842770	0.675660
C1471	C147	0.251960	0.693730	0.611550
H841	H84	0.236030	0.665570	0.609470
C1481	C148	0.238580	0.931290	0.773890
C1491	C149	0.216110	0.999290	0.848300
H851	H85	0.193630	0.000970	0.857670
C1501	C150	0.099660	0.831840	0.622350
C1511	C151	0.234120	0.717390	0.614760
H861	H86	0.205930	0.704570	0.614870
C1521	C152	0.287660	0.024980	0.848320
H871	H87	0.313730	0.044270	0.857470
C1531	C153	0.262470	0.888110	0.742000
H881	H88	0.281230	0.879170	0.742270
C1541	C154	0.053760	0.782140	0.734060
H891	H89	0.062230	0.775870	0.760770
C1551	C155	0.282220	0.993260	0.820600
H901	H90	0.304730	0.991370	0.811870
C1561	C156	0.265760	0.916950	0.773100
H911	H91	0.286830	0.926970	0.794070
C1571	C157	0.210900	0.967930	0.820250
H921	H92	0.184830	0.948870	0.810970
C1581	C158	0.295450	0.775420	0.617300
H931	H93	0.310630	0.803670	0.618970
C1591	C159	0.081280	0.800050	0.698140
H941	H94	0.107930	0.805670	0.701270
C1601	C160	0.001980	0.781220	0.688990
H951	H95	0.974930	0.773870	0.684870
C1611	C161	0.014330	0.773870	0.729770
C1621	C162	0.029330	0.799420	0.654120
H961	H96	0.020730	0.805070	0.627070
Co71	Co7	0.874130	0.766710	0.952550
O371	O37	0.838630	0.757150	0.011650
O381	O38	0.834700	0.704300	0.977150
O391	O39	0.603430	0.502290	0.244730
O401	O40	0.811120	0.571100	0.932200
O411	O41	0.840920	0.636330	0.950990
O421	O42	0.573560	0.538010	0.225080
N131	N13	0.019230	0.977560	0.942850
N141	N14	0.908810	0.830690	0.951110
C1631	C163	0.752210	0.625330	0.076300
H971	H97	0.744200	0.597900	0.076900
C1641	C164	0.978840	0.960490	0.942930
C1651	C165	0.954270	0.915240	0.944780
C1661	C166	0.702640	0.612910	0.138820
C1671	C167	0.780940	0.650610	0.044620
H981	H98	0.791400	0.639800	0.024000
C1681	C168	0.857470	0.593370	0.992450
C1691	C169	0.638510	0.559920	0.195820
C1701	C170	0.794030	0.691950	0.043790
C1711	C171	0.601990	0.530730	0.223900
C1721	C172	0.912510	0.895090	0.947830
H991	H99	0.898800	0.909600	0.948000
C1731	C173	0.823900	0.719290	0.008990
C1741	C174	0.972940	0.891570	0.944880
H1001	H100	0.001100	0.903800	0.942800
C1751	C175	0.735380	0.640630	0.107220
C1761	C176	0.667380	0.550160	0.181630
H1011	H101	0.665700	0.526000	0.191000
C1771	C177	0.834830	0.601160	0.955680
C1781	C178	0.949280	0.850070	0.948090
H1021	H102	0.962100	0.834700	0.948200
C1791	C179	0.641690	0.596020	0.181650
H1031	H103	0.622400	0.602800	0.190800
C1801	C180	0.778560	0.707700	0.075330
H1041	H104	0.787500	0.735400	0.075600
C1811	C181	0.884530	0.604960	0.067390
H1051	H105	0.890800	0.619700	0.094100
C1821	C182	0.673410	0.622300	0.153930
H1061	H106	0.675300	0.646700	0.145200
C1831	C183	0.749720	0.682150	0.106430
H1071	H107	0.739700	0.693200	0.127400
C1841	C184	0.698740	0.576310	0.153580
H1081	H108	0.717800	0.569300	0.144300
C1851	C185	0.891250	0.853370	0.950630
H1091	H109	0.863000	0.840300	0.952300
C1861	C186	0.866620	0.614570	0.031470
H1101	H110	0.861000	0.635600	0.034600
C1871	C187	0.885450	0.554100	0.022320
H1111	H111	0.892800	0.534400	0.018200
C1881	C188	0.892800	0.573800	0.063100
C1891	C189	0.867250	0.563250	0.987450
H1121	H112	0.861600	0.549000	0.960400
Co81	Co8	0.540800	0.100050	0.285890
O431	O43	0.505300	0.090480	0.344980
O441	O44	0.501370	0.037630	0.310480
O451	O45	0.270100	0.835620	0.578060
O461	O46	0.477790	0.904430	0.265530
O471	O47	0.507590	0.969660	0.284320
O481	O48	0.240230	0.871340	0.558410
N151	N15	0.685900	0.310890	0.276180
N161	N16	0.575480	0.164020	0.284440
C1901	C190	0.418880	0.958660	0.409630
H1131	H113	0.410870	0.931230	0.410230
C1911	C191	0.645510	0.293820	0.276260
C1921	C192	0.620940	0.248570	0.278110
C1931	C193	0.369310	0.946240	0.472150
C1941	C194	0.447610	0.983940	0.377950
H1141	H114	0.458070	0.973130	0.357330
C1951	C195	0.524140	0.926700	0.325780
C1961	C196	0.305180	0.893250	0.529150
C1971	C197	0.460700	0.025280	0.377120
C1981	C198	0.268660	0.864060	0.557230
C1991	C199	0.579180	0.228420	0.281160
H1151	H115	0.565470	0.242930	0.281330
C2001	C200	0.490570	0.052620	0.342320
C2011	C201	0.639610	0.224900	0.278210
H1161	H116	0.667770	0.237130	0.276130
C2021	C202	0.402050	0.973960	0.440550
C2031	C203	0.334050	0.883490	0.514960
H1171	H117	0.332370	0.859330	0.524330
C2041	C204	0.501500	0.934490	0.289010
C2051	C205	0.615950	0.183400	0.281420
H1181	H118	0.628770	0.168030	0.281530
C2061	C206	0.308360	0.929350	0.514980
H1191	H119	0.289070	0.936130	0.524130
C2071	C207	0.445230	0.041030	0.408660
H1201	H120	0.454170	0.068730	0.408930
C2081	C208	0.551200	0.938290	0.400720
H1211	H121	0.557470	0.953030	0.427430
C2091	C209	0.340080	0.955630	0.487260
H1221	H122	0.341970	0.980030	0.478530
C2101	C210	0.416390	0.015480	0.439760
H1231	H123	0.406370	0.026530	0.460730
C2111	C211	0.365410	0.909640	0.486910
H1241	H124	0.384470	0.902630	0.477630
C2121	C212	0.557920	0.186700	0.283960
H1251	H125	0.529670	0.173630	0.285630
C2131	C213	0.533290	0.947900	0.364800
H1261	H126	0.527670	0.968930	0.367930
C2141	C214	0.552120	0.887430	0.355650
H1271	H127	0.559470	0.867730	0.351530
C2151	C215	0.559470	0.907130	0.396430
C2161	C216	0.533920	0.896580	0.320780
H1281	H128	0.528270	0.882330	0.293730
Co91	Co9	0.207460	0.433380	0.619220
O491	O49	0.171960	0.423820	0.678320
O501	O50	0.168030	0.370970	0.643820
O511	O51	0.936760	0.168960	0.911400
O521	O52	0.144450	0.237770	0.598870
O531	O53	0.174250	0.303000	0.617660
O541	O54	0.906890	0.204680	0.891750
N171	N17	0.352560	0.644230	0.609520
N181	N18	0.242140	0.497360	0.617780
C2171	C217	0.085540	0.292000	0.742970
H1291	H129	0.077530	0.264570	0.743570
C2181	C218	0.312170	0.627160	0.609600
C2191	C219	0.287600	0.581910	0.611450
C2201	C220	0.035970	0.279580	0.805490
C2211	C221	0.114270	0.317280	0.711290
H1301	H130	0.124730	0.306470	0.690670
C2221	C222	0.190800	0.260040	0.659120
C2231	C223	0.971840	0.226590	0.862490
C2241	C224	0.127360	0.358620	0.710460
C2251	C225	0.935320	0.197400	0.890570
C2261	C226	0.245840	0.561760	0.614500
H1311	H131	0.232130	0.576270	0.614670
C2271	C227	0.157230	0.385960	0.675660
C2281	C228	0.306270	0.558240	0.611550
H1321	H132	0.334430	0.570470	0.609470
C2291	C229	0.068710	0.307300	0.773890
C2301	C230	0.000710	0.216830	0.848300
H1331	H133	0.999030	0.192670	0.857670
C2311	C231	0.168160	0.267830	0.622350
C2321	C232	0.282610	0.516740	0.614760
H1341	H134	0.295430	0.501370	0.614870
C2331	C233	0.975020	0.262690	0.848320
H1351	H135	0.955730	0.269470	0.857470
C2341	C234	0.111890	0.374370	0.742000
H1361	H136	0.120830	0.402070	0.742270
C2351	C235	0.217860	0.271630	0.734060
H1371	H137	0.224130	0.286370	0.760770
C2361	C236	0.006740	0.288970	0.820600
H1381	H138	0.008630	0.313370	0.811870
C2371	C237	0.083050	0.348820	0.773100
H1391	H139	0.073030	0.359870	0.794070
C2381	C238	0.032070	0.242980	0.820250
H1401	H140	0.051130	0.235970	0.810970
C2391	C239	0.224580	0.520040	0.617300
H1411	H141	0.196330	0.506970	0.618970
C2401	C240	0.199950	0.281240	0.698140
H1421	H142	0.194330	0.302270	0.701270
C2411	C241	0.218780	0.220770	0.688990
H1431	H143	0.226130	0.201070	0.684870
C2421	C242	0.226130	0.240470	0.729770
C2431	C243	0.200580	0.229920	0.654120
H1441	H144	0.194930	0.215670	0.627070
Co101	Co10	0.107420	0.233290	0.547450
O551	O55	0.081480	0.242850	0.488350
O561	O56	0.130400	0.295700	0.522850
O571	O57	0.101140	0.497710	0.255270
O581	O58	0.240020	0.428900	0.567800
O591	O59	0.204590	0.363670	0.549010
O601	O60	0.035550	0.461990	0.274920
N191	N19	0.041670	0.022440	0.557150
N201	N20	0.078120	0.169310	0.548890
C2441	C244	0.126880	0.374670	0.423700
H1451	H145	0.146300	0.402100	0.423100
C2451	C245	0.018350	0.039510	0.557070
C2461	C246	0.039030	0.084760	0.555220
C2471	C247	0.089730	0.387090	0.361180
C2481	C248	0.130330	0.349390	0.455380
H1461	H146	0.151600	0.360200	0.476000
C2491	C249	0.264100	0.406630	0.507550
C2501	C250	0.078590	0.440080	0.304180
C2511	C251	0.102080	0.308050	0.456210
C2521	C252	0.071260	0.469270	0.276100
C2531	C253	0.017420	0.104910	0.552170
H1471	H147	0.989200	0.090400	0.552000
C2541	C254	0.104610	0.280710	0.491010
C2551	C255	0.081370	0.108430	0.555120
H1481	H148	0.097300	0.096200	0.557200
C2561	C256	0.094750	0.359370	0.392780
C2571	C257	0.117220	0.449840	0.318370
H1491	H149	0.139700	0.474000	0.309000
C2581	C258	0.233670	0.398840	0.544320
C2591	C259	0.099210	0.149930	0.551910
H1501	H150	0.127400	0.165300	0.551800
C2601	C260	0.045670	0.403980	0.318350
H1511	H151	0.019600	0.397200	0.309200
C2611	C261	0.070860	0.292300	0.424670
H1521	H152	0.052100	0.264600	0.424400
C2621	C262	0.279570	0.395040	0.432610
H1531	H153	0.271100	0.380300	0.405900
C2631	C263	0.051110	0.377700	0.346070
H1541	H154	0.028600	0.353300	0.354800
C2641	C264	0.067570	0.317850	0.393570
H1551	H155	0.046500	0.306800	0.372600
C2651	C265	0.122430	0.423690	0.346420
H1561	H156	0.148500	0.430700	0.355700
C2661	C266	0.037880	0.146630	0.549370
H1571	H157	0.022700	0.159700	0.547700
C2671	C267	0.252050	0.385430	0.468530
H1581	H158	0.225400	0.364400	0.465400
C2681	C268	0.331350	0.445900	0.477680
H1591	H159	0.358400	0.465600	0.481800
C2691	C269	0.319000	0.426200	0.436900
C2701	C270	0.304000	0.436750	0.512550
H1601	H160	0.312600	0.451000	0.539600
Co111	Co11	0.774080	0.566620	0.880780
O611	O61	0.748150	0.576180	0.821680
O621	O62	0.797070	0.629030	0.856180
O631	O63	0.767810	0.831040	0.588600
O641	O64	0.906690	0.762230	0.901130
O651	O65	0.871260	0.697000	0.882340
O661	O66	0.702220	0.795320	0.608250
N211	N21	0.708340	0.355770	0.890480
N221	N22	0.744790	0.502640	0.882220
C2711	C271	0.793550	0.708000	0.757030
H1611	H161	0.812970	0.735430	0.756430
C2721	C272	0.685020	0.372840	0.890400
C2731	C273	0.705700	0.418090	0.888550
C2741	C274	0.756400	0.720420	0.694510
C2751	C275	0.797000	0.682720	0.788710
H1621	H162	0.818270	0.693530	0.809330
C2761	C276	0.930770	0.739960	0.840880
C2771	C277	0.745260	0.773410	0.637510
C2781	C278	0.768750	0.641380	0.789540
C2791	C279	0.737930	0.802600	0.609430
C2801	C280	0.684090	0.438240	0.885500
H1631	H163	0.655870	0.423730	0.885330
C2811	C281	0.771280	0.614040	0.824340
C2821	C282	0.748040	0.441760	0.888450
H1641	H164	0.763970	0.429530	0.890530
C2831	C283	0.761420	0.692700	0.726110
C2841	C284	0.783890	0.783170	0.651700
H1651	H165	0.806370	0.807330	0.642330
C2851	C285	0.900340	0.732170	0.877650
C2861	C286	0.765880	0.483260	0.885240
H1661	H166	0.794070	0.498630	0.885130
C2871	C287	0.712340	0.737310	0.651680
H1671	H167	0.686270	0.730530	0.642530
C2881	C288	0.737530	0.625630	0.758000
H1681	H168	0.718770	0.597930	0.757730
C2891	C289	0.946240	0.728370	0.765940
H1691	H169	0.937770	0.713630	0.739230
C2901	C290	0.717780	0.711030	0.679400
H1701	H170	0.695270	0.686630	0.688130
C2911	C291	0.734240	0.651180	0.726900
H1711	H171	0.713170	0.640130	0.705930
C2921	C292	0.789100	0.757020	0.679750
H1721	H172	0.815170	0.764030	0.689030
C2931	C293	0.704550	0.479960	0.882700
H1731	H173	0.689370	0.493030	0.881030
C2941	C294	0.918720	0.718760	0.801860
H1741	H174	0.892070	0.697730	0.798730
C2951	C295	0.998020	0.779230	0.811010
H1751	H175	0.025070	0.798930	0.815130
C2961	C296	0.985670	0.759530	0.770230
C2971	C297	0.970670	0.770080	0.845880
H1761	H176	0.979270	0.784330	0.872930
Co121	Co12	0.440750	0.899950	0.214110
O671	O67	0.414810	0.909520	0.155020
O681	O68	0.463730	0.962370	0.189520
O691	O69	0.434470	0.164380	0.921940
O701	O70	0.573350	0.095570	0.234470
O711	O71	0.537920	0.030340	0.215680
O721	O72	0.368880	0.128660	0.941590
N231	N23	0.375000	0.689110	0.223820
N241	N24	0.411450	0.835980	0.215560
C2981	C298	0.460210	0.041340	0.090370
H1771	H177	0.479630	0.068770	0.089770
C2991	C299	0.351680	0.706180	0.223740
C3001	C300	0.372360	0.751430	0.221890
C3011	C301	0.423060	0.053760	0.027850
C3021	C302	0.463660	0.016060	0.122050
H1781	H178	0.484930	0.026870	0.142670
C3031	C303	0.597430	0.073300	0.174220
C3041	C304	0.411920	0.106750	0.970850
C3051	C305	0.435410	0.974720	0.122880
C3061	C306	0.404590	0.135940	0.942770
C3071	C307	0.350750	0.771580	0.218840
H1791	H179	0.322530	0.757070	0.218670
C3081	C308	0.437940	0.947380	0.157680
C3091	C309	0.414700	0.775100	0.221790
H1801	H180	0.430630	0.762870	0.223870
C3101	C310	0.428080	0.026040	0.059450
C3111	C311	0.450550	0.116510	0.985040
H1811	H181	0.473030	0.140670	0.975670
C3121	C312	0.567000	0.065510	0.210990
C3131	C313	0.432540	0.816600	0.218580
H1821	H182	0.460730	0.831970	0.218470
C3141	C314	0.379000	0.070650	0.985020
H1831	H183	0.352930	0.063870	0.975870
C3151	C315	0.404190	0.958970	0.091340
H1841	H184	0.385430	0.931270	0.091070
C3161	C316	0.612900	0.061710	0.099280
H1851	H185	0.604430	0.046970	0.072570
C3171	C317	0.384440	0.044370	0.012740
H1861	H186	0.361930	0.019970	0.021470
C3181	C318	0.400900	0.984520	0.060240
H1871	H187	0.379830	0.973470	0.039270
C3191	C319	0.455760	0.090360	0.013090
H1881	H188	0.481830	0.097370	0.022370
C3201	C320	0.371210	0.813300	0.216040
H1891	H189	0.356030	0.826370	0.214370
C3211	C321	0.585380	0.052100	0.135200
H1901	H190	0.558730	0.031070	0.132070
C3221	C322	0.664680	0.112570	0.144350
H1911	H191	0.691730	0.132270	0.148470
C3231	C323	0.652330	0.092870	0.103570
C3241	C324	0.637330	0.103420	0.179220
H1921	H192	0.645930	0.117670	0.206270
Co131	Co13	0.125870	0.892580	0.547450
O731	O73	0.161370	0.918520	0.488350
O741	O74	0.165300	0.869600	0.522850
O751	O75	0.396570	0.898860	0.255270
O761	O76	0.188880	0.759980	0.567800
O771	O77	0.159080	0.795410	0.549010
O781	O78	0.426440	0.964450	0.274920
N251	N25	0.980770	0.958330	0.557150
N261	N26	0.091190	0.921880	0.548890
C3251	C325	0.247790	0.873120	0.423700
H1931	H193	0.255800	0.853700	0.423100
C3261	C326	0.021160	0.981650	0.557070
C3271	C327	0.045730	0.960970	0.555220
C3281	C328	0.297360	0.910270	0.361180
C3291	C329	0.219060	0.869670	0.455380
H1941	H194	0.208600	0.848400	0.476000
C3301	C330	0.142530	0.735900	0.507550
C3311	C331	0.361490	0.921410	0.304180
C3321	C332	0.205970	0.897920	0.456210
C3331	C333	0.398010	0.928740	0.276100
C3341	C334	0.087490	0.982580	0.552170
H1951	H195	0.101200	0.010800	0.552000
C3351	C335	0.176100	0.895390	0.491010
C3361	C336	0.027060	0.918630	0.555120
H1961	H196	0.998900	0.902700	0.557200
C3371	C337	0.264620	0.905250	0.392780
C3381	C338	0.332620	0.882780	0.318370
H1971	H197	0.334300	0.860300	0.309000
C3391	C339	0.165170	0.766330	0.544320
C3401	C340	0.050720	0.900790	0.551910
H1981	H198	0.037900	0.872600	0.551800
C3411	C341	0.358310	0.954330	0.318350
H1991	H199	0.377600	0.980400	0.309200
C3421	C342	0.221440	0.929140	0.424670
H2001	H200	0.212500	0.947900	0.424400
C3431	C343	0.115470	0.720430	0.432610
H2011	H201	0.109200	0.728900	0.405900
C3441	C344	0.326590	0.948890	0.346070
H2021	H202	0.324700	0.971400	0.354800
C3451	C345	0.250280	0.932430	0.393570
H2031	H203	0.260300	0.953500	0.372600
C3461	C346	0.301260	0.877570	0.346420
H2041	H204	0.282200	0.851500	0.355700
C3471	C347	0.108750	0.962120	0.549370
H2051	H205	0.137000	0.977300	0.547700
C3481	C348	0.133380	0.747950	0.468530
H2061	H206	0.139000	0.774600	0.465400
C3491	C349	0.114550	0.668650	0.477680
H2071	H207	0.107200	0.641600	0.481800
C3501	C350	0.107200	0.681000	0.436900
C3511	C351	0.132750	0.696000	0.512550
H2081	H208	0.138400	0.687400	0.539600
Co141	Co14	0.792540	0.225920	0.880780
O791	O79	0.828040	0.251850	0.821680
O801	O80	0.831970	0.202930	0.856180
O811	O81	0.063240	0.232190	0.588600
O821	O82	0.855550	0.093310	0.901130
O831	O83	0.825750	0.128740	0.882340
O841	O84	0.093110	0.297780	0.608250
N271	N27	0.647440	0.291660	0.890480
N281	N28	0.757860	0.255210	0.882220
C3521	C352	0.914460	0.206450	0.757030
H2091	H209	0.922470	0.187030	0.756430
C3531	C353	0.687830	0.314980	0.890400
C3541	C354	0.712400	0.294300	0.888550
C3551	C355	0.964030	0.243600	0.694510
C3561	C356	0.885730	0.203000	0.788710
H2101	H210	0.875270	0.181730	0.809330
C3571	C357	0.809200	0.069230	0.840880
C3581	C358	0.028160	0.254740	0.637510
C3591	C359	0.872640	0.231250	0.789540
C3601	C360	0.064680	0.262070	0.609430
C3611	C361	0.754160	0.315910	0.885500
H2111	H211	0.767870	0.344130	0.885330
C3621	C362	0.842770	0.228720	0.824340
C3631	C363	0.693730	0.251960	0.888450
H2121	H212	0.665570	0.236030	0.890530
C3641	C364	0.931290	0.238580	0.726110
C3651	C365	0.999290	0.216110	0.651700
H2131	H213	0.000970	0.193630	0.642330
C3661	C366	0.831840	0.099660	0.877650
C3671	C367	0.717390	0.234120	0.885240
H2141	H214	0.704570	0.205930	0.885130
C3681	C368	0.024980	0.287660	0.651680
H2151	H215	0.044270	0.313730	0.642530
C3691	C369	0.888110	0.262470	0.758000
H2161	H216	0.879170	0.281230	0.757730
C3701	C370	0.782140	0.053760	0.765940
H2171	H217	0.775870	0.062230	0.739230
C3711	C371	0.993260	0.282220	0.679400
H2181	H218	0.991370	0.304730	0.688130
C3721	C372	0.916950	0.265760	0.726900
H2191	H219	0.926970	0.286830	0.705930
C3731	C373	0.967930	0.210900	0.679750
H2201	H220	0.948870	0.184830	0.689030
C3741	C374	0.775420	0.295450	0.882700
H2211	H221	0.803670	0.310630	0.881030
C3751	C375	0.800050	0.081280	0.801860
H2221	H222	0.805670	0.107930	0.798730
C3761	C376	0.781220	0.001980	0.811010
H2231	H223	0.773870	0.974930	0.815130
C3771	C377	0.773870	0.014330	0.770230
C3781	C378	0.799420	0.029330	0.845880
H2241	H224	0.805070	0.020730	0.872930
Co151	Co15	0.459200	0.559250	0.214110
O851	O85	0.494700	0.585190	0.155020
O861	O86	0.498630	0.536270	0.189520
O871	O87	0.729900	0.565530	0.921940
O881	O88	0.522210	0.426650	0.234470
O891	O89	0.492410	0.462080	0.215680
O901	O90	0.759770	0.631120	0.941590
N291	N29	0.314100	0.625000	0.223820
N301	N30	0.424520	0.588550	0.215560
C3791	C379	0.581120	0.539790	0.090370
H2251	H225	0.589130	0.520370	0.089770
C3801	C380	0.354490	0.648320	0.223740
C3811	C381	0.379060	0.627640	0.221890
C3821	C382	0.630690	0.576940	0.027850
C3831	C383	0.552390	0.536340	0.122050
H2261	H226	0.541930	0.515070	0.142670
C3841	C384	0.475860	0.402570	0.174220
C3851	C385	0.694820	0.588080	0.970850
C3861	C386	0.539300	0.564590	0.122880
C3871	C387	0.731340	0.595410	0.942770
C3881	C388	0.420820	0.649250	0.218840
H2271	H227	0.434530	0.677470	0.218670
C3891	C389	0.509430	0.562060	0.157680
C3901	C390	0.360390	0.585300	0.221790
H2281	H228	0.332230	0.569370	0.223870
C3911	C391	0.597950	0.571920	0.059450
C3921	C392	0.665950	0.549450	0.985040
H2291	H229	0.667630	0.526970	0.975670
C3931	C393	0.498500	0.433000	0.210990
C3941	C394	0.384050	0.567460	0.218580
H2301	H230	0.371230	0.539270	0.218470
C3951	C395	0.691640	0.621000	0.985020
H2311	H231	0.710930	0.647070	0.975870
C3961	C396	0.554770	0.595810	0.091340
H2321	H232	0.545830	0.614570	0.091070
C3971	C397	0.448800	0.387100	0.099280
H2331	H233	0.442530	0.395570	0.072570
C3981	C398	0.659920	0.615560	0.012740
H2341	H234	0.658030	0.638070	0.021470
C3991	C399	0.583610	0.599100	0.060240
H2351	H235	0.593630	0.620170	0.039270
C4001	C400	0.634590	0.544240	0.013090
H2361	H236	0.615530	0.518170	0.022370
C4011	C401	0.442080	0.628790	0.216040
H2371	H237	0.470330	0.643970	0.214370
C4021	C402	0.466710	0.414620	0.135200
H2381	H238	0.472330	0.441270	0.132070
C4031	C403	0.447880	0.335320	0.144350
H2391	H239	0.440530	0.308270	0.148470
C4041	C404	0.440530	0.347670	0.103570
C4051	C405	0.466080	0.362670	0.179220
H2401	H240	0.471730	0.354070	0.206270
Co161	Co16	0.766710	0.874130	0.547450
O911	O91	0.757150	0.838630	0.488350
O921	O92	0.704300	0.834700	0.522850
O931	O93	0.502290	0.603430	0.255270
O941	O94	0.571100	0.811120	0.567800
O951	O95	0.636330	0.840920	0.549010
O961	O96	0.538010	0.573560	0.274920
N311	N31	0.977560	0.019230	0.557150
N321	N32	0.830690	0.908810	0.548890
C4061	C406	0.625330	0.752210	0.423700
H2411	H241	0.597900	0.744200	0.423100
C4071	C407	0.960490	0.978840	0.557070
C4081	C408	0.915240	0.954270	0.555220
C4091	C409	0.612910	0.702640	0.361180
C4101	C410	0.650610	0.780940	0.455380
H2421	H242	0.639800	0.791400	0.476000
C4111	C411	0.593370	0.857470	0.507550
C4121	C412	0.559920	0.638510	0.304180
C4131	C413	0.691950	0.794030	0.456210
C4141	C414	0.530730	0.601990	0.276100
C4151	C415	0.895090	0.912510	0.552170
H2431	H243	0.909600	0.898800	0.552000
C4161	C416	0.719290	0.823900	0.491010
C4171	C417	0.891570	0.972940	0.555120
H2441	H244	0.903800	0.001100	0.557200
C4181	C418	0.640630	0.735380	0.392780
C4191	C419	0.550160	0.667380	0.318370
H2451	H245	0.526000	0.665700	0.309000
C4201	C420	0.601160	0.834830	0.544320
C4211	C421	0.850070	0.949280	0.551910
H2461	H246	0.834700	0.962100	0.551800
C4221	C422	0.596020	0.641690	0.318350
H2471	H247	0.602800	0.622400	0.309200
C4231	C423	0.707700	0.778560	0.424670
H2481	H248	0.735400	0.787500	0.424400
C4241	C424	0.604960	0.884530	0.432610
H2491	H249	0.619700	0.890800	0.405900
C4251	C425	0.622300	0.673410	0.346070
H2501	H250	0.646700	0.675300	0.354800
C4261	C426	0.682150	0.749720	0.393570
H2511	H251	0.693200	0.739700	0.372600
C4271	C427	0.576310	0.698740	0.346420
H2521	H252	0.569300	0.717800	0.355700
C4281	C428	0.853370	0.891250	0.549370
H2531	H253	0.840300	0.863000	0.547700
C4291	C429	0.614570	0.866620	0.468530
H2541	H254	0.635600	0.861000	0.465400
C4301	C430	0.554100	0.885450	0.477680
H2551	H255	0.534400	0.892800	0.481800
C4311	C431	0.573800	0.892800	0.436900
C4321	C432	0.563250	0.867250	0.512550
H2561	H256	0.549000	0.861600	0.539600
Co171	Co17	0.433380	0.207460	0.880780
O971	O97	0.423820	0.171960	0.821680
O981	O98	0.370970	0.168030	0.856180
O991	O99	0.168960	0.936760	0.588600
O1001	O100	0.237770	0.144450	0.901130
O1011	O101	0.303000	0.174250	0.882340
O1021	O102	0.204680	0.906890	0.608250
N331	N33	0.644230	0.352560	0.890480
N341	N34	0.497360	0.242140	0.882220
C4331	C433	0.292000	0.085540	0.757030
H2571	H257	0.264570	0.077530	0.756430
C4341	C434	0.627160	0.312170	0.890400
C4351	C435	0.581910	0.287600	0.888550
C4361	C436	0.279580	0.035970	0.694510
C4371	C437	0.317280	0.114270	0.788710
H2581	H258	0.306470	0.124730	0.809330
C4381	C438	0.260040	0.190800	0.840880
C4391	C439	0.226590	0.971840	0.637510
C4401	C440	0.358620	0.127360	0.789540
C4411	C441	0.197400	0.935320	0.609430
C4421	C442	0.561760	0.245840	0.885500
H2591	H259	0.576270	0.232130	0.885330
C4431	C443	0.385960	0.157230	0.824340
C4441	C444	0.558240	0.306270	0.888450
H2601	H260	0.570470	0.334430	0.890530
C4451	C445	0.307300	0.068710	0.726110
C4461	C446	0.216830	0.000710	0.651700
H2611	H261	0.192670	0.999030	0.642330
C4471	C447	0.267830	0.168160	0.877650
C4481	C448	0.516740	0.282610	0.885240
H2621	H262	0.501370	0.295430	0.885130
C4491	C449	0.262690	0.975020	0.651680
H2631	H263	0.269470	0.955730	0.642530
C4501	C450	0.374370	0.111890	0.758000
H2641	H264	0.402070	0.120830	0.757730
C4511	C451	0.271630	0.217860	0.765940
H2651	H265	0.286370	0.224130	0.739230
C4521	C452	0.288970	0.006740	0.679400
H2661	H266	0.313370	0.008630	0.688130
C4531	C453	0.348820	0.083050	0.726900
H2671	H267	0.359870	0.073030	0.705930
C4541	C454	0.242980	0.032070	0.679750
H2681	H268	0.235970	0.051130	0.689030
C4551	C455	0.520040	0.224580	0.882700
H2691	H269	0.506970	0.196330	0.881030
C4561	C456	0.281240	0.199950	0.801860
H2701	H270	0.302270	0.194330	0.798730
C4571	C457	0.220770	0.218780	0.811010
H2711	H271	0.201070	0.226130	0.815130
C4581	C458	0.240470	0.226130	0.770230
C4591	C459	0.229920	0.200580	0.845880
H2721	H272	0.215670	0.194930	0.872930
Co181	Co18	0.100050	0.540800	0.214110
O1031	O103	0.090480	0.505300	0.155020
O1041	O104	0.037630	0.501370	0.189520
O1051	O105	0.835620	0.270100	0.921940
O1061	O106	0.904430	0.477790	0.234470
O1071	O107	0.969660	0.507590	0.215680
O1081	O108	0.871340	0.240230	0.941590
N351	N35	0.310890	0.685900	0.223820
N361	N36	0.164020	0.575480	0.215560
C4601	C460	0.958660	0.418880	0.090370
H2731	H273	0.931230	0.410870	0.089770
C4611	C461	0.293820	0.645510	0.223740
C4621	C462	0.248570	0.620940	0.221890
C4631	C463	0.946240	0.369310	0.027850
C4641	C464	0.983940	0.447610	0.122050
H2741	H274	0.973130	0.458070	0.142670
C4651	C465	0.926700	0.524140	0.174220
C4661	C466	0.893250	0.305180	0.970850
C4671	C467	0.025280	0.460700	0.122880
C4681	C468	0.864060	0.268660	0.942770
C4691	C469	0.228420	0.579180	0.218840
H2751	H275	0.242930	0.565470	0.218670
C4701	C470	0.052620	0.490570	0.157680
C4711	C471	0.224900	0.639610	0.221790
H2761	H276	0.237130	0.667770	0.223870
C4721	C472	0.973960	0.402050	0.059450
C4731	C473	0.883490	0.334050	0.985040
H2771	H277	0.859330	0.332370	0.975670
C4741	C474	0.934490	0.501500	0.210990
C4751	C475	0.183400	0.615950	0.218580
H2781	H278	0.168030	0.628770	0.218470
C4761	C476	0.929350	0.308360	0.985020
H2791	H279	0.936130	0.289070	0.975870
C4771	C477	0.041030	0.445230	0.091340
H2801	H280	0.068730	0.454170	0.091070
C4781	C478	0.938290	0.551200	0.099280
H2811	H281	0.953030	0.557470	0.072570
C4791	C479	0.955630	0.340080	0.012740
H2821	H282	0.980030	0.341970	0.021470
C4801	C480	0.015480	0.416390	0.060240
H2831	H283	0.026530	0.406370	0.039270
C4811	C481	0.909640	0.365410	0.013090
H2841	H284	0.902630	0.384470	0.022370
C4821	C482	0.186700	0.557920	0.216040
H2851	H285	0.173630	0.529670	0.214370
C4831	C483	0.947900	0.533290	0.135200
H2861	H286	0.968930	0.527670	0.132070
C4841	C484	0.887430	0.552120	0.144350
H2871	H287	0.867730	0.559470	0.148470
C4851	C485	0.907130	0.559470	0.103570
C4861	C486	0.896580	0.533920	0.179220
H2881	H288	0.882330	0.528270	0.206270
Co191	Co19	0.333330	0.149910	0.916670
Co201	Co20	0.000000	0.483240	0.250000
Co211	Co21	0.850090	0.183430	0.916670
Co221	Co22	0.516760	0.516760	0.250000
Co231	Co23	0.816570	0.666670	0.916670
Co241	Co24	0.483240	0.000000	0.250000
Co251	Co25	0.149910	0.333330	0.583330
Co261	Co26	0.183430	0.850090	0.583330
Co271	Co27	0.666670	0.816570	0.583330
Co281	Co28	0.766710	0.892580	0.047450
O1091	O109	0.757150	0.918520	0.988350
O1101	O110	0.704300	0.869600	0.022850
O1111	O111	0.502290	0.898860	0.755270
O1121	O112	0.571100	0.759980	0.067800
O1131	O113	0.636330	0.795410	0.049010
O1141	O114	0.538010	0.964450	0.774920
N371	N37	0.977560	0.958330	0.057150
N381	N38	0.830690	0.921880	0.048890
C4871	C487	0.625330	0.873120	0.923700
H2891	H289	0.597900	0.853700	0.923100
C4881	C488	0.960490	0.981650	0.057070
C4891	C489	0.915240	0.960970	0.055220
C4901	C490	0.612910	0.910270	0.861180
C4911	C491	0.650610	0.869670	0.955380
H2901	H290	0.639800	0.848400	0.976000
C4921	C492	0.593370	0.735900	0.007550
C4931	C493	0.559920	0.921410	0.804180
C4941	C494	0.691950	0.897920	0.956210
C4951	C495	0.530730	0.928740	0.776100
C4961	C496	0.895090	0.982580	0.052170
H2911	H291	0.909600	0.010800	0.052000
C4971	C497	0.719290	0.895390	0.991010
C4981	C498	0.891570	0.918630	0.055120
H2921	H292	0.903800	0.902700	0.057200
C4991	C499	0.640630	0.905250	0.892780
C5001	C500	0.550160	0.882780	0.818370
H2931	H293	0.526000	0.860300	0.809000
C5011	C501	0.601160	0.766330	0.044320
C5021	C502	0.850070	0.900790	0.051910
H2941	H294	0.834700	0.872600	0.051800
C5031	C503	0.596020	0.954330	0.818350
H2951	H295	0.602800	0.980400	0.809200
C5041	C504	0.707700	0.929140	0.924670
H2961	H296	0.735400	0.947900	0.924400
C5051	C505	0.604960	0.720430	0.932610
H2971	H297	0.619700	0.728900	0.905900
C5061	C506	0.622300	0.948890	0.846070
H2981	H298	0.646700	0.971400	0.854800
C5071	C507	0.682150	0.932430	0.893570
H2991	H299	0.693200	0.953500	0.872600
C5081	C508	0.576310	0.877570	0.846420
H3001	H300	0.569300	0.851500	0.855700
C5091	C509	0.853370	0.962120	0.049370
H3011	H301	0.840300	0.977300	0.047700
C5101	C510	0.614570	0.747950	0.968530
H3021	H302	0.635600	0.774600	0.965400
C5111	C511	0.554100	0.668650	0.977680
H3031	H303	0.534400	0.641600	0.981800
C5121	C512	0.573800	0.681000	0.936900
C5131	C513	0.563250	0.696000	0.012550
H3041	H304	0.549000	0.687400	0.039600
Co291	Co29	0.433380	0.225920	0.380780
O1151	O115	0.423820	0.251850	0.321680
O1161	O116	0.370970	0.202930	0.356180
O1171	O117	0.168960	0.232190	0.088600
O1181	O118	0.237770	0.093310	0.401130
O1191	O119	0.303000	0.128740	0.382340
O1201	O120	0.204680	0.297780	0.108250
N391	N39	0.644230	0.291660	0.390480
N401	N40	0.497360	0.255210	0.382220
C5141	C514	0.292000	0.206450	0.257030
H3051	H305	0.264570	0.187030	0.256430
C5151	C515	0.627160	0.314980	0.390400
C5161	C516	0.581910	0.294300	0.388550
C5171	C517	0.279580	0.243600	0.194510
C5181	C518	0.317280	0.203000	0.288710
H3061	H306	0.306470	0.181730	0.309330
C5191	C519	0.260040	0.069230	0.340880
C5201	C520	0.226590	0.254740	0.137510
C5211	C521	0.358620	0.231250	0.289540
C5221	C522	0.197400	0.262070	0.109430
C5231	C523	0.561760	0.315910	0.385500
H3071	H307	0.576270	0.344130	0.385330
C5241	C524	0.385960	0.228720	0.324340
C5251	C525	0.558240	0.251960	0.388450
H3081	H308	0.570470	0.236030	0.390530
C5261	C526	0.307300	0.238580	0.226110
C5271	C527	0.216830	0.216110	0.151700
H3091	H309	0.192670	0.193630	0.142330
C5281	C528	0.267830	0.099660	0.377650
C5291	C529	0.516740	0.234120	0.385240
H3101	H310	0.501370	0.205930	0.385130
C5301	C530	0.262690	0.287660	0.151680
H3111	H311	0.269470	0.313730	0.142530
C5311	C531	0.374370	0.262470	0.258000
H3121	H312	0.402070	0.281230	0.257730
C5321	C532	0.271630	0.053760	0.265940
H3131	H313	0.286370	0.062230	0.239230
C5331	C533	0.288970	0.282220	0.179400
H3141	H314	0.313370	0.304730	0.188130
C5341	C534	0.348820	0.265760	0.226900
H3151	H315	0.359870	0.286830	0.205930
C5351	C535	0.242980	0.210900	0.179750
H3161	H316	0.235970	0.184830	0.189030
C5361	C536	0.520040	0.295450	0.382700
H3171	H317	0.506970	0.310630	0.381030
C5371	C537	0.281240	0.081280	0.301860
H3181	H318	0.302270	0.107930	0.298730
C5381	C538	0.220770	0.001980	0.311010
H3191	H319	0.201070	0.974930	0.315130
C5391	C539	0.240470	0.014330	0.270230
C5401	C540	0.229920	0.029330	0.345880
H3201	H320	0.215670	0.020730	0.372930
Co301	Co30	0.100050	0.559250	0.714110
O1211	O121	0.090480	0.585190	0.655020
O1221	O122	0.037630	0.536270	0.689520
O1231	O123	0.835620	0.565530	0.421940
O1241	O124	0.904430	0.426650	0.734470
O1251	O125	0.969660	0.462080	0.715680
O1261	O126	0.871340	0.631120	0.441590
N411	N41	0.310890	0.625000	0.723820
N421	N42	0.164020	0.588550	0.715560
C5411	C541	0.958660	0.539790	0.590370
H3211	H321	0.931230	0.520370	0.589770
C5421	C542	0.293820	0.648320	0.723740
C5431	C543	0.248570	0.627640	0.721890
C5441	C544	0.946240	0.576940	0.527850
C5451	C545	0.983940	0.536340	0.622050
H3221	H322	0.973130	0.515070	0.642670
C5461	C546	0.926700	0.402570	0.674220
C5471	C547	0.893250	0.588080	0.470850
C5481	C548	0.025280	0.564590	0.622880
C5491	C549	0.864060	0.595410	0.442770
C5501	C550	0.228420	0.649250	0.718840
H3231	H323	0.242930	0.677470	0.718670
C5511	C551	0.052620	0.562060	0.657680
C5521	C552	0.224900	0.585300	0.721790
H3241	H324	0.237130	0.569370	0.723870
C5531	C553	0.973960	0.571920	0.559450
C5541	C554	0.883490	0.549450	0.485040
H3251	H325	0.859330	0.526970	0.475670
C5551	C555	0.934490	0.433000	0.710990
C5561	C556	0.183400	0.567460	0.718580
H3261	H326	0.168030	0.539270	0.718470
C5571	C557	0.929350	0.621000	0.485020
H3271	H327	0.936130	0.647070	0.475870
C5581	C558	0.041030	0.595810	0.591340
H3281	H328	0.068730	0.614570	0.591070
C5591	C559	0.938290	0.387100	0.599280
H3291	H329	0.953030	0.395570	0.572570
C5601	C560	0.955630	0.615560	0.512740
H3301	H330	0.980030	0.638070	0.521470
C5611	C561	0.015480	0.599100	0.560240
H3311	H331	0.026530	0.620170	0.539270
C5621	C562	0.909640	0.544240	0.513090
H3321	H332	0.902630	0.518170	0.522370
C5631	C563	0.186700	0.628790	0.716040
H3331	H333	0.173630	0.643970	0.714370
C5641	C564	0.947900	0.414620	0.635200
H3341	H334	0.968930	0.441270	0.632070
C5651	C565	0.887430	0.335320	0.644350
H3351	H335	0.867730	0.308270	0.648470
C5661	C566	0.907130	0.347670	0.603570
C5671	C567	0.896580	0.362670	0.679220
H3361	H336	0.882330	0.354070	0.706270
Co311	Co31	0.107420	0.874130	0.047450
O1271	O127	0.081480	0.838630	0.988350
O1281	O128	0.130400	0.834700	0.022850
O1291	O129	0.101140	0.603430	0.755270
O1301	O130	0.240020	0.811120	0.067800
O1311	O131	0.204590	0.840920	0.049010
O1321	O132	0.035550	0.573560	0.774920
N431	N43	0.041670	0.019230	0.057150
N441	N44	0.078120	0.908810	0.048890
C5681	C568	0.126880	0.752210	0.923700
H3371	H337	0.146300	0.744200	0.923100
C5691	C569	0.018350	0.978840	0.057070
C5701	C570	0.039030	0.954270	0.055220
C5711	C571	0.089730	0.702640	0.861180
C5721	C572	0.130330	0.780940	0.955380
H3381	H338	0.151600	0.791400	0.976000
C5731	C573	0.264100	0.857470	0.007550
C5741	C574	0.078590	0.638510	0.804180
C5751	C575	0.102080	0.794030	0.956210
C5761	C576	0.071260	0.601990	0.776100
C5771	C577	0.017420	0.912510	0.052170
H3391	H339	0.989200	0.898800	0.052000
C5781	C578	0.104610	0.823900	0.991010
C5791	C579	0.081370	0.972940	0.055120
H3401	H340	0.097300	0.001100	0.057200
C5801	C580	0.094750	0.735380	0.892780
C5811	C581	0.117220	0.667380	0.818370
H3411	H341	0.139700	0.665700	0.809000
C5821	C582	0.233670	0.834830	0.044320
C5831	C583	0.099210	0.949280	0.051910
H3421	H342	0.127400	0.962100	0.051800
C5841	C584	0.045670	0.641690	0.818350
H3431	H343	0.019600	0.622400	0.809200
C5851	C585	0.070860	0.778560	0.924670
H3441	H344	0.052100	0.787500	0.924400
C5861	C586	0.279570	0.884530	0.932610
H3451	H345	0.271100	0.890800	0.905900
C5871	C587	0.051110	0.673410	0.846070
H3461	H346	0.028600	0.675300	0.854800
C5881	C588	0.067570	0.749720	0.893570
H3471	H347	0.046500	0.739700	0.872600
C5891	C589	0.122430	0.698740	0.846420
H3481	H348	0.148500	0.717800	0.855700
C5901	C590	0.037880	0.891250	0.049370
H3491	H349	0.022700	0.863000	0.047700
C5911	C591	0.252050	0.866620	0.968530
H3501	H350	0.225400	0.861000	0.965400
C5921	C592	0.331350	0.885450	0.977680
H3511	H351	0.358400	0.892800	0.981800
C5931	C593	0.319000	0.892800	0.936900
C5941	C594	0.304000	0.867250	0.012550
H3521	H352	0.312600	0.861600	0.039600
Co321	Co32	0.774080	0.207460	0.380780
O1331	O133	0.748150	0.171960	0.321680
O1341	O134	0.797070	0.168030	0.356180
O1351	O135	0.767810	0.936760	0.088600
O1361	O136	0.906690	0.144450	0.401130
O1371	O137	0.871260	0.174250	0.382340
O1381	O138	0.702220	0.906890	0.108250
N451	N45	0.708340	0.352560	0.390480
N461	N46	0.744790	0.242140	0.382220
C5951	C595	0.793550	0.085540	0.257030
H3531	H353	0.812970	0.077530	0.256430
C5961	C596	0.685020	0.312170	0.390400
C5971	C597	0.705700	0.287600	0.388550
C5981	C598	0.756400	0.035970	0.194510
C5991	C599	0.797000	0.114270	0.288710
H3541	H354	0.818270	0.124730	0.309330
C6001	C600	0.930770	0.190800	0.340880
C6011	C601	0.745260	0.971840	0.137510
C6021	C602	0.768750	0.127360	0.289540
C6031	C603	0.737930	0.935320	0.109430
C6041	C604	0.684090	0.245840	0.385500
H3551	H355	0.655870	0.232130	0.385330
C6051	C605	0.771280	0.157230	0.324340
C6061	C606	0.748040	0.306270	0.388450
H3561	H356	0.763970	0.334430	0.390530
C6071	C607	0.761420	0.068710	0.226110
C6081	C608	0.783890	0.000710	0.151700
H3571	H357	0.806370	0.999030	0.142330
C6091	C609	0.900340	0.168160	0.377650
C6101	C610	0.765880	0.282610	0.385240
H3581	H358	0.794070	0.295430	0.385130
C6111	C611	0.712340	0.975020	0.151680
H3591	H359	0.686270	0.955730	0.142530
C6121	C612	0.737530	0.111890	0.258000
H3601	H360	0.718770	0.120830	0.257730
C6131	C613	0.946240	0.217860	0.265940
H3611	H361	0.937770	0.224130	0.239230
C6141	C614	0.717780	0.006740	0.179400
H3621	H362	0.695270	0.008630	0.188130
C6151	C615	0.734240	0.083050	0.226900
H3631	H363	0.713170	0.073030	0.205930
C6161	C616	0.789100	0.032070	0.179750
H3641	H364	0.815170	0.051130	0.189030
C6171	C617	0.704550	0.224580	0.382700
H3651	H365	0.689370	0.196330	0.381030
C6181	C618	0.918720	0.199950	0.301860
H3661	H366	0.892070	0.194330	0.298730
C6191	C619	0.998020	0.218780	0.311010
H3671	H367	0.025070	0.226130	0.315130
C6201	C620	0.985670	0.226130	0.270230
C6211	C621	0.970670	0.200580	0.345880
H3681	H368	0.979270	0.194930	0.372930
Co331	Co33	0.440750	0.540800	0.714110
O1391	O139	0.414810	0.505300	0.655020
O1401	O140	0.463730	0.501370	0.689520
O1411	O141	0.434470	0.270100	0.421940
O1421	O142	0.573350	0.477790	0.734470
O1431	O143	0.537920	0.507590	0.715680
O1441	O144	0.368880	0.240230	0.441590
N471	N47	0.375000	0.685900	0.723820
N481	N48	0.411450	0.575480	0.715560
C6221	C622	0.460210	0.418880	0.590370
H3691	H369	0.479630	0.410870	0.589770
C6231	C623	0.351680	0.645510	0.723740
C6241	C624	0.372360	0.620940	0.721890
C6251	C625	0.423060	0.369310	0.527850
C6261	C626	0.463660	0.447610	0.622050
H3701	H370	0.484930	0.458070	0.642670
C6271	C627	0.597430	0.524140	0.674220
C6281	C628	0.411920	0.305180	0.470850
C6291	C629	0.435410	0.460700	0.622880
C6301	C630	0.404590	0.268660	0.442770
C6311	C631	0.350750	0.579180	0.718840
H3711	H371	0.322530	0.565470	0.718670
C6321	C632	0.437940	0.490570	0.657680
C6331	C633	0.414700	0.639610	0.721790
H3721	H372	0.430630	0.667770	0.723870
C6341	C634	0.428080	0.402050	0.559450
C6351	C635	0.450550	0.334050	0.485040
H3731	H373	0.473030	0.332370	0.475670
C6361	C636	0.567000	0.501500	0.710990
C6371	C637	0.432540	0.615950	0.718580
H3741	H374	0.460730	0.628770	0.718470
C6381	C638	0.379000	0.308360	0.485020
H3751	H375	0.352930	0.289070	0.475870
C6391	C639	0.404190	0.445230	0.591340
H3761	H376	0.385430	0.454170	0.591070
C6401	C640	0.612900	0.551200	0.599280
H3771	H377	0.604430	0.557470	0.572570
C6411	C641	0.384440	0.340080	0.512740
H3781	H378	0.361930	0.341970	0.521470
C6421	C642	0.400900	0.416390	0.560240
H3791	H379	0.379830	0.406370	0.539270
C6431	C643	0.455760	0.365410	0.513090
H3801	H380	0.481830	0.384470	0.522370
C6441	C644	0.371210	0.557920	0.716040
H3811	H381	0.356030	0.529670	0.714370
C6451	C645	0.585380	0.533290	0.635200
H3821	H382	0.558730	0.527670	0.632070
C6461	C646	0.664680	0.552120	0.644350
H3831	H383	0.691730	0.559470	0.648470
C6471	C647	0.652330	0.559470	0.603570
C6481	C648	0.637330	0.533920	0.679220
H3841	H384	0.645930	0.528270	0.706270
Co341	Co34	0.125870	0.233290	0.047450
O1451	O145	0.161370	0.242850	0.988350
O1461	O146	0.165300	0.295700	0.022850
O1471	O147	0.396570	0.497710	0.755270
O1481	O148	0.188880	0.428900	0.067800
O1491	O149	0.159080	0.363670	0.049010
O1501	O150	0.426440	0.461990	0.774920
N491	N49	0.980770	0.022440	0.057150
N501	N50	0.091190	0.169310	0.048890
C6491	C649	0.247790	0.374670	0.923700
H3851	H385	0.255800	0.402100	0.923100
C6501	C650	0.021160	0.039510	0.057070
C6511	C651	0.045730	0.084760	0.055220
C6521	C652	0.297360	0.387090	0.861180
C6531	C653	0.219060	0.349390	0.955380
H3861	H386	0.208600	0.360200	0.976000
C6541	C654	0.142530	0.406630	0.007550
C6551	C655	0.361490	0.440080	0.804180
C6561	C656	0.205970	0.308050	0.956210
C6571	C657	0.398010	0.469270	0.776100
C6581	C658	0.087490	0.104910	0.052170
H3871	H387	0.101200	0.090400	0.052000
C6591	C659	0.176100	0.280710	0.991010
C6601	C660	0.027060	0.108430	0.055120
H3881	H388	0.998900	0.096200	0.057200
C6611	C661	0.264620	0.359370	0.892780
C6621	C662	0.332620	0.449840	0.818370
H3891	H389	0.334300	0.474000	0.809000
C6631	C663	0.165170	0.398840	0.044320
C6641	C664	0.050720	0.149930	0.051910
H3901	H390	0.037900	0.165300	0.051800
C6651	C665	0.358310	0.403980	0.818350
H3911	H391	0.377600	0.397200	0.809200
C6661	C666	0.221440	0.292300	0.924670
H3921	H392	0.212500	0.264600	0.924400
C6671	C667	0.115470	0.395040	0.932610
H3931	H393	0.109200	0.380300	0.905900
C6681	C668	0.326590	0.377700	0.846070
H3941	H394	0.324700	0.353300	0.854800
C6691	C669	0.250280	0.317850	0.893570
H3951	H395	0.260300	0.306800	0.872600
C6701	C670	0.301260	0.423690	0.846420
H3961	H396	0.282200	0.430700	0.855700
C6711	C671	0.108750	0.146630	0.049370
H3971	H397	0.137000	0.159700	0.047700
C6721	C672	0.133380	0.385430	0.968530
H3981	H398	0.139000	0.364400	0.965400
C6731	C673	0.114550	0.445900	0.977680
H3991	H399	0.107200	0.465600	0.981800
C6741	C674	0.107200	0.426200	0.936900
C6751	C675	0.132750	0.436750	0.012550
H4001	H400	0.138400	0.451000	0.039600
Co351	Co35	0.792540	0.566620	0.380780
O1511	O151	0.828040	0.576180	0.321680
O1521	O152	0.831970	0.629030	0.356180
O1531	O153	0.063240	0.831040	0.088600
O1541	O154	0.855550	0.762230	0.401130
O1551	O155	0.825750	0.697000	0.382340
O1561	O156	0.093110	0.795320	0.108250
N511	N51	0.647440	0.355770	0.390480
N521	N52	0.757860	0.502640	0.382220
C6761	C676	0.914460	0.708000	0.257030
H4011	H401	0.922470	0.735430	0.256430
C6771	C677	0.687830	0.372840	0.390400
C6781	C678	0.712400	0.418090	0.388550
C6791	C679	0.964030	0.720420	0.194510
C6801	C680	0.885730	0.682720	0.288710
H4021	H402	0.875270	0.693530	0.309330
C6811	C681	0.809200	0.739960	0.340880
C6821	C682	0.028160	0.773410	0.137510
C6831	C683	0.872640	0.641380	0.289540
C6841	C684	0.064680	0.802600	0.109430
C6851	C685	0.754160	0.438240	0.385500
H4031	H403	0.767870	0.423730	0.385330
C6861	C686	0.842770	0.614040	0.324340
C6871	C687	0.693730	0.441760	0.388450
H4041	H404	0.665570	0.429530	0.390530
C6881	C688	0.931290	0.692700	0.226110
C6891	C689	0.999290	0.783170	0.151700
H4051	H405	0.000970	0.807330	0.142330
C6901	C690	0.831840	0.732170	0.377650
C6911	C691	0.717390	0.483260	0.385240
H4061	H406	0.704570	0.498630	0.385130
C6921	C692	0.024980	0.737310	0.151680
H4071	H407	0.044270	0.730530	0.142530
C6931	C693	0.888110	0.625630	0.258000
H4081	H408	0.879170	0.597930	0.257730
C6941	C694	0.782140	0.728370	0.265940
H4091	H409	0.775870	0.713630	0.239230
C6951	C695	0.993260	0.711030	0.179400
H4101	H410	0.991370	0.686630	0.188130
C6961	C696	0.916950	0.651180	0.226900
H4111	H411	0.926970	0.640130	0.205930
C6971	C697	0.967930	0.757020	0.179750
H4121	H412	0.948870	0.764030	0.189030
C6981	C698	0.775420	0.479960	0.382700
H4131	H413	0.803670	0.493030	0.381030
C6991	C699	0.800050	0.718760	0.301860
H4141	H414	0.805670	0.697730	0.298730
C7001	C700	0.781220	0.779230	0.311010
H4151	H415	0.773870	0.798930	0.315130
C7011	C701	0.773870	0.759530	0.270230
C7021	C702	0.799420	0.770080	0.345880
H4161	H416	0.805070	0.784330	0.372930
Co361	Co36	0.459200	0.899950	0.714110
O1571	O157	0.494700	0.909520	0.655020
O1581	O158	0.498630	0.962370	0.689520
O1591	O159	0.729900	0.164380	0.421940
O1601	O160	0.522210	0.095570	0.734470
O1611	O161	0.492410	0.030340	0.715680
O1621	O162	0.759770	0.128660	0.441590
N531	N53	0.314100	0.689110	0.723820
N541	N54	0.424520	0.835980	0.715560
C7031	C703	0.581120	0.041340	0.590370
H4171	H417	0.589130	0.068770	0.589770
C7041	C704	0.354490	0.706180	0.723740
C7051	C705	0.379060	0.751430	0.721890
C7061	C706	0.630690	0.053760	0.527850
C7071	C707	0.552390	0.016060	0.622050
H4181	H418	0.541930	0.026870	0.642670
C7081	C708	0.475860	0.073300	0.674220
C7091	C709	0.694820	0.106750	0.470850
C7101	C710	0.539300	0.974720	0.622880
C7111	C711	0.731340	0.135940	0.442770
C7121	C712	0.420820	0.771580	0.718840
H4191	H419	0.434530	0.757070	0.718670
C7131	C713	0.509430	0.947380	0.657680
C7141	C714	0.360390	0.775100	0.721790
H4201	H420	0.332230	0.762870	0.723870
C7151	C715	0.597950	0.026040	0.559450
C7161	C716	0.665950	0.116510	0.485040
H4211	H421	0.667630	0.140670	0.475670
C7171	C717	0.498500	0.065510	0.710990
C7181	C718	0.384050	0.816600	0.718580
H4221	H422	0.371230	0.831970	0.718470
C7191	C719	0.691640	0.070650	0.485020
H4231	H423	0.710930	0.063870	0.475870
C7201	C720	0.554770	0.958970	0.591340
H4241	H424	0.545830	0.931270	0.591070
C7211	C721	0.448800	0.061710	0.599280
H4251	H425	0.442530	0.046970	0.572570
C7221	C722	0.659920	0.044370	0.512740
H4261	H426	0.658030	0.019970	0.521470
C7231	C723	0.583610	0.984520	0.560240
H4271	H427	0.593630	0.973470	0.539270
C7241	C724	0.634590	0.090360	0.513090
H4281	H428	0.615530	0.097370	0.522370
C7251	C725	0.442080	0.813300	0.716040
H4291	H429	0.470330	0.826370	0.714370
C7261	C726	0.466710	0.052100	0.635200
H4301	H430	0.472330	0.031070	0.632070
C7271	C727	0.447880	0.112570	0.644350
H4311	H431	0.440530	0.132270	0.648470
C7281	C728	0.440530	0.092870	0.603570
C7291	C729	0.466080	0.103420	0.679220
H4321	H432	0.471730	0.117670	0.706270
Co371	Co37	0.892580	0.766710	0.452550
O1631	O163	0.918520	0.757150	0.511650
O1641	O164	0.869600	0.704300	0.477150
O1651	O165	0.898860	0.502290	0.744730
O1661	O166	0.759980	0.571100	0.432200
O1671	O167	0.795410	0.636330	0.450990
O1681	O168	0.964450	0.538010	0.725080
N551	N55	0.958330	0.977560	0.442850
N561	N56	0.921880	0.830690	0.451110
C7301	C730	0.873120	0.625330	0.576300
H4331	H433	0.853700	0.597900	0.576900
C7311	C731	0.981650	0.960490	0.442930
C7321	C732	0.960970	0.915240	0.444780
C7331	C733	0.910270	0.612910	0.638820
C7341	C734	0.869670	0.650610	0.544620
H4341	H434	0.848400	0.639800	0.524000
C7351	C735	0.735900	0.593370	0.492450
C7361	C736	0.921410	0.559920	0.695820
C7371	C737	0.897920	0.691950	0.543790
C7381	C738	0.928740	0.530730	0.723900
C7391	C739	0.982580	0.895090	0.447830
H4351	H435	0.010800	0.909600	0.448000
C7401	C740	0.895390	0.719290	0.508990
C7411	C741	0.918630	0.891570	0.444880
H4361	H436	0.902700	0.903800	0.442800
C7421	C742	0.905250	0.640630	0.607220
C7431	C743	0.882780	0.550160	0.681630
H4371	H437	0.860300	0.526000	0.691000
C7441	C744	0.766330	0.601160	0.455680
C7451	C745	0.900790	0.850070	0.448090
H4381	H438	0.872600	0.834700	0.448200
C7461	C746	0.954330	0.596020	0.681650
H4391	H439	0.980400	0.602800	0.690800
C7471	C747	0.929140	0.707700	0.575330
H4401	H440	0.947900	0.735400	0.575600
C7481	C748	0.720430	0.604960	0.567390
H4411	H441	0.728900	0.619700	0.594100
C7491	C749	0.948890	0.622300	0.653930
H4421	H442	0.971400	0.646700	0.645200
C7501	C750	0.932430	0.682150	0.606430
H4431	H443	0.953500	0.693200	0.627400
C7511	C751	0.877570	0.576310	0.653580
H4441	H444	0.851500	0.569300	0.644300
C7521	C752	0.962120	0.853370	0.450630
H4451	H445	0.977300	0.840300	0.452300
C7531	C753	0.747950	0.614570	0.531470
H4461	H446	0.774600	0.635600	0.534600
C7541	C754	0.668650	0.554100	0.522320
H4471	H447	0.641600	0.534400	0.518200
C7551	C755	0.681000	0.573800	0.563100
C7561	C756	0.696000	0.563250	0.487450
H4481	H448	0.687400	0.549000	0.460400
Co381	Co38	0.559250	0.100050	0.785890
O1691	O169	0.585190	0.090480	0.844980
O1701	O170	0.536270	0.037630	0.810480
O1711	O171	0.565530	0.835620	0.078060
O1721	O172	0.426650	0.904430	0.765530
O1731	O173	0.462080	0.969660	0.784320
O1741	O174	0.631120	0.871340	0.058410
N571	N57	0.625000	0.310890	0.776180
N581	N58	0.588550	0.164020	0.784440
C7571	C757	0.539790	0.958660	0.909630
H4491	H449	0.520370	0.931230	0.910230
C7581	C758	0.648320	0.293820	0.776260
C7591	C759	0.627640	0.248570	0.778110
C7601	C760	0.576940	0.946240	0.972150
C7611	C761	0.536340	0.983940	0.877950
H4501	H450	0.515070	0.973130	0.857330
C7621	C762	0.402570	0.926700	0.825780
C7631	C763	0.588080	0.893250	0.029150
C7641	C764	0.564590	0.025280	0.877120
C7651	C765	0.595410	0.864060	0.057230
C7661	C766	0.649250	0.228420	0.781160
H4511	H451	0.677470	0.242930	0.781330
C7671	C767	0.562060	0.052620	0.842320
C7681	C768	0.585300	0.224900	0.778210
H4521	H452	0.569370	0.237130	0.776130
C7691	C769	0.571920	0.973960	0.940550
C7701	C770	0.549450	0.883490	0.014960
H4531	H453	0.526970	0.859330	0.024330
C7711	C771	0.433000	0.934490	0.789010
C7721	C772	0.567460	0.183400	0.781420
H4541	H454	0.539270	0.168030	0.781530
C7731	C773	0.621000	0.929350	0.014980
H4551	H455	0.647070	0.936130	0.024130
C7741	C774	0.595810	0.041030	0.908660
H4561	H456	0.614570	0.068730	0.908930
C7751	C775	0.387100	0.938290	0.900720
H4571	H457	0.395570	0.953030	0.927430
C7761	C776	0.615560	0.955630	0.987260
H4581	H458	0.638070	0.980030	0.978530
C7771	C777	0.599100	0.015480	0.939760
H4591	H459	0.620170	0.026530	0.960730
C7781	C778	0.544240	0.909640	0.986910
H4601	H460	0.518170	0.902630	0.977630
C7791	C779	0.628790	0.186700	0.783960
H4611	H461	0.643970	0.173630	0.785630
C7801	C780	0.414620	0.947900	0.864800
H4621	H462	0.441270	0.968930	0.867930
C7811	C781	0.335320	0.887430	0.855650
H4631	H463	0.308270	0.867730	0.851530
C7821	C782	0.347670	0.907130	0.896430
C7831	C783	0.362670	0.896580	0.820780
H4641	H464	0.354070	0.882330	0.793730
Co391	Co39	0.225920	0.433380	0.119220
O1751	O175	0.251850	0.423820	0.178320
O1761	O176	0.202930	0.370970	0.143820
O1771	O177	0.232190	0.168960	0.411400
O1781	O178	0.093310	0.237770	0.098870
O1791	O179	0.128740	0.303000	0.117660
O1801	O180	0.297780	0.204680	0.391750
N591	N59	0.291660	0.644230	0.109520
N601	N60	0.255210	0.497360	0.117780
C7841	C784	0.206450	0.292000	0.242970
H4651	H465	0.187030	0.264570	0.243570
C7851	C785	0.314980	0.627160	0.109600
C7861	C786	0.294300	0.581910	0.111450
C7871	C787	0.243600	0.279580	0.305490
C7881	C788	0.203000	0.317280	0.211290
H4661	H466	0.181730	0.306470	0.190670
C7891	C789	0.069230	0.260040	0.159120
C7901	C790	0.254740	0.226590	0.362490
C7911	C791	0.231250	0.358620	0.210460
C7921	C792	0.262070	0.197400	0.390570
C7931	C793	0.315910	0.561760	0.114500
H4671	H467	0.344130	0.576270	0.114670
C7941	C794	0.228720	0.385960	0.175660
C7951	C795	0.251960	0.558240	0.111550
H4681	H468	0.236030	0.570470	0.109470
C7961	C796	0.238580	0.307300	0.273890
C7971	C797	0.216110	0.216830	0.348300
H4691	H469	0.193630	0.192670	0.357670
C7981	C798	0.099660	0.267830	0.122350
C7991	C799	0.234120	0.516740	0.114760
H4701	H470	0.205930	0.501370	0.114870
C8001	C800	0.287660	0.262690	0.348320
H4711	H471	0.313730	0.269470	0.357470
C8011	C801	0.262470	0.374370	0.242000
H4721	H472	0.281230	0.402070	0.242270
C8021	C802	0.053760	0.271630	0.234060
H4731	H473	0.062230	0.286370	0.260770
C8031	C803	0.282220	0.288970	0.320600
H4741	H474	0.304730	0.313370	0.311870
C8041	C804	0.265760	0.348820	0.273100
H4751	H475	0.286830	0.359870	0.294070
C8051	C805	0.210900	0.242980	0.320250
H4761	H476	0.184830	0.235970	0.310970
C8061	C806	0.295450	0.520040	0.117300
H4771	H477	0.310630	0.506970	0.118970
C8071	C807	0.081280	0.281240	0.198140
H4781	H478	0.107930	0.302270	0.201270
C8081	C808	0.001980	0.220770	0.188990
H4791	H479	0.974930	0.201070	0.184870
C8091	C809	0.014330	0.240470	0.229770
C8101	C810	0.029330	0.229920	0.154120
H4801	H480	0.020730	0.215670	0.127070
Co401	Co40	0.874130	0.107420	0.452550
O1811	O181	0.838630	0.081480	0.511650
O1821	O182	0.834700	0.130400	0.477150
O1831	O183	0.603430	0.101140	0.744730
O1841	O184	0.811120	0.240020	0.432200
O1851	O185	0.840920	0.204590	0.450990
O1861	O186	0.573560	0.035550	0.725080
N611	N61	0.019230	0.041670	0.442850
N621	N62	0.908810	0.078120	0.451110
C8111	C811	0.752210	0.126880	0.576300
H4811	H481	0.744200	0.146300	0.576900
C8121	C812	0.978840	0.018350	0.442930
C8131	C813	0.954270	0.039030	0.444780
C8141	C814	0.702640	0.089730	0.638820
C8151	C815	0.780940	0.130330	0.544620
H4821	H482	0.791400	0.151600	0.524000
C8161	C816	0.857470	0.264100	0.492450
C8171	C817	0.638510	0.078590	0.695820
C8181	C818	0.794030	0.102080	0.543790
C8191	C819	0.601990	0.071260	0.723900
C8201	C820	0.912510	0.017420	0.447830
H4831	H483	0.898800	0.989200	0.448000
C8211	C821	0.823900	0.104610	0.508990
C8221	C822	0.972940	0.081370	0.444880
H4841	H484	0.001100	0.097300	0.442800
C8231	C823	0.735380	0.094750	0.607220
C8241	C824	0.667380	0.117220	0.681630
H4851	H485	0.665700	0.139700	0.691000
C8251	C825	0.834830	0.233670	0.455680
C8261	C826	0.949280	0.099210	0.448090
H4861	H486	0.962100	0.127400	0.448200
C8271	C827	0.641690	0.045670	0.681650
H4871	H487	0.622400	0.019600	0.690800
C8281	C828	0.778560	0.070860	0.575330
H4881	H488	0.787500	0.052100	0.575600
C8291	C829	0.884530	0.279570	0.567390
H4891	H489	0.890800	0.271100	0.594100
C8301	C830	0.673410	0.051110	0.653930
H4901	H490	0.675300	0.028600	0.645200
C8311	C831	0.749720	0.067570	0.606430
H4911	H491	0.739700	0.046500	0.627400
C8321	C832	0.698740	0.122430	0.653580
H4921	H492	0.717800	0.148500	0.644300
C8331	C833	0.891250	0.037880	0.450630
H4931	H493	0.863000	0.022700	0.452300
C8341	C834	0.866620	0.252050	0.531470
H4941	H494	0.861000	0.225400	0.534600
C8351	C835	0.885450	0.331350	0.522320
H4951	H495	0.892800	0.358400	0.518200
C8361	C836	0.892800	0.319000	0.563100
C8371	C837	0.867250	0.304000	0.487450
H4961	H496	0.861600	0.312600	0.460400
Co411	Co41	0.540800	0.440750	0.785890
O1871	O187	0.505300	0.414810	0.844980
O1881	O188	0.501370	0.463730	0.810480
O1891	O189	0.270100	0.434470	0.078060
O1901	O190	0.477790	0.573350	0.765530
O1911	O191	0.507590	0.537920	0.784320
O1921	O192	0.240230	0.368880	0.058410
N631	N63	0.685900	0.375000	0.776180
N641	N64	0.575480	0.411450	0.784440
C8381	C838	0.418880	0.460210	0.909630
H4971	H497	0.410870	0.479630	0.910230
C8391	C839	0.645510	0.351680	0.776260
C8401	C840	0.620940	0.372360	0.778110
C8411	C841	0.369310	0.423060	0.972150
C8421	C842	0.447610	0.463660	0.877950
H4981	H498	0.458070	0.484930	0.857330
C8431	C843	0.524140	0.597430	0.825780
C8441	C844	0.305180	0.411920	0.029150
C8451	C845	0.460700	0.435410	0.877120
C8461	C846	0.268660	0.404590	0.057230
C8471	C847	0.579180	0.350750	0.781160
H4991	H499	0.565470	0.322530	0.781330
C8481	C848	0.490570	0.437940	0.842320
C8491	C849	0.639610	0.414700	0.778210
H5001	H500	0.667770	0.430630	0.776130
C8501	C850	0.402050	0.428080	0.940550
C8511	C851	0.334050	0.450550	0.014960
H5011	H501	0.332370	0.473030	0.024330
C8521	C852	0.501500	0.567000	0.789010
C8531	C853	0.615950	0.432540	0.781420
H5021	H502	0.628770	0.460730	0.781530
C8541	C854	0.308360	0.379000	0.014980
H5031	H503	0.289070	0.352930	0.024130
C8551	C855	0.445230	0.404190	0.908660
H5041	H504	0.454170	0.385430	0.908930
C8561	C856	0.551200	0.612900	0.900720
H5051	H505	0.557470	0.604430	0.927430
C8571	C857	0.340080	0.384440	0.987260
H5061	H506	0.341970	0.361930	0.978530
C8581	C858	0.416390	0.400900	0.939760
H5071	H507	0.406370	0.379830	0.960730
C8591	C859	0.365410	0.455760	0.986910
H5081	H508	0.384470	0.481830	0.977630
C8601	C860	0.557920	0.371210	0.783960
H5091	H509	0.529670	0.356030	0.785630
C8611	C861	0.533290	0.585380	0.864800
H5101	H510	0.527670	0.558730	0.867930
C8621	C862	0.552120	0.664680	0.855650
H5111	H511	0.559470	0.691730	0.851530
C8631	C863	0.559470	0.652330	0.896430
C8641	C864	0.533920	0.637330	0.820780
H5121	H512	0.528270	0.645930	0.793730
Co421	Co42	0.207460	0.774080	0.119220
O1931	O193	0.171960	0.748150	0.178320
O1941	O194	0.168030	0.797070	0.143820
O1951	O195	0.936760	0.767810	0.411400
O1961	O196	0.144450	0.906690	0.098870
O1971	O197	0.174250	0.871260	0.117660
O1981	O198	0.906890	0.702220	0.391750
N651	N65	0.352560	0.708340	0.109520
N661	N66	0.242140	0.744790	0.117780
C8651	C865	0.085540	0.793550	0.242970
H5131	H513	0.077530	0.812970	0.243570
C8661	C866	0.312170	0.685020	0.109600
C8671	C867	0.287600	0.705700	0.111450
C8681	C868	0.035970	0.756400	0.305490
C8691	C869	0.114270	0.797000	0.211290
H5141	H514	0.124730	0.818270	0.190670
C8701	C870	0.190800	0.930770	0.159120
C8711	C871	0.971840	0.745260	0.362490
C8721	C872	0.127360	0.768750	0.210460
C8731	C873	0.935320	0.737930	0.390570
C8741	C874	0.245840	0.684090	0.114500
H5151	H515	0.232130	0.655870	0.114670
C8751	C875	0.157230	0.771280	0.175660
C8761	C876	0.306270	0.748040	0.111550
H5161	H516	0.334430	0.763970	0.109470
C8771	C877	0.068710	0.761420	0.273890
C8781	C878	0.000710	0.783890	0.348300
H5171	H517	0.999030	0.806370	0.357670
C8791	C879	0.168160	0.900340	0.122350
C8801	C880	0.282610	0.765880	0.114760
H5181	H518	0.295430	0.794070	0.114870
C8811	C881	0.975020	0.712340	0.348320
H5191	H519	0.955730	0.686270	0.357470
C8821	C882	0.111890	0.737530	0.242000
H5201	H520	0.120830	0.718770	0.242270
C8831	C883	0.217860	0.946240	0.234060
H5211	H521	0.224130	0.937770	0.260770
C8841	C884	0.006740	0.717780	0.320600
H5221	H522	0.008630	0.695270	0.311870
C8851	C885	0.083050	0.734240	0.273100
H5231	H523	0.073030	0.713170	0.294070
C8861	C886	0.032070	0.789100	0.320250
H5241	H524	0.051130	0.815170	0.310970
C8871	C887	0.224580	0.704550	0.117300
H5251	H525	0.196330	0.689370	0.118970
C8881	C888	0.199950	0.918720	0.198140
H5261	H526	0.194330	0.892070	0.201270
C8891	C889	0.218780	0.998020	0.188990
H5271	H527	0.226130	0.025070	0.184870
C8901	C890	0.226130	0.985670	0.229770
C8911	C891	0.200580	0.970670	0.154120
H5281	H528	0.194930	0.979270	0.127070
Co431	Co43	0.233290	0.125870	0.452550
O1991	O199	0.242850	0.161370	0.511650
O2001	O200	0.295700	0.165300	0.477150
O2011	O201	0.497710	0.396570	0.744730
O2021	O202	0.428900	0.188880	0.432200
O2031	O203	0.363670	0.159080	0.450990
O2041	O204	0.461990	0.426440	0.725080
N671	N67	0.022440	0.980770	0.442850
N681	N68	0.169310	0.091190	0.451110
C8921	C892	0.374670	0.247790	0.576300
H5291	H529	0.402100	0.255800	0.576900
C8931	C893	0.039510	0.021160	0.442930
C8941	C894	0.084760	0.045730	0.444780
C8951	C895	0.387090	0.297360	0.638820
C8961	C896	0.349390	0.219060	0.544620
H5301	H530	0.360200	0.208600	0.524000
C8971	C897	0.406630	0.142530	0.492450
C8981	C898	0.440080	0.361490	0.695820
C8991	C899	0.308050	0.205970	0.543790
C9001	C900	0.469270	0.398010	0.723900
C9011	C901	0.104910	0.087490	0.447830
H5311	H531	0.090400	0.101200	0.448000
C9021	C902	0.280710	0.176100	0.508990
C9031	C903	0.108430	0.027060	0.444880
H5321	H532	0.096200	0.998900	0.442800
C9041	C904	0.359370	0.264620	0.607220
C9051	C905	0.449840	0.332620	0.681630
H5331	H533	0.474000	0.334300	0.691000
C9061	C906	0.398840	0.165170	0.455680
C9071	C907	0.149930	0.050720	0.448090
H5341	H534	0.165300	0.037900	0.448200
C9081	C908	0.403980	0.358310	0.681650
H5351	H535	0.397200	0.377600	0.690800
C9091	C909	0.292300	0.221440	0.575330
H5361	H536	0.264600	0.212500	0.575600
C9101	C910	0.395040	0.115470	0.567390
H5371	H537	0.380300	0.109200	0.594100
C9111	C911	0.377700	0.326590	0.653930
H5381	H538	0.353300	0.324700	0.645200
C9121	C912	0.317850	0.250280	0.606430
H5391	H539	0.306800	0.260300	0.627400
C9131	C913	0.423690	0.301260	0.653580
H5401	H540	0.430700	0.282200	0.644300
C9141	C914	0.146630	0.108750	0.450630
H5411	H541	0.159700	0.137000	0.452300
C9151	C915	0.385430	0.133380	0.531470
H5421	H542	0.364400	0.139000	0.534600
C9161	C916	0.445900	0.114550	0.522320
H5431	H543	0.465600	0.107200	0.518200
C9171	C917	0.426200	0.107200	0.563100
C9181	C918	0.436750	0.132750	0.487450
H5441	H544	0.451000	0.138400	0.460400
Co441	Co44	0.899950	0.459200	0.785890
O2051	O205	0.909520	0.494700	0.844980
O2061	O206	0.962370	0.498630	0.810480
O2071	O207	0.164380	0.729900	0.078060
O2081	O208	0.095570	0.522210	0.765530
O2091	O209	0.030340	0.492410	0.784320
O2101	O210	0.128660	0.759770	0.058410
N691	N69	0.689110	0.314100	0.776180
N701	N70	0.835980	0.424520	0.784440
C9191	C919	0.041340	0.581120	0.909630
H5451	H545	0.068770	0.589130	0.910230
C9201	C920	0.706180	0.354490	0.776260
C9211	C921	0.751430	0.379060	0.778110
C9221	C922	0.053760	0.630690	0.972150
C9231	C923	0.016060	0.552390	0.877950
H5461	H546	0.026870	0.541930	0.857330
C9241	C924	0.073300	0.475860	0.825780
C9251	C925	0.106750	0.694820	0.029150
C9261	C926	0.974720	0.539300	0.877120
C9271	C927	0.135940	0.731340	0.057230
C9281	C928	0.771580	0.420820	0.781160
H5471	H547	0.757070	0.434530	0.781330
C9291	C929	0.947380	0.509430	0.842320
C9301	C930	0.775100	0.360390	0.778210
H5481	H548	0.762870	0.332230	0.776130
C9311	C931	0.026040	0.597950	0.940550
C9321	C932	0.116510	0.665950	0.014960
H5491	H549	0.140670	0.667630	0.024330
C9331	C933	0.065510	0.498500	0.789010
C9341	C934	0.816600	0.384050	0.781420
H5501	H550	0.831970	0.371230	0.781530
C9351	C935	0.070650	0.691640	0.014980
H5511	H551	0.063870	0.710930	0.024130
C9361	C936	0.958970	0.554770	0.908660
H5521	H552	0.931270	0.545830	0.908930
C9371	C937	0.061710	0.448800	0.900720
H5531	H553	0.046970	0.442530	0.927430
C9381	C938	0.044370	0.659920	0.987260
H5541	H554	0.019970	0.658030	0.978530
C9391	C939	0.984520	0.583610	0.939760
H5551	H555	0.973470	0.593630	0.960730
C9401	C940	0.090360	0.634590	0.986910
H5561	H556	0.097370	0.615530	0.977630
C9411	C941	0.813300	0.442080	0.783960
H5571	H557	0.826370	0.470330	0.785630
C9421	C942	0.052100	0.466710	0.864800
H5581	H558	0.031070	0.472330	0.867930
C9431	C943	0.112570	0.447880	0.855650
H5591	H559	0.132270	0.440530	0.851530
C9441	C944	0.092870	0.440530	0.896430
C9451	C945	0.103420	0.466080	0.820780
H5601	H560	0.117670	0.471730	0.793730
Co451	Co45	0.566620	0.792540	0.119220
O2111	O211	0.576180	0.828040	0.178320
O2121	O212	0.629030	0.831970	0.143820
O2131	O213	0.831040	0.063240	0.411400
O2141	O214	0.762230	0.855550	0.098870
O2151	O215	0.697000	0.825750	0.117660
O2161	O216	0.795320	0.093110	0.391750
N711	N71	0.355770	0.647440	0.109520
N721	N72	0.502640	0.757860	0.117780
C9461	C946	0.708000	0.914460	0.242970
H5611	H561	0.735430	0.922470	0.243570
C9471	C947	0.372840	0.687830	0.109600
C9481	C948	0.418090	0.712400	0.111450
C9491	C949	0.720420	0.964030	0.305490
C9501	C950	0.682720	0.885730	0.211290
H5621	H562	0.693530	0.875270	0.190670
C9511	C951	0.739960	0.809200	0.159120
C9521	C952	0.773410	0.028160	0.362490
C9531	C953	0.641380	0.872640	0.210460
C9541	C954	0.802600	0.064680	0.390570
C9551	C955	0.438240	0.754160	0.114500
H5631	H563	0.423730	0.767870	0.114670
C9561	C956	0.614040	0.842770	0.175660
C9571	C957	0.441760	0.693730	0.111550
H5641	H564	0.429530	0.665570	0.109470
C9581	C958	0.692700	0.931290	0.273890
C9591	C959	0.783170	0.999290	0.348300
H5651	H565	0.807330	0.000970	0.357670
C9601	C960	0.732170	0.831840	0.122350
C9611	C961	0.483260	0.717390	0.114760
H5661	H566	0.498630	0.704570	0.114870
C9621	C962	0.737310	0.024980	0.348320
H5671	H567	0.730530	0.044270	0.357470
C9631	C963	0.625630	0.888110	0.242000
H5681	H568	0.597930	0.879170	0.242270
C9641	C964	0.728370	0.782140	0.234060
H5691	H569	0.713630	0.775870	0.260770
C9651	C965	0.711030	0.993260	0.320600
H5701	H570	0.686630	0.991370	0.311870
C9661	C966	0.651180	0.916950	0.273100
H5711	H571	0.640130	0.926970	0.294070
C9671	C967	0.757020	0.967930	0.320250
H5721	H572	0.764030	0.948870	0.310970
C9681	C968	0.479960	0.775420	0.117300
H5731	H573	0.493030	0.803670	0.118970
C9691	C969	0.718760	0.800050	0.198140
H5741	H574	0.697730	0.805670	0.201270
C9701	C970	0.779230	0.781220	0.188990
H5751	H575	0.798930	0.773870	0.184870
C9711	C971	0.759530	0.773870	0.229770
C9721	C972	0.770080	0.799420	0.154120
H5761	H576	0.784330	0.805070	0.127070
Co461	Co46	0.666670	0.850090	0.083330
Co471	Co47	0.333330	0.183430	0.416670
Co481	Co48	0.149910	0.816570	0.083330
Co491	Co49	0.483240	0.483240	0.750000
Co501	Co50	0.183430	0.333330	0.083330
Co511	Co51	0.850090	0.666670	0.416670
Co521	Co52	0.516760	0.000000	0.750000
Co531	Co53	0.816570	0.149910	0.416670
Co541	Co54	0.000000	0.516760	0.750000
