data_CUKVUA_clean_PM
_symmetry_space_group_name_H-M	'P1'
_cell_length_a	9.352100
_cell_length_b	11.347100
_cell_length_c	18.807800
_cell_angle_alpha	79.460000
_cell_angle_beta	79.462000
_cell_angle_gamma	66.512000
_symmetry_Int_Tables_number 1

loop_
_symmetry_equiv_pos_as_xyz
'x,y,z'

loop_
_atom_site_label
_atom_site_type_symbol
_atom_site_fract_x
_atom_site_fract_y
_atom_site_fract_z
Co11	Co1	0.605360	0.810470	0.718080
Co21	Co2	0.394640	0.189530	0.281920
Co31	Co3	0.000000	0.000000	0.000000
H11	H1	0.575200	0.569400	0.194200
H21	H2	0.482200	0.541900	0.317400
H31	H3	0.099500	0.855400	0.286300
H41	H4	0.450800	0.744800	0.392400
H51	H5	0.524500	0.765400	0.499500
H61	H6	0.206000	0.634800	0.616600
H71	H7	0.133600	0.610300	0.511000
H81	H8	0.773300	0.865900	0.998200
H91	H9	0.768000	0.666800	0.000500
H101	H10	0.231400	0.518000	0.995600
H111	H11	0.223600	0.720000	0.995600
H121	H12	0.662400	0.881200	0.551600
H131	H13	0.819600	0.951600	0.462800
H141	H14	0.034400	0.984200	0.616100
H151	H15	0.871700	0.910400	0.701300
H161	H16	0.350300	0.009500	0.625100
H171	H17	0.151600	0.207100	0.622300
H181	H18	0.268600	0.250200	0.806400
H191	H19	0.472300	0.057100	0.799300
H201	H20	0.992400	0.376000	0.825400
H211	H21	0.784700	0.570500	0.824400
H221	H22	0.836800	0.622000	0.613600
H231	H23	0.048000	0.437000	0.608000
H241	H24	0.424800	0.430600	0.805800
H251	H25	0.517800	0.458100	0.682600
H261	H26	0.900500	0.144600	0.713700
H271	H27	0.549200	0.255200	0.607600
H281	H28	0.475500	0.234600	0.500500
H291	H29	0.794000	0.365200	0.383400
H301	H30	0.866400	0.389700	0.489000
H311	H31	0.226700	0.134100	0.001800
H321	H32	0.232000	0.333200	0.999500
H331	H33	0.768600	0.482000	0.004400
H341	H34	0.776400	0.280000	0.004400
H351	H35	0.337600	0.118800	0.448400
H361	H36	0.180400	0.048400	0.537200
H371	H37	0.965600	0.015800	0.383900
H381	H38	0.128300	0.089600	0.298700
H391	H39	0.649700	0.990500	0.374900
H401	H40	0.848400	0.792900	0.377700
H411	H41	0.731400	0.749800	0.193600
H421	H42	0.527700	0.942900	0.200700
H431	H43	0.007600	0.624000	0.174600
H441	H44	0.215300	0.429500	0.175600
H451	H45	0.163200	0.378000	0.386400
H461	H46	0.952000	0.563000	0.392000
C11	C1	0.244100	0.816100	0.192800
C21	C2	0.390700	0.729900	0.165200
C31	C3	0.478300	0.627700	0.212200
C41	C4	0.423300	0.611100	0.286300
C51	C5	0.284000	0.696500	0.311800
C61	C6	0.195100	0.797600	0.266900
C71	C7	0.131000	0.921200	0.145000
C81	C8	0.461000	0.743500	0.086300
C91	C9	0.283000	0.678800	0.442400
C101	C10	0.400900	0.723400	0.437500
C111	C11	0.444000	0.735800	0.502000
C121	C12	0.371600	0.705700	0.569200
C131	C13	0.255100	0.657700	0.571700
C141	C14	0.210900	0.643400	0.508700
C151	C15	0.405900	0.731400	0.638800
C161	C16	0.867500	0.794400	0.998400
C171	C17	0.863700	0.674400	0.999600
C181	C18	0.998800	0.565600	0.999300
C191	C19	0.135000	0.587300	0.996900
C201	C20	0.129500	0.709700	0.996600
C211	C21	0.740400	0.900600	0.565400
C221	C22	0.834000	0.944200	0.511300
C231	C23	0.947900	0.976900	0.528200
C241	C24	0.959500	0.962900	0.601000
C251	C25	0.860800	0.917500	0.652400
C261	C26	0.334100	0.058900	0.662400
C271	C27	0.212700	0.177800	0.660500
C281	C28	0.181400	0.254000	0.715300
C291	C29	0.282700	0.203700	0.768100
C301	C30	0.403700	0.085800	0.764100
C311	C31	0.997400	0.457500	0.653600
C321	C32	0.048300	0.380400	0.717300
C331	C33	0.964600	0.425000	0.781100
C341	C34	0.838900	0.542800	0.780000
C351	C35	0.869900	0.572900	0.657100
C361	C36	0.755900	0.183900	0.807200
C371	C37	0.609300	0.270100	0.834800
C381	C38	0.521700	0.372300	0.787800
C391	C39	0.576700	0.388900	0.713700
C401	C40	0.716000	0.303500	0.688200
C411	C41	0.804900	0.202400	0.733100
C421	C42	0.869000	0.078800	0.855000
C431	C43	0.539000	0.256500	0.913700
C441	C44	0.717000	0.321200	0.557600
C451	C45	0.599100	0.276600	0.562500
C461	C46	0.556000	0.264200	0.498000
C471	C47	0.628400	0.294300	0.430800
C481	C48	0.744900	0.342300	0.428300
C491	C49	0.789100	0.356600	0.491300
C501	C50	0.594100	0.268600	0.361200
C511	C51	0.132500	0.205600	0.001600
C521	C52	0.136300	0.325600	0.000400
C531	C53	0.001200	0.434400	0.000700
C541	C54	0.865000	0.412700	0.003100
C551	C55	0.870500	0.290300	0.003400
C561	C56	0.259600	0.099400	0.434600
C571	C57	0.166000	0.055800	0.488700
C581	C58	0.052100	0.023100	0.471800
C591	C59	0.040500	0.037100	0.399000
C601	C60	0.139200	0.082500	0.347600
C611	C61	0.665900	0.941100	0.337600
C621	C62	0.787300	0.822200	0.339500
C631	C63	0.818600	0.746000	0.284700
C641	C64	0.717300	0.796300	0.231900
C651	C65	0.596300	0.914200	0.235900
C661	C66	0.002600	0.542500	0.346400
C671	C67	0.951700	0.619600	0.282700
C681	C68	0.035400	0.575000	0.218900
C691	C69	0.161100	0.457200	0.220000
C701	C70	0.130100	0.427100	0.342900
N11	N1	0.429600	0.009800	0.713450
N21	N2	0.791300	0.618300	0.719420
N31	N3	0.753400	0.884000	0.636020
N41	N4	0.999100	0.813800	0.997650
N51	N5	0.570400	0.990200	0.286550
N61	N6	0.208700	0.381700	0.280580
N71	N7	0.246600	0.116000	0.363980
N81	N8	0.000900	0.186200	0.002350
O11	O1	0.155000	0.913100	0.079060
O21	O2	0.013500	0.004000	0.176830
O31	O3	0.500100	0.837300	0.064700
O41	O4	0.483500	0.653700	0.050860
O51	O5	0.216300	0.674200	0.383710
O61	O6	0.516300	0.771000	0.634630
O71	O7	0.321400	0.713400	0.696100
O81	O8	0.845000	0.086900	0.920940
O91	O9	0.986500	0.996000	0.823170
O101	O10	0.499900	0.162700	0.935300
O111	O11	0.516500	0.346300	0.949140
O121	O12	0.783700	0.325800	0.616290
O131	O13	0.483700	0.229000	0.365370
O141	O14	0.678600	0.286600	0.303900
