data_CUMDOE_clean_PM
_symmetry_space_group_name_H-M	'P1'
_cell_length_a	5.754000
_cell_length_b	14.125900
_cell_length_c	21.156000
_cell_angle_alpha	90.000000
_cell_angle_beta	90.140000
_cell_angle_gamma	90.000000
_symmetry_Int_Tables_number 1

loop_
_symmetry_equiv_pos_as_xyz
'x,y,z'

loop_
_atom_site_label
_atom_site_type_symbol
_atom_site_fract_x
_atom_site_fract_y
_atom_site_fract_z
Nd11	Nd1	0.749990	0.890200	0.983190
Nd21	Nd2	0.250010	0.390200	0.516810
Nd31	Nd3	0.250010	0.109800	0.016810
Nd41	Nd4	0.749990	0.609800	0.483190
P11	P1	0.750100	0.156600	0.945800
P21	P2	0.750400	0.448500	0.612500
P31	P3	0.249900	0.656600	0.554200
P41	P4	0.249600	0.948500	0.887500
P51	P5	0.249900	0.843400	0.054200
P61	P6	0.249600	0.551500	0.387500
P71	P7	0.750100	0.343400	0.445800
P81	P8	0.750400	0.051500	0.112500
H11	H1	0.923100	0.203400	0.741400
H21	H2	0.677500	0.150700	0.743900
H31	H3	0.480300	0.291900	0.724800
H41	H4	0.674800	0.279800	0.671400
H51	H5	0.853500	0.456400	0.812700
H61	H6	0.596800	0.413900	0.818800
H71	H7	0.824100	0.327700	0.886800
H81	H8	0.022400	0.313600	0.834900
H91	H9	0.617600	0.109200	0.850900
H101	H10	0.893200	0.111300	0.851700
H111	H11	0.613500	0.495800	0.709600
H121	H12	0.889400	0.495700	0.709600
H131	H13	0.076900	0.703400	0.758600
H141	H14	0.322500	0.650700	0.756100
H151	H15	0.519700	0.791900	0.775200
H161	H16	0.325200	0.779800	0.828600
H171	H17	0.146500	0.956400	0.687300
H181	H18	0.403200	0.913900	0.681200
H191	H19	0.175900	0.827700	0.613200
H201	H20	0.977600	0.813600	0.665100
H211	H21	0.382400	0.609200	0.649100
H221	H22	0.106800	0.611300	0.648300
H231	H23	0.386500	0.995800	0.790400
H241	H24	0.110600	0.995700	0.790400
H251	H25	0.076900	0.796600	0.258600
H261	H26	0.322500	0.849300	0.256100
H271	H27	0.519700	0.708100	0.275200
H281	H28	0.325200	0.720200	0.328600
H291	H29	0.146500	0.543600	0.187300
H301	H30	0.403200	0.586100	0.181200
H311	H31	0.175900	0.672300	0.113200
H321	H32	0.977600	0.686400	0.165100
H331	H33	0.382400	0.890800	0.149100
H341	H34	0.106800	0.888700	0.148300
H351	H35	0.386500	0.504200	0.290400
H361	H36	0.110600	0.504300	0.290400
H371	H37	0.923100	0.296600	0.241400
H381	H38	0.677500	0.349300	0.243900
H391	H39	0.480300	0.208100	0.224800
H401	H40	0.674800	0.220200	0.171400
H411	H41	0.853500	0.043600	0.312700
H421	H42	0.596800	0.086100	0.318800
H431	H43	0.824100	0.172300	0.386800
H441	H44	0.022400	0.186400	0.334900
H451	H45	0.617600	0.390800	0.350900
H461	H46	0.893200	0.388700	0.351700
H471	H47	0.613500	0.004200	0.209600
H481	H48	0.889400	0.004300	0.209600
C11	C1	0.759000	0.210000	0.754500
C21	C2	0.650000	0.290700	0.717100
C31	C3	0.756000	0.400000	0.804100
C41	C4	0.852000	0.316500	0.841200
C51	C5	0.753000	0.148500	0.862800
C61	C6	0.751000	0.457700	0.697900
C71	C7	0.241000	0.710000	0.745500
C81	C8	0.350000	0.790700	0.782900
C91	C9	0.244000	0.900000	0.695900
C101	C10	0.148000	0.816500	0.658800
C111	C11	0.247000	0.648500	0.637200
C121	C12	0.249000	0.957700	0.802100
C131	C13	0.241000	0.790000	0.245500
C141	C14	0.350000	0.709300	0.282900
C151	C15	0.244000	0.600000	0.195900
C161	C16	0.148000	0.683500	0.158800
C171	C17	0.247000	0.851500	0.137200
C181	C18	0.249000	0.542300	0.302100
C191	C19	0.759000	0.290000	0.254500
C201	C20	0.650000	0.209300	0.217100
C211	C21	0.756000	0.100000	0.304100
C221	C22	0.852000	0.183500	0.341200
C231	C23	0.753000	0.351500	0.362800
C241	C24	0.751000	0.042300	0.197900
N11	N1	0.751000	0.224100	0.823800
N21	N2	0.752000	0.382200	0.735200
N31	N3	0.249000	0.724100	0.676200
N41	N4	0.248000	0.882200	0.764800
N51	N5	0.249000	0.775900	0.176200
N61	N6	0.248000	0.617800	0.264800
N71	N7	0.751000	0.275900	0.323800
N81	N8	0.752000	0.117800	0.235200
O11	O1	0.751000	0.057100	0.970500
O21	O2	0.531000	0.207500	0.965600
O31	O3	0.967000	0.209100	0.965200
O41	O4	0.530000	0.394900	0.597200
O51	O5	0.749000	0.547300	0.587700
O61	O6	0.969000	0.394500	0.597000
O71	O7	0.249000	0.557100	0.529500
O81	O8	0.469000	0.707500	0.534400
O91	O9	0.033000	0.709100	0.534800
O101	O10	0.470000	0.894900	0.902800
O111	O11	0.251000	0.047300	0.912300
O121	O12	0.031000	0.894500	0.903000
O131	O13	0.249000	0.942900	0.029500
O141	O14	0.469000	0.792500	0.034400
O151	O15	0.033000	0.790900	0.034800
O161	O16	0.470000	0.605100	0.402800
O171	O17	0.251000	0.452700	0.412300
O181	O18	0.031000	0.605500	0.403000
O191	O19	0.751000	0.442900	0.470500
O201	O20	0.531000	0.292500	0.465600
O211	O21	0.967000	0.290900	0.465200
O221	O22	0.530000	0.105100	0.097200
O231	O23	0.749000	0.952700	0.087700
O241	O24	0.969000	0.105500	0.097000
