data_CUMKIG03_clean_PM
_symmetry_space_group_name_H-M	'P1'
_cell_length_a	9.240600
_cell_length_b	9.957000
_cell_length_c	13.301700
_cell_angle_alpha	78.394000
_cell_angle_beta	73.580000
_cell_angle_gamma	81.982000
_symmetry_Int_Tables_number 1

loop_
_symmetry_equiv_pos_as_xyz
'x,y,z'

loop_
_atom_site_label
_atom_site_type_symbol
_atom_site_fract_x
_atom_site_fract_y
_atom_site_fract_z
N11	N1	0.264800	0.043200	0.090290
N21	N2	0.064200	0.119500	0.206810
N31	N3	0.572500	0.148400	0.065770
N41	N4	0.632900	0.348400	0.079250
N51	N5	0.460500	0.149500	0.864940
N61	N6	0.477700	0.222300	0.694440
C11	C1	0.137700	0.989500	0.084600
H11	H1	0.136900	0.930300	0.038900
C21	C2	0.014300	0.036600	0.156100
H21	H2	0.915000	0.016200	0.168200
C31	C3	0.215000	0.120900	0.164590
H31	H3	0.276400	0.170600	0.185300
C41	C4	0.977500	0.177900	0.301000
H41	H4	0.871700	0.194100	0.300500
H51	H5	0.013600	0.265900	0.298100
C51	C5	0.990900	0.084000	0.403400
C61	C6	0.001700	0.941400	0.414000
H61	H6	0.002900	0.901200	0.356400
C71	C7	0.989300	0.141600	0.490300
H71	H7	0.982100	0.236800	0.484500
C81	C8	0.580100	0.145300	0.168000
H81	H8	0.562700	0.069800	0.222500
C91	C9	0.616600	0.268200	0.177500
H91	H9	0.628200	0.293100	0.238300
C101	C10	0.606000	0.273000	0.014800
H101	H10	0.610400	0.304300	0.943400
C111	C11	0.675600	0.490800	0.048500
H111	H11	0.625700	0.541200	0.106000
H121	H12	0.640700	0.535000	0.986600
C121	C12	0.844200	0.496900	0.023400
C131	C13	0.912700	0.493200	0.104300
H131	H13	0.854500	0.488900	0.174300
C141	C14	0.931200	0.503900	0.919600
H141	H14	0.885000	0.506700	0.865400
C151	C15	0.318700	0.194500	0.850500
H151	H15	0.229500	0.194600	0.904800
C161	C16	0.327700	0.238300	0.746300
H161	H16	0.248000	0.272500	0.715900
C171	C17	0.553700	0.169600	0.768190
H171	H17	0.658200	0.149800	0.753200
C181	C18	0.541600	0.241100	0.577800
H181	H18	0.648500	0.254200	0.560500
H191	H19	0.491100	0.322600	0.544400
C191	C19	0.521500	0.117300	0.535810
C201	C20	0.407800	0.120100	0.485600
H201	H20	0.345500	0.200600	0.475200
C211	C21	0.613400	0.995900	0.548900
H211	H21	0.690800	0.992500	0.581700
N71	N7	0.735200	0.956800	0.909710
N81	N8	0.935800	0.880500	0.793190
N91	N9	0.427500	0.851600	0.934230
N101	N10	0.367100	0.651600	0.920750
N111	N11	0.539500	0.850500	0.135060
N121	N12	0.522300	0.777700	0.305560
C221	C22	0.862300	0.010500	0.915400
H221	H22	0.863100	0.069700	0.961100
C231	C23	0.985700	0.963400	0.843900
H231	H23	0.085000	0.983800	0.831800
C241	C24	0.785000	0.879100	0.835410
H241	H24	0.723600	0.829400	0.814700
C251	C25	0.022500	0.822100	0.699000
H251	H25	0.128300	0.805900	0.699500
H261	H26	0.986400	0.734100	0.701900
C261	C26	0.009100	0.916000	0.596600
C271	C27	0.998300	0.058600	0.586000
H271	H27	0.997100	0.098800	0.643600
C281	C28	0.010700	0.858400	0.509700
H281	H28	0.017900	0.763200	0.515500
C291	C29	0.419900	0.854700	0.832000
H291	H29	0.437300	0.930200	0.777500
C301	C30	0.383400	0.731800	0.822500
H301	H30	0.371800	0.706900	0.761700
C311	C31	0.394000	0.727000	0.985200
H311	H31	0.389600	0.695700	0.056600
C321	C32	0.324400	0.509200	0.951500
H321	H32	0.374300	0.458800	0.894000
H331	H33	0.359300	0.465000	0.013400
C331	C33	0.155800	0.503100	0.976600
C341	C34	0.087300	0.506800	0.895700
H341	H34	0.145500	0.511100	0.825700
C351	C35	0.068800	0.496100	0.080400
H351	H35	0.115000	0.493300	0.134600
C361	C36	0.681300	0.805500	0.149500
H361	H36	0.770500	0.805400	0.095200
C371	C37	0.672300	0.761700	0.253700
H371	H37	0.752000	0.727500	0.284100
C381	C38	0.446300	0.830400	0.231810
H381	H38	0.341800	0.850200	0.246800
C391	C39	0.458400	0.758900	0.422200
H391	H39	0.351500	0.745800	0.439500
H401	H40	0.508900	0.677400	0.455600
C401	C40	0.478500	0.882700	0.464190
C411	C41	0.592200	0.879900	0.514400
H411	H41	0.654500	0.799400	0.524800
C421	C42	0.386600	0.004100	0.451100
H421	H42	0.309200	0.007500	0.418300
Co11	Co1	0.500000	0.000000	0.000000
