data_CUMLUT_clean_PM
_symmetry_space_group_name_H-M	'P1'
_cell_length_a	10.211700
_cell_length_b	13.870000
_cell_length_c	12.310700
_cell_angle_alpha	90.000000
_cell_angle_beta	90.198000
_cell_angle_gamma	90.000000
_symmetry_Int_Tables_number 1

loop_
_symmetry_equiv_pos_as_xyz
'x,y,z'

loop_
_atom_site_label
_atom_site_type_symbol
_atom_site_fract_x
_atom_site_fract_y
_atom_site_fract_z
Cd11	Cd1	0.147150	0.437690	0.920960
C11	C1	0.647600	0.293600	0.655400
C21	C2	0.528100	0.322500	0.697600
H11	H1	0.451300	0.300100	0.665700
C31	C3	0.520200	0.384800	0.787500
C41	C4	0.638100	0.418900	0.832400
H21	H2	0.636200	0.460200	0.891900
C51	C5	0.756100	0.391500	0.788900
C61	C6	0.760900	0.329400	0.701400
H31	H3	0.841600	0.311400	0.673200
C71	C7	0.654600	0.221300	0.565100
C81	C8	0.391100	0.411700	0.832100
C91	C9	0.885600	0.424400	0.840800
O11	O1	0.761900	0.192000	0.534100
O21	O2	0.549900	0.189100	0.525500
O31	O3	0.293200	0.374100	0.791900
O41	O4	0.385900	0.470200	0.908000
O51	O5	0.882200	0.477100	0.921100
O61	O6	0.990400	0.394600	0.797300
Cd21	Cd2	0.352850	0.937690	0.579040
C101	C10	0.852400	0.793600	0.844600
C111	C11	0.971900	0.822500	0.802400
H41	H4	0.048700	0.800100	0.834300
C121	C12	0.979800	0.884800	0.712500
C131	C13	0.861900	0.918900	0.667600
H51	H5	0.863800	0.960200	0.608100
C141	C14	0.743900	0.891500	0.711100
C151	C15	0.739100	0.829400	0.798600
H61	H6	0.658400	0.811400	0.826800
C161	C16	0.845400	0.721300	0.934900
C171	C17	0.108900	0.911700	0.667900
C181	C18	0.614400	0.924400	0.659200
O71	O7	0.738100	0.692000	0.965900
O81	O8	0.950100	0.689100	0.974500
O91	O9	0.206800	0.874100	0.708100
O101	O10	0.114100	0.970200	0.592000
O111	O11	0.617800	0.977100	0.578900
O121	O12	0.509600	0.894600	0.702700
Cd31	Cd3	0.852850	0.562310	0.079040
C191	C19	0.352400	0.706400	0.344600
C201	C20	0.471900	0.677500	0.302400
H71	H7	0.548700	0.699900	0.334300
C211	C21	0.479800	0.615200	0.212500
C221	C22	0.361900	0.581100	0.167600
H81	H8	0.363800	0.539800	0.108100
C231	C23	0.243900	0.608500	0.211100
C241	C24	0.239100	0.670600	0.298600
H91	H9	0.158400	0.688600	0.326800
C251	C25	0.345400	0.778700	0.434900
C261	C26	0.608900	0.588300	0.167900
C271	C27	0.114400	0.575600	0.159200
O131	O13	0.238100	0.808000	0.465900
O141	O14	0.450100	0.810900	0.474500
O151	O15	0.706800	0.625900	0.208100
O161	O16	0.614100	0.529800	0.092000
O171	O17	0.117800	0.522900	0.078900
O181	O18	0.009600	0.605400	0.202700
Cd41	Cd4	0.647150	0.062310	0.420960
C281	C28	0.147600	0.206400	0.155400
C291	C29	0.028100	0.177500	0.197600
H101	H10	0.951300	0.199900	0.165700
C301	C30	0.020200	0.115200	0.287500
C311	C31	0.138100	0.081100	0.332400
H111	H11	0.136200	0.039800	0.391900
C321	C32	0.256100	0.108500	0.288900
C331	C33	0.260900	0.170600	0.201400
H121	H12	0.341600	0.188600	0.173200
C341	C34	0.154600	0.278700	0.065100
C351	C35	0.891100	0.088300	0.332100
C361	C36	0.385600	0.075600	0.340800
O191	O19	0.261900	0.308000	0.034100
O201	O20	0.049900	0.310900	0.025500
O211	O21	0.793200	0.125900	0.291900
O221	O22	0.885900	0.029800	0.408000
O231	O23	0.382200	0.022900	0.421100
O241	O24	0.490400	0.105400	0.297300
