data_CUQSAK_clean_PM
_symmetry_space_group_name_H-M	'P1'
_cell_length_a	29.599400
_cell_length_b	29.599400
_cell_length_c	52.255000
_cell_angle_alpha	90.000000
_cell_angle_beta	90.000000
_cell_angle_gamma	120.000000
_symmetry_Int_Tables_number 1

loop_
_symmetry_equiv_pos_as_xyz
'x,y,z'

loop_
_atom_site_label
_atom_site_type_symbol
_atom_site_fract_x
_atom_site_fract_y
_atom_site_fract_z
Cu11	Cu1	0.288710	0.485340	0.382080
O11	O1	0.106800	0.496500	0.560680
O21	O2	0.067090	0.453340	0.605420
O31	O3	0.052460	0.517180	0.608930
O41	O4	0.380800	0.483800	0.539330
O51	O5	0.328900	0.518500	0.511690
O61	O6	0.259200	0.434800	0.515390
O71	O7	0.199100	0.357170	0.662820
O81	O8	0.287900	0.367600	0.643600
O91	O9	0.342600	0.403100	0.675100
N11	N1	0.282100	0.480700	0.421610
N21	N2	0.326300	0.596600	0.374330
N31	N3	0.394800	0.192500	0.646720
C11	C1	0.215800	0.532230	0.619490
C21	C2	0.162980	0.500850	0.624820
H11	H1	0.152000	0.487700	0.641600
C31	C3	0.126290	0.488650	0.605540
C41	C4	0.142420	0.507840	0.580940
C51	C5	0.195240	0.539210	0.575610
H21	H2	0.206300	0.552300	0.558800
C61	C6	0.231930	0.551410	0.594890
C71	C7	0.287800	0.587870	0.588340
H31	H3	0.306500	0.606300	0.604100
H41	H4	0.289500	0.614400	0.576200
C81	C8	0.316280	0.561640	0.576490
C91	C9	0.309650	0.553090	0.550020
H51	H5	0.292100	0.566400	0.540000
C101	C10	0.332410	0.520770	0.537830
C111	C11	0.357220	0.509040	0.552930
C121	C12	0.365760	0.518790	0.579920
H61	H6	0.386500	0.508900	0.589700
C131	C13	0.339460	0.545620	0.591180
C141	C14	0.347990	0.551460	0.619700
H71	H7	0.344700	0.581300	0.625800
H81	H8	0.383600	0.558600	0.623800
C151	C15	0.308360	0.502150	0.633180
C161	C16	0.316920	0.461430	0.636140
H91	H9	0.349400	0.465500	0.630700
C171	C17	0.281890	0.416270	0.646300
C181	C18	0.236250	0.407210	0.653910
C191	C19	0.223160	0.447950	0.651440
H101	H10	0.189600	0.442400	0.655900
C201	C20	0.263000	0.496510	0.642050
C211	C21	0.245880	0.535730	0.640230
H111	H11	0.226000	0.533200	0.655900
H121	H12	0.277400	0.570800	0.640100
C221	C22	0.120630	0.511280	0.534820
H131	H13	0.144700	0.549000	0.533900
H141	H14	0.089200	0.502300	0.524900
H151	H15	0.137600	0.492800	0.527800
C231	C23	0.032240	0.472310	0.605160
C241	C24	0.985520	0.432270	0.611490
C251	C25	0.974320	0.380720	0.611450
H161	H16	0.001700	0.373000	0.609500
C261	C26	0.923120	0.340480	0.614270
H171	H17	0.915500	0.305200	0.614200
N41	N4	0.883130	0.351780	0.617140
C271	C27	0.894320	0.403330	0.617180
H181	H18	0.867000	0.411100	0.619100
C281	C28	0.945520	0.443570	0.614360
H191	H19	0.953200	0.478800	0.614400
C291	C29	0.143620	0.342500	0.666620
H201	H20	0.141800	0.368000	0.678000
H211	H21	0.124500	0.307800	0.674400
H221	H22	0.127900	0.342200	0.650100
C301	C30	0.311300	0.371400	0.656900
C311	C31	0.326600	0.321530	0.660850
C321	C32	0.363200	0.319820	0.676840
H231	H23	0.384800	0.348800	0.687400
C331	C33	0.368420	0.275680	0.677320
H241	H24	0.393500	0.274500	0.688200
N51	N5	0.336940	0.233230	0.661820
C341	C34	0.300290	0.234930	0.645830
H251	H25	0.278800	0.205900	0.635200
C351	C35	0.295110	0.279080	0.645350
H261	H26	0.270100	0.280200	0.634400
C361	C36	0.410420	0.471130	0.552280
H271	H27	0.437800	0.502100	0.561000
H281	H28	0.426400	0.457200	0.540600
H291	H29	0.389300	0.444500	0.565000
C371	C37	0.291700	0.465550	0.504950
C381	C38	0.294350	0.479210	0.474720
C391	C39	0.252440	0.430390	0.460400
H301	H30	0.227900	0.398600	0.468300
C401	C40	0.255840	0.439560	0.435150
H311	H31	0.234300	0.409300	0.425300
C411	C41	0.316530	0.528820	0.431680
H321	H32	0.334500	0.559600	0.421700
C421	C42	0.322540	0.527610	0.459770
H331	H33	0.345400	0.559200	0.468400
C431	C43	0.321300	0.551490	0.375030
C441	C44	0.428000	0.198600	0.634710
Cu21	Cu2	0.955380	0.818670	0.715410
O101	O10	0.773470	0.829830	0.894010
O111	O11	0.733760	0.786670	0.938750
O121	O12	0.719130	0.850510	0.942260
O131	O13	0.047470	0.817130	0.872660
O141	O14	0.995570	0.851830	0.845020
O151	O15	0.925870	0.768130	0.848720
O161	O16	0.865770	0.690500	0.996150
O171	O17	0.954570	0.700930	0.976930
O181	O18	0.009270	0.736430	0.008430
N61	N6	0.948770	0.814030	0.754940
N71	N7	0.992970	0.929930	0.707660
N81	N8	0.061470	0.525830	0.980050
C451	C45	0.882470	0.865560	0.952820
C461	C46	0.829650	0.834180	0.958150
H341	H34	0.818670	0.821030	0.974930
C471	C47	0.792960	0.821980	0.938870
C481	C48	0.809090	0.841170	0.914270
C491	C49	0.861910	0.872540	0.908940
H351	H35	0.872970	0.885630	0.892130
C501	C50	0.898600	0.884740	0.928220
C511	C51	0.954470	0.921200	0.921670
H361	H36	0.973170	0.939630	0.937430
H371	H37	0.956170	0.947730	0.909530
C521	C52	0.982950	0.894970	0.909820
C531	C53	0.976320	0.886420	0.883350
H381	H38	0.958770	0.899730	0.873330
C541	C54	0.999080	0.854100	0.871160
C551	C55	0.023890	0.842370	0.886260
C561	C56	0.032430	0.852120	0.913250
H391	H39	0.053170	0.842230	0.923030
C571	C57	0.006130	0.878950	0.924510
C581	C58	0.014660	0.884790	0.953030
H401	H40	0.011370	0.914630	0.959130
H411	H41	0.050270	0.891930	0.957130
C591	C59	0.975030	0.835480	0.966510
C601	C60	0.983590	0.794760	0.969470
H421	H42	0.016070	0.798830	0.964030
C611	C61	0.948560	0.749600	0.979630
C621	C62	0.902920	0.740540	0.987240
C631	C63	0.889830	0.781280	0.984770
H431	H43	0.856270	0.775730	0.989230
C641	C64	0.929670	0.829840	0.975380
C651	C65	0.912550	0.869060	0.973560
H441	H44	0.892670	0.866530	0.989230
H451	H45	0.944070	0.904130	0.973430
C661	C66	0.787300	0.844610	0.868150
H461	H46	0.811370	0.882330	0.867230
H471	H47	0.755870	0.835630	0.858230
H481	H48	0.804270	0.826130	0.861130
C671	C67	0.698910	0.805640	0.938490
C681	C68	0.652190	0.765600	0.944820
C691	C69	0.640990	0.714050	0.944780
H491	H49	0.668370	0.706330	0.942830
C701	C70	0.589790	0.673810	0.947600
H501	H50	0.582170	0.638530	0.947530
N91	N9	0.549800	0.685110	0.950470
C711	C71	0.560990	0.736660	0.950510
H511	H51	0.533670	0.744430	0.952430
C721	C72	0.612190	0.776900	0.947690
H521	H52	0.619870	0.812130	0.947730
C731	C73	0.810290	0.675830	0.999950
H531	H53	0.808470	0.701330	0.011330
H541	H54	0.791170	0.641130	0.007730
H551	H55	0.794570	0.675530	0.983430
C741	C74	0.977970	0.704730	0.990230
C751	C75	0.993270	0.654860	0.994180
C761	C76	0.029870	0.653150	0.010170
H561	H56	0.051470	0.682130	0.020730
C771	C77	0.035090	0.609010	0.010650
H571	H57	0.060170	0.607830	0.021530
N101	N10	0.003610	0.566560	0.995150
C781	C78	0.966960	0.568260	0.979160
H581	H58	0.945470	0.539230	0.968530
C791	C79	0.961780	0.612410	0.978680
H591	H59	0.936770	0.613530	0.967730
C801	C80	0.077090	0.804460	0.885610
H601	H60	0.104470	0.835430	0.894330
H611	H61	0.093070	0.790530	0.873930
H621	H62	0.055970	0.777830	0.898330
C811	C81	0.958370	0.798880	0.838280
C821	C82	0.961020	0.812540	0.808050
C831	C83	0.919110	0.763720	0.793730
H631	H63	0.894570	0.731930	0.801630
C841	C84	0.922510	0.772890	0.768480
H641	H64	0.900970	0.742630	0.758630
C851	C85	0.983200	0.862150	0.765010
H651	H65	0.001170	0.892930	0.755030
C861	C86	0.989210	0.860940	0.793100
H661	H66	0.012070	0.892530	0.801730
C871	C87	0.987970	0.884820	0.708360
C881	C88	0.094670	0.531930	0.968040
Cu31	Cu3	0.622040	0.152010	0.048750
O191	O19	0.440130	0.163170	0.227350
O201	O20	0.400420	0.120010	0.272090
O211	O21	0.385790	0.183850	0.275600
O221	O22	0.714130	0.150470	0.206000
O231	O23	0.662230	0.185170	0.178360
O241	O24	0.592530	0.101470	0.182060
O251	O25	0.532430	0.023840	0.329490
O261	O26	0.621230	0.034270	0.310270
O271	O27	0.675930	0.069770	0.341770
N111	N11	0.615430	0.147370	0.088280
N121	N12	0.659630	0.263270	0.041000
N131	N13	0.728130	0.859170	0.313390
C891	C89	0.549130	0.198900	0.286160
C901	C90	0.496310	0.167520	0.291490
H671	H67	0.485330	0.154370	0.308270
C911	C91	0.459620	0.155320	0.272210
C921	C92	0.475750	0.174510	0.247610
C931	C93	0.528570	0.205880	0.242280
H681	H68	0.539630	0.218970	0.225470
C941	C94	0.565260	0.218080	0.261560
C951	C95	0.621130	0.254540	0.255010
H691	H69	0.639830	0.272970	0.270770
H701	H70	0.622830	0.281070	0.242870
C961	C96	0.649610	0.228310	0.243160
C971	C97	0.642980	0.219760	0.216690
H711	H71	0.625430	0.233070	0.206670
C981	C98	0.665740	0.187440	0.204500
C991	C99	0.690550	0.175710	0.219600
C1001	C100	0.699090	0.185460	0.246590
H721	H72	0.719830	0.175570	0.256370
C1011	C101	0.672790	0.212290	0.257850
C1021	C102	0.681320	0.218130	0.286370
H731	H73	0.678030	0.247970	0.292470
H741	H74	0.716930	0.225270	0.290470
C1031	C103	0.641690	0.168820	0.299850
C1041	C104	0.650250	0.128100	0.302810
H751	H75	0.682730	0.132170	0.297370
C1051	C105	0.615220	0.082940	0.312970
C1061	C106	0.569580	0.073880	0.320580
C1071	C107	0.556490	0.114620	0.318110
H761	H76	0.522930	0.109070	0.322570
C1081	C108	0.596330	0.163180	0.308720
C1091	C109	0.579210	0.202400	0.306900
H771	H77	0.559330	0.199870	0.322570
H781	H78	0.610730	0.237470	0.306770
C1101	C110	0.453960	0.177950	0.201490
H791	H79	0.478030	0.215670	0.200570
H801	H80	0.422530	0.168970	0.191570
H811	H81	0.470930	0.159470	0.194470
C1111	C111	0.365570	0.138980	0.271830
C1121	C112	0.318850	0.098940	0.278160
C1131	C113	0.307650	0.047390	0.278120
H821	H82	0.335030	0.039670	0.276170
C1141	C114	0.256450	0.007150	0.280940
H831	H83	0.248830	0.971870	0.280870
N141	N14	0.216460	0.018450	0.283810
C1151	C115	0.227650	0.070000	0.283850
H841	H84	0.200330	0.077770	0.285770
C1161	C116	0.278850	0.110240	0.281030
H851	H85	0.286530	0.145470	0.281070
C1171	C117	0.476950	0.009170	0.333290
H861	H86	0.475130	0.034670	0.344670
H871	H87	0.457830	0.974470	0.341070
H881	H88	0.461230	0.008870	0.316770
C1181	C118	0.644630	0.038070	0.323570
C1191	C119	0.659930	0.988200	0.327520
C1201	C120	0.696530	0.986490	0.343510
H891	H89	0.718130	0.015470	0.354070
C1211	C121	0.701750	0.942350	0.343990
H901	H90	0.726830	0.941170	0.354870
N151	N15	0.670270	0.899900	0.328490
C1221	C122	0.633620	0.901600	0.312500
H911	H91	0.612130	0.872570	0.301870
C1231	C123	0.628440	0.945750	0.312020
H921	H92	0.603430	0.946870	0.301070
C1241	C124	0.743750	0.137800	0.218950
H931	H93	0.771130	0.168770	0.227670
H941	H94	0.759730	0.123870	0.207270
H951	H95	0.722630	0.111170	0.231670
C1251	C125	0.625030	0.132220	0.171620
C1261	C126	0.627680	0.145880	0.141390
C1271	C127	0.585770	0.097060	0.127070
H961	H96	0.561230	0.065270	0.134970
C1281	C128	0.589170	0.106230	0.101820
H971	H97	0.567630	0.075970	0.091970
C1291	C129	0.649860	0.195490	0.098350
H981	H98	0.667830	0.226270	0.088370
C1301	C130	0.655870	0.194280	0.126440
H991	H99	0.678730	0.225870	0.135070
C1311	C131	0.654630	0.218160	0.041700
C1321	C132	0.761330	0.865270	0.301380
Cu41	Cu4	0.514660	0.803370	0.382080
O281	O28	0.503500	0.610300	0.560680
O291	O29	0.546660	0.613750	0.605420
O301	O30	0.482820	0.535280	0.608930
O311	O31	0.516200	0.897000	0.539330
O321	O32	0.481500	0.810400	0.511690
O331	O33	0.565200	0.824400	0.515390
O341	O34	0.642830	0.841930	0.662820
O351	O35	0.632400	0.920300	0.643600
O361	O36	0.596900	0.939500	0.675100
N161	N16	0.519300	0.801400	0.421610
N171	N17	0.403400	0.729700	0.374330
N181	N18	0.807500	0.202300	0.646720
C1331	C133	0.467770	0.683570	0.619490
C1341	C134	0.499150	0.662130	0.624820
H1001	H100	0.512300	0.664300	0.641600
C1351	C135	0.511350	0.637640	0.605540
C1361	C136	0.492160	0.634580	0.580940
C1371	C137	0.460790	0.656030	0.575610
H1011	H101	0.447700	0.654000	0.558800
C1381	C138	0.448590	0.680520	0.594890
C1391	C139	0.412130	0.699930	0.588340
H1021	H102	0.393700	0.700200	0.604100
H1031	H103	0.385600	0.675100	0.576200
C1401	C140	0.438360	0.754640	0.576490
C1411	C141	0.446910	0.756560	0.550020
H1041	H104	0.433600	0.725700	0.540000
C1421	C142	0.479230	0.811640	0.537830
C1431	C143	0.490960	0.848180	0.552930
C1441	C144	0.481210	0.846970	0.579920
H1051	H105	0.491100	0.877600	0.589700
C1451	C145	0.454380	0.793840	0.591180
C1461	C146	0.448540	0.796530	0.619700
H1061	H106	0.418700	0.763400	0.625800
H1071	H107	0.441400	0.825000	0.623800
C1471	C147	0.497850	0.806210	0.633180
C1481	C148	0.538570	0.855490	0.636140
H1081	H108	0.534500	0.883900	0.630700
C1491	C149	0.583730	0.865620	0.646300
C1501	C150	0.592790	0.829040	0.653910
C1511	C151	0.552050	0.775210	0.651440
H1091	H109	0.557600	0.747200	0.655900
C1521	C152	0.503490	0.766490	0.642050
C1531	C153	0.464270	0.710150	0.640230
H1101	H110	0.466800	0.692800	0.655900
H1111	H111	0.429200	0.706600	0.640100
C1541	C154	0.488720	0.609350	0.534820
H1121	H112	0.451000	0.595700	0.533900
H1131	H113	0.497700	0.586900	0.524900
H1141	H114	0.507200	0.644800	0.527800
C1551	C155	0.527690	0.559930	0.605160
C1561	C156	0.567730	0.553250	0.611490
C1571	C157	0.619280	0.593600	0.611450
H1151	H115	0.627000	0.628700	0.609500
C1581	C158	0.659520	0.582640	0.614270
H1161	H116	0.694800	0.610300	0.614200
N191	N19	0.648220	0.531350	0.617140
C1591	C159	0.596670	0.490990	0.617180
H1171	H117	0.588900	0.455900	0.619100
C1601	C160	0.556430	0.501950	0.614360
H1181	H118	0.521200	0.474400	0.614400
C1611	C161	0.657500	0.801120	0.666620
H1191	H119	0.632000	0.773800	0.678000
H1201	H120	0.692200	0.816700	0.674400
H1211	H121	0.657800	0.785700	0.650100
C1621	C162	0.628600	0.939900	0.656900
C1631	C163	0.678470	0.005070	0.660850
C1641	C164	0.680180	0.043380	0.676840
H1221	H122	0.651200	0.036000	0.687400
C1651	C165	0.724320	0.092740	0.677320
H1231	H123	0.725500	0.119000	0.688200
N201	N20	0.766770	0.103710	0.661820
C1661	C166	0.765070	0.065360	0.645830
H1241	H124	0.794100	0.072900	0.635200
C1671	C167	0.720920	0.016030	0.645350
H1251	H125	0.719800	0.989900	0.634400
C1681	C168	0.528870	0.939290	0.552280
H1261	H126	0.497900	0.935700	0.561000
H1271	H127	0.542800	0.969200	0.540600
H1281	H128	0.555500	0.944800	0.565000
C1691	C169	0.534450	0.826150	0.504950
C1701	C170	0.520790	0.815140	0.474720
C1711	C171	0.569610	0.822050	0.460400
H1291	H129	0.601400	0.829300	0.468300
C1721	C172	0.560440	0.816280	0.435150
H1301	H130	0.590700	0.825000	0.425300
C1731	C173	0.471180	0.787710	0.431680
H1311	H131	0.440400	0.774900	0.421700
C1741	C174	0.472390	0.794930	0.459770
H1321	H132	0.440800	0.786200	0.468400
C1751	C175	0.448510	0.769810	0.375030
C1761	C176	0.801400	0.229400	0.634710
Cu51	Cu5	0.181330	0.136700	0.715410
O371	O37	0.170170	0.943630	0.894010
O381	O38	0.213330	0.947080	0.938750
O391	O39	0.149490	0.868610	0.942260
O401	O40	0.182870	0.230330	0.872660
O411	O41	0.148170	0.143730	0.845020
O421	O42	0.231870	0.157730	0.848720
O431	O43	0.309500	0.175260	0.996150
O441	O44	0.299070	0.253630	0.976930
O451	O45	0.263570	0.272830	0.008430
N211	N21	0.185970	0.134730	0.754940
N221	N22	0.070070	0.063030	0.707660
N231	N23	0.474170	0.535630	0.980050
C1771	C177	0.134440	0.016900	0.952820
C1781	C178	0.165820	0.995460	0.958150
H1331	H133	0.178970	0.997630	0.974930
C1791	C179	0.178020	0.970970	0.938870
C1801	C180	0.158830	0.967910	0.914270
C1811	C181	0.127460	0.989360	0.908940
H1341	H134	0.114370	0.987330	0.892130
C1821	C182	0.115260	0.013850	0.928220
C1831	C183	0.078800	0.033260	0.921670
H1351	H135	0.060370	0.033530	0.937430
H1361	H136	0.052270	0.008430	0.909530
C1841	C184	0.105030	0.087970	0.909820
C1851	C185	0.113580	0.089890	0.883350
H1371	H137	0.100270	0.059030	0.873330
C1861	C186	0.145900	0.144970	0.871160
C1871	C187	0.157630	0.181510	0.886260
C1881	C188	0.147880	0.180300	0.913250
H1381	H138	0.157770	0.210930	0.923030
C1891	C189	0.121050	0.127170	0.924510
C1901	C190	0.115210	0.129860	0.953030
H1391	H139	0.085370	0.096730	0.959130
H1401	H140	0.108070	0.158330	0.957130
C1911	C191	0.164520	0.139540	0.966510
C1921	C192	0.205240	0.188820	0.969470
H1411	H141	0.201170	0.217230	0.964030
C1931	C193	0.250400	0.198950	0.979630
C1941	C194	0.259460	0.162370	0.987240
C1951	C195	0.218720	0.108540	0.984770
H1421	H142	0.224270	0.080530	0.989230
C1961	C196	0.170160	0.099820	0.975380
C1971	C197	0.130940	0.043480	0.973560
H1431	H143	0.133470	0.026130	0.989230
H1441	H144	0.095870	0.039930	0.973430
C1981	C198	0.155390	0.942680	0.868150
H1451	H145	0.117670	0.929030	0.867230
H1461	H146	0.164370	0.920230	0.858230
H1471	H147	0.173870	0.978130	0.861130
C1991	C199	0.194360	0.893260	0.938490
C2001	C200	0.234400	0.886580	0.944820
C2011	C201	0.285950	0.926930	0.944780
H1481	H148	0.293670	0.962030	0.942830
C2021	C202	0.326190	0.915970	0.947600
H1491	H149	0.361470	0.943630	0.947530
N241	N24	0.314890	0.864680	0.950470
C2031	C203	0.263340	0.824320	0.950510
H1501	H150	0.255570	0.789230	0.952430
C2041	C204	0.223100	0.835280	0.947690
H1511	H151	0.187870	0.807730	0.947730
C2051	C205	0.324170	0.134450	0.999950
H1521	H152	0.298670	0.107130	0.011330
H1531	H153	0.358870	0.150030	0.007730
H1541	H154	0.324470	0.119030	0.983430
C2061	C206	0.295270	0.273230	0.990230
C2071	C207	0.345140	0.338400	0.994180
C2081	C208	0.346850	0.376710	0.010170
H1551	H155	0.317870	0.369330	0.020730
C2091	C209	0.390990	0.426070	0.010650
H1561	H156	0.392170	0.452330	0.021530
N251	N25	0.433440	0.437040	0.995150
C2101	C210	0.431740	0.398690	0.979160
H1571	H157	0.460770	0.406230	0.968530
C2111	C211	0.387590	0.349360	0.978680
H1581	H158	0.386470	0.323230	0.967730
C2121	C212	0.195540	0.272620	0.885610
H1591	H159	0.164570	0.269030	0.894330
H1601	H160	0.209470	0.302530	0.873930
H1611	H161	0.222170	0.278130	0.898330
C2131	C213	0.201120	0.159480	0.838280
C2141	C214	0.187460	0.148470	0.808050
C2151	C215	0.236280	0.155380	0.793730
H1621	H162	0.268070	0.162630	0.801630
C2161	C216	0.227110	0.149610	0.768480
H1631	H163	0.257370	0.158330	0.758630
C2171	C217	0.137850	0.121040	0.765010
H1641	H164	0.107070	0.108230	0.755030
C2181	C218	0.139060	0.128260	0.793100
H1651	H165	0.107470	0.119530	0.801730
C2191	C219	0.115180	0.103140	0.708360
C2201	C220	0.468070	0.562730	0.968040
Cu61	Cu6	0.847990	0.470040	0.048750
O461	O46	0.836830	0.276970	0.227350
O471	O47	0.879990	0.280420	0.272090
O481	O48	0.816150	0.201950	0.275600
O491	O49	0.849530	0.563670	0.206000
O501	O50	0.814830	0.477070	0.178360
O511	O51	0.898530	0.491070	0.182060
O521	O52	0.976160	0.508600	0.329490
O531	O53	0.965730	0.586970	0.310270
O541	O54	0.930230	0.606170	0.341770
N261	N26	0.852630	0.468070	0.088280
N271	N27	0.736730	0.396370	0.041000
N281	N28	0.140830	0.868970	0.313390
C2211	C221	0.801100	0.350240	0.286160
C2221	C222	0.832480	0.328800	0.291490
H1661	H166	0.845630	0.330970	0.308270
C2231	C223	0.844680	0.304310	0.272210
C2241	C224	0.825490	0.301250	0.247610
C2251	C225	0.794120	0.322700	0.242280
H1671	H167	0.781030	0.320670	0.225470
C2261	C226	0.781920	0.347190	0.261560
C2271	C227	0.745460	0.366600	0.255010
H1681	H168	0.727030	0.366870	0.270770
H1691	H169	0.718930	0.341770	0.242870
C2281	C228	0.771690	0.421310	0.243160
C2291	C229	0.780240	0.423230	0.216690
H1701	H170	0.766930	0.392370	0.206670
C2301	C230	0.812560	0.478310	0.204500
C2311	C231	0.824290	0.514850	0.219600
C2321	C232	0.814540	0.513640	0.246590
H1711	H171	0.824430	0.544270	0.256370
C2331	C233	0.787710	0.460510	0.257850
C2341	C234	0.781870	0.463200	0.286370
H1721	H172	0.752030	0.430070	0.292470
H1731	H173	0.774730	0.491670	0.290470
C2351	C235	0.831180	0.472880	0.299850
C2361	C236	0.871900	0.522160	0.302810
H1741	H174	0.867830	0.550570	0.297370
C2371	C237	0.917060	0.532290	0.312970
C2381	C238	0.926120	0.495710	0.320580
C2391	C239	0.885380	0.441880	0.318110
H1751	H175	0.890930	0.413870	0.322570
C2401	C240	0.836820	0.433160	0.308720
C2411	C241	0.797600	0.376820	0.306900
H1761	H176	0.800130	0.359470	0.322570
H1771	H177	0.762530	0.373270	0.306770
C2421	C242	0.822050	0.276020	0.201490
H1781	H178	0.784330	0.262370	0.200570
H1791	H179	0.831030	0.253570	0.191570
H1801	H180	0.840530	0.311470	0.194470
C2431	C243	0.861020	0.226600	0.271830
C2441	C244	0.901060	0.219920	0.278160
C2451	C245	0.952610	0.260270	0.278120
H1811	H181	0.960330	0.295370	0.276170
C2461	C246	0.992850	0.249310	0.280940
H1821	H182	0.028130	0.276970	0.280870
N291	N29	0.981550	0.198020	0.283810
C2471	C247	0.930000	0.157660	0.283850
H1831	H183	0.922230	0.122570	0.285770
C2481	C248	0.889760	0.168620	0.281030
H1841	H184	0.854530	0.141070	0.281070
C2491	C249	0.990830	0.467790	0.333290
H1851	H185	0.965330	0.440470	0.344670
H1861	H186	0.025530	0.483370	0.341070
H1871	H187	0.991130	0.452370	0.316770
C2501	C250	0.961930	0.606570	0.323570
C2511	C251	0.011800	0.671740	0.327520
C2521	C252	0.013510	0.710050	0.343510
H1881	H188	0.984530	0.702670	0.354070
C2531	C253	0.057650	0.759410	0.343990
H1891	H189	0.058830	0.785670	0.354870
N301	N30	0.100100	0.770380	0.328490
C2541	C254	0.098400	0.732030	0.312500
H1901	H190	0.127430	0.739570	0.301870
C2551	C255	0.054250	0.682700	0.312020
H1911	H191	0.053130	0.656570	0.301070
C2561	C256	0.862200	0.605960	0.218950
H1921	H192	0.831230	0.602370	0.227670
H1931	H193	0.876130	0.635870	0.207270
H1941	H194	0.888830	0.611470	0.231670
C2571	C257	0.867780	0.492820	0.171620
C2581	C258	0.854120	0.481810	0.141390
C2591	C259	0.902940	0.488720	0.127070
H1951	H195	0.934730	0.495970	0.134970
C2601	C260	0.893770	0.482950	0.101820
H1961	H196	0.924030	0.491670	0.091970
C2611	C261	0.804510	0.454380	0.098350
H1971	H197	0.773730	0.441570	0.088370
C2621	C262	0.805720	0.461600	0.126440
H1981	H198	0.774130	0.452870	0.135070
C2631	C263	0.781840	0.436480	0.041700
C2641	C264	0.134730	0.896070	0.301380
Cu71	Cu7	0.196630	0.711290	0.382080
O551	O55	0.389700	0.893200	0.560680
O561	O56	0.386250	0.932910	0.605420
O571	O57	0.464720	0.947540	0.608930
O581	O58	0.103000	0.619200	0.539330
O591	O59	0.189600	0.671100	0.511690
O601	O60	0.175600	0.740800	0.515390
O611	O61	0.158070	0.800900	0.662820
O621	O62	0.079700	0.712100	0.643600
O631	O63	0.060500	0.657400	0.675100
N311	N31	0.198600	0.717900	0.421610
N321	N32	0.270300	0.673700	0.374330
N331	N33	0.797700	0.605200	0.646720
C2651	C265	0.316430	0.784200	0.619490
C2661	C266	0.337870	0.837020	0.624820
H1991	H199	0.335700	0.848000	0.641600
C2671	C267	0.362360	0.873710	0.605540
C2681	C268	0.365420	0.857580	0.580940
C2691	C269	0.343970	0.804760	0.575610
H2001	H200	0.346000	0.793700	0.558800
C2701	C270	0.319480	0.768070	0.594890
C2711	C271	0.300070	0.712200	0.588340
H2011	H201	0.299800	0.693500	0.604100
H2021	H202	0.324900	0.710500	0.576200
C2721	C272	0.245360	0.683720	0.576490
C2731	C273	0.243440	0.690350	0.550020
H2031	H203	0.274300	0.707900	0.540000
C2741	C274	0.188360	0.667590	0.537830
C2751	C275	0.151820	0.642780	0.552930
C2761	C276	0.153030	0.634240	0.579920
H2041	H204	0.122400	0.613500	0.589700
C2771	C277	0.206160	0.660540	0.591180
C2781	C278	0.203470	0.652010	0.619700
H2051	H205	0.236600	0.655300	0.625800
H2061	H206	0.175000	0.616400	0.623800
C2791	C279	0.193790	0.691640	0.633180
C2801	C280	0.144510	0.683080	0.636140
H2071	H207	0.116100	0.650600	0.630700
C2811	C281	0.134380	0.718110	0.646300
C2821	C282	0.170960	0.763750	0.653910
C2831	C283	0.224790	0.776840	0.651440
H2081	H208	0.252800	0.810400	0.655900
C2841	C284	0.233510	0.737000	0.642050
C2851	C285	0.289850	0.754120	0.640230
H2091	H209	0.307200	0.774000	0.655900
H2101	H210	0.293400	0.722600	0.640100
C2861	C286	0.390650	0.879370	0.534820
H2111	H211	0.404300	0.855300	0.533900
H2121	H212	0.413100	0.910800	0.524900
H2131	H213	0.355200	0.862400	0.527800
C2871	C287	0.440070	0.967760	0.605160
C2881	C288	0.446750	0.014480	0.611490
C2891	C289	0.406400	0.025680	0.611450
H2141	H214	0.371300	0.998300	0.609500
C2901	C290	0.417360	0.076880	0.614270
H2151	H215	0.389700	0.084500	0.614200
N341	N34	0.468650	0.116870	0.617140
C2911	C291	0.509010	0.105680	0.617180
H2161	H216	0.544100	0.133000	0.619100
C2921	C292	0.498050	0.054480	0.614360
H2171	H217	0.525600	0.046800	0.614400
C2931	C293	0.198880	0.856380	0.666620
H2181	H218	0.226200	0.858200	0.678000
H2191	H219	0.183300	0.875500	0.674400
H2201	H220	0.214300	0.872100	0.650100
C2941	C294	0.060100	0.688700	0.656900
C2951	C295	0.994930	0.673400	0.660850
C2961	C296	0.956620	0.636800	0.676840
H2211	H221	0.964000	0.615200	0.687400
C2971	C297	0.907260	0.631580	0.677320
H2221	H222	0.881000	0.606500	0.688200
N351	N35	0.896290	0.663060	0.661820
C2981	C298	0.934640	0.699710	0.645830
H2231	H223	0.927100	0.721200	0.635200
C2991	C299	0.983970	0.704890	0.645350
H2241	H224	0.010100	0.729900	0.634400
C3001	C300	0.060710	0.589580	0.552280
H2251	H225	0.064300	0.562200	0.561000
H2261	H226	0.030800	0.573600	0.540600
H2271	H227	0.055200	0.610700	0.565000
C3011	C301	0.173850	0.708300	0.504950
C3021	C302	0.184860	0.705650	0.474720
C3031	C303	0.177950	0.747560	0.460400
H2281	H228	0.170700	0.772100	0.468300
C3041	C304	0.183720	0.744160	0.435150
H2291	H229	0.175000	0.765700	0.425300
C3051	C305	0.212290	0.683470	0.431680
H2301	H230	0.225100	0.665500	0.421700
C3061	C306	0.205070	0.677460	0.459770
H2311	H231	0.213800	0.654600	0.468400
C3071	C307	0.230190	0.678700	0.375030
C3081	C308	0.770600	0.572000	0.634710
Cu81	Cu8	0.863300	0.044620	0.715410
O641	O64	0.056370	0.226530	0.894010
O651	O65	0.052920	0.266240	0.938750
O661	O66	0.131390	0.280870	0.942260
O671	O67	0.769670	0.952530	0.872660
O681	O68	0.856270	0.004430	0.845020
O691	O69	0.842270	0.074130	0.848720
O701	O70	0.824740	0.134230	0.996150
O711	O71	0.746370	0.045430	0.976930
O721	O72	0.727170	0.990730	0.008430
N361	N36	0.865270	0.051230	0.754940
N371	N37	0.936970	0.007030	0.707660
N381	N38	0.464370	0.938530	0.980050
C3091	C309	0.983100	0.117530	0.952820
C3101	C310	0.004540	0.170350	0.958150
H2321	H232	0.002370	0.181330	0.974930
C3111	C311	0.029030	0.207040	0.938870
C3121	C312	0.032090	0.190910	0.914270
C3131	C313	0.010640	0.138090	0.908940
H2331	H233	0.012670	0.127030	0.892130
C3141	C314	0.986150	0.101400	0.928220
C3151	C315	0.966740	0.045530	0.921670
H2341	H234	0.966470	0.026830	0.937430
H2351	H235	0.991570	0.043830	0.909530
C3161	C316	0.912030	0.017050	0.909820
C3171	C317	0.910110	0.023680	0.883350
H2361	H236	0.940970	0.041230	0.873330
C3181	C318	0.855030	0.000920	0.871160
C3191	C319	0.818490	0.976110	0.886260
C3201	C320	0.819700	0.967570	0.913250
H2371	H237	0.789070	0.946830	0.923030
C3211	C321	0.872830	0.993870	0.924510
C3221	C322	0.870140	0.985340	0.953030
H2381	H238	0.903270	0.988630	0.959130
H2391	H239	0.841670	0.949730	0.957130
C3231	C323	0.860460	0.024970	0.966510
C3241	C324	0.811180	0.016410	0.969470
H2401	H240	0.782770	0.983930	0.964030
C3251	C325	0.801050	0.051440	0.979630
C3261	C326	0.837630	0.097080	0.987240
C3271	C327	0.891460	0.110170	0.984770
H2411	H241	0.919470	0.143730	0.989230
C3281	C328	0.900180	0.070330	0.975380
C3291	C329	0.956520	0.087450	0.973560
H2421	H242	0.973870	0.107330	0.989230
H2431	H243	0.960070	0.055930	0.973430
C3301	C330	0.057320	0.212700	0.868150
H2441	H244	0.070970	0.188630	0.867230
H2451	H245	0.079770	0.244130	0.858230
H2461	H246	0.021870	0.195730	0.861130
C3311	C331	0.106740	0.301090	0.938490
C3321	C332	0.113420	0.347810	0.944820
C3331	C333	0.073070	0.359010	0.944780
H2471	H247	0.037970	0.331630	0.942830
C3341	C334	0.084030	0.410210	0.947600
H2481	H248	0.056370	0.417830	0.947530
N391	N39	0.135320	0.450200	0.950470
C3351	C335	0.175680	0.439010	0.950510
H2491	H249	0.210770	0.466330	0.952430
C3361	C336	0.164720	0.387810	0.947690
H2501	H250	0.192270	0.380130	0.947730
C3371	C337	0.865550	0.189710	0.999950
H2511	H251	0.892870	0.191530	0.011330
H2521	H252	0.849970	0.208830	0.007730
H2531	H253	0.880970	0.205430	0.983430
C3381	C338	0.726770	0.022030	0.990230
C3391	C339	0.661600	0.006730	0.994180
C3401	C340	0.623290	0.970130	0.010170
H2541	H254	0.630670	0.948530	0.020730
C3411	C341	0.573930	0.964910	0.010650
H2551	H255	0.547670	0.939830	0.021530
N401	N40	0.562960	0.996390	0.995150
C3421	C342	0.601310	0.033040	0.979160
H2561	H256	0.593770	0.054530	0.968530
C3431	C343	0.650640	0.038220	0.978680
H2571	H257	0.676770	0.063230	0.967730
C3441	C344	0.727380	0.922910	0.885610
H2581	H258	0.730970	0.895530	0.894330
H2591	H259	0.697470	0.906930	0.873930
H2601	H260	0.721870	0.944030	0.898330
C3451	C345	0.840520	0.041630	0.838280
C3461	C346	0.851530	0.038980	0.808050
C3471	C347	0.844620	0.080890	0.793730
H2611	H261	0.837370	0.105430	0.801630
C3481	C348	0.850390	0.077490	0.768480
H2621	H262	0.841670	0.099030	0.758630
C3491	C349	0.878960	0.016800	0.765010
H2631	H263	0.891770	0.998830	0.755030
C3501	C350	0.871740	0.010790	0.793100
H2641	H264	0.880470	0.987930	0.801730
C3511	C351	0.896860	0.012030	0.708360
C3521	C352	0.437270	0.905330	0.968040
Cu91	Cu9	0.529960	0.377960	0.048750
O731	O73	0.723030	0.559870	0.227350
O741	O74	0.719580	0.599580	0.272090
O751	O75	0.798050	0.614210	0.275600
O761	O76	0.436330	0.285870	0.206000
O771	O77	0.522930	0.337770	0.178360
O781	O78	0.508930	0.407470	0.182060
O791	O79	0.491400	0.467570	0.329490
O801	O80	0.413030	0.378770	0.310270
O811	O81	0.393830	0.324070	0.341770
N411	N41	0.531930	0.384570	0.088280
N421	N42	0.603630	0.340370	0.041000
N431	N43	0.131030	0.271870	0.313390
C3531	C353	0.649760	0.450870	0.286160
C3541	C354	0.671200	0.503690	0.291490
H2651	H265	0.669030	0.514670	0.308270
C3551	C355	0.695690	0.540380	0.272210
C3561	C356	0.698750	0.524250	0.247610
C3571	C357	0.677300	0.471430	0.242280
H2661	H266	0.679330	0.460370	0.225470
C3581	C358	0.652810	0.434740	0.261560
C3591	C359	0.633400	0.378870	0.255010
H2671	H267	0.633130	0.360170	0.270770
H2681	H268	0.658230	0.377170	0.242870
C3601	C360	0.578690	0.350390	0.243160
C3611	C361	0.576770	0.357020	0.216690
H2691	H269	0.607630	0.374570	0.206670
C3621	C362	0.521690	0.334260	0.204500
C3631	C363	0.485150	0.309450	0.219600
C3641	C364	0.486360	0.300910	0.246590
H2701	H270	0.455730	0.280170	0.256370
C3651	C365	0.539490	0.327210	0.257850
C3661	C366	0.536800	0.318680	0.286370
H2711	H271	0.569930	0.321970	0.292470
H2721	H272	0.508330	0.283070	0.290470
C3671	C367	0.527120	0.358310	0.299850
C3681	C368	0.477840	0.349750	0.302810
H2731	H273	0.449430	0.317270	0.297370
C3691	C369	0.467710	0.384780	0.312970
C3701	C370	0.504290	0.430420	0.320580
C3711	C371	0.558120	0.443510	0.318110
H2741	H274	0.586130	0.477070	0.322570
C3721	C372	0.566840	0.403670	0.308720
C3731	C373	0.623180	0.420790	0.306900
H2751	H275	0.640530	0.440670	0.322570
H2761	H276	0.626730	0.389270	0.306770
C3741	C374	0.723980	0.546040	0.201490
H2771	H277	0.737630	0.521970	0.200570
H2781	H278	0.746430	0.577470	0.191570
H2791	H279	0.688530	0.529070	0.194470
C3751	C375	0.773400	0.634430	0.271830
C3761	C376	0.780080	0.681150	0.278160
C3771	C377	0.739730	0.692350	0.278120
H2801	H280	0.704630	0.664970	0.276170
C3781	C378	0.750690	0.743550	0.280940
H2811	H281	0.723030	0.751170	0.280870
N441	N44	0.801980	0.783540	0.283810
C3791	C379	0.842340	0.772350	0.283850
H2821	H282	0.877430	0.799670	0.285770
C3801	C380	0.831380	0.721150	0.281030
H2831	H283	0.858930	0.713470	0.281070
C3811	C381	0.532210	0.523050	0.333290
H2841	H284	0.559530	0.524870	0.344670
H2851	H285	0.516630	0.542170	0.341070
H2861	H286	0.547630	0.538770	0.316770
C3821	C382	0.393430	0.355370	0.323570
C3831	C383	0.328260	0.340070	0.327520
C3841	C384	0.289950	0.303470	0.343510
H2871	H287	0.297330	0.281870	0.354070
C3851	C385	0.240590	0.298250	0.343990
H2881	H288	0.214330	0.273170	0.354870
N451	N45	0.229620	0.329730	0.328490
C3861	C386	0.267970	0.366380	0.312500
H2891	H289	0.260430	0.387870	0.301870
C3871	C387	0.317300	0.371560	0.312020
H2901	H290	0.343430	0.396570	0.301070
C3881	C388	0.394040	0.256250	0.218950
H2911	H291	0.397630	0.228870	0.227670
H2921	H292	0.364130	0.240270	0.207270
H2931	H293	0.388530	0.277370	0.231670
C3891	C389	0.507180	0.374970	0.171620
C3901	C390	0.518190	0.372320	0.141390
C3911	C391	0.511280	0.414230	0.127070
H2941	H294	0.504030	0.438770	0.134970
C3921	C392	0.517050	0.410830	0.101820
H2951	H295	0.508330	0.432370	0.091970
C3931	C393	0.545620	0.350140	0.098350
H2961	H296	0.558430	0.332170	0.088370
C3941	C394	0.538400	0.344130	0.126440
H2971	H297	0.547130	0.321270	0.135070
C3951	C395	0.563520	0.345370	0.041700
C3961	C396	0.103930	0.238670	0.301380
Cu101	Cu10	0.711290	0.514660	0.617920
O821	O82	0.893200	0.503500	0.439320
O831	O83	0.932910	0.546660	0.394580
O841	O84	0.947540	0.482820	0.391070
O851	O85	0.619200	0.516200	0.460670
O861	O86	0.671100	0.481500	0.488310
O871	O87	0.740800	0.565200	0.484610
O881	O88	0.800900	0.642830	0.337180
O891	O89	0.712100	0.632400	0.356400
O901	O90	0.657400	0.596900	0.324900
N461	N46	0.717900	0.519300	0.578390
N471	N47	0.673700	0.403400	0.625670
N481	N48	0.605200	0.807500	0.353280
C3971	C397	0.784200	0.467770	0.380510
C3981	C398	0.837020	0.499150	0.375180
H2981	H298	0.848000	0.512300	0.358400
C3991	C399	0.873710	0.511350	0.394460
C4001	C400	0.857580	0.492160	0.419060
C4011	C401	0.804760	0.460790	0.424390
H2991	H299	0.793700	0.447700	0.441200
C4021	C402	0.768070	0.448590	0.405110
C4031	C403	0.712200	0.412130	0.411660
H3001	H300	0.693500	0.393700	0.395900
H3011	H301	0.710500	0.385600	0.423800
C4041	C404	0.683720	0.438360	0.423510
C4051	C405	0.690350	0.446910	0.449980
H3021	H302	0.707900	0.433600	0.460000
C4061	C406	0.667590	0.479230	0.462170
C4071	C407	0.642780	0.490960	0.447070
C4081	C408	0.634240	0.481210	0.420080
H3031	H303	0.613500	0.491100	0.410300
C4091	C409	0.660540	0.454380	0.408820
C4101	C410	0.652010	0.448540	0.380300
H3041	H304	0.655300	0.418700	0.374200
H3051	H305	0.616400	0.441400	0.376200
C4111	C411	0.691640	0.497850	0.366820
C4121	C412	0.683080	0.538570	0.363860
H3061	H306	0.650600	0.534500	0.369300
C4131	C413	0.718110	0.583730	0.353700
C4141	C414	0.763750	0.592790	0.346090
C4151	C415	0.776840	0.552050	0.348560
H3071	H307	0.810400	0.557600	0.344100
C4161	C416	0.737000	0.503490	0.357950
C4171	C417	0.754120	0.464270	0.359770
H3081	H308	0.774000	0.466800	0.344100
H3091	H309	0.722600	0.429200	0.359900
C4181	C418	0.879370	0.488720	0.465180
H3101	H310	0.855300	0.451000	0.466100
H3111	H311	0.910800	0.497700	0.475100
H3121	H312	0.862400	0.507200	0.472200
C4191	C419	0.967760	0.527690	0.394840
C4201	C420	0.014480	0.567730	0.388510
C4211	C421	0.025680	0.619280	0.388550
H3131	H313	0.998300	0.627000	0.390500
C4221	C422	0.076880	0.659520	0.385730
H3141	H314	0.084500	0.694800	0.385800
N491	N49	0.116870	0.648220	0.382860
C4231	C423	0.105680	0.596670	0.382820
H3151	H315	0.133000	0.588900	0.380900
C4241	C424	0.054480	0.556430	0.385640
H3161	H316	0.046800	0.521200	0.385600
C4251	C425	0.856380	0.657500	0.333380
H3171	H317	0.858200	0.632000	0.322000
H3181	H318	0.875500	0.692200	0.325600
H3191	H319	0.872100	0.657800	0.349900
C4261	C426	0.688700	0.628600	0.343100
C4271	C427	0.673400	0.678470	0.339150
C4281	C428	0.636800	0.680180	0.323160
H3201	H320	0.615200	0.651200	0.312600
C4291	C429	0.631580	0.724320	0.322680
H3211	H321	0.606500	0.725500	0.311800
N501	N50	0.663060	0.766770	0.338180
C4301	C430	0.699710	0.765070	0.354170
H3221	H322	0.721200	0.794100	0.364800
C4311	C431	0.704890	0.720920	0.354650
H3231	H323	0.729900	0.719800	0.365600
C4321	C432	0.589580	0.528870	0.447720
H3241	H324	0.562200	0.497900	0.439000
H3251	H325	0.573600	0.542800	0.459400
H3261	H326	0.610700	0.555500	0.435000
C4331	C433	0.708300	0.534450	0.495050
C4341	C434	0.705650	0.520790	0.525280
C4351	C435	0.747560	0.569610	0.539600
H3271	H327	0.772100	0.601400	0.531700
C4361	C436	0.744160	0.560440	0.564850
H3281	H328	0.765700	0.590700	0.574700
C4371	C437	0.683470	0.471180	0.568320
H3291	H329	0.665500	0.440400	0.578300
C4381	C438	0.677460	0.472390	0.540230
H3301	H330	0.654600	0.440800	0.531600
C4391	C439	0.678700	0.448510	0.624970
C4401	C440	0.572000	0.801400	0.365290
Cu111	Cu11	0.377960	0.847990	0.951250
O911	O91	0.559870	0.836830	0.772650
O921	O92	0.599580	0.879990	0.727910
O931	O93	0.614210	0.816150	0.724400
O941	O94	0.285870	0.849530	0.794000
O951	O95	0.337770	0.814830	0.821640
O961	O96	0.407470	0.898530	0.817940
O971	O97	0.467570	0.976160	0.670510
O981	O98	0.378770	0.965730	0.689730
O991	O99	0.324070	0.930230	0.658230
N511	N51	0.384570	0.852630	0.911720
N521	N52	0.340370	0.736730	0.959000
N531	N53	0.271870	0.140830	0.686610
C4411	C441	0.450870	0.801100	0.713840
C4421	C442	0.503690	0.832480	0.708510
H3311	H331	0.514670	0.845630	0.691730
C4431	C443	0.540380	0.844680	0.727790
C4441	C444	0.524250	0.825490	0.752390
C4451	C445	0.471430	0.794120	0.757720
H3321	H332	0.460370	0.781030	0.774530
C4461	C446	0.434740	0.781920	0.738440
C4471	C447	0.378870	0.745460	0.744990
H3331	H333	0.360170	0.727030	0.729230
H3341	H334	0.377170	0.718930	0.757130
C4481	C448	0.350390	0.771690	0.756840
C4491	C449	0.357020	0.780240	0.783310
H3351	H335	0.374570	0.766930	0.793330
C4501	C450	0.334260	0.812560	0.795500
C4511	C451	0.309450	0.824290	0.780400
C4521	C452	0.300910	0.814540	0.753410
H3361	H336	0.280170	0.824430	0.743630
C4531	C453	0.327210	0.787710	0.742150
C4541	C454	0.318680	0.781870	0.713630
H3371	H337	0.321970	0.752030	0.707530
H3381	H338	0.283070	0.774730	0.709530
C4551	C455	0.358310	0.831180	0.700150
C4561	C456	0.349750	0.871900	0.697190
H3391	H339	0.317270	0.867830	0.702630
C4571	C457	0.384780	0.917060	0.687030
C4581	C458	0.430420	0.926120	0.679420
C4591	C459	0.443510	0.885380	0.681890
H3401	H340	0.477070	0.890930	0.677430
C4601	C460	0.403670	0.836820	0.691280
C4611	C461	0.420790	0.797600	0.693100
H3411	H341	0.440670	0.800130	0.677430
H3421	H342	0.389270	0.762530	0.693230
C4621	C462	0.546040	0.822050	0.798510
H3431	H343	0.521970	0.784330	0.799430
H3441	H344	0.577470	0.831030	0.808430
H3451	H345	0.529070	0.840530	0.805530
C4631	C463	0.634430	0.861020	0.728170
C4641	C464	0.681150	0.901060	0.721840
C4651	C465	0.692350	0.952610	0.721880
H3461	H346	0.664970	0.960330	0.723830
C4661	C466	0.743550	0.992850	0.719060
H3471	H347	0.751170	0.028130	0.719130
N541	N54	0.783540	0.981550	0.716190
C4671	C467	0.772350	0.930000	0.716150
H3481	H348	0.799670	0.922230	0.714230
C4681	C468	0.721150	0.889760	0.718970
H3491	H349	0.713470	0.854530	0.718930
C4691	C469	0.523050	0.990830	0.666710
H3501	H350	0.524870	0.965330	0.655330
H3511	H351	0.542170	0.025530	0.658930
H3521	H352	0.538770	0.991130	0.683230
C4701	C470	0.355370	0.961930	0.676430
C4711	C471	0.340070	0.011800	0.672480
C4721	C472	0.303470	0.013510	0.656490
H3531	H353	0.281870	0.984530	0.645930
C4731	C473	0.298250	0.057650	0.656010
H3541	H354	0.273170	0.058830	0.645130
N551	N55	0.329730	0.100100	0.671510
C4741	C474	0.366380	0.098400	0.687500
H3551	H355	0.387870	0.127430	0.698130
C4751	C475	0.371560	0.054250	0.687980
H3561	H356	0.396570	0.053130	0.698930
C4761	C476	0.256250	0.862200	0.781050
H3571	H357	0.228870	0.831230	0.772330
H3581	H358	0.240270	0.876130	0.792730
H3591	H359	0.277370	0.888830	0.768330
C4771	C477	0.374970	0.867780	0.828380
C4781	C478	0.372320	0.854120	0.858610
C4791	C479	0.414230	0.902940	0.872930
H3601	H360	0.438770	0.934730	0.865030
C4801	C480	0.410830	0.893770	0.898180
H3611	H361	0.432370	0.924030	0.908030
C4811	C481	0.350140	0.804510	0.901650
H3621	H362	0.332170	0.773730	0.911630
C4821	C482	0.344130	0.805720	0.873560
H3631	H363	0.321270	0.774130	0.864930
C4831	C483	0.345370	0.781840	0.958300
C4841	C484	0.238670	0.134730	0.698620
Cu121	Cu12	0.044620	0.181330	0.284590
O1001	O100	0.226530	0.170170	0.105990
O1011	O101	0.266240	0.213330	0.061250
O1021	O102	0.280870	0.149490	0.057740
O1031	O103	0.952530	0.182870	0.127340
O1041	O104	0.004430	0.148170	0.154980
O1051	O105	0.074130	0.231870	0.151280
O1061	O106	0.134230	0.309500	0.003850
O1071	O107	0.045430	0.299070	0.023070
O1081	O108	0.990730	0.263570	0.991570
N561	N56	0.051230	0.185970	0.245060
N571	N57	0.007030	0.070070	0.292340
N581	N58	0.938530	0.474170	0.019950
C4851	C485	0.117530	0.134440	0.047180
C4861	C486	0.170350	0.165820	0.041850
H3641	H364	0.181330	0.178970	0.025070
C4871	C487	0.207040	0.178020	0.061130
C4881	C488	0.190910	0.158830	0.085730
C4891	C489	0.138090	0.127460	0.091060
H3651	H365	0.127030	0.114370	0.107870
C4901	C490	0.101400	0.115260	0.071780
C4911	C491	0.045530	0.078800	0.078330
H3661	H366	0.026830	0.060370	0.062570
H3671	H367	0.043830	0.052270	0.090470
C4921	C492	0.017050	0.105030	0.090180
C4931	C493	0.023680	0.113580	0.116650
H3681	H368	0.041230	0.100270	0.126670
C4941	C494	0.000920	0.145900	0.128840
C4951	C495	0.976110	0.157630	0.113740
C4961	C496	0.967570	0.147880	0.086750
H3691	H369	0.946830	0.157770	0.076970
C4971	C497	0.993870	0.121050	0.075490
C4981	C498	0.985340	0.115210	0.046970
H3701	H370	0.988630	0.085370	0.040870
H3711	H371	0.949730	0.108070	0.042870
C4991	C499	0.024970	0.164520	0.033490
C5001	C500	0.016410	0.205240	0.030530
H3721	H372	0.983930	0.201170	0.035970
C5011	C501	0.051440	0.250400	0.020370
C5021	C502	0.097080	0.259460	0.012760
C5031	C503	0.110170	0.218720	0.015230
H3731	H373	0.143730	0.224270	0.010770
C5041	C504	0.070330	0.170160	0.024620
C5051	C505	0.087450	0.130940	0.026440
H3741	H374	0.107330	0.133470	0.010770
H3751	H375	0.055930	0.095870	0.026570
C5061	C506	0.212700	0.155390	0.131850
H3761	H376	0.188630	0.117670	0.132770
H3771	H377	0.244130	0.164370	0.141770
H3781	H378	0.195730	0.173870	0.138870
C5071	C507	0.301090	0.194360	0.061510
C5081	C508	0.347810	0.234400	0.055180
C5091	C509	0.359010	0.285950	0.055220
H3791	H379	0.331630	0.293670	0.057170
C5101	C510	0.410210	0.326190	0.052400
H3801	H380	0.417830	0.361470	0.052470
N591	N59	0.450200	0.314890	0.049530
C5111	C511	0.439010	0.263340	0.049490
H3811	H381	0.466330	0.255570	0.047570
C5121	C512	0.387810	0.223100	0.052310
H3821	H382	0.380130	0.187870	0.052270
C5131	C513	0.189710	0.324170	0.000050
H3831	H383	0.191530	0.298670	0.988670
H3841	H384	0.208830	0.358870	0.992270
H3851	H385	0.205430	0.324470	0.016570
C5141	C514	0.022030	0.295270	0.009770
C5151	C515	0.006730	0.345140	0.005820
C5161	C516	0.970130	0.346850	0.989830
H3861	H386	0.948530	0.317870	0.979270
C5171	C517	0.964910	0.390990	0.989350
H3871	H387	0.939830	0.392170	0.978470
N601	N60	0.996390	0.433440	0.004850
C5181	C518	0.033040	0.431740	0.020840
H3881	H388	0.054530	0.460770	0.031470
C5191	C519	0.038220	0.387590	0.021320
H3891	H389	0.063230	0.386470	0.032270
C5201	C520	0.922910	0.195540	0.114390
H3901	H390	0.895530	0.164570	0.105670
H3911	H391	0.906930	0.209470	0.126070
H3921	H392	0.944030	0.222170	0.101670
C5211	C521	0.041630	0.201120	0.161720
C5221	C522	0.038980	0.187460	0.191950
C5231	C523	0.080890	0.236280	0.206270
H3931	H393	0.105430	0.268070	0.198370
C5241	C524	0.077490	0.227110	0.231520
H3941	H394	0.099030	0.257370	0.241370
C5251	C525	0.016800	0.137850	0.234990
H3951	H395	0.998830	0.107070	0.244970
C5261	C526	0.010790	0.139060	0.206900
H3961	H396	0.987930	0.107470	0.198270
C5271	C527	0.012030	0.115180	0.291640
C5281	C528	0.905330	0.468070	0.031960
Cu131	Cu13	0.485340	0.196630	0.617920
O1091	O109	0.496500	0.389700	0.439320
O1101	O110	0.453340	0.386250	0.394580
O1111	O111	0.517180	0.464720	0.391070
O1121	O112	0.483800	0.103000	0.460670
O1131	O113	0.518500	0.189600	0.488310
O1141	O114	0.434800	0.175600	0.484610
O1151	O115	0.357170	0.158070	0.337180
O1161	O116	0.367600	0.079700	0.356400
O1171	O117	0.403100	0.060500	0.324900
N611	N61	0.480700	0.198600	0.578390
N621	N62	0.596600	0.270300	0.625670
N631	N63	0.192500	0.797700	0.353280
C5291	C529	0.532230	0.316430	0.380510
C5301	C530	0.500850	0.337870	0.375180
H3971	H397	0.487700	0.335700	0.358400
C5311	C531	0.488650	0.362360	0.394460
C5321	C532	0.507840	0.365420	0.419060
C5331	C533	0.539210	0.343970	0.424390
H3981	H398	0.552300	0.346000	0.441200
C5341	C534	0.551410	0.319480	0.405110
C5351	C535	0.587870	0.300070	0.411660
H3991	H399	0.606300	0.299800	0.395900
H4001	H400	0.614400	0.324900	0.423800
C5361	C536	0.561640	0.245360	0.423510
C5371	C537	0.553090	0.243440	0.449980
H4011	H401	0.566400	0.274300	0.460000
C5381	C538	0.520770	0.188360	0.462170
C5391	C539	0.509040	0.151820	0.447070
C5401	C540	0.518790	0.153030	0.420080
H4021	H402	0.508900	0.122400	0.410300
C5411	C541	0.545620	0.206160	0.408820
C5421	C542	0.551460	0.203470	0.380300
H4031	H403	0.581300	0.236600	0.374200
H4041	H404	0.558600	0.175000	0.376200
C5431	C543	0.502150	0.193790	0.366820
C5441	C544	0.461430	0.144510	0.363860
H4051	H405	0.465500	0.116100	0.369300
C5451	C545	0.416270	0.134380	0.353700
C5461	C546	0.407210	0.170960	0.346090
C5471	C547	0.447950	0.224790	0.348560
H4061	H406	0.442400	0.252800	0.344100
C5481	C548	0.496510	0.233510	0.357950
C5491	C549	0.535730	0.289850	0.359770
H4071	H407	0.533200	0.307200	0.344100
H4081	H408	0.570800	0.293400	0.359900
C5501	C550	0.511280	0.390650	0.465180
H4091	H409	0.549000	0.404300	0.466100
H4101	H410	0.502300	0.413100	0.475100
H4111	H411	0.492800	0.355200	0.472200
C5511	C551	0.472310	0.440070	0.394840
C5521	C552	0.432270	0.446750	0.388510
C5531	C553	0.380720	0.406400	0.388550
H4121	H412	0.373000	0.371300	0.390500
C5541	C554	0.340480	0.417360	0.385730
H4131	H413	0.305200	0.389700	0.385800
N641	N64	0.351780	0.468650	0.382860
C5551	C555	0.403330	0.509010	0.382820
H4141	H414	0.411100	0.544100	0.380900
C5561	C556	0.443570	0.498050	0.385640
H4151	H415	0.478800	0.525600	0.385600
C5571	C557	0.342500	0.198880	0.333380
H4161	H416	0.368000	0.226200	0.322000
H4171	H417	0.307800	0.183300	0.325600
H4181	H418	0.342200	0.214300	0.349900
C5581	C558	0.371400	0.060100	0.343100
C5591	C559	0.321530	0.994930	0.339150
C5601	C560	0.319820	0.956620	0.323160
H4191	H419	0.348800	0.964000	0.312600
C5611	C561	0.275680	0.907260	0.322680
H4201	H420	0.274500	0.881000	0.311800
N651	N65	0.233230	0.896290	0.338180
C5621	C562	0.234930	0.934640	0.354170
H4211	H421	0.205900	0.927100	0.364800
C5631	C563	0.279080	0.983970	0.354650
H4221	H422	0.280200	0.010100	0.365600
C5641	C564	0.471130	0.060710	0.447720
H4231	H423	0.502100	0.064300	0.439000
H4241	H424	0.457200	0.030800	0.459400
H4251	H425	0.444500	0.055200	0.435000
C5651	C565	0.465550	0.173850	0.495050
C5661	C566	0.479210	0.184860	0.525280
C5671	C567	0.430390	0.177950	0.539600
H4261	H426	0.398600	0.170700	0.531700
C5681	C568	0.439560	0.183720	0.564850
H4271	H427	0.409300	0.175000	0.574700
C5691	C569	0.528820	0.212290	0.568320
H4281	H428	0.559600	0.225100	0.578300
C5701	C570	0.527610	0.205070	0.540230
H4291	H429	0.559200	0.213800	0.531600
C5711	C571	0.551490	0.230190	0.624970
C5721	C572	0.198600	0.770600	0.365290
Cu141	Cu14	0.152010	0.529960	0.951250
O1181	O118	0.163170	0.723030	0.772650
O1191	O119	0.120010	0.719580	0.727910
O1201	O120	0.183850	0.798050	0.724400
O1211	O121	0.150470	0.436330	0.794000
O1221	O122	0.185170	0.522930	0.821640
O1231	O123	0.101470	0.508930	0.817940
O1241	O124	0.023840	0.491400	0.670510
O1251	O125	0.034270	0.413030	0.689730
O1261	O126	0.069770	0.393830	0.658230
N661	N66	0.147370	0.531930	0.911720
N671	N67	0.263270	0.603630	0.959000
N681	N68	0.859170	0.131030	0.686610
C5731	C573	0.198900	0.649760	0.713840
C5741	C574	0.167520	0.671200	0.708510
H4301	H430	0.154370	0.669030	0.691730
C5751	C575	0.155320	0.695690	0.727790
C5761	C576	0.174510	0.698750	0.752390
C5771	C577	0.205880	0.677300	0.757720
H4311	H431	0.218970	0.679330	0.774530
C5781	C578	0.218080	0.652810	0.738440
C5791	C579	0.254540	0.633400	0.744990
H4321	H432	0.272970	0.633130	0.729230
H4331	H433	0.281070	0.658230	0.757130
C5801	C580	0.228310	0.578690	0.756840
C5811	C581	0.219760	0.576770	0.783310
H4341	H434	0.233070	0.607630	0.793330
C5821	C582	0.187440	0.521690	0.795500
C5831	C583	0.175710	0.485150	0.780400
C5841	C584	0.185460	0.486360	0.753410
H4351	H435	0.175570	0.455730	0.743630
C5851	C585	0.212290	0.539490	0.742150
C5861	C586	0.218130	0.536800	0.713630
H4361	H436	0.247970	0.569930	0.707530
H4371	H437	0.225270	0.508330	0.709530
C5871	C587	0.168820	0.527120	0.700150
C5881	C588	0.128100	0.477840	0.697190
H4381	H438	0.132170	0.449430	0.702630
C5891	C589	0.082940	0.467710	0.687030
C5901	C590	0.073880	0.504290	0.679420
C5911	C591	0.114620	0.558120	0.681890
H4391	H439	0.109070	0.586130	0.677430
C5921	C592	0.163180	0.566840	0.691280
C5931	C593	0.202400	0.623180	0.693100
H4401	H440	0.199870	0.640530	0.677430
H4411	H441	0.237470	0.626730	0.693230
C5941	C594	0.177950	0.723980	0.798510
H4421	H442	0.215670	0.737630	0.799430
H4431	H443	0.168970	0.746430	0.808430
H4441	H444	0.159470	0.688530	0.805530
C5951	C595	0.138980	0.773400	0.728170
C5961	C596	0.098940	0.780080	0.721840
C5971	C597	0.047390	0.739730	0.721880
H4451	H445	0.039670	0.704630	0.723830
C5981	C598	0.007150	0.750690	0.719060
H4461	H446	0.971870	0.723030	0.719130
N691	N69	0.018450	0.801980	0.716190
C5991	C599	0.070000	0.842340	0.716150
H4471	H447	0.077770	0.877430	0.714230
C6001	C600	0.110240	0.831380	0.718970
H4481	H448	0.145470	0.858930	0.718930
C6011	C601	0.009170	0.532210	0.666710
H4491	H449	0.034670	0.559530	0.655330
H4501	H450	0.974470	0.516630	0.658930
H4511	H451	0.008870	0.547630	0.683230
C6021	C602	0.038070	0.393430	0.676430
C6031	C603	0.988200	0.328260	0.672480
C6041	C604	0.986490	0.289950	0.656490
H4521	H452	0.015470	0.297330	0.645930
C6051	C605	0.942350	0.240590	0.656010
H4531	H453	0.941170	0.214330	0.645130
N701	N70	0.899900	0.229620	0.671510
C6061	C606	0.901600	0.267970	0.687500
H4541	H454	0.872570	0.260430	0.698130
C6071	C607	0.945750	0.317300	0.687980
H4551	H455	0.946870	0.343430	0.698930
C6081	C608	0.137800	0.394040	0.781050
H4561	H456	0.168770	0.397630	0.772330
H4571	H457	0.123870	0.364130	0.792730
H4581	H458	0.111170	0.388530	0.768330
C6091	C609	0.132220	0.507180	0.828380
C6101	C610	0.145880	0.518190	0.858610
C6111	C611	0.097060	0.511280	0.872930
H4591	H459	0.065270	0.504030	0.865030
C6121	C612	0.106230	0.517050	0.898180
H4601	H460	0.075970	0.508330	0.908030
C6131	C613	0.195490	0.545620	0.901650
H4611	H461	0.226270	0.558430	0.911630
C6141	C614	0.194280	0.538400	0.873560
H4621	H462	0.225870	0.547130	0.864930
C6151	C615	0.218160	0.563520	0.958300
C6161	C616	0.865270	0.103930	0.698620
Cu151	Cu15	0.818670	0.863300	0.284590
O1271	O127	0.829830	0.056370	0.105990
O1281	O128	0.786670	0.052920	0.061250
O1291	O129	0.850510	0.131390	0.057740
O1301	O130	0.817130	0.769670	0.127340
O1311	O131	0.851830	0.856270	0.154980
O1321	O132	0.768130	0.842270	0.151280
O1331	O133	0.690500	0.824740	0.003850
O1341	O134	0.700930	0.746370	0.023070
O1351	O135	0.736430	0.727170	0.991570
N711	N71	0.814030	0.865270	0.245060
N721	N72	0.929930	0.936970	0.292340
N731	N73	0.525830	0.464370	0.019950
C6171	C617	0.865560	0.983100	0.047180
C6181	C618	0.834180	0.004540	0.041850
H4631	H463	0.821030	0.002370	0.025070
C6191	C619	0.821980	0.029030	0.061130
C6201	C620	0.841170	0.032090	0.085730
C6211	C621	0.872540	0.010640	0.091060
H4641	H464	0.885630	0.012670	0.107870
C6221	C622	0.884740	0.986150	0.071780
C6231	C623	0.921200	0.966740	0.078330
H4651	H465	0.939630	0.966470	0.062570
H4661	H466	0.947730	0.991570	0.090470
C6241	C624	0.894970	0.912030	0.090180
C6251	C625	0.886420	0.910110	0.116650
H4671	H467	0.899730	0.940970	0.126670
C6261	C626	0.854100	0.855030	0.128840
C6271	C627	0.842370	0.818490	0.113740
C6281	C628	0.852120	0.819700	0.086750
H4681	H468	0.842230	0.789070	0.076970
C6291	C629	0.878950	0.872830	0.075490
C6301	C630	0.884790	0.870140	0.046970
H4691	H469	0.914630	0.903270	0.040870
H4701	H470	0.891930	0.841670	0.042870
C6311	C631	0.835480	0.860460	0.033490
C6321	C632	0.794760	0.811180	0.030530
H4711	H471	0.798830	0.782770	0.035970
C6331	C633	0.749600	0.801050	0.020370
C6341	C634	0.740540	0.837630	0.012760
C6351	C635	0.781280	0.891460	0.015230
H4721	H472	0.775730	0.919470	0.010770
C6361	C636	0.829840	0.900180	0.024620
C6371	C637	0.869060	0.956520	0.026440
H4731	H473	0.866530	0.973870	0.010770
H4741	H474	0.904130	0.960070	0.026570
C6381	C638	0.844610	0.057320	0.131850
H4751	H475	0.882330	0.070970	0.132770
H4761	H476	0.835630	0.079770	0.141770
H4771	H477	0.826130	0.021870	0.138870
C6391	C639	0.805640	0.106740	0.061510
C6401	C640	0.765600	0.113420	0.055180
C6411	C641	0.714050	0.073070	0.055220
H4781	H478	0.706330	0.037970	0.057170
C6421	C642	0.673810	0.084030	0.052400
H4791	H479	0.638530	0.056370	0.052470
N741	N74	0.685110	0.135320	0.049530
C6431	C643	0.736660	0.175680	0.049490
H4801	H480	0.744430	0.210770	0.047570
C6441	C644	0.776900	0.164720	0.052310
H4811	H481	0.812130	0.192270	0.052270
C6451	C645	0.675830	0.865550	0.000050
H4821	H482	0.701330	0.892870	0.988670
H4831	H483	0.641130	0.849970	0.992270
H4841	H484	0.675530	0.880970	0.016570
C6461	C646	0.704730	0.726770	0.009770
C6471	C647	0.654860	0.661600	0.005820
C6481	C648	0.653150	0.623290	0.989830
H4851	H485	0.682130	0.630670	0.979270
C6491	C649	0.609010	0.573930	0.989350
H4861	H486	0.607830	0.547670	0.978470
N751	N75	0.566560	0.562960	0.004850
C6501	C650	0.568260	0.601310	0.020840
H4871	H487	0.539230	0.593770	0.031470
C6511	C651	0.612410	0.650640	0.021320
H4881	H488	0.613530	0.676770	0.032270
C6521	C652	0.804460	0.727380	0.114390
H4891	H489	0.835430	0.730970	0.105670
H4901	H490	0.790530	0.697470	0.126070
H4911	H491	0.777830	0.721870	0.101670
C6531	C653	0.798880	0.840520	0.161720
C6541	C654	0.812540	0.851530	0.191950
C6551	C655	0.763720	0.844620	0.206270
H4921	H492	0.731930	0.837370	0.198370
C6561	C656	0.772890	0.850390	0.231520
H4931	H493	0.742630	0.841670	0.241370
C6571	C657	0.862150	0.878960	0.234990
H4941	H494	0.892930	0.891770	0.244970
C6581	C658	0.860940	0.871740	0.206900
H4951	H495	0.892530	0.880470	0.198270
C6591	C659	0.884820	0.896860	0.291640
C6601	C660	0.531930	0.437270	0.031960
Cu161	Cu16	0.803370	0.288710	0.617920
O1361	O136	0.610300	0.106800	0.439320
O1371	O137	0.613750	0.067090	0.394580
O1381	O138	0.535280	0.052460	0.391070
O1391	O139	0.897000	0.380800	0.460670
O1401	O140	0.810400	0.328900	0.488310
O1411	O141	0.824400	0.259200	0.484610
O1421	O142	0.841930	0.199100	0.337180
O1431	O143	0.920300	0.287900	0.356400
O1441	O144	0.939500	0.342600	0.324900
N761	N76	0.801400	0.282100	0.578390
N771	N77	0.729700	0.326300	0.625670
N781	N78	0.202300	0.394800	0.353280
C6611	C661	0.683570	0.215800	0.380510
C6621	C662	0.662130	0.162980	0.375180
H4961	H496	0.664300	0.152000	0.358400
C6631	C663	0.637640	0.126290	0.394460
C6641	C664	0.634580	0.142420	0.419060
C6651	C665	0.656030	0.195240	0.424390
H4971	H497	0.654000	0.206300	0.441200
C6661	C666	0.680520	0.231930	0.405110
C6671	C667	0.699930	0.287800	0.411660
H4981	H498	0.700200	0.306500	0.395900
H4991	H499	0.675100	0.289500	0.423800
C6681	C668	0.754640	0.316280	0.423510
C6691	C669	0.756560	0.309650	0.449980
H5001	H500	0.725700	0.292100	0.460000
C6701	C670	0.811640	0.332410	0.462170
C6711	C671	0.848180	0.357220	0.447070
C6721	C672	0.846970	0.365760	0.420080
H5011	H501	0.877600	0.386500	0.410300
C6731	C673	0.793840	0.339460	0.408820
C6741	C674	0.796530	0.347990	0.380300
H5021	H502	0.763400	0.344700	0.374200
H5031	H503	0.825000	0.383600	0.376200
C6751	C675	0.806210	0.308360	0.366820
C6761	C676	0.855490	0.316920	0.363860
H5041	H504	0.883900	0.349400	0.369300
C6771	C677	0.865620	0.281890	0.353700
C6781	C678	0.829040	0.236250	0.346090
C6791	C679	0.775210	0.223160	0.348560
H5051	H505	0.747200	0.189600	0.344100
C6801	C680	0.766490	0.263000	0.357950
C6811	C681	0.710150	0.245880	0.359770
H5061	H506	0.692800	0.226000	0.344100
H5071	H507	0.706600	0.277400	0.359900
C6821	C682	0.609350	0.120630	0.465180
H5081	H508	0.595700	0.144700	0.466100
H5091	H509	0.586900	0.089200	0.475100
H5101	H510	0.644800	0.137600	0.472200
C6831	C683	0.559930	0.032240	0.394840
C6841	C684	0.553250	0.985520	0.388510
C6851	C685	0.593600	0.974320	0.388550
H5111	H511	0.628700	0.001700	0.390500
C6861	C686	0.582640	0.923120	0.385730
H5121	H512	0.610300	0.915500	0.385800
N791	N79	0.531350	0.883130	0.382860
C6871	C687	0.490990	0.894320	0.382820
H5131	H513	0.455900	0.867000	0.380900
C6881	C688	0.501950	0.945520	0.385640
H5141	H514	0.474400	0.953200	0.385600
C6891	C689	0.801120	0.143620	0.333380
H5151	H515	0.773800	0.141800	0.322000
H5161	H516	0.816700	0.124500	0.325600
H5171	H517	0.785700	0.127900	0.349900
C6901	C690	0.939900	0.311300	0.343100
C6911	C691	0.005070	0.326600	0.339150
C6921	C692	0.043380	0.363200	0.323160
H5181	H518	0.036000	0.384800	0.312600
C6931	C693	0.092740	0.368420	0.322680
H5191	H519	0.119000	0.393500	0.311800
N801	N80	0.103710	0.336940	0.338180
C6941	C694	0.065360	0.300290	0.354170
H5201	H520	0.072900	0.278800	0.364800
C6951	C695	0.016030	0.295110	0.354650
H5211	H521	0.989900	0.270100	0.365600
C6961	C696	0.939290	0.410420	0.447720
H5221	H522	0.935700	0.437800	0.439000
H5231	H523	0.969200	0.426400	0.459400
H5241	H524	0.944800	0.389300	0.435000
C6971	C697	0.826150	0.291700	0.495050
C6981	C698	0.815140	0.294350	0.525280
C6991	C699	0.822050	0.252440	0.539600
H5251	H525	0.829300	0.227900	0.531700
C7001	C700	0.816280	0.255840	0.564850
H5261	H526	0.825000	0.234300	0.574700
C7011	C701	0.787710	0.316530	0.568320
H5271	H527	0.774900	0.334500	0.578300
C7021	C702	0.794930	0.322540	0.540230
H5281	H528	0.786200	0.345400	0.531600
C7031	C703	0.769810	0.321300	0.624970
C7041	C704	0.229400	0.428000	0.365290
Cu171	Cu17	0.470040	0.622040	0.951250
O1451	O145	0.276970	0.440130	0.772650
O1461	O146	0.280420	0.400420	0.727910
O1471	O147	0.201950	0.385790	0.724400
O1481	O148	0.563670	0.714130	0.794000
O1491	O149	0.477070	0.662230	0.821640
O1501	O150	0.491070	0.592530	0.817940
O1511	O151	0.508600	0.532430	0.670510
O1521	O152	0.586970	0.621230	0.689730
O1531	O153	0.606170	0.675930	0.658230
N811	N81	0.468070	0.615430	0.911720
N821	N82	0.396370	0.659630	0.959000
N831	N83	0.868970	0.728130	0.686610
C7051	C705	0.350240	0.549130	0.713840
C7061	C706	0.328800	0.496310	0.708510
H5291	H529	0.330970	0.485330	0.691730
C7071	C707	0.304310	0.459620	0.727790
C7081	C708	0.301250	0.475750	0.752390
C7091	C709	0.322700	0.528570	0.757720
H5301	H530	0.320670	0.539630	0.774530
C7101	C710	0.347190	0.565260	0.738440
C7111	C711	0.366600	0.621130	0.744990
H5311	H531	0.366870	0.639830	0.729230
H5321	H532	0.341770	0.622830	0.757130
C7121	C712	0.421310	0.649610	0.756840
C7131	C713	0.423230	0.642980	0.783310
H5331	H533	0.392370	0.625430	0.793330
C7141	C714	0.478310	0.665740	0.795500
C7151	C715	0.514850	0.690550	0.780400
C7161	C716	0.513640	0.699090	0.753410
H5341	H534	0.544270	0.719830	0.743630
C7171	C717	0.460510	0.672790	0.742150
C7181	C718	0.463200	0.681320	0.713630
H5351	H535	0.430070	0.678030	0.707530
H5361	H536	0.491670	0.716930	0.709530
C7191	C719	0.472880	0.641690	0.700150
C7201	C720	0.522160	0.650250	0.697190
H5371	H537	0.550570	0.682730	0.702630
C7211	C721	0.532290	0.615220	0.687030
C7221	C722	0.495710	0.569580	0.679420
C7231	C723	0.441880	0.556490	0.681890
H5381	H538	0.413870	0.522930	0.677430
C7241	C724	0.433160	0.596330	0.691280
C7251	C725	0.376820	0.579210	0.693100
H5391	H539	0.359470	0.559330	0.677430
H5401	H540	0.373270	0.610730	0.693230
C7261	C726	0.276020	0.453960	0.798510
H5411	H541	0.262370	0.478030	0.799430
H5421	H542	0.253570	0.422530	0.808430
H5431	H543	0.311470	0.470930	0.805530
C7271	C727	0.226600	0.365570	0.728170
C7281	C728	0.219920	0.318850	0.721840
C7291	C729	0.260270	0.307650	0.721880
H5441	H544	0.295370	0.335030	0.723830
C7301	C730	0.249310	0.256450	0.719060
H5451	H545	0.276970	0.248830	0.719130
N841	N84	0.198020	0.216460	0.716190
C7311	C731	0.157660	0.227650	0.716150
H5461	H546	0.122570	0.200330	0.714230
C7321	C732	0.168620	0.278850	0.718970
H5471	H547	0.141070	0.286530	0.718930
C7331	C733	0.467790	0.476950	0.666710
H5481	H548	0.440470	0.475130	0.655330
H5491	H549	0.483370	0.457830	0.658930
H5501	H550	0.452370	0.461230	0.683230
C7341	C734	0.606570	0.644630	0.676430
C7351	C735	0.671740	0.659930	0.672480
C7361	C736	0.710050	0.696530	0.656490
H5511	H551	0.702670	0.718130	0.645930
C7371	C737	0.759410	0.701750	0.656010
H5521	H552	0.785670	0.726830	0.645130
N851	N85	0.770380	0.670270	0.671510
C7381	C738	0.732030	0.633620	0.687500
H5531	H553	0.739570	0.612130	0.698130
C7391	C739	0.682700	0.628440	0.687980
H5541	H554	0.656570	0.603430	0.698930
C7401	C740	0.605960	0.743750	0.781050
H5551	H555	0.602370	0.771130	0.772330
H5561	H556	0.635870	0.759730	0.792730
H5571	H557	0.611470	0.722630	0.768330
C7411	C741	0.492820	0.625030	0.828380
C7421	C742	0.481810	0.627680	0.858610
C7431	C743	0.488720	0.585770	0.872930
H5581	H558	0.495970	0.561230	0.865030
C7441	C744	0.482950	0.589170	0.898180
H5591	H559	0.491670	0.567630	0.908030
C7451	C745	0.454380	0.649860	0.901650
H5601	H560	0.441570	0.667830	0.911630
C7461	C746	0.461600	0.655870	0.873560
H5611	H561	0.452870	0.678730	0.864930
C7471	C747	0.436480	0.654630	0.958300
C7481	C748	0.896070	0.761330	0.698620
Cu181	Cu18	0.136700	0.955380	0.284590
O1541	O154	0.943630	0.773470	0.105990
O1551	O155	0.947080	0.733760	0.061250
O1561	O156	0.868610	0.719130	0.057740
O1571	O157	0.230330	0.047470	0.127340
O1581	O158	0.143730	0.995570	0.154980
O1591	O159	0.157730	0.925870	0.151280
O1601	O160	0.175260	0.865770	0.003850
O1611	O161	0.253630	0.954570	0.023070
O1621	O162	0.272830	0.009270	0.991570
N861	N86	0.134730	0.948770	0.245060
N871	N87	0.063030	0.992970	0.292340
N881	N88	0.535630	0.061470	0.019950
C7491	C749	0.016900	0.882470	0.047180
C7501	C750	0.995460	0.829650	0.041850
H5621	H562	0.997630	0.818670	0.025070
C7511	C751	0.970970	0.792960	0.061130
C7521	C752	0.967910	0.809090	0.085730
C7531	C753	0.989360	0.861910	0.091060
H5631	H563	0.987330	0.872970	0.107870
C7541	C754	0.013850	0.898600	0.071780
C7551	C755	0.033260	0.954470	0.078330
H5641	H564	0.033530	0.973170	0.062570
H5651	H565	0.008430	0.956170	0.090470
C7561	C756	0.087970	0.982950	0.090180
C7571	C757	0.089890	0.976320	0.116650
H5661	H566	0.059030	0.958770	0.126670
C7581	C758	0.144970	0.999080	0.128840
C7591	C759	0.181510	0.023890	0.113740
C7601	C760	0.180300	0.032430	0.086750
H5671	H567	0.210930	0.053170	0.076970
C7611	C761	0.127170	0.006130	0.075490
C7621	C762	0.129860	0.014660	0.046970
H5681	H568	0.096730	0.011370	0.040870
H5691	H569	0.158330	0.050270	0.042870
C7631	C763	0.139540	0.975030	0.033490
C7641	C764	0.188820	0.983590	0.030530
H5701	H570	0.217230	0.016070	0.035970
C7651	C765	0.198950	0.948560	0.020370
C7661	C766	0.162370	0.902920	0.012760
C7671	C767	0.108540	0.889830	0.015230
H5711	H571	0.080530	0.856270	0.010770
C7681	C768	0.099820	0.929670	0.024620
C7691	C769	0.043480	0.912550	0.026440
H5721	H572	0.026130	0.892670	0.010770
H5731	H573	0.039930	0.944070	0.026570
C7701	C770	0.942680	0.787300	0.131850
H5741	H574	0.929030	0.811370	0.132770
H5751	H575	0.920230	0.755870	0.141770
H5761	H576	0.978130	0.804270	0.138870
C7711	C771	0.893260	0.698910	0.061510
C7721	C772	0.886580	0.652190	0.055180
C7731	C773	0.926930	0.640990	0.055220
H5771	H577	0.962030	0.668370	0.057170
C7741	C774	0.915970	0.589790	0.052400
H5781	H578	0.943630	0.582170	0.052470
N891	N89	0.864680	0.549800	0.049530
C7751	C775	0.824320	0.560990	0.049490
H5791	H579	0.789230	0.533670	0.047570
C7761	C776	0.835280	0.612190	0.052310
H5801	H580	0.807730	0.619870	0.052270
C7771	C777	0.134450	0.810290	0.000050
H5811	H581	0.107130	0.808470	0.988670
H5821	H582	0.150030	0.791170	0.992270
H5831	H583	0.119030	0.794570	0.016570
C7781	C778	0.273230	0.977970	0.009770
C7791	C779	0.338400	0.993270	0.005820
C7801	C780	0.376710	0.029870	0.989830
H5841	H584	0.369330	0.051470	0.979270
C7811	C781	0.426070	0.035090	0.989350
H5851	H585	0.452330	0.060170	0.978470
N901	N90	0.437040	0.003610	0.004850
C7821	C782	0.398690	0.966960	0.020840
H5861	H586	0.406230	0.945470	0.031470
C7831	C783	0.349360	0.961780	0.021320
H5871	H587	0.323230	0.936770	0.032270
C7841	C784	0.272620	0.077090	0.114390
H5881	H588	0.269030	0.104470	0.105670
H5891	H589	0.302530	0.093070	0.126070
H5901	H590	0.278130	0.055970	0.101670
C7851	C785	0.159480	0.958370	0.161720
C7861	C786	0.148470	0.961020	0.191950
C7871	C787	0.155380	0.919110	0.206270
H5911	H591	0.162630	0.894570	0.198370
C7881	C788	0.149610	0.922510	0.231520
H5921	H592	0.158330	0.900970	0.241370
C7891	C789	0.121040	0.983200	0.234990
H5931	H593	0.108230	0.001170	0.244970
C7901	C790	0.128260	0.989210	0.206900
H5941	H594	0.119530	0.012070	0.198270
C7911	C791	0.103140	0.987970	0.291640
C7921	C792	0.562730	0.094670	0.031960
Cu191	Cu19	0.333330	0.166670	0.666670
Cu201	Cu20	0.000000	0.500000	0.000000
Cu211	Cu21	0.833330	0.166670	0.666670
Cu221	Cu22	0.500000	0.500000	0.000000
Cu231	Cu23	0.833330	0.666670	0.666670
Cu241	Cu24	0.500000	0.000000	0.000000
Cu251	Cu25	0.666670	0.833330	0.333330
Cu261	Cu26	0.166670	0.833330	0.333330
Cu271	Cu27	0.166670	0.333330	0.333330
Cu281	Cu28	0.333330	0.666670	0.373240
Cu291	Cu29	0.000000	0.000000	0.706570
Cu301	Cu30	0.666670	0.333330	0.039910
Cu311	Cu31	0.666670	0.333330	0.626760
Cu321	Cu32	0.333330	0.666670	0.960090
Cu331	Cu33	0.000000	0.000000	0.293430
