data_CUQTAL_clean_PM
_symmetry_space_group_name_H-M	'P1'
_cell_length_a	28.912300
_cell_length_b	20.770600
_cell_length_c	29.728400
_cell_angle_alpha	90.000000
_cell_angle_beta	101.224000
_cell_angle_gamma	90.000000
_symmetry_Int_Tables_number 1

loop_
_symmetry_equiv_pos_as_xyz
'x,y,z'

loop_
_atom_site_label
_atom_site_type_symbol
_atom_site_fract_x
_atom_site_fract_y
_atom_site_fract_z
Cu11	Cu1	0.740120	0.503690	0.564740
O11	O1	0.342100	0.830100	0.259300
N11	N1	0.283300	0.600500	0.120470
C11	C1	0.457000	0.914300	0.284000
Cu21	Cu2	0.238600	0.549320	0.072840
O21	O2	0.608700	0.669800	0.302000
N21	N2	0.771100	0.430700	0.602400
O31	O3	0.574500	0.644200	0.391200
O41	O4	0.124200	0.357000	0.896000
O51	O5	0.388700	0.763900	0.205000
N31	N3	0.701700	0.550400	0.512200
C21	C2	0.409100	0.900200	0.283600
H11	H1	0.391600	0.927300	0.299900
O61	O6	0.385800	0.692900	0.261900
N41	N4	0.286100	0.943000	0.530700
C31	C3	0.387400	0.847400	0.260000
C41	C4	0.412700	0.810600	0.235200
O71	O7	0.638080	0.706500	0.390490
N51	N5	0.194610	0.499000	0.024310
C51	C5	0.459100	0.822100	0.234700
H21	H2	0.475700	0.795300	0.217300
N61	N6	0.794900	0.998400	0.031600
C61	C6	0.482400	0.874700	0.260300
O81	O8	0.506140	0.908200	0.500980
C71	C7	0.535300	0.881100	0.261500
H31	H3	0.541900	0.870500	0.230900
H41	H4	0.545000	0.926300	0.268600
O91	O9	0.424690	0.958600	0.457130
C81	C8	0.563600	0.837100	0.297000
O101	O10	0.393800	0.866100	0.430600
C91	C9	0.572500	0.775400	0.282700
H51	H5	0.561900	0.763800	0.251500
O111	O11	0.828100	0.193700	0.747700
C101	C10	0.596800	0.730500	0.313100
O121	O12	0.873150	0.280000	0.704750
C111	C11	0.610800	0.749300	0.358400
O131	O13	0.844800	0.214700	0.645800
C121	C12	0.603700	0.810000	0.373100
H61	H6	0.614700	0.821100	0.404400
O141	O14	0.082600	0.400600	0.812000
C131	C13	0.580400	0.856000	0.342500
C141	C14	0.575100	0.924400	0.360400
H71	H7	0.604600	0.936200	0.381800
H81	H8	0.571100	0.954700	0.334200
O151	O15	0.059210	0.393200	0.918900
C151	C15	0.533900	0.933200	0.384900
O161	O16	0.990290	0.145000	0.996010
C161	C16	0.540400	0.917000	0.431700
H91	H9	0.570100	0.900900	0.446900
O171	O17	0.913040	0.085500	0.949400
C171	C17	0.504400	0.924100	0.456300
O181	O18	0.945600	0.989600	0.972300
C181	C18	0.461000	0.949400	0.432200
C191	C19	0.454600	0.966700	0.387700
H101	H10	0.425400	0.984900	0.373100
C201	C20	0.490500	0.958100	0.362300
C211	C21	0.478400	0.972000	0.311500
H111	H11	0.507300	0.985300	0.300800
H121	H12	0.455700	0.008300	0.306100
C221	C22	0.317200	0.865300	0.286800
H131	H13	0.335600	0.867400	0.318100
H141	H14	0.286900	0.844200	0.287000
H151	H15	0.311600	0.909000	0.274500
C231	C23	0.374900	0.708800	0.221800
C241	C24	0.344100	0.670300	0.185500
C251	C25	0.329800	0.610700	0.196400
H161	H16	0.340700	0.592700	0.225900
C261	C26	0.298500	0.576900	0.162400
H171	H17	0.287700	0.535600	0.169600
C271	C27	0.299800	0.657400	0.110500
H181	H18	0.290500	0.673300	0.080100
C281	C28	0.329600	0.695000	0.142100
H191	H19	0.339800	0.736200	0.134100
C291	C29	0.602000	0.655400	0.253500
H201	H20	0.568400	0.658400	0.239700
H211	H21	0.613300	0.611700	0.249400
H221	H22	0.619800	0.686300	0.238700
C301	C30	0.615200	0.656900	0.404900
C311	C31	0.647100	0.619600	0.441300
C321	C32	0.630600	0.560700	0.455700
H231	H23	0.601000	0.543600	0.441000
C331	C33	0.658500	0.528700	0.491300
H241	H24	0.647100	0.489800	0.501900
C341	C34	0.717500	0.605000	0.497100
H251	H25	0.748100	0.619700	0.510900
C351	C35	0.691300	0.641300	0.462300
H261	H26	0.703500	0.680500	0.452900
C361	C36	0.549100	0.880400	0.524500
H271	H27	0.555200	0.840400	0.509200
H281	H28	0.546700	0.871000	0.556300
H291	H29	0.575100	0.910700	0.524300
C371	C37	0.392100	0.913000	0.452900
C381	C38	0.355300	0.925600	0.480000
C391	C39	0.317800	0.884500	0.475300
H301	H30	0.315700	0.848600	0.455200
C401	C40	0.282700	0.896200	0.500300
H311	H31	0.255500	0.869600	0.495300
C411	C41	0.323300	0.982400	0.535900
H321	H32	0.325400	0.016600	0.557400
C421	C42	0.358600	0.975100	0.511300
H331	H33	0.384800	0.003600	0.515900
C431	C43	0.973700	0.179500	0.758000
C441	C44	0.946900	0.227200	0.731700
H341	H34	0.961800	0.258500	0.716100
C451	C45	0.899100	0.228400	0.728500
C461	C46	0.875800	0.184800	0.750900
C471	C47	0.902000	0.136200	0.775200
H351	H35	0.886400	0.104200	0.789500
C481	C48	0.951000	0.133000	0.779300
C491	C49	0.976600	0.078900	0.808600
H361	H36	0.957900	0.038800	0.802700
H371	H37	0.007500	0.071300	0.800000
C501	C50	0.983900	0.095600	0.859200
C511	C51	0.947200	0.082700	0.882100
H381	H38	0.919300	0.062400	0.866400
C521	C52	0.951300	0.099200	0.927000
C531	C53	0.991500	0.130000	0.951500
C541	C54	0.028000	0.141500	0.929200
H391	H39	0.055800	0.161600	0.945400
C551	C55	0.025200	0.124200	0.883100
C561	C56	0.067700	0.137200	0.861800
H401	H40	0.066700	0.107700	0.835500
H411	H41	0.096600	0.127300	0.884600
C571	C57	0.070800	0.207000	0.845000
C581	C58	0.093500	0.251200	0.876500
H421	H42	0.106800	0.237700	0.906700
C591	C59	0.097200	0.315300	0.864300
C601	C60	0.077700	0.337100	0.820700
C611	C61	0.055400	0.291500	0.788900
H431	H43	0.042300	0.305100	0.758600
C621	C62	0.051900	0.227400	0.800300
C631	C63	0.027300	0.183300	0.762000
H441	H44	0.040700	0.139500	0.767400
H451	H45	0.034200	0.198800	0.732500
C641	C64	0.806300	0.158900	0.780300
H461	H46	0.802700	0.113600	0.771300
H471	H47	0.775300	0.177600	0.780900
H481	H48	0.826300	0.162200	0.810900
C651	C65	0.846500	0.266500	0.664100
C661	C66	0.820100	0.324100	0.643200
C671	C67	0.782500	0.316100	0.607200
H491	H49	0.772900	0.274400	0.596000
C681	C68	0.759000	0.370600	0.587800
H501	H50	0.733100	0.365200	0.563100
C691	C69	0.807500	0.437500	0.637400
H511	H51	0.816600	0.479700	0.647800
C701	C70	0.832400	0.385600	0.659200
H521	H52	0.857500	0.392000	0.684700
C711	C71	0.056800	0.424600	0.768700
H531	H53	0.070900	0.407600	0.743700
H541	H54	0.058300	0.471800	0.768500
H551	H55	0.023900	0.410800	0.764500
C721	C72	0.101600	0.391700	0.922900
C731	C73	0.134800	0.428100	0.958100
C741	C74	0.118400	0.482200	0.977800
H561	H56	0.086500	0.495800	0.968700
C751	C75	0.149700	0.516100	0.011100
H571	H57	0.138500	0.552700	0.024900
C761	C76	0.210400	0.446700	0.005100
H581	H58	0.242500	0.434500	0.014600
C771	C77	0.181700	0.410000	0.972000
H591	H59	0.193800	0.373300	0.959000
C781	C78	0.033200	0.171900	0.022100
H601	H60	0.059200	0.141700	0.022300
H611	H61	0.029300	0.179800	0.053700
H621	H62	0.040100	0.212600	0.008100
C791	C79	0.914200	0.027500	0.970600
C801	C80	0.871800	0.018000	0.991000
C811	C81	0.874000	0.975800	0.026600
H631	H63	0.902200	0.952400	0.037500
C821	C82	0.835700	0.967400	0.046400
H641	H64	0.838000	0.938700	0.071600
C831	C83	0.792300	0.038600	0.995800
H651	H65	0.763400	0.060200	0.984600
C841	C84	0.829800	0.049800	0.974900
H661	H66	0.827000	0.078800	0.949900
Cu31	Cu3	0.740120	0.996310	0.064740
O191	O19	0.342100	0.669900	0.759300
N71	N7	0.283300	0.899500	0.620470
C851	C85	0.457000	0.585700	0.784000
Cu41	Cu4	0.238600	0.950680	0.572840
O201	O20	0.608700	0.830200	0.802000
N81	N8	0.771100	0.069300	0.102400
O211	O21	0.574500	0.855800	0.891200
O221	O22	0.124200	0.143000	0.396000
O231	O23	0.388700	0.736100	0.705000
N91	N9	0.701700	0.949600	0.012200
C861	C86	0.409100	0.599800	0.783600
H671	H67	0.391600	0.572700	0.799900
O241	O24	0.385800	0.807100	0.761900
N101	N10	0.286100	0.557000	0.030700
C871	C87	0.387400	0.652600	0.760000
C881	C88	0.412700	0.689400	0.735200
O251	O25	0.638080	0.793500	0.890490
N111	N11	0.194610	0.001000	0.524310
C891	C89	0.459100	0.677900	0.734700
H681	H68	0.475700	0.704700	0.717300
N121	N12	0.794900	0.501600	0.531600
C901	C90	0.482400	0.625300	0.760300
O261	O26	0.506140	0.591800	0.000980
C911	C91	0.535300	0.618900	0.761500
H691	H69	0.541900	0.629500	0.730900
H701	H70	0.545000	0.573700	0.768600
O271	O27	0.424690	0.541400	0.957130
C921	C92	0.563600	0.662900	0.797000
O281	O28	0.393800	0.633900	0.930600
C931	C93	0.572500	0.724600	0.782700
H711	H71	0.561900	0.736200	0.751500
O291	O29	0.828100	0.306300	0.247700
C941	C94	0.596800	0.769500	0.813100
O301	O30	0.873150	0.220000	0.204750
C951	C95	0.610800	0.750700	0.858400
O311	O31	0.844800	0.285300	0.145800
C961	C96	0.603700	0.690000	0.873100
H721	H72	0.614700	0.678900	0.904400
O321	O32	0.082600	0.099400	0.312000
C971	C97	0.580400	0.644000	0.842500
C981	C98	0.575100	0.575600	0.860400
H731	H73	0.604600	0.563800	0.881800
H741	H74	0.571100	0.545300	0.834200
O331	O33	0.059210	0.106800	0.418900
C991	C99	0.533900	0.566800	0.884900
O341	O34	0.990290	0.355000	0.496010
C1001	C100	0.540400	0.583000	0.931700
H751	H75	0.570100	0.599100	0.946900
O351	O35	0.913040	0.414500	0.449400
C1011	C101	0.504400	0.575900	0.956300
O361	O36	0.945600	0.510400	0.472300
C1021	C102	0.461000	0.550600	0.932200
C1031	C103	0.454600	0.533300	0.887700
H761	H76	0.425400	0.515100	0.873100
C1041	C104	0.490500	0.541900	0.862300
C1051	C105	0.478400	0.528000	0.811500
H771	H77	0.507300	0.514700	0.800800
H781	H78	0.455700	0.491700	0.806100
C1061	C106	0.317200	0.634700	0.786800
H791	H79	0.335600	0.632600	0.818100
H801	H80	0.286900	0.655800	0.787000
H811	H81	0.311600	0.591000	0.774500
C1071	C107	0.374900	0.791200	0.721800
C1081	C108	0.344100	0.829700	0.685500
C1091	C109	0.329800	0.889300	0.696400
H821	H82	0.340700	0.907300	0.725900
C1101	C110	0.298500	0.923100	0.662400
H831	H83	0.287700	0.964400	0.669600
C1111	C111	0.299800	0.842600	0.610500
H841	H84	0.290500	0.826700	0.580100
C1121	C112	0.329600	0.805000	0.642100
H851	H85	0.339800	0.763800	0.634100
C1131	C113	0.602000	0.844600	0.753500
H861	H86	0.568400	0.841600	0.739700
H871	H87	0.613300	0.888300	0.749400
H881	H88	0.619800	0.813700	0.738700
C1141	C114	0.615200	0.843100	0.904900
C1151	C115	0.647100	0.880400	0.941300
C1161	C116	0.630600	0.939300	0.955700
H891	H89	0.601000	0.956400	0.941000
C1171	C117	0.658500	0.971300	0.991300
H901	H90	0.647100	0.010200	0.001900
C1181	C118	0.717500	0.895000	0.997100
H911	H91	0.748100	0.880300	0.010900
C1191	C119	0.691300	0.858700	0.962300
H921	H92	0.703500	0.819500	0.952900
C1201	C120	0.549100	0.619600	0.024500
H931	H93	0.555200	0.659600	0.009200
H941	H94	0.546700	0.629000	0.056300
H951	H95	0.575100	0.589300	0.024300
C1211	C121	0.392100	0.587000	0.952900
C1221	C122	0.355300	0.574400	0.980000
C1231	C123	0.317800	0.615500	0.975300
H961	H96	0.315700	0.651400	0.955200
C1241	C124	0.282700	0.603800	0.000300
H971	H97	0.255500	0.630400	0.995300
C1251	C125	0.323300	0.517600	0.035900
H981	H98	0.325400	0.483400	0.057400
C1261	C126	0.358600	0.524900	0.011300
H991	H99	0.384800	0.496400	0.015900
C1271	C127	0.973700	0.320500	0.258000
C1281	C128	0.946900	0.272800	0.231700
H1001	H100	0.961800	0.241500	0.216100
C1291	C129	0.899100	0.271600	0.228500
C1301	C130	0.875800	0.315200	0.250900
C1311	C131	0.902000	0.363800	0.275200
H1011	H101	0.886400	0.395800	0.289500
C1321	C132	0.951000	0.367000	0.279300
C1331	C133	0.976600	0.421100	0.308600
H1021	H102	0.957900	0.461200	0.302700
H1031	H103	0.007500	0.428700	0.300000
C1341	C134	0.983900	0.404400	0.359200
C1351	C135	0.947200	0.417300	0.382100
H1041	H104	0.919300	0.437600	0.366400
C1361	C136	0.951300	0.400800	0.427000
C1371	C137	0.991500	0.370000	0.451500
C1381	C138	0.028000	0.358500	0.429200
H1051	H105	0.055800	0.338400	0.445400
C1391	C139	0.025200	0.375800	0.383100
C1401	C140	0.067700	0.362800	0.361800
H1061	H106	0.066700	0.392300	0.335500
H1071	H107	0.096600	0.372700	0.384600
C1411	C141	0.070800	0.293000	0.345000
C1421	C142	0.093500	0.248800	0.376500
H1081	H108	0.106800	0.262300	0.406700
C1431	C143	0.097200	0.184700	0.364300
C1441	C144	0.077700	0.162900	0.320700
C1451	C145	0.055400	0.208500	0.288900
H1091	H109	0.042300	0.194900	0.258600
C1461	C146	0.051900	0.272600	0.300300
C1471	C147	0.027300	0.316700	0.262000
H1101	H110	0.040700	0.360500	0.267400
H1111	H111	0.034200	0.301200	0.232500
C1481	C148	0.806300	0.341100	0.280300
H1121	H112	0.802700	0.386400	0.271300
H1131	H113	0.775300	0.322400	0.280900
H1141	H114	0.826300	0.337800	0.310900
C1491	C149	0.846500	0.233500	0.164100
C1501	C150	0.820100	0.175900	0.143200
C1511	C151	0.782500	0.183900	0.107200
H1151	H115	0.772900	0.225600	0.096000
C1521	C152	0.759000	0.129400	0.087800
H1161	H116	0.733100	0.134800	0.063100
C1531	C153	0.807500	0.062500	0.137400
H1171	H117	0.816600	0.020300	0.147800
C1541	C154	0.832400	0.114400	0.159200
H1181	H118	0.857500	0.108000	0.184700
C1551	C155	0.056800	0.075400	0.268700
H1191	H119	0.070900	0.092400	0.243700
H1201	H120	0.058300	0.028200	0.268500
H1211	H121	0.023900	0.089200	0.264500
C1561	C156	0.101600	0.108300	0.422900
C1571	C157	0.134800	0.071900	0.458100
C1581	C158	0.118400	0.017800	0.477800
H1221	H122	0.086500	0.004200	0.468700
C1591	C159	0.149700	0.983900	0.511100
H1231	H123	0.138500	0.947300	0.524900
C1601	C160	0.210400	0.053300	0.505100
H1241	H124	0.242500	0.065500	0.514600
C1611	C161	0.181700	0.090000	0.472000
H1251	H125	0.193800	0.126700	0.459000
C1621	C162	0.033200	0.328100	0.522100
H1261	H126	0.059200	0.358300	0.522300
H1271	H127	0.029300	0.320200	0.553700
H1281	H128	0.040100	0.287400	0.508100
C1631	C163	0.914200	0.472500	0.470600
C1641	C164	0.871800	0.482000	0.491000
C1651	C165	0.874000	0.524200	0.526600
H1291	H129	0.902200	0.547600	0.537500
C1661	C166	0.835700	0.532600	0.546400
H1301	H130	0.838000	0.561300	0.571600
C1671	C167	0.792300	0.461400	0.495800
H1311	H131	0.763400	0.439800	0.484600
C1681	C168	0.829800	0.450200	0.474900
H1321	H132	0.827000	0.421200	0.449900
Cu51	Cu5	0.259880	0.003690	0.935260
O371	O37	0.657900	0.330100	0.240700
N131	N13	0.716700	0.100500	0.379530
C1691	C169	0.543000	0.414300	0.216000
Cu61	Cu6	0.761400	0.049320	0.427160
O381	O38	0.391300	0.169800	0.198000
N141	N14	0.228900	0.930700	0.897600
O391	O39	0.425500	0.144200	0.108800
O401	O40	0.875800	0.857000	0.604000
O411	O41	0.611300	0.263900	0.295000
N151	N15	0.298300	0.050400	0.987800
C1701	C170	0.590900	0.400200	0.216400
H1331	H133	0.608400	0.427300	0.200100
O421	O42	0.614200	0.192900	0.238100
N161	N16	0.713900	0.443000	0.969300
C1711	C171	0.612600	0.347400	0.240000
C1721	C172	0.587300	0.310600	0.264800
O431	O43	0.361920	0.206500	0.109510
N171	N17	0.805390	0.999000	0.475690
C1731	C173	0.540900	0.322100	0.265300
H1341	H134	0.524300	0.295300	0.282700
N181	N18	0.205100	0.498400	0.468400
C1741	C174	0.517600	0.374700	0.239700
O441	O44	0.493860	0.408200	0.999020
C1751	C175	0.464700	0.381100	0.238500
H1351	H135	0.458100	0.370500	0.269100
H1361	H136	0.455000	0.426300	0.231400
O451	O45	0.575310	0.458600	0.042870
C1761	C176	0.436400	0.337100	0.203000
O461	O46	0.606200	0.366100	0.069400
C1771	C177	0.427500	0.275400	0.217300
H1371	H137	0.438100	0.263800	0.248500
O471	O47	0.171900	0.693700	0.752300
C1781	C178	0.403200	0.230500	0.186900
O481	O48	0.126850	0.780000	0.795250
C1791	C179	0.389200	0.249300	0.141600
O491	O49	0.155200	0.714700	0.854200
C1801	C180	0.396300	0.310000	0.126900
H1381	H138	0.385300	0.321100	0.095600
O501	O50	0.917400	0.900600	0.688000
C1811	C181	0.419600	0.356000	0.157500
C1821	C182	0.424900	0.424400	0.139600
H1391	H139	0.395400	0.436200	0.118200
H1401	H140	0.428900	0.454700	0.165800
O511	O51	0.940790	0.893200	0.581100
C1831	C183	0.466100	0.433200	0.115100
O521	O52	0.009710	0.645000	0.503990
C1841	C184	0.459600	0.417000	0.068300
H1411	H141	0.429900	0.400900	0.053100
O531	O53	0.086960	0.585500	0.550600
C1851	C185	0.495600	0.424100	0.043700
O541	O54	0.054400	0.489600	0.527700
C1861	C186	0.539000	0.449400	0.067800
C1871	C187	0.545400	0.466700	0.112300
H1421	H142	0.574600	0.484900	0.126900
C1881	C188	0.509500	0.458100	0.137700
C1891	C189	0.521600	0.472000	0.188500
H1431	H143	0.492700	0.485300	0.199200
H1441	H144	0.544300	0.508300	0.193900
C1901	C190	0.682800	0.365300	0.213200
H1451	H145	0.664400	0.367400	0.181900
H1461	H146	0.713100	0.344200	0.213000
H1471	H147	0.688400	0.409000	0.225500
C1911	C191	0.625100	0.208800	0.278200
C1921	C192	0.655900	0.170300	0.314500
C1931	C193	0.670200	0.110700	0.303600
H1481	H148	0.659300	0.092700	0.274100
C1941	C194	0.701500	0.076900	0.337600
H1491	H149	0.712300	0.035600	0.330400
C1951	C195	0.700200	0.157400	0.389500
H1501	H150	0.709500	0.173300	0.419900
C1961	C196	0.670400	0.195000	0.357900
H1511	H151	0.660200	0.236200	0.365900
C1971	C197	0.398000	0.155400	0.246500
H1521	H152	0.431600	0.158400	0.260300
H1531	H153	0.386700	0.111700	0.250600
H1541	H154	0.380200	0.186300	0.261300
C1981	C198	0.384800	0.156900	0.095100
C1991	C199	0.352900	0.119600	0.058700
C2001	C200	0.369400	0.060700	0.044300
H1551	H155	0.399000	0.043600	0.059000
C2011	C201	0.341500	0.028700	0.008700
H1561	H156	0.352900	0.989800	0.998100
C2021	C202	0.282500	0.105000	0.002900
H1571	H157	0.251900	0.119700	0.989100
C2031	C203	0.308700	0.141300	0.037700
H1581	H158	0.296500	0.180500	0.047100
C2041	C204	0.450900	0.380400	0.975500
H1591	H159	0.444800	0.340400	0.990800
H1601	H160	0.453300	0.371000	0.943700
H1611	H161	0.424900	0.410700	0.975700
C2051	C205	0.607900	0.413000	0.047100
C2061	C206	0.644700	0.425600	0.020000
C2071	C207	0.682200	0.384500	0.024700
H1621	H162	0.684300	0.348600	0.044800
C2081	C208	0.717300	0.396200	0.999700
H1631	H163	0.744500	0.369600	0.004700
C2091	C209	0.676700	0.482400	0.964100
H1641	H164	0.674600	0.516600	0.942600
C2101	C210	0.641400	0.475100	0.988700
H1651	H165	0.615200	0.503600	0.984100
C2111	C211	0.026300	0.679500	0.742000
C2121	C212	0.053100	0.727200	0.768300
H1661	H166	0.038200	0.758500	0.783900
C2131	C213	0.100900	0.728400	0.771500
C2141	C214	0.124200	0.684800	0.749100
C2151	C215	0.098000	0.636200	0.724800
H1671	H167	0.113600	0.604200	0.710500
C2161	C216	0.049000	0.633000	0.720700
C2171	C217	0.023400	0.578900	0.691400
H1681	H168	0.042100	0.538800	0.697300
H1691	H169	0.992500	0.571300	0.700000
C2181	C218	0.016100	0.595600	0.640800
C2191	C219	0.052800	0.582700	0.617900
H1701	H170	0.080700	0.562400	0.633600
C2201	C220	0.048700	0.599200	0.573000
C2211	C221	0.008500	0.630000	0.548500
C2221	C222	0.972000	0.641500	0.570800
H1711	H171	0.944200	0.661600	0.554600
C2231	C223	0.974800	0.624200	0.616900
C2241	C224	0.932300	0.637200	0.638200
H1721	H172	0.933300	0.607700	0.664500
H1731	H173	0.903400	0.627300	0.615400
C2251	C225	0.929200	0.707000	0.655000
C2261	C226	0.906500	0.751200	0.623500
H1741	H174	0.893200	0.737700	0.593300
C2271	C227	0.902800	0.815300	0.635700
C2281	C228	0.922300	0.837100	0.679300
C2291	C229	0.944600	0.791500	0.711100
H1751	H175	0.957700	0.805100	0.741400
C2301	C230	0.948100	0.727400	0.699700
C2311	C231	0.972700	0.683300	0.738000
H1761	H176	0.959300	0.639500	0.732600
H1771	H177	0.965800	0.698800	0.767500
C2321	C232	0.193700	0.658900	0.719700
H1781	H178	0.197300	0.613600	0.728700
H1791	H179	0.224700	0.677600	0.719100
H1801	H180	0.173700	0.662200	0.689100
C2331	C233	0.153500	0.766500	0.835900
C2341	C234	0.179900	0.824100	0.856800
C2351	C235	0.217500	0.816100	0.892800
H1811	H181	0.227100	0.774400	0.904000
C2361	C236	0.241000	0.870600	0.912200
H1821	H182	0.266900	0.865200	0.936900
C2371	C237	0.192500	0.937500	0.862600
H1831	H183	0.183400	0.979700	0.852200
C2381	C238	0.167600	0.885600	0.840800
H1841	H184	0.142500	0.892000	0.815300
C2391	C239	0.943200	0.924600	0.731300
H1851	H185	0.929100	0.907600	0.756300
H1861	H186	0.941700	0.971800	0.731500
H1871	H187	0.976100	0.910800	0.735500
C2401	C240	0.898400	0.891700	0.577100
C2411	C241	0.865200	0.928100	0.541900
C2421	C242	0.881600	0.982200	0.522200
H1881	H188	0.913500	0.995800	0.531300
C2431	C243	0.850300	0.016100	0.488900
H1891	H189	0.861500	0.052700	0.475100
C2441	C244	0.789600	0.946700	0.494900
H1901	H190	0.757500	0.934500	0.485400
C2451	C245	0.818300	0.910000	0.528000
H1911	H191	0.806200	0.873300	0.541000
C2461	C246	0.966800	0.671900	0.477900
H1921	H192	0.940800	0.641700	0.477700
H1931	H193	0.970700	0.679800	0.446300
H1941	H194	0.959900	0.712600	0.491900
C2471	C247	0.085800	0.527500	0.529400
C2481	C248	0.128200	0.518000	0.509000
C2491	C249	0.126000	0.475800	0.473400
H1951	H195	0.097800	0.452400	0.462500
C2501	C250	0.164300	0.467400	0.453600
H1961	H196	0.162000	0.438700	0.428400
C2511	C251	0.207700	0.538600	0.504200
H1971	H197	0.236600	0.560200	0.515400
C2521	C252	0.170200	0.549800	0.525100
H1981	H198	0.173000	0.578800	0.550100
Cu71	Cu7	0.259880	0.496310	0.435260
O551	O55	0.657900	0.169900	0.740700
N191	N19	0.716700	0.399500	0.879530
C2531	C253	0.543000	0.085700	0.716000
Cu81	Cu8	0.761400	0.450680	0.927160
O561	O56	0.391300	0.330200	0.698000
N201	N20	0.228900	0.569300	0.397600
O571	O57	0.425500	0.355800	0.608800
O581	O58	0.875800	0.643000	0.104000
O591	O59	0.611300	0.236100	0.795000
N211	N21	0.298300	0.449600	0.487800
C2541	C254	0.590900	0.099800	0.716400
H1991	H199	0.608400	0.072700	0.700100
O601	O60	0.614200	0.307100	0.738100
N221	N22	0.713900	0.057000	0.469300
C2551	C255	0.612600	0.152600	0.740000
C2561	C256	0.587300	0.189400	0.764800
O611	O61	0.361920	0.293500	0.609510
N231	N23	0.805390	0.501000	0.975690
C2571	C257	0.540900	0.177900	0.765300
H2001	H200	0.524300	0.204700	0.782700
N241	N24	0.205100	0.001600	0.968400
C2581	C258	0.517600	0.125300	0.739700
O621	O62	0.493860	0.091800	0.499020
C2591	C259	0.464700	0.118900	0.738500
H2011	H201	0.458100	0.129500	0.769100
H2021	H202	0.455000	0.073700	0.731400
O631	O63	0.575310	0.041400	0.542870
C2601	C260	0.436400	0.162900	0.703000
O641	O64	0.606200	0.133900	0.569400
C2611	C261	0.427500	0.224600	0.717300
H2031	H203	0.438100	0.236200	0.748500
O651	O65	0.171900	0.806300	0.252300
C2621	C262	0.403200	0.269500	0.686900
O661	O66	0.126850	0.720000	0.295250
C2631	C263	0.389200	0.250700	0.641600
O671	O67	0.155200	0.785300	0.354200
C2641	C264	0.396300	0.190000	0.626900
H2041	H204	0.385300	0.178900	0.595600
O681	O68	0.917400	0.599400	0.188000
C2651	C265	0.419600	0.144000	0.657500
C2661	C266	0.424900	0.075600	0.639600
H2051	H205	0.395400	0.063800	0.618200
H2061	H206	0.428900	0.045300	0.665800
O691	O69	0.940790	0.606800	0.081100
C2671	C267	0.466100	0.066800	0.615100
O701	O70	0.009710	0.855000	0.003990
C2681	C268	0.459600	0.083000	0.568300
H2071	H207	0.429900	0.099100	0.553100
O711	O71	0.086960	0.914500	0.050600
C2691	C269	0.495600	0.075900	0.543700
O721	O72	0.054400	0.010400	0.027700
C2701	C270	0.539000	0.050600	0.567800
C2711	C271	0.545400	0.033300	0.612300
H2081	H208	0.574600	0.015100	0.626900
C2721	C272	0.509500	0.041900	0.637700
C2731	C273	0.521600	0.028000	0.688500
H2091	H209	0.492700	0.014700	0.699200
H2101	H210	0.544300	0.991700	0.693900
C2741	C274	0.682800	0.134700	0.713200
H2111	H211	0.664400	0.132600	0.681900
H2121	H212	0.713100	0.155800	0.713000
H2131	H213	0.688400	0.091000	0.725500
C2751	C275	0.625100	0.291200	0.778200
C2761	C276	0.655900	0.329700	0.814500
C2771	C277	0.670200	0.389300	0.803600
H2141	H214	0.659300	0.407300	0.774100
C2781	C278	0.701500	0.423100	0.837600
H2151	H215	0.712300	0.464400	0.830400
C2791	C279	0.700200	0.342600	0.889500
H2161	H216	0.709500	0.326700	0.919900
C2801	C280	0.670400	0.305000	0.857900
H2171	H217	0.660200	0.263800	0.865900
C2811	C281	0.398000	0.344600	0.746500
H2181	H218	0.431600	0.341600	0.760300
H2191	H219	0.386700	0.388300	0.750600
H2201	H220	0.380200	0.313700	0.761300
C2821	C282	0.384800	0.343100	0.595100
C2831	C283	0.352900	0.380400	0.558700
C2841	C284	0.369400	0.439300	0.544300
H2211	H221	0.399000	0.456400	0.559000
C2851	C285	0.341500	0.471300	0.508700
H2221	H222	0.352900	0.510200	0.498100
C2861	C286	0.282500	0.395000	0.502900
H2231	H223	0.251900	0.380300	0.489100
C2871	C287	0.308700	0.358700	0.537700
H2241	H224	0.296500	0.319500	0.547100
C2881	C288	0.450900	0.119600	0.475500
H2251	H225	0.444800	0.159600	0.490800
H2261	H226	0.453300	0.129000	0.443700
H2271	H227	0.424900	0.089300	0.475700
C2891	C289	0.607900	0.087000	0.547100
C2901	C290	0.644700	0.074400	0.520000
C2911	C291	0.682200	0.115500	0.524700
H2281	H228	0.684300	0.151400	0.544800
C2921	C292	0.717300	0.103800	0.499700
H2291	H229	0.744500	0.130400	0.504700
C2931	C293	0.676700	0.017600	0.464100
H2301	H230	0.674600	0.983400	0.442600
C2941	C294	0.641400	0.024900	0.488700
H2311	H231	0.615200	0.996400	0.484100
C2951	C295	0.026300	0.820500	0.242000
C2961	C296	0.053100	0.772800	0.268300
H2321	H232	0.038200	0.741500	0.283900
C2971	C297	0.100900	0.771600	0.271500
C2981	C298	0.124200	0.815200	0.249100
C2991	C299	0.098000	0.863800	0.224800
H2331	H233	0.113600	0.895800	0.210500
C3001	C300	0.049000	0.867000	0.220700
C3011	C301	0.023400	0.921100	0.191400
H2341	H234	0.042100	0.961200	0.197300
H2351	H235	0.992500	0.928700	0.200000
C3021	C302	0.016100	0.904400	0.140800
C3031	C303	0.052800	0.917300	0.117900
H2361	H236	0.080700	0.937600	0.133600
C3041	C304	0.048700	0.900800	0.073000
C3051	C305	0.008500	0.870000	0.048500
C3061	C306	0.972000	0.858500	0.070800
H2371	H237	0.944200	0.838400	0.054600
C3071	C307	0.974800	0.875800	0.116900
C3081	C308	0.932300	0.862800	0.138200
H2381	H238	0.933300	0.892300	0.164500
H2391	H239	0.903400	0.872700	0.115400
C3091	C309	0.929200	0.793000	0.155000
C3101	C310	0.906500	0.748800	0.123500
H2401	H240	0.893200	0.762300	0.093300
C3111	C311	0.902800	0.684700	0.135700
C3121	C312	0.922300	0.662900	0.179300
C3131	C313	0.944600	0.708500	0.211100
H2411	H241	0.957700	0.694900	0.241400
C3141	C314	0.948100	0.772600	0.199700
C3151	C315	0.972700	0.816700	0.238000
H2421	H242	0.959300	0.860500	0.232600
H2431	H243	0.965800	0.801200	0.267500
C3161	C316	0.193700	0.841100	0.219700
H2441	H244	0.197300	0.886400	0.228700
H2451	H245	0.224700	0.822400	0.219100
H2461	H246	0.173700	0.837800	0.189100
C3171	C317	0.153500	0.733500	0.335900
C3181	C318	0.179900	0.675900	0.356800
C3191	C319	0.217500	0.683900	0.392800
H2471	H247	0.227100	0.725600	0.404000
C3201	C320	0.241000	0.629400	0.412200
H2481	H248	0.266900	0.634800	0.436900
C3211	C321	0.192500	0.562500	0.362600
H2491	H249	0.183400	0.520300	0.352200
C3221	C322	0.167600	0.614400	0.340800
H2501	H250	0.142500	0.608000	0.315300
C3231	C323	0.943200	0.575400	0.231300
H2511	H251	0.929100	0.592400	0.256300
H2521	H252	0.941700	0.528200	0.231500
H2531	H253	0.976100	0.589200	0.235500
C3241	C324	0.898400	0.608300	0.077100
C3251	C325	0.865200	0.571900	0.041900
C3261	C326	0.881600	0.517800	0.022200
H2541	H254	0.913500	0.504200	0.031300
C3271	C327	0.850300	0.483900	0.988900
H2551	H255	0.861500	0.447300	0.975100
C3281	C328	0.789600	0.553300	0.994900
H2561	H256	0.757500	0.565500	0.985400
C3291	C329	0.818300	0.590000	0.028000
H2571	H257	0.806200	0.626700	0.041000
C3301	C330	0.966800	0.828100	0.977900
H2581	H258	0.940800	0.858300	0.977700
H2591	H259	0.970700	0.820200	0.946300
H2601	H260	0.959900	0.787400	0.991900
C3311	C331	0.085800	0.972500	0.029400
C3321	C332	0.128200	0.982000	0.009000
C3331	C333	0.126000	0.024200	0.973400
H2611	H261	0.097800	0.047600	0.962500
C3341	C334	0.164300	0.032600	0.953600
H2621	H262	0.162000	0.061300	0.928400
C3351	C335	0.207700	0.961400	0.004200
H2631	H263	0.236600	0.939800	0.015400
C3361	C336	0.170200	0.950200	0.025100
H2641	H264	0.173000	0.921200	0.050100
