data_CURQEN_clean_PM
_symmetry_space_group_name_H-M	'P1'
_cell_length_a	10.334000
_cell_length_b	15.971400
_cell_length_c	25.307400
_cell_angle_alpha	90.000000
_cell_angle_beta	93.277000
_cell_angle_gamma	90.000000
_symmetry_Int_Tables_number 1

loop_
_symmetry_equiv_pos_as_xyz
'x,y,z'

loop_
_atom_site_label
_atom_site_type_symbol
_atom_site_fract_x
_atom_site_fract_y
_atom_site_fract_z
Cu11	Cu1	0.760380	0.214290	0.833240
N11	N1	0.068800	0.990300	0.923620
N21	N2	0.164900	0.071000	0.024720
C11	C1	0.010100	0.946600	0.882070
C21	C2	0.089500	0.955100	0.837400
H11	H1	0.072000	0.931700	0.803200
C31	C3	0.193700	0.002500	0.852800
H21	H2	0.262200	0.018300	0.831400
C41	C4	0.181700	0.024800	0.907660
C51	C5	0.270600	0.071800	0.939850
C61	C6	0.261300	0.093800	0.993130
C71	C7	0.349700	0.147700	0.024200
H31	H3	0.426300	0.172800	0.012300
C81	C8	0.304200	0.155900	0.072400
H41	H4	0.342600	0.187800	0.100900
C91	C9	0.186500	0.107500	0.073460
C101	C10	0.893700	0.901000	0.883500
C111	C11	0.854200	0.854700	0.833760
C121	C12	0.740100	0.874500	0.804210
H51	H5	0.681400	0.914600	0.816800
C131	C13	0.714200	0.834600	0.756300
H61	H6	0.637700	0.849600	0.736000
N31	N3	0.791100	0.775800	0.737010
C141	C14	0.897700	0.753500	0.767600
H71	H7	0.951100	0.709900	0.755600
C151	C15	0.931900	0.791300	0.815400
H81	H8	0.007700	0.774200	0.835500
C161	C16	0.387400	0.103400	0.913500
C171	C17	0.511200	0.073100	0.926800
H91	H9	0.523200	0.029900	0.952400
C181	C18	0.616800	0.105800	0.902600
H101	H10	0.700500	0.084200	0.912300
N41	N4	0.605800	0.167200	0.866010
C191	C19	0.486200	0.195300	0.853200
H111	H11	0.476400	0.238100	0.827200
C201	C20	0.376500	0.166000	0.875400
H121	H12	0.294000	0.188500	0.864800
N51	N5	0.893700	0.277000	0.877430
C211	C21	0.994900	0.235800	0.899100
H131	H13	0.996900	0.176600	0.895700
C221	C22	0.097800	0.275300	0.926300
H141	H14	0.167700	0.243200	0.941600
C231	C23	0.098400	0.361400	0.931000
C241	C24	0.991100	0.404600	0.910200
H151	H15	0.986200	0.463800	0.913600
C251	C25	0.890800	0.360300	0.884500
H161	H16	0.816500	0.390300	0.871200
C261	C26	0.216400	0.405800	0.953800
C271	C27	0.237700	0.406600	0.008600
C281	C28	0.156000	0.370500	0.046600
H171	H17	0.075200	0.343500	0.038900
C291	C29	0.214800	0.382000	0.095600
H181	H18	0.183300	0.363500	0.128200
C301	C30	0.333800	0.427300	0.089100
C311	C31	0.424400	0.453200	0.129400
C321	C32	0.541300	0.497300	0.122600
C331	C33	0.627400	0.530000	0.164000
H191	H19	0.616700	0.525400	0.200900
C341	C34	0.726000	0.568300	0.141200
H201	H20	0.797700	0.595200	0.159200
C351	C35	0.296100	0.438600	0.914900
C361	C36	0.400100	0.428600	0.185110
C371	C37	0.289400	0.453600	0.209700
H211	H21	0.226700	0.488200	0.191500
C381	C38	0.272100	0.427600	0.260800
H221	H22	0.196700	0.446200	0.277100
N61	N6	0.354100	0.378100	0.288680
C391	C39	0.462500	0.355700	0.265500
H231	H23	0.524600	0.322300	0.285000
C401	C40	0.487700	0.379400	0.214200
H241	H24	0.565300	0.361700	0.199200
N71	N7	0.410600	0.481500	0.924770
N81	N8	0.344300	0.441300	0.035920
Cu21	Cu2	0.739620	0.714290	0.666760
N91	N9	0.431200	0.490300	0.576380
N101	N10	0.335100	0.571000	0.475280
C411	C41	0.489900	0.446600	0.617930
C421	C42	0.410500	0.455100	0.662600
H251	H25	0.428000	0.431700	0.696800
C431	C43	0.306300	0.502500	0.647200
H261	H26	0.237800	0.518300	0.668600
C441	C44	0.318300	0.524800	0.592340
C451	C45	0.229400	0.571800	0.560150
C461	C46	0.238700	0.593800	0.506870
C471	C47	0.150300	0.647700	0.475800
H271	H27	0.073700	0.672800	0.487700
C481	C48	0.195800	0.655900	0.427600
H281	H28	0.157400	0.687800	0.399100
C491	C49	0.313500	0.607500	0.426540
C501	C50	0.606300	0.401000	0.616500
C511	C51	0.645800	0.354700	0.666240
C521	C52	0.759900	0.374500	0.695790
H291	H29	0.818600	0.414600	0.683200
C531	C53	0.785800	0.334600	0.743700
H301	H30	0.862300	0.349600	0.764000
N111	N11	0.708900	0.275800	0.762990
C541	C54	0.602300	0.253500	0.732400
H311	H31	0.548900	0.209900	0.744400
C551	C55	0.568100	0.291300	0.684600
H321	H32	0.492300	0.274200	0.664500
C561	C56	0.112600	0.603400	0.586500
C571	C57	0.988800	0.573100	0.573200
H331	H33	0.976800	0.529900	0.547600
C581	C58	0.883200	0.605800	0.597400
H341	H34	0.799500	0.584200	0.587700
N121	N12	0.894200	0.667200	0.633990
C591	C59	0.013800	0.695300	0.646800
H351	H35	0.023600	0.738100	0.672800
C601	C60	0.123500	0.666000	0.624600
H361	H36	0.206000	0.688500	0.635200
N131	N13	0.606300	0.777000	0.622570
C611	C61	0.505100	0.735800	0.600900
H371	H37	0.503100	0.676600	0.604300
C621	C62	0.402200	0.775300	0.573700
H381	H38	0.332300	0.743200	0.558400
C631	C63	0.401600	0.861400	0.569000
C641	C64	0.508900	0.904600	0.589800
H391	H39	0.513800	0.963800	0.586400
C651	C65	0.609200	0.860300	0.615500
H401	H40	0.683500	0.890300	0.628800
C661	C66	0.283600	0.905800	0.546200
C671	C67	0.262300	0.906600	0.491400
C681	C68	0.344000	0.870500	0.453400
H411	H41	0.424800	0.843500	0.461100
C691	C69	0.285200	0.882000	0.404400
H421	H42	0.316700	0.863500	0.371800
C701	C70	0.166200	0.927300	0.410900
C711	C71	0.075600	0.953200	0.370600
C721	C72	0.958700	0.997300	0.377400
C731	C73	0.872600	0.030000	0.336000
H431	H43	0.883300	0.025400	0.299100
C741	C74	0.774000	0.068300	0.358800
H441	H44	0.702300	0.095200	0.340800
C751	C75	0.203900	0.938600	0.585100
C761	C76	0.099900	0.928600	0.314890
C771	C77	0.210600	0.953600	0.290300
H451	H45	0.273300	0.988200	0.308500
C781	C78	0.227900	0.927600	0.239200
H461	H46	0.303300	0.946200	0.222900
N141	N14	0.145900	0.878100	0.211320
C791	C79	0.037500	0.855700	0.234500
H471	H47	0.975400	0.822300	0.215000
C801	C80	0.012300	0.879400	0.285800
H481	H48	0.934700	0.861700	0.300800
N151	N15	0.089400	0.981500	0.575230
N161	N16	0.155700	0.941300	0.464080
Cu31	Cu3	0.239620	0.785710	0.166760
N171	N17	0.931200	0.009700	0.076380
N181	N18	0.835100	0.929000	0.975280
C811	C81	0.989900	0.053400	0.117930
C821	C82	0.910500	0.044900	0.162600
H491	H49	0.928000	0.068300	0.196800
C831	C83	0.806300	0.997500	0.147200
H501	H50	0.737800	0.981700	0.168600
C841	C84	0.818300	0.975200	0.092340
C851	C85	0.729400	0.928200	0.060150
C861	C86	0.738700	0.906200	0.006870
C871	C87	0.650300	0.852300	0.975800
H511	H51	0.573700	0.827200	0.987700
C881	C88	0.695800	0.844100	0.927600
H521	H52	0.657400	0.812200	0.899100
C891	C89	0.813500	0.892500	0.926540
C901	C90	0.106300	0.099000	0.116500
C911	C91	0.145800	0.145300	0.166240
C921	C92	0.259900	0.125500	0.195790
H531	H53	0.318600	0.085400	0.183200
C931	C93	0.285800	0.165400	0.243700
H541	H54	0.362300	0.150400	0.264000
N191	N19	0.208900	0.224200	0.262990
C941	C94	0.102300	0.246500	0.232400
H551	H55	0.048900	0.290100	0.244400
C951	C95	0.068100	0.208700	0.184600
H561	H56	0.992300	0.225800	0.164500
C961	C96	0.612600	0.896600	0.086500
C971	C97	0.488800	0.926900	0.073200
H571	H57	0.476800	0.970100	0.047600
C981	C98	0.383200	0.894200	0.097400
H581	H58	0.299500	0.915800	0.087700
N201	N20	0.394200	0.832800	0.133990
C991	C99	0.513800	0.804700	0.146800
H591	H59	0.523600	0.761900	0.172800
C1001	C100	0.623500	0.834000	0.124600
H601	H60	0.706000	0.811500	0.135200
N211	N21	0.106300	0.723000	0.122570
C1011	C101	0.005100	0.764200	0.100900
H611	H61	0.003100	0.823400	0.104300
C1021	C102	0.902200	0.724700	0.073700
H621	H62	0.832300	0.756800	0.058400
C1031	C103	0.901600	0.638600	0.069000
C1041	C104	0.008900	0.595400	0.089800
H631	H63	0.013800	0.536200	0.086400
C1051	C105	0.109200	0.639700	0.115500
H641	H64	0.183500	0.609700	0.128800
C1061	C106	0.783600	0.594200	0.046200
C1071	C107	0.762300	0.593400	0.991400
C1081	C108	0.844000	0.629500	0.953400
H651	H65	0.924800	0.656500	0.961100
C1091	C109	0.785200	0.618000	0.904400
H661	H66	0.816700	0.636500	0.871800
C1101	C110	0.666200	0.572700	0.910900
C1111	C111	0.575600	0.546800	0.870600
C1121	C112	0.458700	0.502700	0.877400
C1131	C113	0.372600	0.470000	0.836000
H671	H67	0.383300	0.474600	0.799100
C1141	C114	0.274000	0.431700	0.858800
H681	H68	0.202300	0.404800	0.840800
C1151	C115	0.703900	0.561400	0.085100
C1161	C116	0.599900	0.571400	0.814890
C1171	C117	0.710600	0.546400	0.790300
H691	H69	0.773300	0.511800	0.808500
C1181	C118	0.727900	0.572400	0.739200
H701	H70	0.803300	0.553800	0.722900
N221	N22	0.645900	0.621900	0.711320
C1191	C119	0.537500	0.644300	0.734500
H711	H71	0.475400	0.677700	0.715000
C1201	C120	0.512300	0.620600	0.785800
H721	H72	0.434700	0.638300	0.800800
N231	N23	0.589400	0.518500	0.075230
N241	N24	0.655700	0.558700	0.964080
Cu41	Cu4	0.260380	0.285710	0.333240
N251	N25	0.568800	0.509700	0.423620
N261	N26	0.664900	0.429000	0.524720
C1211	C121	0.510100	0.553400	0.382070
C1221	C122	0.589500	0.544900	0.337400
H731	H73	0.572000	0.568300	0.303200
C1231	C123	0.693700	0.497500	0.352800
H741	H74	0.762200	0.481700	0.331400
C1241	C124	0.681700	0.475200	0.407660
C1251	C125	0.770600	0.428200	0.439850
C1261	C126	0.761300	0.406200	0.493130
C1271	C127	0.849700	0.352300	0.524200
H751	H75	0.926300	0.327200	0.512300
C1281	C128	0.804200	0.344100	0.572400
H761	H76	0.842600	0.312200	0.600900
C1291	C129	0.686500	0.392500	0.573460
C1301	C130	0.393700	0.599000	0.383500
C1311	C131	0.354200	0.645300	0.333760
C1321	C132	0.240100	0.625500	0.304210
H771	H77	0.181400	0.585400	0.316800
C1331	C133	0.214200	0.665400	0.256300
H781	H78	0.137700	0.650400	0.236000
N271	N27	0.291100	0.724200	0.237010
C1341	C134	0.397700	0.746500	0.267600
H791	H79	0.451100	0.790100	0.255600
C1351	C135	0.431900	0.708700	0.315400
H801	H80	0.507700	0.725800	0.335500
C1361	C136	0.887400	0.396600	0.413500
C1371	C137	0.011200	0.426900	0.426800
H811	H81	0.023200	0.470100	0.452400
C1381	C138	0.116800	0.394200	0.402600
H821	H82	0.200500	0.415800	0.412300
N281	N28	0.105800	0.332800	0.366010
C1391	C139	0.986200	0.304700	0.353200
H831	H83	0.976400	0.261900	0.327200
C1401	C140	0.876500	0.334000	0.375400
H841	H84	0.794000	0.311500	0.364800
N291	N29	0.393700	0.223000	0.377430
C1411	C141	0.494900	0.264200	0.399100
H851	H85	0.496900	0.323400	0.395700
C1421	C142	0.597800	0.224700	0.426300
H861	H86	0.667700	0.256800	0.441600
C1431	C143	0.598400	0.138600	0.431000
C1441	C144	0.491100	0.095400	0.410200
H871	H87	0.486200	0.036200	0.413600
C1451	C145	0.390800	0.139700	0.384500
H881	H88	0.316500	0.109700	0.371200
C1461	C146	0.716400	0.094200	0.453800
C1471	C147	0.737700	0.093400	0.508600
C1481	C148	0.656000	0.129500	0.546600
H891	H89	0.575200	0.156500	0.538900
C1491	C149	0.714800	0.118000	0.595600
H901	H90	0.683300	0.136500	0.628200
C1501	C150	0.833800	0.072700	0.589100
C1511	C151	0.924400	0.046800	0.629400
C1521	C152	0.041300	0.002700	0.622600
C1531	C153	0.127400	0.970000	0.664000
H911	H91	0.116700	0.974600	0.700900
C1541	C154	0.226000	0.931700	0.641200
H921	H92	0.297700	0.904800	0.659200
C1551	C155	0.796100	0.061400	0.414900
C1561	C156	0.900100	0.071400	0.685110
C1571	C157	0.789400	0.046400	0.709700
H931	H93	0.726700	0.011800	0.691500
C1581	C158	0.772100	0.072400	0.760800
H941	H94	0.696700	0.053800	0.777100
N301	N30	0.854100	0.121900	0.788680
C1591	C159	0.962500	0.144300	0.765500
H951	H95	0.024600	0.177700	0.785000
C1601	C160	0.987700	0.120600	0.714200
H961	H96	0.065300	0.138300	0.699200
N311	N31	0.910600	0.018500	0.424770
N321	N32	0.844300	0.058700	0.535920
Sn11	Sn1	0.000000	0.000000	0.000000
Sn21	Sn2	0.500000	0.500000	0.500000
Sn31	Sn3	0.500000	0.500000	0.000000
Sn41	Sn4	0.000000	0.000000	0.500000
