data_CURZEV_clean_PM
_symmetry_space_group_name_H-M	'P1'
_cell_length_a	11.038900
_cell_length_b	22.784000
_cell_length_c	31.280000
_cell_angle_alpha	90.000000
_cell_angle_beta	90.000000
_cell_angle_gamma	90.000000
_symmetry_Int_Tables_number 1

loop_
_symmetry_equiv_pos_as_xyz
'x,y,z'

loop_
_atom_site_label
_atom_site_type_symbol
_atom_site_fract_x
_atom_site_fract_y
_atom_site_fract_z
H11	H1	0.805600	0.986000	0.978600
O11	O1	0.168800	0.833400	0.879660
O21	O2	0.020500	0.946000	0.857810
O31	O3	0.982400	0.932670	0.939620
O41	O4	0.144200	0.863500	0.993300
C11	C1	0.076900	0.844900	0.849100
H21	H2	0.113200	0.861900	0.823300
C21	C2	0.988800	0.888400	0.868530
H31	H3	0.905000	0.879500	0.860500
C31	C3	0.009200	0.880800	0.916140
H41	H4	0.960900	0.847900	0.926900
C41	C4	0.145500	0.865500	0.917800
H51	H5	0.193500	0.901700	0.917900
C51	C5	0.177300	0.829200	0.956000
H61	H6	0.133100	0.792500	0.955600
H71	H7	0.263400	0.820600	0.956300
N11	N1	0.018100	0.787100	0.838330
C61	C6	0.933700	0.786800	0.806450
O51	O5	0.907200	0.834290	0.787310
N21	N2	0.876100	0.737100	0.796550
C71	C7	0.904400	0.686500	0.816900
N31	N3	0.843200	0.639000	0.807500
H81	H8	0.786300	0.640400	0.788800
H91	H9	0.859900	0.606400	0.820100
C81	C8	0.997200	0.685200	0.846300
H101	H10	0.019700	0.650100	0.859300
C91	C9	0.056400	0.737000	0.856200
H111	H11	0.121800	0.737000	0.875000
H121	H12	0.805600	0.486000	0.478600
O61	O6	0.168800	0.333400	0.379660
O71	O7	0.020500	0.446000	0.357810
O81	O8	0.982400	0.432670	0.439620
O91	O9	0.144200	0.363500	0.493300
C101	C10	0.076900	0.344900	0.349100
H131	H13	0.113200	0.361900	0.323300
C111	C11	0.988800	0.388400	0.368530
H141	H14	0.905000	0.379500	0.360500
C121	C12	0.009200	0.380800	0.416140
H151	H15	0.960900	0.347900	0.426900
C131	C13	0.145500	0.365500	0.417800
H161	H16	0.193500	0.401700	0.417900
C141	C14	0.177300	0.329200	0.456000
H171	H17	0.133100	0.292500	0.455600
H181	H18	0.263400	0.320600	0.456300
N41	N4	0.018100	0.287100	0.338330
C151	C15	0.933700	0.286800	0.306450
O101	O10	0.907200	0.334290	0.287310
N51	N5	0.876100	0.237100	0.296550
C161	C16	0.904400	0.186500	0.316900
N61	N6	0.843200	0.139000	0.307500
H191	H19	0.786300	0.140400	0.288800
H201	H20	0.859900	0.106400	0.320100
C171	C17	0.997200	0.185200	0.346300
H211	H21	0.019700	0.150100	0.359300
C181	C18	0.056400	0.237000	0.356200
H221	H22	0.121800	0.237000	0.375000
H231	H23	0.305600	0.986000	0.478600
O111	O11	0.668800	0.833400	0.379660
O121	O12	0.520500	0.946000	0.357810
O131	O13	0.482400	0.932670	0.439620
O141	O14	0.644200	0.863500	0.493300
C191	C19	0.576900	0.844900	0.349100
H241	H24	0.613200	0.861900	0.323300
C201	C20	0.488800	0.888400	0.368530
H251	H25	0.405000	0.879500	0.360500
C211	C21	0.509200	0.880800	0.416140
H261	H26	0.460900	0.847900	0.426900
C221	C22	0.645500	0.865500	0.417800
H271	H27	0.693500	0.901700	0.417900
C231	C23	0.677300	0.829200	0.456000
H281	H28	0.633100	0.792500	0.455600
H291	H29	0.763400	0.820600	0.456300
N71	N7	0.518100	0.787100	0.338330
C241	C24	0.433700	0.786800	0.306450
O151	O15	0.407200	0.834290	0.287310
N81	N8	0.376100	0.737100	0.296550
C251	C25	0.404400	0.686500	0.316900
N91	N9	0.343200	0.639000	0.307500
H301	H30	0.286300	0.640400	0.288800
H311	H31	0.359900	0.606400	0.320100
C261	C26	0.497200	0.685200	0.346300
H321	H32	0.519700	0.650100	0.359300
C271	C27	0.556400	0.737000	0.356200
H331	H33	0.621800	0.737000	0.375000
H341	H34	0.305600	0.486000	0.978600
O161	O16	0.668800	0.333400	0.879660
O171	O17	0.520500	0.446000	0.857810
O181	O18	0.482400	0.432670	0.939620
O191	O19	0.644200	0.363500	0.993300
C281	C28	0.576900	0.344900	0.849100
H351	H35	0.613200	0.361900	0.823300
C291	C29	0.488800	0.388400	0.868530
H361	H36	0.405000	0.379500	0.860500
C301	C30	0.509200	0.380800	0.916140
H371	H37	0.460900	0.347900	0.926900
C311	C31	0.645500	0.365500	0.917800
H381	H38	0.693500	0.401700	0.917900
C321	C32	0.677300	0.329200	0.956000
H391	H39	0.633100	0.292500	0.955600
H401	H40	0.763400	0.320600	0.956300
N101	N10	0.518100	0.287100	0.838330
C331	C33	0.433700	0.286800	0.806450
O201	O20	0.407200	0.334290	0.787310
N111	N11	0.376100	0.237100	0.796550
C341	C34	0.404400	0.186500	0.816900
N121	N12	0.343200	0.139000	0.807500
H411	H41	0.286300	0.140400	0.788800
H421	H42	0.359900	0.106400	0.820100
C351	C35	0.497200	0.185200	0.846300
H431	H43	0.519700	0.150100	0.859300
C361	C36	0.556400	0.237000	0.856200
H441	H44	0.621800	0.237000	0.875000
H451	H45	0.194400	0.014000	0.978600
O211	O21	0.831200	0.166600	0.879660
O221	O22	0.979500	0.054000	0.857810
O231	O23	0.017600	0.067330	0.939620
O241	O24	0.855800	0.136500	0.993300
C371	C37	0.923100	0.155100	0.849100
H461	H46	0.886800	0.138100	0.823300
C381	C38	0.011200	0.111600	0.868530
H471	H47	0.095000	0.120500	0.860500
C391	C39	0.990800	0.119200	0.916140
H481	H48	0.039100	0.152100	0.926900
C401	C40	0.854500	0.134500	0.917800
H491	H49	0.806500	0.098300	0.917900
C411	C41	0.822700	0.170800	0.956000
H501	H50	0.866900	0.207500	0.955600
H511	H51	0.736600	0.179400	0.956300
N131	N13	0.981900	0.212900	0.838330
C421	C42	0.066300	0.213200	0.806450
O251	O25	0.092800	0.165710	0.787310
N141	N14	0.123900	0.262900	0.796550
C431	C43	0.095600	0.313500	0.816900
N151	N15	0.156800	0.361000	0.807500
H521	H52	0.213700	0.359600	0.788800
H531	H53	0.140100	0.393600	0.820100
C441	C44	0.002800	0.314800	0.846300
H541	H54	0.980300	0.349900	0.859300
C451	C45	0.943600	0.263000	0.856200
H551	H55	0.878200	0.263000	0.875000
H561	H56	0.194400	0.514000	0.478600
O261	O26	0.831200	0.666600	0.379660
O271	O27	0.979500	0.554000	0.357810
O281	O28	0.017600	0.567330	0.439620
O291	O29	0.855800	0.636500	0.493300
C461	C46	0.923100	0.655100	0.349100
H571	H57	0.886800	0.638100	0.323300
C471	C47	0.011200	0.611600	0.368530
H581	H58	0.095000	0.620500	0.360500
C481	C48	0.990800	0.619200	0.416140
H591	H59	0.039100	0.652100	0.426900
C491	C49	0.854500	0.634500	0.417800
H601	H60	0.806500	0.598300	0.417900
C501	C50	0.822700	0.670800	0.456000
H611	H61	0.866900	0.707500	0.455600
H621	H62	0.736600	0.679400	0.456300
N161	N16	0.981900	0.712900	0.338330
C511	C51	0.066300	0.713200	0.306450
O301	O30	0.092800	0.665710	0.287310
N171	N17	0.123900	0.762900	0.296550
C521	C52	0.095600	0.813500	0.316900
N181	N18	0.156800	0.861000	0.307500
H631	H63	0.213700	0.859600	0.288800
H641	H64	0.140100	0.893600	0.320100
C531	C53	0.002800	0.814800	0.346300
H651	H65	0.980300	0.849900	0.359300
C541	C54	0.943600	0.763000	0.356200
H661	H66	0.878200	0.763000	0.375000
H671	H67	0.694400	0.014000	0.478600
O311	O31	0.331200	0.166600	0.379660
O321	O32	0.479500	0.054000	0.357810
O331	O33	0.517600	0.067330	0.439620
O341	O34	0.355800	0.136500	0.493300
C551	C55	0.423100	0.155100	0.349100
H681	H68	0.386800	0.138100	0.323300
C561	C56	0.511200	0.111600	0.368530
H691	H69	0.595000	0.120500	0.360500
C571	C57	0.490800	0.119200	0.416140
H701	H70	0.539100	0.152100	0.426900
C581	C58	0.354500	0.134500	0.417800
H711	H71	0.306500	0.098300	0.417900
C591	C59	0.322700	0.170800	0.456000
H721	H72	0.366900	0.207500	0.455600
H731	H73	0.236600	0.179400	0.456300
N191	N19	0.481900	0.212900	0.338330
C601	C60	0.566300	0.213200	0.306450
O351	O35	0.592800	0.165710	0.287310
N201	N20	0.623900	0.262900	0.296550
C611	C61	0.595600	0.313500	0.316900
N211	N21	0.656800	0.361000	0.307500
H741	H74	0.713700	0.359600	0.288800
H751	H75	0.640100	0.393600	0.320100
C621	C62	0.502800	0.314800	0.346300
H761	H76	0.480300	0.349900	0.359300
C631	C63	0.443600	0.263000	0.356200
H771	H77	0.378200	0.263000	0.375000
H781	H78	0.694400	0.514000	0.978600
O361	O36	0.331200	0.666600	0.879660
O371	O37	0.479500	0.554000	0.857810
O381	O38	0.517600	0.567330	0.939620
O391	O39	0.355800	0.636500	0.993300
C641	C64	0.423100	0.655100	0.849100
H791	H79	0.386800	0.638100	0.823300
C651	C65	0.511200	0.611600	0.868530
H801	H80	0.595000	0.620500	0.860500
C661	C66	0.490800	0.619200	0.916140
H811	H81	0.539100	0.652100	0.926900
C671	C67	0.354500	0.634500	0.917800
H821	H82	0.306500	0.598300	0.917900
C681	C68	0.322700	0.670800	0.956000
H831	H83	0.366900	0.707500	0.955600
H841	H84	0.236600	0.679400	0.956300
N221	N22	0.481900	0.712900	0.838330
C691	C69	0.566300	0.713200	0.806450
O401	O40	0.592800	0.665710	0.787310
N231	N23	0.623900	0.762900	0.796550
C701	C70	0.595600	0.813500	0.816900
N241	N24	0.656800	0.861000	0.807500
H851	H85	0.713700	0.859600	0.788800
H861	H86	0.640100	0.893600	0.820100
C711	C71	0.502800	0.814800	0.846300
H871	H87	0.480300	0.849900	0.859300
C721	C72	0.443600	0.763000	0.856200
H881	H88	0.378200	0.763000	0.875000
H891	H89	0.194400	0.986000	0.021400
O411	O41	0.831200	0.833400	0.120340
O421	O42	0.979500	0.946000	0.142190
O431	O43	0.017600	0.932670	0.060380
O441	O44	0.855800	0.863500	0.006700
C731	C73	0.923100	0.844900	0.150900
H901	H90	0.886800	0.861900	0.176700
C741	C74	0.011200	0.888400	0.131470
H911	H91	0.095000	0.879500	0.139500
C751	C75	0.990800	0.880800	0.083860
H921	H92	0.039100	0.847900	0.073100
C761	C76	0.854500	0.865500	0.082200
H931	H93	0.806500	0.901700	0.082100
C771	C77	0.822700	0.829200	0.044000
H941	H94	0.866900	0.792500	0.044400
H951	H95	0.736600	0.820600	0.043700
N251	N25	0.981900	0.787100	0.161670
C781	C78	0.066300	0.786800	0.193550
O451	O45	0.092800	0.834290	0.212690
N261	N26	0.123900	0.737100	0.203450
C791	C79	0.095600	0.686500	0.183100
N271	N27	0.156800	0.639000	0.192500
H961	H96	0.213700	0.640400	0.211200
H971	H97	0.140100	0.606400	0.179900
C801	C80	0.002800	0.685200	0.153700
H981	H98	0.980300	0.650100	0.140700
C811	C81	0.943600	0.737000	0.143800
H991	H99	0.878200	0.737000	0.125000
H1001	H100	0.194400	0.486000	0.521400
O461	O46	0.831200	0.333400	0.620340
O471	O47	0.979500	0.446000	0.642190
O481	O48	0.017600	0.432670	0.560380
O491	O49	0.855800	0.363500	0.506700
C821	C82	0.923100	0.344900	0.650900
H1011	H101	0.886800	0.361900	0.676700
C831	C83	0.011200	0.388400	0.631470
H1021	H102	0.095000	0.379500	0.639500
C841	C84	0.990800	0.380800	0.583860
H1031	H103	0.039100	0.347900	0.573100
C851	C85	0.854500	0.365500	0.582200
H1041	H104	0.806500	0.401700	0.582100
C861	C86	0.822700	0.329200	0.544000
H1051	H105	0.866900	0.292500	0.544400
H1061	H106	0.736600	0.320600	0.543700
N281	N28	0.981900	0.287100	0.661670
C871	C87	0.066300	0.286800	0.693550
O501	O50	0.092800	0.334290	0.712690
N291	N29	0.123900	0.237100	0.703450
C881	C88	0.095600	0.186500	0.683100
N301	N30	0.156800	0.139000	0.692500
H1071	H107	0.213700	0.140400	0.711200
H1081	H108	0.140100	0.106400	0.679900
C891	C89	0.002800	0.185200	0.653700
H1091	H109	0.980300	0.150100	0.640700
C901	C90	0.943600	0.237000	0.643800
H1101	H110	0.878200	0.237000	0.625000
H1111	H111	0.694400	0.986000	0.521400
O511	O51	0.331200	0.833400	0.620340
O521	O52	0.479500	0.946000	0.642190
O531	O53	0.517600	0.932670	0.560380
O541	O54	0.355800	0.863500	0.506700
C911	C91	0.423100	0.844900	0.650900
H1121	H112	0.386800	0.861900	0.676700
C921	C92	0.511200	0.888400	0.631470
H1131	H113	0.595000	0.879500	0.639500
C931	C93	0.490800	0.880800	0.583860
H1141	H114	0.539100	0.847900	0.573100
C941	C94	0.354500	0.865500	0.582200
H1151	H115	0.306500	0.901700	0.582100
C951	C95	0.322700	0.829200	0.544000
H1161	H116	0.366900	0.792500	0.544400
H1171	H117	0.236600	0.820600	0.543700
N311	N31	0.481900	0.787100	0.661670
C961	C96	0.566300	0.786800	0.693550
O551	O55	0.592800	0.834290	0.712690
N321	N32	0.623900	0.737100	0.703450
C971	C97	0.595600	0.686500	0.683100
N331	N33	0.656800	0.639000	0.692500
H1181	H118	0.713700	0.640400	0.711200
H1191	H119	0.640100	0.606400	0.679900
C981	C98	0.502800	0.685200	0.653700
H1201	H120	0.480300	0.650100	0.640700
C991	C99	0.443600	0.737000	0.643800
H1211	H121	0.378200	0.737000	0.625000
H1221	H122	0.694400	0.486000	0.021400
O561	O56	0.331200	0.333400	0.120340
O571	O57	0.479500	0.446000	0.142190
O581	O58	0.517600	0.432670	0.060380
O591	O59	0.355800	0.363500	0.006700
C1001	C100	0.423100	0.344900	0.150900
H1231	H123	0.386800	0.361900	0.176700
C1011	C101	0.511200	0.388400	0.131470
H1241	H124	0.595000	0.379500	0.139500
C1021	C102	0.490800	0.380800	0.083860
H1251	H125	0.539100	0.347900	0.073100
C1031	C103	0.354500	0.365500	0.082200
H1261	H126	0.306500	0.401700	0.082100
C1041	C104	0.322700	0.329200	0.044000
H1271	H127	0.366900	0.292500	0.044400
H1281	H128	0.236600	0.320600	0.043700
N341	N34	0.481900	0.287100	0.161670
C1051	C105	0.566300	0.286800	0.193550
O601	O60	0.592800	0.334290	0.212690
N351	N35	0.623900	0.237100	0.203450
C1061	C106	0.595600	0.186500	0.183100
N361	N36	0.656800	0.139000	0.192500
H1291	H129	0.713700	0.140400	0.211200
H1301	H130	0.640100	0.106400	0.179900
C1071	C107	0.502800	0.185200	0.153700
H1311	H131	0.480300	0.150100	0.140700
C1081	C108	0.443600	0.237000	0.143800
H1321	H132	0.378200	0.237000	0.125000
H1331	H133	0.805600	0.014000	0.021400
O611	O61	0.168800	0.166600	0.120340
O621	O62	0.020500	0.054000	0.142190
O631	O63	0.982400	0.067330	0.060380
O641	O64	0.144200	0.136500	0.006700
C1091	C109	0.076900	0.155100	0.150900
H1341	H134	0.113200	0.138100	0.176700
C1101	C110	0.988800	0.111600	0.131470
H1351	H135	0.905000	0.120500	0.139500
C1111	C111	0.009200	0.119200	0.083860
H1361	H136	0.960900	0.152100	0.073100
C1121	C112	0.145500	0.134500	0.082200
H1371	H137	0.193500	0.098300	0.082100
C1131	C113	0.177300	0.170800	0.044000
H1381	H138	0.133100	0.207500	0.044400
H1391	H139	0.263400	0.179400	0.043700
N371	N37	0.018100	0.212900	0.161670
C1141	C114	0.933700	0.213200	0.193550
O651	O65	0.907200	0.165710	0.212690
N381	N38	0.876100	0.262900	0.203450
C1151	C115	0.904400	0.313500	0.183100
N391	N39	0.843200	0.361000	0.192500
H1401	H140	0.786300	0.359600	0.211200
H1411	H141	0.859900	0.393600	0.179900
C1161	C116	0.997200	0.314800	0.153700
H1421	H142	0.019700	0.349900	0.140700
C1171	C117	0.056400	0.263000	0.143800
H1431	H143	0.121800	0.263000	0.125000
H1441	H144	0.805600	0.514000	0.521400
O661	O66	0.168800	0.666600	0.620340
O671	O67	0.020500	0.554000	0.642190
O681	O68	0.982400	0.567330	0.560380
O691	O69	0.144200	0.636500	0.506700
C1181	C118	0.076900	0.655100	0.650900
H1451	H145	0.113200	0.638100	0.676700
C1191	C119	0.988800	0.611600	0.631470
H1461	H146	0.905000	0.620500	0.639500
C1201	C120	0.009200	0.619200	0.583860
H1471	H147	0.960900	0.652100	0.573100
C1211	C121	0.145500	0.634500	0.582200
H1481	H148	0.193500	0.598300	0.582100
C1221	C122	0.177300	0.670800	0.544000
H1491	H149	0.133100	0.707500	0.544400
H1501	H150	0.263400	0.679400	0.543700
N401	N40	0.018100	0.712900	0.661670
C1231	C123	0.933700	0.713200	0.693550
O701	O70	0.907200	0.665710	0.712690
N411	N41	0.876100	0.762900	0.703450
C1241	C124	0.904400	0.813500	0.683100
N421	N42	0.843200	0.861000	0.692500
H1511	H151	0.786300	0.859600	0.711200
H1521	H152	0.859900	0.893600	0.679900
C1251	C125	0.997200	0.814800	0.653700
H1531	H153	0.019700	0.849900	0.640700
C1261	C126	0.056400	0.763000	0.643800
H1541	H154	0.121800	0.763000	0.625000
H1551	H155	0.305600	0.014000	0.521400
O711	O71	0.668800	0.166600	0.620340
O721	O72	0.520500	0.054000	0.642190
O731	O73	0.482400	0.067330	0.560380
O741	O74	0.644200	0.136500	0.506700
C1271	C127	0.576900	0.155100	0.650900
H1561	H156	0.613200	0.138100	0.676700
C1281	C128	0.488800	0.111600	0.631470
H1571	H157	0.405000	0.120500	0.639500
C1291	C129	0.509200	0.119200	0.583860
H1581	H158	0.460900	0.152100	0.573100
C1301	C130	0.645500	0.134500	0.582200
H1591	H159	0.693500	0.098300	0.582100
C1311	C131	0.677300	0.170800	0.544000
H1601	H160	0.633100	0.207500	0.544400
H1611	H161	0.763400	0.179400	0.543700
N431	N43	0.518100	0.212900	0.661670
C1321	C132	0.433700	0.213200	0.693550
O751	O75	0.407200	0.165710	0.712690
N441	N44	0.376100	0.262900	0.703450
C1331	C133	0.404400	0.313500	0.683100
N451	N45	0.343200	0.361000	0.692500
H1621	H162	0.286300	0.359600	0.711200
H1631	H163	0.359900	0.393600	0.679900
C1341	C134	0.497200	0.314800	0.653700
H1641	H164	0.519700	0.349900	0.640700
C1351	C135	0.556400	0.263000	0.643800
H1651	H165	0.621800	0.263000	0.625000
H1661	H166	0.305600	0.514000	0.021400
O761	O76	0.668800	0.666600	0.120340
O771	O77	0.520500	0.554000	0.142190
O781	O78	0.482400	0.567330	0.060380
O791	O79	0.644200	0.636500	0.006700
C1361	C136	0.576900	0.655100	0.150900
H1671	H167	0.613200	0.638100	0.176700
C1371	C137	0.488800	0.611600	0.131470
H1681	H168	0.405000	0.620500	0.139500
C1381	C138	0.509200	0.619200	0.083860
H1691	H169	0.460900	0.652100	0.073100
C1391	C139	0.645500	0.634500	0.082200
H1701	H170	0.693500	0.598300	0.082100
C1401	C140	0.677300	0.670800	0.044000
H1711	H171	0.633100	0.707500	0.044400
H1721	H172	0.763400	0.679400	0.043700
N461	N46	0.518100	0.712900	0.161670
C1411	C141	0.433700	0.713200	0.193550
O801	O80	0.407200	0.665710	0.212690
N471	N47	0.376100	0.762900	0.203450
C1421	C142	0.404400	0.813500	0.183100
N481	N48	0.343200	0.861000	0.192500
H1731	H173	0.286300	0.859600	0.211200
H1741	H174	0.359900	0.893600	0.179900
C1431	C143	0.497200	0.814800	0.153700
H1751	H175	0.519700	0.849900	0.140700
C1441	C144	0.556400	0.763000	0.143800
H1761	H176	0.621800	0.763000	0.125000
Cu11	Cu1	0.000000	0.927660	0.000000
Cu21	Cu2	0.000000	0.427660	0.500000
Cu31	Cu3	0.500000	0.927660	0.500000
Cu41	Cu4	0.500000	0.427660	0.000000
Cu51	Cu5	0.000000	0.072340	0.000000
Cu61	Cu6	0.000000	0.572340	0.500000
Cu71	Cu7	0.500000	0.072340	0.500000
Cu81	Cu8	0.500000	0.572340	0.000000
Cu91	Cu9	0.000000	0.000000	0.903090
Cu101	Cu10	0.000000	0.000000	0.810170
Cu111	Cu11	0.000000	0.500000	0.403090
Cu121	Cu12	0.000000	0.500000	0.310170
Cu131	Cu13	0.500000	0.000000	0.403090
Cu141	Cu14	0.500000	0.000000	0.310170
Cu151	Cu15	0.500000	0.500000	0.903090
Cu161	Cu16	0.500000	0.500000	0.810170
Cu171	Cu17	0.000000	0.000000	0.096910
Cu181	Cu18	0.000000	0.000000	0.189830
Cu191	Cu19	0.000000	0.500000	0.596910
Cu201	Cu20	0.000000	0.500000	0.689830
Cu211	Cu21	0.500000	0.000000	0.596910
Cu221	Cu22	0.500000	0.000000	0.689830
Cu231	Cu23	0.500000	0.500000	0.096910
Cu241	Cu24	0.500000	0.500000	0.189830
Cu251	Cu25	0.750000	0.750000	0.750000
Cu261	Cu26	0.750000	0.250000	0.250000
Cu271	Cu27	0.250000	0.750000	0.250000
Cu281	Cu28	0.250000	0.250000	0.750000
O811	O81	0.862000	0.000000	0.000000
O821	O82	0.862000	0.500000	0.500000
O831	O83	0.362000	0.000000	0.500000
O841	O84	0.362000	0.500000	0.000000
O851	O85	0.138000	0.000000	0.000000
O861	O86	0.138000	0.500000	0.500000
O871	O87	0.638000	0.000000	0.500000
O881	O88	0.638000	0.500000	0.000000
