data_CUTFON_charged_PM
_symmetry_space_group_name_H-M	'P1'
_cell_length_a	22.351100
_cell_length_b	22.351100
_cell_length_c	25.377600
_cell_angle_alpha	90.000000
_cell_angle_beta	90.000000
_cell_angle_gamma	90.000000
_symmetry_Int_Tables_number 1

loop_
_symmetry_equiv_pos_as_xyz
'x,y,z'

loop_
_atom_site_label
_atom_site_type_symbol
_atom_site_fract_x
_atom_site_fract_y
_atom_site_fract_z
Ag11	Ag1	0.133400	0.241980	0.918410
Ag21	Ag2	0.866600	0.758020	0.418410
Ag31	Ag3	0.241980	0.133400	0.081590
Ag41	Ag4	0.758020	0.866600	0.581590
B11	B1	0.274220	0.932200	0.607550
B21	B2	0.725780	0.067800	0.107550
B31	B3	0.932200	0.274220	0.392450
B41	B4	0.067800	0.725780	0.892450
H11	H1	0.229000	0.139900	0.898100
H21	H2	0.264300	0.075200	0.835700
H31	H3	0.134100	0.130700	0.740400
H41	H4	0.102000	0.192400	0.804800
H51	H5	0.142500	0.935400	0.772100
H61	H6	0.175900	0.977200	0.812100
H71	H7	0.122000	0.002000	0.779100
H81	H8	0.158500	0.891500	0.719300
H91	H9	0.165000	0.891200	0.657800
H101	H10	0.216600	0.865900	0.693200
H111	H11	0.341700	0.095000	0.630300
H121	H12	0.362500	0.029100	0.619700
H131	H13	0.310800	0.057200	0.586000
H141	H14	0.273700	0.154100	0.734600
H151	H15	0.333100	0.132400	0.708000
H161	H16	0.280300	0.156100	0.673100
H171	H17	0.918000	0.825800	0.525000
H181	H18	0.005200	0.858700	0.563200
H191	H19	0.092900	0.809700	0.433800
H201	H20	0.003900	0.774200	0.399300
H211	H21	0.091500	0.009100	0.509700
H221	H22	0.074600	0.960900	0.467400
H231	H23	0.041100	0.962200	0.521600
H241	H24	0.155900	0.035600	0.538100
H251	H25	0.194900	0.027100	0.589000
H261	H26	0.224800	0.023600	0.533200
H271	H27	0.245000	0.761300	0.574400
H281	H28	0.295800	0.808700	0.565700
H291	H29	0.263100	0.804800	0.620300
H301	H30	0.110400	0.749200	0.523500
H311	H31	0.179500	0.739100	0.517800
H321	H32	0.150000	0.740100	0.573800
H331	H33	0.636600	0.791100	0.569900
H341	H34	0.536000	0.800400	0.569200
H351	H35	0.556000	0.970800	0.612800
H361	H36	0.656200	0.957100	0.609400
H371	H37	0.510400	0.920300	0.503000
H381	H38	0.452300	0.905600	0.470900
H391	H39	0.464400	0.971200	0.490000
H401	H40	0.300100	0.957600	0.515000
H411	H41	0.358700	0.991600	0.499100
H421	H42	0.346500	0.927200	0.477200
H431	H43	0.300400	0.881500	0.689900
H441	H44	0.347200	0.830300	0.699000
H451	H45	0.358500	0.894100	0.722600
H461	H46	0.512000	0.851300	0.678900
H471	H47	0.465800	0.881200	0.717200
H481	H48	0.454400	0.816300	0.696100
H491	H49	0.771000	0.860100	0.398100
H501	H50	0.735700	0.924800	0.335700
H511	H51	0.865900	0.869300	0.240400
H521	H52	0.898000	0.807600	0.304800
H531	H53	0.857500	0.064600	0.272100
H541	H54	0.824100	0.022800	0.312100
H551	H55	0.878000	0.998000	0.279100
H561	H56	0.841500	0.108500	0.219300
H571	H57	0.835000	0.108800	0.157800
H581	H58	0.783400	0.134100	0.193200
H591	H59	0.658300	0.905000	0.130300
H601	H60	0.637500	0.970900	0.119700
H611	H61	0.689200	0.942800	0.086000
H621	H62	0.726300	0.845900	0.234600
H631	H63	0.666900	0.867600	0.208000
H641	H64	0.719700	0.843900	0.173100
H651	H65	0.082000	0.174200	0.025000
H661	H66	0.994800	0.141300	0.063200
H671	H67	0.907100	0.190300	0.933800
H681	H68	0.996100	0.225800	0.899300
H691	H69	0.908500	0.990900	0.009700
H701	H70	0.925400	0.039100	0.967400
H711	H71	0.958900	0.037800	0.021600
H721	H72	0.844100	0.964400	0.038100
H731	H73	0.805100	0.972900	0.089000
H741	H74	0.775200	0.976400	0.033200
H751	H75	0.755000	0.238700	0.074400
H761	H76	0.704200	0.191300	0.065700
H771	H77	0.736900	0.195200	0.120300
H781	H78	0.889600	0.250800	0.023500
H791	H79	0.820500	0.260900	0.017800
H801	H80	0.850000	0.259900	0.073800
H811	H81	0.363400	0.208900	0.069900
H821	H82	0.464000	0.199600	0.069200
H831	H83	0.444000	0.029200	0.112800
H841	H84	0.343800	0.042900	0.109400
H851	H85	0.489600	0.079700	0.003000
H861	H86	0.547700	0.094400	0.970900
H871	H87	0.535600	0.028800	0.990000
H881	H88	0.699900	0.042400	0.015000
H891	H89	0.641300	0.008400	0.999100
H901	H90	0.653500	0.072800	0.977200
H911	H91	0.699600	0.118500	0.189900
H921	H92	0.652800	0.169700	0.199000
H931	H93	0.641500	0.105900	0.222600
H941	H94	0.488000	0.148700	0.178900
H951	H95	0.534200	0.118800	0.217200
H961	H96	0.545600	0.183700	0.196100
H971	H97	0.139900	0.229000	0.101900
H981	H98	0.075200	0.264300	0.164300
H991	H99	0.130700	0.134100	0.259600
H1001	H100	0.192400	0.102000	0.195200
H1011	H101	0.935400	0.142500	0.227900
H1021	H102	0.977200	0.175900	0.187900
H1031	H103	0.002000	0.122000	0.220900
H1041	H104	0.891500	0.158500	0.280700
H1051	H105	0.891200	0.165000	0.342200
H1061	H106	0.865900	0.216600	0.306800
H1071	H107	0.095000	0.341700	0.369700
H1081	H108	0.029100	0.362500	0.380300
H1091	H109	0.057200	0.310800	0.414000
H1101	H110	0.154100	0.273700	0.265400
H1111	H111	0.132400	0.333100	0.292000
H1121	H112	0.156100	0.280300	0.326900
H1131	H113	0.825800	0.918000	0.475000
H1141	H114	0.858700	0.005200	0.436800
H1151	H115	0.809700	0.092900	0.566200
H1161	H116	0.774200	0.003900	0.600700
H1171	H117	0.009100	0.091500	0.490300
H1181	H118	0.960900	0.074600	0.532600
H1191	H119	0.962200	0.041100	0.478400
H1201	H120	0.035600	0.155900	0.461900
H1211	H121	0.027100	0.194900	0.411000
H1221	H122	0.023600	0.224800	0.466800
H1231	H123	0.761300	0.245000	0.425600
H1241	H124	0.808700	0.295800	0.434300
H1251	H125	0.804800	0.263100	0.379700
H1261	H126	0.749200	0.110400	0.476500
H1271	H127	0.739100	0.179500	0.482200
H1281	H128	0.740100	0.150000	0.426200
H1291	H129	0.791100	0.636600	0.430100
H1301	H130	0.800400	0.536000	0.430800
H1311	H131	0.970800	0.556000	0.387200
H1321	H132	0.957100	0.656200	0.390600
H1331	H133	0.920300	0.510400	0.497000
H1341	H134	0.905600	0.452300	0.529100
H1351	H135	0.971200	0.464400	0.510000
H1361	H136	0.957600	0.300100	0.485000
H1371	H137	0.991600	0.358700	0.500900
H1381	H138	0.927200	0.346500	0.522800
H1391	H139	0.881500	0.300400	0.310100
H1401	H140	0.830300	0.347200	0.301000
H1411	H141	0.894100	0.358500	0.277400
H1421	H142	0.851300	0.512000	0.321100
H1431	H143	0.881200	0.465800	0.282800
H1441	H144	0.816300	0.454400	0.303900
H1451	H145	0.860100	0.771000	0.601900
H1461	H146	0.924800	0.735700	0.664300
H1471	H147	0.869300	0.865900	0.759600
H1481	H148	0.807600	0.898000	0.695200
H1491	H149	0.064600	0.857500	0.727900
H1501	H150	0.022800	0.824100	0.687900
H1511	H151	0.998000	0.878000	0.720900
H1521	H152	0.108500	0.841500	0.780700
H1531	H153	0.108800	0.835000	0.842200
H1541	H154	0.134100	0.783400	0.806800
H1551	H155	0.905000	0.658300	0.869700
H1561	H156	0.970900	0.637500	0.880300
H1571	H157	0.942800	0.689200	0.914000
H1581	H158	0.845900	0.726300	0.765400
H1591	H159	0.867600	0.666900	0.792000
H1601	H160	0.843900	0.719700	0.826900
H1611	H161	0.174200	0.082000	0.975000
H1621	H162	0.141300	0.994800	0.936800
H1631	H163	0.190300	0.907100	0.066200
H1641	H164	0.225800	0.996100	0.100700
H1651	H165	0.990900	0.908500	0.990300
H1661	H166	0.039100	0.925400	0.032600
H1671	H167	0.037800	0.958900	0.978400
H1681	H168	0.964400	0.844100	0.961900
H1691	H169	0.972900	0.805100	0.911000
H1701	H170	0.976400	0.775200	0.966800
H1711	H171	0.238700	0.755000	0.925600
H1721	H172	0.191300	0.704200	0.934300
H1731	H173	0.195200	0.736900	0.879700
H1741	H174	0.250800	0.889600	0.976500
H1751	H175	0.260900	0.820500	0.982200
H1761	H176	0.259900	0.850000	0.926200
H1771	H177	0.208900	0.363400	0.930100
H1781	H178	0.199600	0.464000	0.930800
H1791	H179	0.029200	0.444000	0.887200
H1801	H180	0.042900	0.343800	0.890600
H1811	H181	0.079700	0.489600	0.997000
H1821	H182	0.094400	0.547700	0.029100
H1831	H183	0.028800	0.535600	0.010000
H1841	H184	0.042400	0.699900	0.985000
H1851	H185	0.008400	0.641300	0.000900
H1861	H186	0.072800	0.653500	0.022800
H1871	H187	0.118500	0.699600	0.810100
H1881	H188	0.169700	0.652800	0.801000
H1891	H189	0.105900	0.641500	0.777400
H1901	H190	0.148700	0.488000	0.821100
H1911	H191	0.118800	0.534200	0.782800
H1921	H192	0.183700	0.545600	0.803900
C11	C1	0.209300	0.137690	0.865830
C21	C2	0.230900	0.098590	0.828590
C31	C3	0.202150	0.094460	0.779950
C41	C4	0.154100	0.131200	0.772500
C51	C5	0.135200	0.168400	0.811200
C61	C6	0.223650	0.052330	0.738320
C71	C7	0.265570	0.072060	0.700780
C81	C8	0.283070	0.033090	0.659950
C91	C9	0.256830	0.976210	0.655190
C101	C10	0.214370	0.957480	0.692670
C111	C11	0.199250	0.994840	0.734930
C121	C12	0.155900	0.975600	0.778600
C131	C13	0.186000	0.895900	0.690500
C141	C14	0.328700	0.055700	0.620400
C151	C15	0.290400	0.134300	0.704500
C161	C16	0.953700	0.821900	0.506500
C171	C17	0.005900	0.843000	0.529300
C181	C18	0.058480	0.840700	0.501710
C191	C19	0.057600	0.813600	0.453000
C201	C20	0.003800	0.791900	0.432400
C211	C21	0.116310	0.864000	0.524520
C221	C22	0.158970	0.824180	0.542230
C231	C23	0.212780	0.845440	0.564130
C241	C24	0.221560	0.907540	0.571680
C251	C25	0.177670	0.947830	0.551470
C261	C26	0.125510	0.926000	0.527600
C271	C27	0.078800	0.968500	0.504400
C281	C28	0.189400	0.014700	0.553100
C291	C29	0.258270	0.801090	0.582800
C301	C30	0.148800	0.756900	0.539000
C311	C31	0.620110	0.828100	0.578300
C321	C32	0.559500	0.833160	0.578240
C331	C33	0.532520	0.887000	0.591590
C341	C34	0.571200	0.933600	0.603500
C351	C35	0.631500	0.924800	0.601800
C361	C36	0.466450	0.894800	0.594000
C371	C37	0.436550	0.880600	0.640440
C381	C38	0.374280	0.890410	0.643710
C391	C39	0.342810	0.914820	0.600840
C401	C40	0.373460	0.926670	0.553720
C411	C41	0.435670	0.916700	0.549680
C421	C42	0.468700	0.929600	0.498700
C431	C43	0.341800	0.953100	0.507050
C441	C44	0.342200	0.872500	0.693300
C451	C45	0.470300	0.855000	0.687500
C461	C46	0.790700	0.862310	0.365830
C471	C47	0.769100	0.901410	0.328590
C481	C48	0.797850	0.905540	0.279950
C491	C49	0.845900	0.868800	0.272500
C501	C50	0.864800	0.831600	0.311200
C511	C51	0.776350	0.947670	0.238320
C521	C52	0.734430	0.927940	0.200780
C531	C53	0.716930	0.966910	0.159950
C541	C54	0.743170	0.023790	0.155190
C551	C55	0.785630	0.042520	0.192670
C561	C56	0.800750	0.005160	0.234930
C571	C57	0.844100	0.024400	0.278600
C581	C58	0.814000	0.104100	0.190500
C591	C59	0.671300	0.944300	0.120400
C601	C60	0.709600	0.865700	0.204500
C611	C61	0.046300	0.178100	0.006500
C621	C62	0.994100	0.157000	0.029300
C631	C63	0.941520	0.159300	0.001710
C641	C64	0.942400	0.186400	0.953000
C651	C65	0.996200	0.208100	0.932400
C661	C66	0.883690	0.136000	0.024520
C671	C67	0.841030	0.175820	0.042230
C681	C68	0.787220	0.154560	0.064130
C691	C69	0.778440	0.092460	0.071680
C701	C70	0.822330	0.052170	0.051470
C711	C71	0.874490	0.074000	0.027600
C721	C72	0.921200	0.031500	0.004400
C731	C73	0.810600	0.985300	0.053100
C741	C74	0.741730	0.198910	0.082800
C751	C75	0.851200	0.243100	0.039000
C761	C76	0.379890	0.171900	0.078300
C771	C77	0.440500	0.166840	0.078240
C781	C78	0.467480	0.113000	0.091590
C791	C79	0.428800	0.066400	0.103500
C801	C80	0.368500	0.075200	0.101800
C811	C81	0.533550	0.105200	0.094000
C821	C82	0.563450	0.119400	0.140440
C831	C83	0.625720	0.109590	0.143710
C841	C84	0.657190	0.085180	0.100840
C851	C85	0.626540	0.073330	0.053720
C861	C86	0.564330	0.083300	0.049680
C871	C87	0.531300	0.070400	0.998700
C881	C88	0.658200	0.046900	0.007050
C891	C89	0.657800	0.127500	0.193300
C901	C90	0.529700	0.145000	0.187500
C911	C91	0.137690	0.209300	0.134170
C921	C92	0.098590	0.230900	0.171410
C931	C93	0.094460	0.202150	0.220050
C941	C94	0.131200	0.154100	0.227500
C951	C95	0.168400	0.135200	0.188800
C961	C96	0.052330	0.223650	0.261680
C971	C97	0.072060	0.265570	0.299220
C981	C98	0.033090	0.283070	0.340050
C991	C99	0.976210	0.256830	0.344810
C1001	C100	0.957480	0.214370	0.307330
C1011	C101	0.994840	0.199250	0.265070
C1021	C102	0.975600	0.155900	0.221400
C1031	C103	0.895900	0.186000	0.309500
C1041	C104	0.055700	0.328700	0.379600
C1051	C105	0.134300	0.290400	0.295500
C1061	C106	0.821900	0.953700	0.493500
C1071	C107	0.843000	0.005900	0.470700
C1081	C108	0.840700	0.058480	0.498290
C1091	C109	0.813600	0.057600	0.547000
C1101	C110	0.791900	0.003800	0.567600
C1111	C111	0.864000	0.116310	0.475480
C1121	C112	0.824180	0.158970	0.457770
C1131	C113	0.845440	0.212780	0.435870
C1141	C114	0.907540	0.221560	0.428320
C1151	C115	0.947830	0.177670	0.448530
C1161	C116	0.926000	0.125510	0.472400
C1171	C117	0.968500	0.078800	0.495600
C1181	C118	0.014700	0.189400	0.446900
C1191	C119	0.801090	0.258270	0.417200
C1201	C120	0.756900	0.148800	0.461000
C1211	C121	0.828100	0.620110	0.421700
C1221	C122	0.833160	0.559500	0.421760
C1231	C123	0.887000	0.532520	0.408410
C1241	C124	0.933600	0.571200	0.396500
C1251	C125	0.924800	0.631500	0.398200
C1261	C126	0.894800	0.466450	0.406000
C1271	C127	0.880600	0.436550	0.359560
C1281	C128	0.890410	0.374280	0.356290
C1291	C129	0.914820	0.342810	0.399160
C1301	C130	0.926670	0.373460	0.446280
C1311	C131	0.916700	0.435670	0.450320
C1321	C132	0.929600	0.468700	0.501300
C1331	C133	0.953100	0.341800	0.492950
C1341	C134	0.872500	0.342200	0.306700
C1351	C135	0.855000	0.470300	0.312500
C1361	C136	0.862310	0.790700	0.634170
C1371	C137	0.901410	0.769100	0.671410
C1381	C138	0.905540	0.797850	0.720050
C1391	C139	0.868800	0.845900	0.727500
C1401	C140	0.831600	0.864800	0.688800
C1411	C141	0.947670	0.776350	0.761680
C1421	C142	0.927940	0.734430	0.799220
C1431	C143	0.966910	0.716930	0.840050
C1441	C144	0.023790	0.743170	0.844810
C1451	C145	0.042520	0.785630	0.807330
C1461	C146	0.005160	0.800750	0.765070
C1471	C147	0.024400	0.844100	0.721400
C1481	C148	0.104100	0.814000	0.809500
C1491	C149	0.944300	0.671300	0.879600
C1501	C150	0.865700	0.709600	0.795500
C1511	C151	0.178100	0.046300	0.993500
C1521	C152	0.157000	0.994100	0.970700
C1531	C153	0.159300	0.941520	0.998290
C1541	C154	0.186400	0.942400	0.047000
C1551	C155	0.208100	0.996200	0.067600
C1561	C156	0.136000	0.883690	0.975480
C1571	C157	0.175820	0.841030	0.957770
C1581	C158	0.154560	0.787220	0.935870
C1591	C159	0.092460	0.778440	0.928320
C1601	C160	0.052170	0.822330	0.948530
C1611	C161	0.074000	0.874490	0.972400
C1621	C162	0.031500	0.921200	0.995600
C1631	C163	0.985300	0.810600	0.946900
C1641	C164	0.198910	0.741730	0.917200
C1651	C165	0.243100	0.851200	0.961000
C1661	C166	0.171900	0.379890	0.921700
C1671	C167	0.166840	0.440500	0.921760
C1681	C168	0.113000	0.467480	0.908410
C1691	C169	0.066400	0.428800	0.896500
C1701	C170	0.075200	0.368500	0.898200
C1711	C171	0.105200	0.533550	0.906000
C1721	C172	0.119400	0.563450	0.859560
C1731	C173	0.109590	0.625720	0.856290
C1741	C174	0.085180	0.657190	0.899160
C1751	C175	0.073330	0.626540	0.946280
C1761	C176	0.083300	0.564330	0.950320
C1771	C177	0.070400	0.531300	0.001300
C1781	C178	0.046900	0.658200	0.992950
C1791	C179	0.127500	0.657800	0.806700
C1801	C180	0.145000	0.529700	0.812500
N11	N1	0.162000	0.172460	0.858280
N21	N2	0.952620	0.795900	0.458670
N31	N3	0.657280	0.872610	0.589700
N41	N4	0.838000	0.827540	0.358280
N51	N5	0.047380	0.204100	0.958670
N61	N6	0.342720	0.127390	0.089700
N71	N7	0.172460	0.162000	0.141720
N81	N8	0.795900	0.952620	0.541330
N91	N9	0.872610	0.657280	0.410300
N101	N10	0.827540	0.838000	0.641720
N111	N11	0.204100	0.047380	0.041330
N121	N12	0.127390	0.342720	0.910300
N131	N13	0.236340	0.236340	0.000000
N141	N14	0.763660	0.763660	0.500000
O11	O1	0.241400	0.268400	0.961500
O21	O2	0.758600	0.731600	0.461500
O31	O3	0.268400	0.241400	0.038500
O41	O4	0.731600	0.758600	0.538500
O51	O5	0.197000	0.197000	0.000000
O61	O6	0.803000	0.803000	0.500000
Ag51	Ag5	0.258020	0.633400	0.668410
Ag61	Ag6	0.741980	0.366600	0.168410
Ag71	Ag7	0.366600	0.741980	0.831590
Ag81	Ag8	0.633400	0.258020	0.331590
B51	B5	0.567800	0.774220	0.357550
B61	B6	0.432200	0.225780	0.857550
B71	B7	0.225780	0.432200	0.142450
B81	B8	0.774220	0.567800	0.642450
H1931	H193	0.360100	0.729000	0.648100
H1941	H194	0.424800	0.764300	0.585700
H1951	H195	0.369300	0.634100	0.490400
H1961	H196	0.307600	0.602000	0.554800
H1971	H197	0.564600	0.642500	0.522100
H1981	H198	0.522800	0.675900	0.562100
H1991	H199	0.498000	0.622000	0.529100
H2001	H200	0.608500	0.658500	0.469300
H2011	H201	0.608800	0.665000	0.407800
H2021	H202	0.634100	0.716600	0.443200
H2031	H203	0.405000	0.841700	0.380300
H2041	H204	0.470900	0.862500	0.369700
H2051	H205	0.442800	0.810800	0.336000
H2061	H206	0.345900	0.773700	0.484600
H2071	H207	0.367600	0.833100	0.458000
H2081	H208	0.343900	0.780300	0.423100
H2091	H209	0.674200	0.418000	0.275000
H2101	H210	0.641300	0.505200	0.313200
H2111	H211	0.690300	0.592900	0.183800
H2121	H212	0.725800	0.503900	0.149300
H2131	H213	0.490900	0.591500	0.259700
H2141	H214	0.539100	0.574600	0.217400
H2151	H215	0.537800	0.541100	0.271600
H2161	H216	0.464400	0.655900	0.288100
H2171	H217	0.472900	0.694900	0.339000
H2181	H218	0.476400	0.724800	0.283200
H2191	H219	0.738700	0.745000	0.324400
H2201	H220	0.691300	0.795800	0.315700
H2211	H221	0.695200	0.763100	0.370300
H2221	H222	0.750800	0.610400	0.273500
H2231	H223	0.760900	0.679500	0.267800
H2241	H224	0.759900	0.650000	0.323800
H2251	H225	0.708900	0.136600	0.319900
H2261	H226	0.699600	0.036000	0.319200
H2271	H227	0.529200	0.056000	0.362800
H2281	H228	0.542900	0.156200	0.359400
H2291	H229	0.579700	0.010400	0.253000
H2301	H230	0.594400	0.952300	0.220900
H2311	H231	0.528800	0.964400	0.240000
H2321	H232	0.542400	0.800100	0.265000
H2331	H233	0.508400	0.858700	0.249100
H2341	H234	0.572800	0.846500	0.227200
H2351	H235	0.618500	0.800400	0.439900
H2361	H236	0.669700	0.847200	0.449000
H2371	H237	0.605900	0.858500	0.472600
H2381	H238	0.648700	0.012000	0.428900
H2391	H239	0.618800	0.965800	0.467200
H2401	H240	0.683700	0.954400	0.446100
H2411	H241	0.639900	0.271000	0.148100
H2421	H242	0.575200	0.235700	0.085700
H2431	H243	0.630700	0.365900	0.990400
H2441	H244	0.692400	0.398000	0.054800
H2451	H245	0.435400	0.357500	0.022100
H2461	H246	0.477200	0.324100	0.062100
H2471	H247	0.502000	0.378000	0.029100
H2481	H248	0.391500	0.341500	0.969300
H2491	H249	0.391200	0.335000	0.907800
H2501	H250	0.365900	0.283400	0.943200
H2511	H251	0.595000	0.158300	0.880300
H2521	H252	0.529100	0.137500	0.869700
H2531	H253	0.557200	0.189200	0.836000
H2541	H254	0.654100	0.226300	0.984600
H2551	H255	0.632400	0.166900	0.958000
H2561	H256	0.656100	0.219700	0.923100
H2571	H257	0.325800	0.582000	0.775000
H2581	H258	0.358700	0.494800	0.813200
H2591	H259	0.309700	0.407100	0.683800
H2601	H260	0.274200	0.496100	0.649300
H2611	H261	0.509100	0.408500	0.759700
H2621	H262	0.460900	0.425400	0.717400
H2631	H263	0.462200	0.458900	0.771600
H2641	H264	0.535600	0.344100	0.788100
H2651	H265	0.527100	0.305100	0.839000
H2661	H266	0.523600	0.275200	0.783200
H2671	H267	0.261300	0.255000	0.824400
H2681	H268	0.308700	0.204200	0.815700
H2691	H269	0.304800	0.236900	0.870300
H2701	H270	0.249200	0.389600	0.773500
H2711	H271	0.239100	0.320500	0.767800
H2721	H272	0.240100	0.350000	0.823800
H2731	H273	0.291100	0.863400	0.819900
H2741	H274	0.300400	0.964000	0.819200
H2751	H275	0.470800	0.944000	0.862800
H2761	H276	0.457100	0.843800	0.859400
H2771	H277	0.420300	0.989600	0.753000
H2781	H278	0.405600	0.047700	0.720900
H2791	H279	0.471200	0.035600	0.740000
H2801	H280	0.457600	0.199900	0.765000
H2811	H281	0.491600	0.141300	0.749100
H2821	H282	0.427200	0.153500	0.727200
H2831	H283	0.381500	0.199600	0.939900
H2841	H284	0.330300	0.152800	0.949000
H2851	H285	0.394100	0.141500	0.972600
H2861	H286	0.351300	0.988000	0.928900
H2871	H287	0.381200	0.034200	0.967200
H2881	H288	0.316300	0.045600	0.946100
H2891	H289	0.271000	0.639900	0.851900
H2901	H290	0.235700	0.575200	0.914300
H2911	H291	0.365900	0.630700	0.009600
H2921	H292	0.398000	0.692400	0.945200
H2931	H293	0.357500	0.435400	0.977900
H2941	H294	0.324100	0.477200	0.937900
H2951	H295	0.378000	0.502000	0.970900
H2961	H296	0.341500	0.391500	0.030700
H2971	H297	0.335000	0.391200	0.092200
H2981	H298	0.283400	0.365900	0.056800
H2991	H299	0.158300	0.595000	0.119700
H3001	H300	0.137500	0.529100	0.130300
H3011	H301	0.189200	0.557200	0.164000
H3021	H302	0.226300	0.654100	0.015400
H3031	H303	0.166900	0.632400	0.042000
H3041	H304	0.219700	0.656100	0.076900
H3051	H305	0.582000	0.325800	0.225000
H3061	H306	0.494800	0.358700	0.186800
H3071	H307	0.407100	0.309700	0.316200
H3081	H308	0.496100	0.274200	0.350700
H3091	H309	0.408500	0.509100	0.240300
H3101	H310	0.425400	0.460900	0.282600
H3111	H311	0.458900	0.462200	0.228400
H3121	H312	0.344100	0.535600	0.211900
H3131	H313	0.305100	0.527100	0.161000
H3141	H314	0.275200	0.523600	0.216800
H3151	H315	0.255000	0.261300	0.175600
H3161	H316	0.204200	0.308700	0.184300
H3171	H317	0.236900	0.304800	0.129700
H3181	H318	0.389600	0.249200	0.226500
H3191	H319	0.320500	0.239100	0.232200
H3201	H320	0.350000	0.240100	0.176200
H3211	H321	0.863400	0.291100	0.180100
H3221	H322	0.964000	0.300400	0.180800
H3231	H323	0.944000	0.470800	0.137200
H3241	H324	0.843800	0.457100	0.140600
H3251	H325	0.989600	0.420300	0.247000
H3261	H326	0.047700	0.405600	0.279100
H3271	H327	0.035600	0.471200	0.260000
H3281	H328	0.199900	0.457600	0.235000
H3291	H329	0.141300	0.491600	0.250900
H3301	H330	0.153500	0.427200	0.272800
H3311	H331	0.199600	0.381500	0.060100
H3321	H332	0.152800	0.330300	0.051000
H3331	H333	0.141500	0.394100	0.027400
H3341	H334	0.988000	0.351300	0.071100
H3351	H335	0.034200	0.381200	0.032800
H3361	H336	0.045600	0.316300	0.053900
H3371	H337	0.729000	0.360100	0.351900
H3381	H338	0.764300	0.424800	0.414300
H3391	H339	0.634100	0.369300	0.509600
H3401	H340	0.602000	0.307600	0.445200
H3411	H341	0.642500	0.564600	0.477900
H3421	H342	0.675900	0.522800	0.437900
H3431	H343	0.622000	0.498000	0.470900
H3441	H344	0.658500	0.608500	0.530700
H3451	H345	0.665000	0.608800	0.592200
H3461	H346	0.716600	0.634100	0.556800
H3471	H347	0.841700	0.405000	0.619700
H3481	H348	0.862500	0.470900	0.630300
H3491	H349	0.810800	0.442800	0.664000
H3501	H350	0.773700	0.345900	0.515400
H3511	H351	0.833100	0.367600	0.542000
H3521	H352	0.780300	0.343900	0.576900
H3531	H353	0.418000	0.674200	0.725000
H3541	H354	0.505200	0.641300	0.686800
H3551	H355	0.592900	0.690300	0.816200
H3561	H356	0.503900	0.725800	0.850700
H3571	H357	0.591500	0.490900	0.740300
H3581	H358	0.574600	0.539100	0.782600
H3591	H359	0.541100	0.537800	0.728400
H3601	H360	0.655900	0.464400	0.711900
H3611	H361	0.694900	0.472900	0.661000
H3621	H362	0.724800	0.476400	0.716800
H3631	H363	0.745000	0.738700	0.675600
H3641	H364	0.795800	0.691300	0.684300
H3651	H365	0.763100	0.695200	0.629700
H3661	H366	0.610400	0.750800	0.726500
H3671	H367	0.679500	0.760900	0.732200
H3681	H368	0.650000	0.759900	0.676200
H3691	H369	0.136600	0.708900	0.680100
H3701	H370	0.036000	0.699600	0.680800
H3711	H371	0.056000	0.529200	0.637200
H3721	H372	0.156200	0.542900	0.640600
H3731	H373	0.010400	0.579700	0.747000
H3741	H374	0.952300	0.594400	0.779100
H3751	H375	0.964400	0.528800	0.760000
H3761	H376	0.800100	0.542400	0.735000
H3771	H377	0.858700	0.508400	0.750900
H3781	H378	0.846500	0.572800	0.772800
H3791	H379	0.800400	0.618500	0.560100
H3801	H380	0.847200	0.669700	0.551000
H3811	H381	0.858500	0.605900	0.527400
H3821	H382	0.012000	0.648700	0.571100
H3831	H383	0.965800	0.618800	0.532800
H3841	H384	0.954400	0.683700	0.553900
C1811	C181	0.362310	0.709300	0.615830
C1821	C182	0.401410	0.730900	0.578590
C1831	C183	0.405540	0.702150	0.529950
C1841	C184	0.368800	0.654100	0.522500
C1851	C185	0.331600	0.635200	0.561200
C1861	C186	0.447670	0.723650	0.488320
C1871	C187	0.427940	0.765570	0.450780
C1881	C188	0.466910	0.783070	0.409950
C1891	C189	0.523790	0.756830	0.405190
C1901	C190	0.542520	0.714370	0.442670
C1911	C191	0.505160	0.699250	0.484930
C1921	C192	0.524400	0.655900	0.528600
C1931	C193	0.604100	0.686000	0.440500
C1941	C194	0.444300	0.828700	0.370400
C1951	C195	0.365700	0.790400	0.454500
C1961	C196	0.678100	0.453700	0.256500
C1971	C197	0.657000	0.505900	0.279300
C1981	C198	0.659300	0.558480	0.251710
C1991	C199	0.686400	0.557600	0.203000
C2001	C200	0.708100	0.503800	0.182400
C2011	C201	0.636000	0.616310	0.274520
C2021	C202	0.675820	0.658970	0.292230
C2031	C203	0.654560	0.712780	0.314130
C2041	C204	0.592460	0.721560	0.321680
C2051	C205	0.552170	0.677670	0.301470
C2061	C206	0.574000	0.625510	0.277600
C2071	C207	0.531500	0.578800	0.254400
C2081	C208	0.485300	0.689400	0.303100
C2091	C209	0.698910	0.758270	0.332800
C2101	C210	0.743100	0.648800	0.289000
C2111	C211	0.671900	0.120110	0.328300
C2121	C212	0.666840	0.059500	0.328240
C2131	C213	0.613000	0.032520	0.341590
C2141	C214	0.566400	0.071200	0.353500
C2151	C215	0.575200	0.131500	0.351800
C2161	C216	0.605200	0.966450	0.344000
C2171	C217	0.619400	0.936550	0.390440
C2181	C218	0.609590	0.874280	0.393710
C2191	C219	0.585180	0.842810	0.350840
C2201	C220	0.573330	0.873460	0.303720
C2211	C221	0.583300	0.935670	0.299680
C2221	C222	0.570400	0.968700	0.248700
C2231	C223	0.546900	0.841800	0.257050
C2241	C224	0.627500	0.842200	0.443300
C2251	C225	0.645000	0.970300	0.437500
C2261	C226	0.637690	0.290700	0.115830
C2271	C227	0.598590	0.269100	0.078590
C2281	C228	0.594460	0.297850	0.029950
C2291	C229	0.631200	0.345900	0.022500
C2301	C230	0.668400	0.364800	0.061200
C2311	C231	0.552330	0.276350	0.988320
C2321	C232	0.572060	0.234430	0.950780
C2331	C233	0.533090	0.216930	0.909950
C2341	C234	0.476210	0.243170	0.905190
C2351	C235	0.457480	0.285630	0.942670
C2361	C236	0.494840	0.300750	0.984930
C2371	C237	0.475600	0.344100	0.028600
C2381	C238	0.395900	0.314000	0.940500
C2391	C239	0.555700	0.171300	0.870400
C2401	C240	0.634300	0.209600	0.954500
C2411	C241	0.321900	0.546300	0.756500
C2421	C242	0.343000	0.494100	0.779300
C2431	C243	0.340700	0.441520	0.751710
C2441	C244	0.313600	0.442400	0.703000
C2451	C245	0.291900	0.496200	0.682400
C2461	C246	0.364000	0.383690	0.774520
C2471	C247	0.324180	0.341030	0.792230
C2481	C248	0.345440	0.287220	0.814130
C2491	C249	0.407540	0.278440	0.821680
C2501	C250	0.447830	0.322330	0.801470
C2511	C251	0.426000	0.374490	0.777600
C2521	C252	0.468500	0.421200	0.754400
C2531	C253	0.514700	0.310600	0.803100
C2541	C254	0.301090	0.241730	0.832800
C2551	C255	0.256900	0.351200	0.789000
C2561	C256	0.328100	0.879890	0.828300
C2571	C257	0.333160	0.940500	0.828240
C2581	C258	0.387000	0.967480	0.841590
C2591	C259	0.433600	0.928800	0.853500
C2601	C260	0.424800	0.868500	0.851800
C2611	C261	0.394800	0.033550	0.844000
C2621	C262	0.380600	0.063450	0.890440
C2631	C263	0.390410	0.125720	0.893710
C2641	C264	0.414820	0.157190	0.850840
C2651	C265	0.426670	0.126540	0.803720
C2661	C266	0.416700	0.064330	0.799680
C2671	C267	0.429600	0.031300	0.748700
C2681	C268	0.453100	0.158200	0.757050
C2691	C269	0.372500	0.157800	0.943300
C2701	C270	0.355000	0.029700	0.937500
C2711	C271	0.290700	0.637690	0.884170
C2721	C272	0.269100	0.598590	0.921410
C2731	C273	0.297850	0.594460	0.970050
C2741	C274	0.345900	0.631200	0.977500
C2751	C275	0.364800	0.668400	0.938800
C2761	C276	0.276350	0.552330	0.011680
C2771	C277	0.234430	0.572060	0.049220
C2781	C278	0.216930	0.533090	0.090050
C2791	C279	0.243170	0.476210	0.094810
C2801	C280	0.285630	0.457480	0.057330
C2811	C281	0.300750	0.494840	0.015070
C2821	C282	0.344100	0.475600	0.971400
C2831	C283	0.314000	0.395900	0.059500
C2841	C284	0.171300	0.555700	0.129600
C2851	C285	0.209600	0.634300	0.045500
C2861	C286	0.546300	0.321900	0.243500
C2871	C287	0.494100	0.343000	0.220700
C2881	C288	0.441520	0.340700	0.248290
C2891	C289	0.442400	0.313600	0.297000
C2901	C290	0.496200	0.291900	0.317600
C2911	C291	0.383690	0.364000	0.225480
C2921	C292	0.341030	0.324180	0.207770
C2931	C293	0.287220	0.345440	0.185870
C2941	C294	0.278440	0.407540	0.178320
C2951	C295	0.322330	0.447830	0.198530
C2961	C296	0.374490	0.426000	0.222400
C2971	C297	0.421200	0.468500	0.245600
C2981	C298	0.310600	0.514700	0.196900
C2991	C299	0.241730	0.301090	0.167200
C3001	C300	0.351200	0.256900	0.211000
C3011	C301	0.879890	0.328100	0.171700
C3021	C302	0.940500	0.333160	0.171760
C3031	C303	0.967480	0.387000	0.158410
C3041	C304	0.928800	0.433600	0.146500
C3051	C305	0.868500	0.424800	0.148200
C3061	C306	0.033550	0.394800	0.156000
C3071	C307	0.063450	0.380600	0.109560
C3081	C308	0.125720	0.390410	0.106290
C3091	C309	0.157190	0.414820	0.149160
C3101	C310	0.126540	0.426670	0.196280
C3111	C311	0.064330	0.416700	0.200320
C3121	C312	0.031300	0.429600	0.251300
C3131	C313	0.158200	0.453100	0.242950
C3141	C314	0.157800	0.372500	0.056700
C3151	C315	0.029700	0.355000	0.062500
C3161	C316	0.709300	0.362310	0.384170
C3171	C317	0.730900	0.401410	0.421410
C3181	C318	0.702150	0.405540	0.470050
C3191	C319	0.654100	0.368800	0.477500
C3201	C320	0.635200	0.331600	0.438800
C3211	C321	0.723650	0.447670	0.511680
C3221	C322	0.765570	0.427940	0.549220
C3231	C323	0.783070	0.466910	0.590050
C3241	C324	0.756830	0.523790	0.594810
C3251	C325	0.714370	0.542520	0.557330
C3261	C326	0.699250	0.505160	0.515070
C3271	C327	0.655900	0.524400	0.471400
C3281	C328	0.686000	0.604100	0.559500
C3291	C329	0.828700	0.444300	0.629600
C3301	C330	0.790400	0.365700	0.545500
C3311	C331	0.453700	0.678100	0.743500
C3321	C332	0.505900	0.657000	0.720700
C3331	C333	0.558480	0.659300	0.748290
C3341	C334	0.557600	0.686400	0.797000
C3351	C335	0.503800	0.708100	0.817600
C3361	C336	0.616310	0.636000	0.725480
C3371	C337	0.658970	0.675820	0.707770
C3381	C338	0.712780	0.654560	0.685870
C3391	C339	0.721560	0.592460	0.678320
C3401	C340	0.677670	0.552170	0.698530
C3411	C341	0.625510	0.574000	0.722400
C3421	C342	0.578800	0.531500	0.745600
C3431	C343	0.689400	0.485300	0.696900
C3441	C344	0.758270	0.698910	0.667200
C3451	C345	0.648800	0.743100	0.711000
C3461	C346	0.120110	0.671900	0.671700
C3471	C347	0.059500	0.666840	0.671760
C3481	C348	0.032520	0.613000	0.658410
C3491	C349	0.071200	0.566400	0.646500
C3501	C350	0.131500	0.575200	0.648200
C3511	C351	0.966450	0.605200	0.656000
C3521	C352	0.936550	0.619400	0.609560
C3531	C353	0.874280	0.609590	0.606290
C3541	C354	0.842810	0.585180	0.649160
C3551	C355	0.873460	0.573330	0.696280
C3561	C356	0.935670	0.583300	0.700320
C3571	C357	0.968700	0.570400	0.751300
C3581	C358	0.841800	0.546900	0.742950
C3591	C359	0.842200	0.627500	0.556700
C3601	C360	0.970300	0.645000	0.562500
N151	N15	0.327540	0.662000	0.608280
N161	N16	0.704100	0.452620	0.208670
N171	N17	0.627390	0.157280	0.339700
N181	N18	0.672460	0.338000	0.108280
N191	N19	0.295900	0.547380	0.708670
N201	N20	0.372610	0.842720	0.839700
N211	N21	0.338000	0.672460	0.891720
N221	N22	0.547380	0.295900	0.291330
N231	N23	0.842720	0.372610	0.160300
N241	N24	0.662000	0.327540	0.391720
N251	N25	0.452620	0.704100	0.791330
N261	N26	0.157280	0.627390	0.660300
N271	N27	0.263660	0.736340	0.750000
N281	N28	0.736340	0.263660	0.250000
O71	O7	0.231600	0.741400	0.711500
O81	O8	0.768400	0.258600	0.211500
O91	O9	0.258600	0.768400	0.788500
O101	O10	0.741400	0.231600	0.288500
O111	O11	0.303000	0.697000	0.750000
O121	O12	0.697000	0.303000	0.250000
N291	N29	0.986200	0.026400	0.851200
O131	O13	0.027100	0.050100	0.875400
O141	O14	0.997500	0.983100	0.822700
O151	O15	0.934900	0.044000	0.857200
N301	N30	0.013800	0.973600	0.351200
O161	O16	0.972900	0.949900	0.375400
O171	O17	0.002500	0.016900	0.322700
O181	O18	0.065100	0.956000	0.357200
N311	N31	0.473600	0.486200	0.601200
O191	O19	0.449900	0.527100	0.625400
O201	O20	0.516900	0.497500	0.572700
O211	O21	0.456000	0.434900	0.607200
N321	N32	0.526400	0.513800	0.101200
O221	O22	0.550100	0.472900	0.125400
O231	O23	0.483100	0.502500	0.072700
O241	O24	0.544000	0.565100	0.107200
N331	N33	0.513800	0.526400	0.898800
O251	O25	0.472900	0.550100	0.874600
O261	O26	0.502500	0.483100	0.927300
O271	O27	0.565100	0.544000	0.892800
N341	N34	0.486200	0.473600	0.398800
O281	O28	0.527100	0.449900	0.374600
O291	O29	0.497500	0.516900	0.427300
O301	O30	0.434900	0.456000	0.392800
N351	N35	0.026400	0.986200	0.148800
O311	O31	0.050100	0.027100	0.124600
O321	O32	0.983100	0.997500	0.177300
O331	O33	0.044000	0.934900	0.142800
N361	N36	0.973600	0.013800	0.648800
O341	O34	0.949900	0.972900	0.624600
O351	O35	0.016900	0.002500	0.677300
O361	O36	0.956000	0.065100	0.642800
