data_CUTFUT_charged_PM
_symmetry_space_group_name_H-M	'P1'
_cell_length_a	13.658100
_cell_length_b	32.415600
_cell_length_c	40.579100
_cell_angle_alpha	90.000000
_cell_angle_beta	90.000000
_cell_angle_gamma	90.000000
_symmetry_Int_Tables_number 1

loop_
_symmetry_equiv_pos_as_xyz
'x,y,z'

loop_
_atom_site_label
_atom_site_type_symbol
_atom_site_fract_x
_atom_site_fract_y
_atom_site_fract_z
Ag11	Ag1	0.315880	0.695690	0.130170
Ag21	Ag2	0.735740	0.244520	0.000660
Ag31	Ag3	0.051270	0.713070	0.876390
Ag41	Ag4	0.184120	0.304310	0.630170
Ag51	Ag5	0.764260	0.755480	0.500660
Ag61	Ag6	0.448730	0.286930	0.376390
Ag71	Ag7	0.684120	0.195690	0.369830
Ag81	Ag8	0.264260	0.744520	0.499340
Ag91	Ag9	0.948730	0.213070	0.623610
Ag101	Ag10	0.815880	0.804310	0.869830
Ag111	Ag11	0.235740	0.255480	0.999340
Ag121	Ag12	0.551270	0.786930	0.123610
B11	B1	0.686600	0.580500	0.997800
B21	B2	0.282300	0.908600	0.337300
B31	B3	0.219900	0.086100	0.175100
B41	B4	0.813400	0.419500	0.497800
B51	B5	0.217700	0.091400	0.837300
B61	B6	0.280100	0.913900	0.675100
B71	B7	0.313400	0.080500	0.502200
B81	B8	0.717700	0.408600	0.162700
B91	B9	0.780100	0.586100	0.324900
B101	B10	0.186600	0.919500	0.002200
B111	B11	0.782300	0.591400	0.662700
B121	B12	0.719900	0.413900	0.824900
H11	H1	0.196900	0.725700	0.064600
H21	H2	0.066000	0.704400	0.032400
H31	H3	0.993900	0.620400	0.101000
H41	H4	0.124800	0.641700	0.133200
H51	H5	0.755500	0.694300	0.081900
H61	H6	0.856000	0.682300	0.097900
H71	H7	0.852300	0.715400	0.069800
H81	H8	0.656900	0.665000	0.065300
H91	H9	0.616900	0.655100	0.030000
H101	H10	0.626600	0.619800	0.056200
H111	H11	0.962000	0.565900	0.967700
H121	H12	0.867200	0.541400	0.977400
H131	H13	0.860700	0.578300	0.952600
H141	H14	0.059300	0.589900	0.987500
H151	H15	0.091800	0.633900	0.999200
H161	H16	0.094400	0.596800	0.023900
H171	H17	0.232700	0.656100	0.870900
H181	H18	0.366100	0.629400	0.899200
H191	H19	0.289200	0.694500	0.979400
H201	H20	0.155900	0.721200	0.951100
H211	H21	0.313000	0.576700	0.007300
H221	H22	0.277100	0.621500	0.999100
H231	H23	0.277800	0.587500	0.971600
H241	H24	0.426500	0.554100	0.025600
H251	H25	0.525500	0.534400	0.014000
H261	H26	0.525700	0.569000	0.041000
H271	H27	0.701000	0.671900	0.934400
H281	H28	0.741100	0.660300	0.969400
H291	H29	0.741400	0.627400	0.941100
H301	H30	0.588400	0.700800	0.920900
H311	H31	0.490000	0.686200	0.904800
H321	H32	0.488100	0.716300	0.935000
H331	H33	0.819000	0.321000	0.961200
H341	H34	0.809800	0.392400	0.958900
H351	H35	0.612800	0.391500	0.032500
H361	H36	0.622100	0.320100	0.034800
H371	H37	0.792800	0.415000	0.046700
H381	H38	0.858300	0.453800	0.053400
H391	H39	0.758600	0.448500	0.072100
H401	H40	0.778500	0.511600	0.072600
H411	H41	0.811800	0.550300	0.052400
H421	H42	0.703300	0.546700	0.064700
H431	H43	0.617900	0.514900	0.920000
H441	H44	0.580400	0.551000	0.942300
H451	H45	0.688900	0.550900	0.929700
H461	H46	0.596000	0.458500	0.923600
H471	H47	0.667000	0.421800	0.931600
H481	H48	0.565900	0.425100	0.949700
H491	H49	0.370800	0.701900	0.206700
H501	H50	0.363100	0.749600	0.249300
H511	H51	0.279600	0.837100	0.185000
H521	H52	0.287300	0.789400	0.142400
H531	H53	0.149500	0.809400	0.223900
H541	H54	0.087300	0.812600	0.256300
H551	H55	0.093000	0.850200	0.232100
H561	H56	0.108100	0.905500	0.311600
H571	H57	0.084600	0.902100	0.273800
H581	H58	0.062500	0.864800	0.297300
H591	H59	0.467500	0.899900	0.327900
H601	H60	0.515400	0.858100	0.317100
H611	H61	0.522800	0.896800	0.294200
H621	H62	0.488300	0.814500	0.233300
H631	H63	0.528600	0.856800	0.246300
H641	H64	0.529300	0.817800	0.269300
H651	H65	0.780200	0.793200	0.429900
H661	H66	0.886300	0.827900	0.394900
H671	H67	0.079900	0.839700	0.468900
H681	H68	0.973700	0.805000	0.503900
H691	H69	0.221300	0.777200	0.396200
H701	H70	0.166700	0.786600	0.429300
H711	H71	0.107500	0.771600	0.398500
H721	H72	0.348200	0.838000	0.350000
H731	H73	0.343200	0.817300	0.384900
H741	H74	0.286100	0.797800	0.355200
H751	H75	0.166500	0.966400	0.349700
H761	H76	0.052800	0.960100	0.351200
H771	H77	0.109400	0.975700	0.382400
H781	H78	0.972100	0.949000	0.398200
H791	H79	0.911300	0.908100	0.401300
H801	H80	0.975800	0.923200	0.430900
H811	H81	0.687400	0.113100	0.329000
H821	H82	0.604000	0.051200	0.322800
H831	H83	0.429400	0.081000	0.398800
H841	H84	0.512800	0.142900	0.405000
H851	H85	0.564300	0.965700	0.409000
H861	H86	0.579100	0.012700	0.401400
H871	H87	0.495500	0.998500	0.425400
H881	H88	0.462400	0.922400	0.413100
H891	H89	0.358400	0.906300	0.403100
H901	H90	0.450700	0.893000	0.382700
H911	H91	0.271300	0.004300	0.279100
H921	H92	0.289200	0.956600	0.277300
H931	H93	0.202600	0.974100	0.298500
H941	H94	0.335600	0.049300	0.286200
H951	H95	0.355200	0.078400	0.316300
H961	H96	0.443100	0.061900	0.295300
H971	H97	0.730700	0.202900	0.071800
H981	H98	0.831400	0.171600	0.110400
H991	H99	0.055800	0.176000	0.046500
H1001	H100	0.955000	0.207300	0.007800
H1011	H101	0.898200	0.061700	0.114300
H1021	H102	0.847500	0.104400	0.108100
H1031	H103	0.912600	0.084500	0.080600
H1041	H104	0.082700	0.039300	0.165600
H1051	H105	0.970400	0.048400	0.162200
H1061	H106	0.028500	0.029900	0.132300
H1071	H107	0.264300	0.197300	0.142300
H1081	H108	0.263100	0.170800	0.174500
H1091	H109	0.316100	0.154200	0.142900
H1101	H110	0.175400	0.224900	0.116400
H1111	H111	0.126000	0.214100	0.082600
H1121	H112	0.062300	0.231000	0.111800
H1131	H113	0.363900	0.842200	0.098000
H1141	H114	0.291000	0.905500	0.108500
H1151	H115	0.489000	0.927600	0.179600
H1161	H116	0.561900	0.864300	0.169100
H1171	H117	0.167000	0.989800	0.229100
H1181	H118	0.206800	0.035100	0.231400
H1191	H119	0.112900	0.025500	0.210500
H1201	H120	0.211800	0.941200	0.220300
H1211	H121	0.219200	0.912000	0.189600
H1221	H122	0.312400	0.921000	0.211000
H1231	H123	0.426400	0.013700	0.087900
H1241	H124	0.484000	0.980600	0.108300
H1251	H125	0.392700	0.967500	0.087300
H1261	H126	0.371000	0.065500	0.096700
H1271	H127	0.273300	0.086200	0.108400
H1281	H128	0.370600	0.093900	0.128000
H1291	H129	0.390900	0.282700	0.300200
H1301	H130	0.339500	0.236000	0.260500
H1311	H131	0.351000	0.144700	0.327300
H1321	H132	0.402300	0.191400	0.367100
H1331	H133	0.528400	0.125300	0.239800
H1341	H134	0.504300	0.169300	0.253500
H1351	H135	0.494500	0.130600	0.276400
H1361	H136	0.490100	0.096100	0.204000
H1371	H137	0.415700	0.060500	0.196500
H1381	H138	0.421400	0.098800	0.173100
H1391	H139	0.058400	0.104600	0.203800
H1401	H140	0.036100	0.112900	0.241200
H1411	H141	0.041600	0.149900	0.216300
H1421	H142	0.068800	0.165700	0.267900
H1431	H143	0.137400	0.162600	0.298700
H1441	H144	0.142000	0.201600	0.275900
H1451	H145	0.303100	0.274300	0.564600
H1461	H146	0.434000	0.295600	0.532400
H1471	H147	0.506100	0.379600	0.601000
H1481	H148	0.375200	0.358300	0.633200
H1491	H149	0.744500	0.305700	0.581900
H1501	H150	0.644000	0.317700	0.597900
H1511	H151	0.647700	0.284600	0.569800
H1521	H152	0.843100	0.335000	0.565300
H1531	H153	0.883100	0.344900	0.530000
H1541	H154	0.873400	0.380200	0.556200
H1551	H155	0.538000	0.434100	0.467700
H1561	H156	0.632800	0.458600	0.477400
H1571	H157	0.639300	0.421700	0.452600
H1581	H158	0.440700	0.410100	0.487500
H1591	H159	0.408200	0.366100	0.499200
H1601	H160	0.405600	0.403200	0.523900
H1611	H161	0.267300	0.343900	0.370900
H1621	H162	0.133900	0.370600	0.399200
H1631	H163	0.210800	0.305500	0.479400
H1641	H164	0.344100	0.278800	0.451100
H1651	H165	0.187000	0.423300	0.507300
H1661	H166	0.222900	0.378500	0.499100
H1671	H167	0.222200	0.412500	0.471600
H1681	H168	0.073500	0.445900	0.525600
H1691	H169	0.974500	0.465600	0.514000
H1701	H170	0.974300	0.431000	0.541000
H1711	H171	0.799000	0.328100	0.434400
H1721	H172	0.758900	0.339700	0.469400
H1731	H173	0.758600	0.372600	0.441100
H1741	H174	0.911600	0.299200	0.420900
H1751	H175	0.010000	0.313800	0.404800
H1761	H176	0.011900	0.283700	0.435000
H1771	H177	0.681000	0.679000	0.461200
H1781	H178	0.690200	0.607600	0.458900
H1791	H179	0.887200	0.608500	0.532500
H1801	H180	0.877900	0.679900	0.534800
H1811	H181	0.707200	0.585000	0.546700
H1821	H182	0.641700	0.546200	0.553400
H1831	H183	0.741400	0.551500	0.572100
H1841	H184	0.721500	0.488400	0.572600
H1851	H185	0.688200	0.449700	0.552400
H1861	H186	0.796700	0.453300	0.564700
H1871	H187	0.882100	0.485100	0.420000
H1881	H188	0.919600	0.449000	0.442300
H1891	H189	0.811100	0.449100	0.429700
H1901	H190	0.904000	0.541500	0.423600
H1911	H191	0.833000	0.578200	0.431600
H1921	H192	0.934100	0.574900	0.449700
H1931	H193	0.129200	0.298100	0.706700
H1941	H194	0.136900	0.250400	0.749300
H1951	H195	0.220400	0.162900	0.685000
H1961	H196	0.212700	0.210600	0.642400
H1971	H197	0.350500	0.190600	0.723900
H1981	H198	0.412700	0.187400	0.756300
H1991	H199	0.407000	0.149800	0.732100
H2001	H200	0.391900	0.094500	0.811600
H2011	H201	0.415400	0.097900	0.773800
H2021	H202	0.437500	0.135200	0.797300
H2031	H203	0.032500	0.100100	0.827900
H2041	H204	0.984600	0.141900	0.817100
H2051	H205	0.977200	0.103200	0.794200
H2061	H206	0.011700	0.185500	0.733300
H2071	H207	0.971400	0.143200	0.746300
H2081	H208	0.970700	0.182200	0.769300
H2091	H209	0.719800	0.206800	0.929900
H2101	H210	0.613700	0.172100	0.894900
H2111	H211	0.420100	0.160300	0.968900
H2121	H212	0.526300	0.195000	0.003900
H2131	H213	0.278700	0.222800	0.896200
H2141	H214	0.333300	0.213400	0.929300
H2151	H215	0.392500	0.228400	0.898500
H2161	H216	0.151800	0.162000	0.850000
H2171	H217	0.156800	0.182700	0.884900
H2181	H218	0.213900	0.202200	0.855200
H2191	H219	0.333500	0.033600	0.849700
H2201	H220	0.447200	0.039900	0.851200
H2211	H221	0.390600	0.024300	0.882400
H2221	H222	0.527900	0.051000	0.898200
H2231	H223	0.588700	0.091900	0.901300
H2241	H224	0.524200	0.076800	0.930900
H2251	H225	0.812600	0.886900	0.829000
H2261	H226	0.896000	0.948800	0.822800
H2271	H227	0.070600	0.919000	0.898800
H2281	H228	0.987200	0.857100	0.905000
H2291	H229	0.935700	0.034300	0.909000
H2301	H230	0.920900	0.987300	0.901400
H2311	H231	0.004500	0.001500	0.925400
H2321	H232	0.037600	0.077600	0.913100
H2331	H233	0.141600	0.093700	0.903100
H2341	H234	0.049300	0.107000	0.882700
H2351	H235	0.228700	0.995700	0.779100
H2361	H236	0.210800	0.043400	0.777300
H2371	H237	0.297400	0.025900	0.798500
H2381	H238	0.164400	0.950700	0.786200
H2391	H239	0.144800	0.921600	0.816300
H2401	H240	0.056900	0.938100	0.795300
H2411	H241	0.769300	0.797100	0.571800
H2421	H242	0.668600	0.828400	0.610400
H2431	H243	0.444200	0.824000	0.546500
H2441	H244	0.545000	0.792700	0.507800
H2451	H245	0.601800	0.938300	0.614300
H2461	H246	0.652500	0.895600	0.608100
H2471	H247	0.587400	0.915500	0.580600
H2481	H248	0.417300	0.960700	0.665600
H2491	H249	0.529600	0.951600	0.662200
H2501	H250	0.471500	0.970100	0.632300
H2511	H251	0.235700	0.802700	0.642300
H2521	H252	0.236900	0.829200	0.674500
H2531	H253	0.183900	0.845800	0.642900
H2541	H254	0.324600	0.775100	0.616400
H2551	H255	0.374000	0.785900	0.582600
H2561	H256	0.437700	0.769000	0.611800
H2571	H257	0.136100	0.157800	0.598000
H2581	H258	0.209000	0.094500	0.608500
H2591	H259	0.011000	0.072400	0.679600
H2601	H260	0.938100	0.135700	0.669100
H2611	H261	0.333000	0.010200	0.729100
H2621	H262	0.293200	0.964900	0.731400
H2631	H263	0.387100	0.974500	0.710500
H2641	H264	0.288200	0.058800	0.720300
H2651	H265	0.280800	0.088000	0.689600
H2661	H266	0.187600	0.079000	0.711000
H2671	H267	0.073600	0.986300	0.587900
H2681	H268	0.016000	0.019400	0.608300
H2691	H269	0.107300	0.032500	0.587300
H2701	H270	0.129000	0.934500	0.596700
H2711	H271	0.226700	0.913800	0.608400
H2721	H272	0.129400	0.906100	0.628000
H2731	H273	0.109100	0.717300	0.800200
H2741	H274	0.160500	0.764000	0.760500
H2751	H275	0.149000	0.855300	0.827300
H2761	H276	0.097700	0.808600	0.867100
H2771	H277	0.971600	0.874700	0.739800
H2781	H278	0.995700	0.830700	0.753500
H2791	H279	0.005500	0.869400	0.776400
H2801	H280	0.009900	0.903900	0.704000
H2811	H281	0.084300	0.939500	0.696500
H2821	H282	0.078600	0.901200	0.673100
H2831	H283	0.441600	0.895400	0.703800
H2841	H284	0.463900	0.887100	0.741200
H2851	H285	0.458400	0.850100	0.716300
H2861	H286	0.431200	0.834300	0.767900
H2871	H287	0.362600	0.837400	0.798700
H2881	H288	0.358000	0.798400	0.775900
H2891	H289	0.803100	0.225700	0.435400
H2901	H290	0.934000	0.204400	0.467600
H2911	H291	0.006100	0.120400	0.399000
H2921	H292	0.875200	0.141700	0.366800
H2931	H293	0.244500	0.194300	0.418100
H2941	H294	0.144000	0.182300	0.402100
H2951	H295	0.147700	0.215400	0.430200
H2961	H296	0.343100	0.165000	0.434700
H2971	H297	0.383100	0.155100	0.470000
H2981	H298	0.373400	0.119800	0.443800
H2991	H299	0.038000	0.065900	0.532300
H3001	H300	0.132800	0.041400	0.522600
H3011	H301	0.139300	0.078300	0.547400
H3021	H302	0.940700	0.089900	0.512500
H3031	H303	0.908200	0.133900	0.500800
H3041	H304	0.905600	0.096800	0.476100
H3051	H305	0.767300	0.156100	0.629100
H3061	H306	0.633900	0.129400	0.600800
H3071	H307	0.710800	0.194500	0.520600
H3081	H308	0.844100	0.221200	0.548900
H3091	H309	0.687000	0.076700	0.492700
H3101	H310	0.722900	0.121500	0.500900
H3111	H311	0.722200	0.087500	0.528400
H3121	H312	0.573500	0.054100	0.474400
H3131	H313	0.474500	0.034400	0.486000
H3141	H314	0.474300	0.069000	0.459000
H3151	H315	0.299000	0.171900	0.565600
H3161	H316	0.258900	0.160300	0.530600
H3171	H317	0.258600	0.127400	0.558900
H3181	H318	0.411600	0.200800	0.579100
H3191	H319	0.510000	0.186200	0.595200
H3201	H320	0.511900	0.216300	0.565000
H3211	H321	0.181000	0.821000	0.538800
H3221	H322	0.190200	0.892400	0.541100
H3231	H323	0.387200	0.891500	0.467500
H3241	H324	0.377900	0.820100	0.465200
H3251	H325	0.207200	0.915000	0.453300
H3261	H326	0.141700	0.953800	0.446600
H3271	H327	0.241400	0.948500	0.427900
H3281	H328	0.221500	0.011600	0.427400
H3291	H329	0.188200	0.050300	0.447600
H3301	H330	0.296700	0.046700	0.435300
H3311	H331	0.382100	0.014900	0.580000
H3321	H332	0.419600	0.051000	0.557700
H3331	H333	0.311100	0.050900	0.570300
H3341	H334	0.404000	0.958500	0.576400
H3351	H335	0.333000	0.921800	0.568400
H3361	H336	0.434100	0.925100	0.550300
H3371	H337	0.629200	0.201900	0.293300
H3381	H338	0.636900	0.249600	0.250700
H3391	H339	0.720400	0.337100	0.315000
H3401	H340	0.712700	0.289400	0.357600
H3411	H341	0.850500	0.309400	0.276100
H3421	H342	0.912700	0.312600	0.243700
H3431	H343	0.907000	0.350200	0.267900
H3441	H344	0.891900	0.405500	0.188400
H3451	H345	0.915400	0.402100	0.226200
H3461	H346	0.937500	0.364800	0.202700
H3471	H347	0.532500	0.399900	0.172100
H3481	H348	0.484600	0.358100	0.182900
H3491	H349	0.477200	0.396800	0.205800
H3501	H350	0.511700	0.314500	0.266700
H3511	H351	0.471400	0.356800	0.253700
H3521	H352	0.470700	0.317800	0.230700
H3531	H353	0.219800	0.293200	0.070100
H3541	H354	0.113700	0.327900	0.105100
H3551	H355	0.920100	0.339700	0.031100
H3561	H356	0.026300	0.305000	0.996100
H3571	H357	0.778700	0.277200	0.103800
H3581	H358	0.833300	0.286600	0.070700
H3591	H359	0.892500	0.271600	0.101500
H3601	H360	0.651800	0.338000	0.150000
H3611	H361	0.656800	0.317300	0.115100
H3621	H362	0.713900	0.297800	0.144800
H3631	H363	0.833500	0.466400	0.150300
H3641	H364	0.947200	0.460100	0.148800
H3651	H365	0.890600	0.475700	0.117600
H3661	H366	0.027900	0.449000	0.101800
H3671	H367	0.088700	0.408100	0.098700
H3681	H368	0.024200	0.423200	0.069100
H3691	H369	0.312600	0.613100	0.171000
H3701	H370	0.396000	0.551200	0.177200
H3711	H371	0.570600	0.581000	0.101200
H3721	H372	0.487200	0.642900	0.095000
H3731	H373	0.435700	0.465700	0.091000
H3741	H374	0.420900	0.512700	0.098600
H3751	H375	0.504500	0.498500	0.074600
H3761	H376	0.537600	0.422400	0.086900
H3771	H377	0.641600	0.406300	0.096900
H3781	H378	0.549300	0.393000	0.117300
H3791	H379	0.728700	0.504300	0.220900
H3801	H380	0.710800	0.456600	0.222700
H3811	H381	0.797400	0.474100	0.201500
H3821	H382	0.664400	0.549300	0.213800
H3831	H383	0.644800	0.578400	0.183700
H3841	H384	0.556900	0.561900	0.204700
H3851	H385	0.269300	0.702900	0.428200
H3861	H386	0.168600	0.671600	0.389600
H3871	H387	0.944200	0.676000	0.453500
H3881	H388	0.045000	0.707300	0.492200
H3891	H389	0.101800	0.561700	0.385700
H3901	H390	0.152500	0.604400	0.391900
H3911	H391	0.087400	0.584500	0.419400
H3921	H392	0.917300	0.539300	0.334400
H3931	H393	0.029600	0.548400	0.337800
H3941	H394	0.971500	0.529900	0.367700
H3951	H395	0.735700	0.697300	0.357700
H3961	H396	0.736900	0.670800	0.325500
H3971	H397	0.683900	0.654200	0.357100
H3981	H398	0.824600	0.724900	0.383600
H3991	H399	0.874000	0.714100	0.417400
H4001	H400	0.937700	0.731000	0.388200
H4011	H401	0.636100	0.342200	0.402000
H4021	H402	0.709000	0.405500	0.391500
H4031	H403	0.511000	0.427600	0.320400
H4041	H404	0.438100	0.364300	0.330900
H4051	H405	0.833000	0.489800	0.270900
H4061	H406	0.793200	0.535100	0.268600
H4071	H407	0.887100	0.525500	0.289500
H4081	H408	0.788200	0.441200	0.279700
H4091	H409	0.780800	0.412000	0.310400
H4101	H410	0.687600	0.421000	0.289000
H4111	H411	0.573600	0.513700	0.412100
H4121	H412	0.516000	0.480600	0.391700
H4131	H413	0.607300	0.467500	0.412700
H4141	H414	0.629000	0.565500	0.403300
H4151	H415	0.726700	0.586200	0.391600
H4161	H416	0.629400	0.593900	0.372000
H4171	H417	0.609100	0.782700	0.199800
H4181	H418	0.660500	0.736000	0.239500
H4191	H419	0.649000	0.644700	0.172700
H4201	H420	0.597700	0.691400	0.132900
H4211	H421	0.471600	0.625300	0.260200
H4221	H422	0.495700	0.669300	0.246500
H4231	H423	0.505500	0.630600	0.223600
H4241	H424	0.509900	0.596100	0.296000
H4251	H425	0.584300	0.560500	0.303500
H4261	H426	0.578600	0.598800	0.326900
H4271	H427	0.941600	0.604600	0.296200
H4281	H428	0.963900	0.612900	0.258800
H4291	H429	0.958400	0.649900	0.283700
H4301	H430	0.931200	0.665700	0.232100
H4311	H431	0.862600	0.662600	0.201300
H4321	H432	0.858000	0.701600	0.224100
H4331	H433	0.696900	0.774300	0.935400
H4341	H434	0.566000	0.795600	0.967600
H4351	H435	0.493900	0.879600	0.899000
H4361	H436	0.624800	0.858300	0.866800
H4371	H437	0.255500	0.805700	0.918100
H4381	H438	0.356000	0.817700	0.902100
H4391	H439	0.352300	0.784600	0.930200
H4401	H440	0.156900	0.835000	0.934700
H4411	H441	0.116900	0.844900	0.970000
H4421	H442	0.126600	0.880200	0.943800
H4431	H443	0.462000	0.934100	0.032300
H4441	H444	0.367200	0.958600	0.022600
H4451	H445	0.360700	0.921700	0.047400
H4461	H446	0.559300	0.910100	0.012500
H4471	H447	0.591800	0.866100	0.000800
H4481	H448	0.594400	0.903200	0.976100
H4491	H449	0.732700	0.843900	0.129100
H4501	H450	0.866100	0.870600	0.100800
H4511	H451	0.789200	0.805500	0.020600
H4521	H452	0.655900	0.778800	0.048900
H4531	H453	0.813000	0.923300	0.992700
H4541	H454	0.777100	0.878500	0.000900
H4551	H455	0.777800	0.912500	0.028400
H4561	H456	0.926500	0.945900	0.974400
H4571	H457	0.025500	0.965600	0.986000
H4581	H458	0.025700	0.931000	0.959000
H4591	H459	0.201000	0.828100	0.065600
H4601	H460	0.241100	0.839700	0.030600
H4611	H461	0.241400	0.872600	0.058900
H4621	H462	0.088400	0.799200	0.079100
H4631	H463	0.990000	0.813800	0.095200
H4641	H464	0.988100	0.783700	0.065000
H4651	H465	0.319000	0.179000	0.038800
H4661	H466	0.309800	0.107600	0.041100
H4671	H467	0.112800	0.108500	0.967500
H4681	H468	0.122100	0.179900	0.965200
H4691	H469	0.292800	0.085000	0.953300
H4701	H470	0.358300	0.046200	0.946600
H4711	H471	0.258600	0.051500	0.927900
H4721	H472	0.278500	0.988400	0.927400
H4731	H473	0.311800	0.949700	0.947600
H4741	H474	0.203300	0.953300	0.935300
H4751	H475	0.117900	0.985100	0.080000
H4761	H476	0.080400	0.949000	0.057700
H4771	H477	0.188900	0.949100	0.070300
H4781	H478	0.096000	0.041500	0.076400
H4791	H479	0.167000	0.078200	0.068400
H4801	H480	0.065900	0.074900	0.050300
H4811	H481	0.870800	0.798100	0.793300
H4821	H482	0.863100	0.750400	0.750700
H4831	H483	0.779600	0.662900	0.815000
H4841	H484	0.787300	0.710600	0.857600
H4851	H485	0.649500	0.690600	0.776100
H4861	H486	0.587300	0.687400	0.743700
H4871	H487	0.593000	0.649800	0.767900
H4881	H488	0.608100	0.594500	0.688400
H4891	H489	0.584600	0.597900	0.726200
H4901	H490	0.562500	0.635200	0.702700
H4911	H491	0.967500	0.600100	0.672100
H4921	H492	0.015400	0.641900	0.682900
H4931	H493	0.022800	0.603200	0.705800
H4941	H494	0.988300	0.685500	0.766700
H4951	H495	0.028600	0.643200	0.753700
H4961	H496	0.029300	0.682200	0.730700
H4971	H497	0.280200	0.706800	0.570100
H4981	H498	0.386300	0.672100	0.605100
H4991	H499	0.579900	0.660300	0.531100
H5001	H500	0.473700	0.695000	0.496100
H5011	H501	0.721300	0.722800	0.603800
H5021	H502	0.666700	0.713400	0.570700
H5031	H503	0.607500	0.728400	0.601500
H5041	H504	0.848200	0.662000	0.650000
H5051	H505	0.843200	0.682700	0.615100
H5061	H506	0.786100	0.702200	0.644800
H5071	H507	0.666500	0.533600	0.650300
H5081	H508	0.552800	0.539900	0.648800
H5091	H509	0.609400	0.524300	0.617600
H5101	H510	0.472100	0.551000	0.601800
H5111	H511	0.411300	0.591900	0.598700
H5121	H512	0.475800	0.576800	0.569100
H5131	H513	0.187400	0.386900	0.671000
H5141	H514	0.104000	0.448800	0.677200
H5151	H515	0.929400	0.419000	0.601200
H5161	H516	0.012800	0.357100	0.595000
H5171	H517	0.064300	0.534300	0.591000
H5181	H518	0.079100	0.487300	0.598600
H5191	H519	0.995500	0.501500	0.574600
H5201	H520	0.962400	0.577600	0.586900
H5211	H521	0.858400	0.593700	0.596900
H5221	H522	0.950700	0.607000	0.617300
H5231	H523	0.771300	0.495700	0.720900
H5241	H524	0.789200	0.543400	0.722700
H5251	H525	0.702600	0.525900	0.701500
H5261	H526	0.835600	0.450700	0.713800
H5271	H527	0.855200	0.421600	0.683700
H5281	H528	0.943100	0.438100	0.704700
H5291	H529	0.230700	0.297100	0.928200
H5301	H530	0.331400	0.328400	0.889600
H5311	H531	0.555800	0.324000	0.953500
H5321	H532	0.455000	0.292700	0.992200
H5331	H533	0.398200	0.438300	0.885700
H5341	H534	0.347500	0.395600	0.891900
H5351	H535	0.412600	0.415500	0.919400
H5361	H536	0.582700	0.460700	0.834400
H5371	H537	0.470400	0.451600	0.837800
H5381	H538	0.528500	0.470100	0.867700
H5391	H539	0.764300	0.302700	0.857700
H5401	H540	0.763100	0.329200	0.825500
H5411	H541	0.816100	0.345800	0.857100
H5421	H542	0.675400	0.275100	0.883600
H5431	H543	0.626000	0.285900	0.917400
H5441	H544	0.562300	0.269000	0.888200
H5451	H545	0.863900	0.657800	0.902000
H5461	H546	0.791000	0.594500	0.891500
H5471	H547	0.989000	0.572400	0.820400
H5481	H548	0.061900	0.635700	0.830900
H5491	H549	0.667000	0.510200	0.770900
H5501	H550	0.706800	0.464900	0.768600
H5511	H551	0.612900	0.474500	0.789500
H5521	H552	0.711800	0.558800	0.779700
H5531	H553	0.719200	0.588000	0.810400
H5541	H554	0.812400	0.579000	0.789000
H5551	H555	0.926400	0.486300	0.912100
H5561	H556	0.984000	0.519400	0.891700
H5571	H557	0.892700	0.532500	0.912700
H5581	H558	0.871000	0.434500	0.903300
H5591	H559	0.773300	0.413800	0.891600
H5601	H560	0.870600	0.406100	0.872000
H5611	H561	0.890900	0.217300	0.699800
H5621	H562	0.839500	0.264000	0.739500
H5631	H563	0.851000	0.355300	0.672700
H5641	H564	0.902300	0.308600	0.632900
H5651	H565	0.028400	0.374700	0.760200
H5661	H566	0.004300	0.330700	0.746500
H5671	H567	0.994500	0.369400	0.723600
H5681	H568	0.990100	0.403900	0.796000
H5691	H569	0.915700	0.439500	0.803500
H5701	H570	0.921400	0.401200	0.826900
H5711	H571	0.558400	0.395400	0.796200
H5721	H572	0.536100	0.387100	0.758800
H5731	H573	0.541600	0.350100	0.783700
H5741	H574	0.568800	0.334300	0.732100
H5751	H575	0.637400	0.337400	0.701300
H5761	H576	0.642000	0.298400	0.724100
C11	C1	0.156200	0.704600	0.071900
C21	C2	0.077800	0.691900	0.052600
C31	C3	0.017000	0.660300	0.063500
C41	C4	0.034600	0.641500	0.093700
C51	C5	0.113000	0.654300	0.113000
C61	C6	0.934800	0.645600	0.042200
C71	C7	0.954000	0.618400	0.016100
C81	C8	0.875400	0.598500	0.001200
C91	C9	0.775500	0.607600	0.011800
C101	C10	0.760400	0.636000	0.036100
C111	C11	0.837900	0.655400	0.051400
C121	C12	0.824100	0.690300	0.077800
C131	C13	0.655300	0.644800	0.048100
C141	C14	0.893000	0.568100	0.971900
C151	C15	0.059800	0.608800	0.005700
C161	C16	0.244000	0.663800	0.892600
C171	C17	0.323900	0.647800	0.909600
C181	C18	0.340900	0.659300	0.942100
C191	C19	0.277900	0.686800	0.957600
C201	C20	0.198000	0.702800	0.940700
C211	C21	0.428900	0.641000	0.958000
C221	C22	0.518300	0.655000	0.949600
C231	C23	0.603000	0.636000	0.960900
C241	C24	0.597200	0.603700	0.984500
C251	C25	0.503300	0.591200	0.995300
C261	C26	0.417300	0.610200	0.981200
C271	C27	0.311200	0.597800	0.990700
C281	C28	0.494500	0.559400	0.021300
C291	C29	0.706400	0.650200	0.950400
C301	C30	0.521500	0.693400	0.925200
C311	C31	0.777700	0.335100	0.975500
C321	C32	0.772100	0.377900	0.974100
C331	C33	0.710400	0.399000	0.995500
C341	C34	0.654100	0.377400	0.018200
C351	C35	0.659700	0.334600	0.019600
C361	C36	0.703900	0.445300	0.995800
C371	C37	0.668400	0.466900	0.968600
C381	C38	0.668300	0.509100	0.968800
C391	C39	0.698500	0.532200	0.995700
C401	C40	0.731100	0.509700	0.024600
C411	C41	0.739200	0.467400	0.023700
C421	C42	0.792300	0.444000	0.051600
C431	C43	0.758700	0.531600	0.056500
C441	C44	0.635700	0.533900	0.937100
C451	C45	0.619600	0.440500	0.940700
C461	C46	0.352500	0.729000	0.202300
C471	C47	0.347900	0.757600	0.227850
C481	C48	0.320600	0.798100	0.221400
C491	C49	0.297900	0.810000	0.189400
C501	C50	0.302500	0.781400	0.163850
C511	C51	0.312500	0.829700	0.250000
C521	C52	0.394500	0.843100	0.264400
C531	C53	0.387300	0.869900	0.292700
C541	C54	0.293300	0.883300	0.303000
C551	C55	0.210800	0.870000	0.286500
C561	C56	0.214700	0.843000	0.259000
C571	C57	0.128700	0.827400	0.241300
C581	C58	0.106500	0.887200	0.292900
C591	C59	0.481900	0.882300	0.309500
C601	C60	0.494000	0.832100	0.252200
C611	C61	0.840200	0.802600	0.437700
C621	C62	0.903800	0.823300	0.416800
C631	C63	0.993600	0.837300	0.428400
C641	C64	0.019800	0.830400	0.461100
C651	C65	0.956200	0.809600	0.482100
C661	C66	0.066900	0.856700	0.405700
C671	C67	0.057200	0.897400	0.394000
C681	C68	0.127500	0.914400	0.374300
C691	C69	0.206900	0.890100	0.362800
C701	C70	0.216400	0.849800	0.373800
C711	C71	0.147700	0.832800	0.394900
C721	C72	0.162200	0.787800	0.405800
C731	C73	0.307100	0.823200	0.365100
C741	C74	0.112700	0.958100	0.363400
C751	C75	0.971200	0.921600	0.407300
C761	C76	0.635700	0.106600	0.343000
C771	C77	0.585700	0.069600	0.339300
C781	C78	0.508400	0.060000	0.360200
C791	C79	0.481100	0.087500	0.384800
C801	C80	0.531100	0.124500	0.388500
C811	C81	0.453500	0.020200	0.355600
C821	C82	0.387500	0.017200	0.326900
C831	C83	0.337400	0.981700	0.321700
C841	C84	0.345300	0.948300	0.343100
C851	C85	0.407200	0.953200	0.371900
C861	C86	0.461200	0.988200	0.376700
C871	C87	0.531600	0.991600	0.405800
C881	C88	0.421000	0.915000	0.394900
C891	C89	0.268500	0.978900	0.291200
C901	C90	0.379600	0.055300	0.304000
C911	C91	0.795800	0.197500	0.066700
C921	C92	0.856200	0.178800	0.089900
C931	C93	0.953600	0.170700	0.082300
C941	C94	0.990600	0.181400	0.051500
C951	C95	0.930200	0.200100	0.028400
C961	C96	0.017400	0.149300	0.105500
C971	C97	0.099600	0.169200	0.118300
C981	C98	0.165200	0.149000	0.139600
C991	C99	0.143600	0.109200	0.150700
C1001	C100	0.054200	0.090000	0.139300
C1011	C101	0.992000	0.109500	0.117400
C1021	C102	0.904900	0.088100	0.103900
C1031	C103	0.032100	0.048300	0.150800
C1041	C104	0.261300	0.169800	0.150900
C1051	C105	0.117600	0.214100	0.106100
C1061	C106	0.389000	0.859300	0.114400
C1071	C107	0.345300	0.897200	0.120600
C1081	C108	0.382700	0.922800	0.145100
C1091	C109	0.463900	0.910500	0.163200
C1101	C110	0.507600	0.872600	0.157000
C1111	C111	0.334700	0.964300	0.153300
C1121	C112	0.353200	0.997100	0.130600
C1131	C113	0.311700	0.036300	0.137500
C1141	C114	0.257500	0.041700	0.165800
C1151	C115	0.240400	0.007600	0.186600
C1161	C116	0.277100	0.970000	0.180200
C1171	C117	0.175600	0.015200	0.217300
C1181	C118	0.252800	0.932500	0.202400
C1191	C119	0.420500	0.989000	0.100700
C1201	C120	0.333700	0.074000	0.115600
C1211	C121	0.382900	0.255100	0.305600
C1221	C122	0.352100	0.227100	0.281840
C1231	C123	0.340200	0.185700	0.290000
C1241	C124	0.359000	0.172300	0.321900
C1251	C125	0.389800	0.200300	0.345700
C1261	C126	0.310700	0.157100	0.262800
C1271	C127	0.209200	0.151700	0.255800
C1281	C128	0.180500	0.127700	0.228900
C1291	C129	0.252700	0.107700	0.208600
C1301	C130	0.347100	0.112100	0.216700
C1311	C131	0.379100	0.135500	0.243500
C1321	C132	0.486800	0.140700	0.254300
C1331	C133	0.426200	0.089700	0.195500
C1341	C134	0.068300	0.123400	0.221900
C1351	C135	0.132500	0.172200	0.276400
C1361	C136	0.935000	0.740700	0.972000
C1371	C137	0.343800	0.295400	0.571900
C1381	C138	0.422200	0.308100	0.552600
C1391	C139	0.483000	0.339700	0.563500
C1401	C140	0.465400	0.358500	0.593700
C1411	C141	0.387000	0.345700	0.613000
C1421	C142	0.565200	0.354400	0.542200
C1431	C143	0.546000	0.381600	0.516100
C1441	C144	0.624600	0.401500	0.501200
C1451	C145	0.724500	0.392400	0.511800
C1461	C146	0.739600	0.364000	0.536100
C1471	C147	0.662100	0.344600	0.551400
C1481	C148	0.675900	0.309700	0.577800
C1491	C149	0.844700	0.355200	0.548100
C1501	C150	0.607000	0.431900	0.471900
C1511	C151	0.440200	0.391200	0.505700
C1521	C152	0.256000	0.336200	0.392600
C1531	C153	0.176100	0.352200	0.409600
C1541	C154	0.159100	0.340700	0.442100
C1551	C155	0.222100	0.313200	0.457600
C1561	C156	0.302000	0.297200	0.440700
C1571	C157	0.071100	0.359000	0.458000
C1581	C158	0.981700	0.345000	0.449600
C1591	C159	0.897000	0.364000	0.460900
C1601	C160	0.902800	0.396300	0.484500
C1611	C161	0.996700	0.408800	0.495300
C1621	C162	0.082700	0.389800	0.481200
C1631	C163	0.188800	0.402200	0.490700
C1641	C164	0.005500	0.440600	0.521300
C1651	C165	0.793600	0.349800	0.450400
C1661	C166	0.978500	0.306600	0.425200
C1671	C167	0.722300	0.664900	0.475500
C1681	C168	0.727900	0.622100	0.474100
C1691	C169	0.789600	0.601000	0.495500
C1701	C170	0.845900	0.622600	0.518200
C1711	C171	0.840300	0.665400	0.519600
C1721	C172	0.796100	0.554700	0.495800
C1731	C173	0.831600	0.533100	0.468600
C1741	C174	0.831700	0.490900	0.468800
C1751	C175	0.801500	0.467800	0.495700
C1761	C176	0.768900	0.490300	0.524600
C1771	C177	0.760800	0.532600	0.523700
C1781	C178	0.707700	0.556000	0.551600
C1791	C179	0.741300	0.468400	0.556500
C1801	C180	0.864300	0.466100	0.437100
C1811	C181	0.880400	0.559500	0.440700
C1821	C182	0.147500	0.271000	0.702300
C1831	C183	0.152100	0.242400	0.727850
C1841	C184	0.179400	0.201900	0.721400
C1851	C185	0.202100	0.190000	0.689400
C1861	C186	0.197500	0.218600	0.663850
C1871	C187	0.187500	0.170300	0.750000
C1881	C188	0.105500	0.156900	0.764400
C1891	C189	0.112700	0.130100	0.792700
C1901	C190	0.206700	0.116700	0.803000
C1911	C191	0.289200	0.130000	0.786500
C1921	C192	0.285300	0.157000	0.759000
C1931	C193	0.371300	0.172600	0.741300
C1941	C194	0.393500	0.112800	0.792900
C1951	C195	0.018100	0.117700	0.809500
C1961	C196	0.006000	0.167900	0.752200
C1971	C197	0.659800	0.197400	0.937700
C1981	C198	0.596200	0.176700	0.916800
C1991	C199	0.506400	0.162700	0.928400
C2001	C200	0.480200	0.169600	0.961100
C2011	C201	0.543800	0.190400	0.982100
C2021	C202	0.433100	0.143300	0.905700
C2031	C203	0.442800	0.102600	0.894000
C2041	C204	0.372500	0.085600	0.874300
C2051	C205	0.293100	0.109900	0.862800
C2061	C206	0.283600	0.150200	0.873800
C2071	C207	0.352300	0.167200	0.894900
C2081	C208	0.337800	0.212200	0.905800
C2091	C209	0.192900	0.176800	0.865100
C2101	C210	0.387300	0.041900	0.863400
C2111	C211	0.528800	0.078400	0.907300
C2121	C212	0.864300	0.893400	0.843000
C2131	C213	0.914300	0.930400	0.839300
C2141	C214	0.991600	0.940000	0.860200
C2151	C215	0.018900	0.912500	0.884800
C2161	C216	0.968900	0.875500	0.888500
C2171	C217	0.046500	0.979800	0.855600
C2181	C218	0.112500	0.982800	0.826900
C2191	C219	0.162600	0.018300	0.821700
C2201	C220	0.154700	0.051700	0.843100
C2211	C221	0.092800	0.046800	0.871900
C2221	C222	0.038800	0.011800	0.876700
C2231	C223	0.968400	0.008400	0.905800
C2241	C224	0.079000	0.085000	0.894900
C2251	C225	0.231500	0.021100	0.791200
C2261	C226	0.120400	0.944700	0.804000
C2271	C227	0.704200	0.802500	0.566700
C2281	C228	0.643800	0.821200	0.589900
C2291	C229	0.546400	0.829300	0.582300
C2301	C230	0.509400	0.818600	0.551500
C2311	C231	0.569800	0.799900	0.528400
C2321	C232	0.482600	0.850700	0.605500
C2331	C233	0.400400	0.830800	0.618300
C2341	C234	0.334800	0.851000	0.639600
C2351	C235	0.356400	0.890800	0.650700
C2361	C236	0.445800	0.910000	0.639300
C2371	C237	0.508000	0.890500	0.617400
C2381	C238	0.595100	0.911900	0.603900
C2391	C239	0.467900	0.951700	0.650800
C2401	C240	0.238700	0.830200	0.650900
C2411	C241	0.382400	0.785900	0.606100
C2421	C242	0.111000	0.140700	0.614400
C2431	C243	0.154700	0.102800	0.620600
C2441	C244	0.117300	0.077200	0.645100
C2451	C245	0.036100	0.089500	0.663200
C2461	C246	0.992400	0.127400	0.657000
C2471	C247	0.165300	0.035700	0.653300
C2481	C248	0.146800	0.002900	0.630600
C2491	C249	0.188300	0.963700	0.637500
C2501	C250	0.242500	0.958300	0.665800
C2511	C251	0.259600	0.992400	0.686600
C2521	C252	0.222900	0.030000	0.680200
C2531	C253	0.324400	0.984800	0.717300
C2541	C254	0.247200	0.067500	0.702400
C2551	C255	0.079500	0.011000	0.600700
C2561	C256	0.166300	0.926000	0.615600
C2571	C257	0.117100	0.744900	0.805600
C2581	C258	0.147900	0.772900	0.781840
C2591	C259	0.159800	0.814300	0.790000
C2601	C260	0.141000	0.827700	0.821900
C2611	C261	0.110200	0.799700	0.845700
C2621	C262	0.189300	0.842900	0.762800
C2631	C263	0.290800	0.848300	0.755800
C2641	C264	0.319500	0.872300	0.728900
C2651	C265	0.247300	0.892300	0.708600
C2661	C266	0.152900	0.887900	0.716700
C2671	C267	0.120900	0.864500	0.743500
C2681	C268	0.013200	0.859300	0.754300
C2691	C269	0.073800	0.910300	0.695500
C2701	C270	0.431700	0.876600	0.721900
C2711	C271	0.367500	0.827800	0.776400
C2721	C272	0.565000	0.259300	0.472000
C2731	C273	0.843800	0.204600	0.428100
C2741	C274	0.922200	0.191900	0.447400
C2751	C275	0.983000	0.160300	0.436500
C2761	C276	0.965400	0.141500	0.406300
C2771	C277	0.887000	0.154300	0.387000
C2781	C278	0.065200	0.145600	0.457800
C2791	C279	0.046000	0.118400	0.483900
C2801	C280	0.124600	0.098500	0.498800
C2811	C281	0.224500	0.107600	0.488200
C2821	C282	0.239600	0.136000	0.463900
C2831	C283	0.162100	0.155400	0.448600
C2841	C284	0.175900	0.190300	0.422200
C2851	C285	0.344700	0.144800	0.451900
C2861	C286	0.107000	0.068100	0.528100
C2871	C287	0.940200	0.108800	0.494300
C2881	C288	0.756000	0.163800	0.607400
C2891	C289	0.676100	0.147800	0.590400
C2901	C290	0.659100	0.159300	0.557900
C2911	C291	0.722100	0.186800	0.542400
C2921	C292	0.802000	0.202800	0.559300
C2931	C293	0.571100	0.141000	0.542000
C2941	C294	0.481700	0.155000	0.550400
C2951	C295	0.397000	0.136000	0.539100
C2961	C296	0.402800	0.103700	0.515500
C2971	C297	0.496700	0.091200	0.504700
C2981	C298	0.582700	0.110200	0.518800
C2991	C299	0.688800	0.097800	0.509300
C3001	C300	0.505500	0.059400	0.478700
C3011	C301	0.293600	0.150200	0.549600
C3021	C302	0.478500	0.193400	0.574800
C3031	C303	0.222300	0.835100	0.524500
C3041	C304	0.227900	0.877900	0.525900
C3051	C305	0.289600	0.899000	0.504500
C3061	C306	0.345900	0.877400	0.481800
C3071	C307	0.340300	0.834600	0.480400
C3081	C308	0.296100	0.945300	0.504200
C3091	C309	0.331600	0.966900	0.531400
C3101	C310	0.331700	0.009100	0.531200
C3111	C311	0.301500	0.032200	0.504300
C3121	C312	0.268900	0.009700	0.475400
C3131	C313	0.260800	0.967400	0.476300
C3141	C314	0.207700	0.944000	0.448400
C3151	C315	0.241300	0.031600	0.443500
C3161	C316	0.364300	0.033900	0.562900
C3171	C317	0.380400	0.940500	0.559300
C3181	C318	0.647500	0.229000	0.297700
C3191	C319	0.652100	0.257600	0.272150
C3201	C320	0.679400	0.298100	0.278600
C3211	C321	0.702100	0.310000	0.310600
C3221	C322	0.697500	0.281400	0.336150
C3231	C323	0.687500	0.329700	0.250000
C3241	C324	0.605500	0.343100	0.235600
C3251	C325	0.612700	0.369900	0.207300
C3261	C326	0.706700	0.383300	0.197000
C3271	C327	0.789200	0.370000	0.213500
C3281	C328	0.785300	0.343000	0.241000
C3291	C329	0.871300	0.327400	0.258700
C3301	C330	0.893500	0.387200	0.207100
C3311	C331	0.518100	0.382300	0.190500
C3321	C332	0.506000	0.332100	0.247800
C3331	C333	0.159800	0.302600	0.062300
C3341	C334	0.096200	0.323300	0.083200
C3351	C335	0.006400	0.337300	0.071600
C3361	C336	0.980200	0.330400	0.038900
C3371	C337	0.043800	0.309600	0.017900
C3381	C338	0.933100	0.356700	0.094300
C3391	C339	0.942800	0.397400	0.106000
C3401	C340	0.872500	0.414400	0.125700
C3411	C341	0.793100	0.390100	0.137200
C3421	C342	0.783600	0.349800	0.126200
C3431	C343	0.852300	0.332800	0.105100
C3441	C344	0.837800	0.287800	0.094200
C3451	C345	0.692900	0.323200	0.134900
C3461	C346	0.887300	0.458100	0.136600
C3471	C347	0.028800	0.421600	0.092700
C3481	C348	0.364300	0.606600	0.157000
C3491	C349	0.414300	0.569600	0.160700
C3501	C350	0.491600	0.560000	0.139800
C3511	C351	0.518900	0.587500	0.115200
C3521	C352	0.468900	0.624500	0.111500
C3531	C353	0.546500	0.520200	0.144400
C3541	C354	0.612500	0.517200	0.173100
C3551	C355	0.662600	0.481700	0.178300
C3561	C356	0.654700	0.448300	0.156900
C3571	C357	0.592800	0.453200	0.128100
C3581	C358	0.538800	0.488200	0.123300
C3591	C359	0.468400	0.491600	0.094200
C3601	C360	0.579000	0.415000	0.105100
C3611	C361	0.731500	0.478900	0.208800
C3621	C362	0.620400	0.555300	0.196000
C3631	C363	0.204200	0.697500	0.433300
C3641	C364	0.143800	0.678800	0.410100
C3651	C365	0.046400	0.670700	0.417700
C3661	C366	0.009400	0.681400	0.448500
C3671	C367	0.069800	0.700100	0.471600
C3681	C368	0.982600	0.649300	0.394500
C3691	C369	0.900400	0.669200	0.381700
C3701	C370	0.834800	0.649000	0.360400
C3711	C371	0.856400	0.609200	0.349300
C3721	C372	0.945800	0.590000	0.360700
C3731	C373	0.008000	0.609500	0.382600
C3741	C374	0.095100	0.588100	0.396100
C3751	C375	0.967900	0.548300	0.349200
C3761	C376	0.738700	0.669800	0.349100
C3771	C377	0.882400	0.714100	0.393900
C3781	C378	0.611000	0.359300	0.385600
C3791	C379	0.654700	0.397200	0.379400
C3801	C380	0.617300	0.422800	0.354900
C3811	C381	0.536100	0.410500	0.336800
C3821	C382	0.492400	0.372600	0.343000
C3831	C383	0.665300	0.464300	0.346700
C3841	C384	0.646800	0.497100	0.369400
C3851	C385	0.688300	0.536300	0.362500
C3861	C386	0.742500	0.541700	0.334200
C3871	C387	0.759600	0.507600	0.313400
C3881	C388	0.722900	0.470000	0.319800
C3891	C389	0.824400	0.515200	0.282700
C3901	C390	0.747200	0.432500	0.297600
C3911	C391	0.579500	0.489000	0.399300
C3921	C392	0.666300	0.574000	0.384400
C3931	C393	0.617100	0.755100	0.194400
C3941	C394	0.647900	0.727100	0.218160
C3951	C395	0.659800	0.685700	0.210000
C3961	C396	0.641000	0.672300	0.178100
C3971	C397	0.610200	0.700300	0.154300
C3981	C398	0.689300	0.657100	0.237200
C3991	C399	0.790800	0.651700	0.244200
C4001	C400	0.819500	0.627700	0.271100
C4011	C401	0.747300	0.607700	0.291400
C4021	C402	0.652900	0.612100	0.283300
C4031	C403	0.620900	0.635500	0.256500
C4041	C404	0.513200	0.640700	0.245700
C4051	C405	0.573800	0.589700	0.304500
C4061	C406	0.931700	0.623400	0.278100
C4071	C407	0.867500	0.672200	0.223600
C4081	C408	0.065000	0.240700	0.528000
C4091	C409	0.656200	0.795400	0.928100
C4101	C410	0.577800	0.808100	0.947400
C4111	C411	0.517000	0.839700	0.936500
C4121	C412	0.534600	0.858500	0.906300
C4131	C413	0.613000	0.845700	0.887000
C4141	C414	0.434800	0.854400	0.957800
C4151	C415	0.454000	0.881600	0.983900
C4161	C416	0.375400	0.901500	0.998800
C4171	C417	0.275500	0.892400	0.988200
C4181	C418	0.260400	0.864000	0.963900
C4191	C419	0.337900	0.844600	0.948600
C4201	C420	0.324100	0.809700	0.922200
C4211	C421	0.155300	0.855200	0.951900
C4221	C422	0.393000	0.931900	0.028100
C4231	C423	0.559800	0.891200	0.994300
C4241	C424	0.744000	0.836200	0.107400
C4251	C425	0.823900	0.852200	0.090400
C4261	C426	0.840900	0.840700	0.057900
C4271	C427	0.777900	0.813200	0.042400
C4281	C428	0.698000	0.797200	0.059300
C4291	C429	0.928900	0.859000	0.042000
C4301	C430	0.018300	0.845000	0.050400
C4311	C431	0.103000	0.864000	0.039100
C4321	C432	0.097200	0.896300	0.015500
C4331	C433	0.003300	0.908800	0.004700
C4341	C434	0.917300	0.889800	0.018800
C4351	C435	0.811200	0.902200	0.009300
C4361	C436	0.994500	0.940600	0.978700
C4371	C437	0.206400	0.849800	0.049600
C4381	C438	0.021500	0.806600	0.074800
C4391	C439	0.277700	0.164900	0.024500
C4401	C440	0.272100	0.122100	0.025900
C4411	C441	0.210400	0.101000	0.004500
C4421	C442	0.154100	0.122600	0.981800
C4431	C443	0.159700	0.165400	0.980400
C4441	C444	0.203900	0.054700	0.004200
C4451	C445	0.168400	0.033100	0.031400
C4461	C446	0.168300	0.990900	0.031200
C4471	C447	0.198500	0.967800	0.004300
C4481	C448	0.231100	0.990300	0.975400
C4491	C449	0.239200	0.032600	0.976300
C4501	C450	0.292300	0.056000	0.948400
C4511	C451	0.258700	0.968400	0.943500
C4521	C452	0.135700	0.966100	0.062900
C4531	C453	0.119600	0.059500	0.059300
C4541	C454	0.852500	0.771000	0.797700
C4551	C455	0.847900	0.742400	0.772150
C4561	C456	0.820600	0.701900	0.778600
C4571	C457	0.797900	0.690000	0.810600
C4581	C458	0.802500	0.718600	0.836150
C4591	C459	0.812500	0.670300	0.750000
C4601	C460	0.894500	0.656900	0.735600
C4611	C461	0.887300	0.630100	0.707300
C4621	C462	0.793300	0.616700	0.697000
C4631	C463	0.710800	0.630000	0.713500
C4641	C464	0.714700	0.657000	0.741000
C4651	C465	0.628700	0.672600	0.758700
C4661	C466	0.606500	0.612800	0.707100
C4671	C467	0.981900	0.617700	0.690500
C4681	C468	0.994000	0.667900	0.747800
C4691	C469	0.340200	0.697400	0.562300
C4701	C470	0.403800	0.676700	0.583200
C4711	C471	0.493600	0.662700	0.571600
C4721	C472	0.519800	0.669600	0.538900
C4731	C473	0.456200	0.690400	0.517900
C4741	C474	0.566900	0.643300	0.594300
C4751	C475	0.557200	0.602600	0.606000
C4761	C476	0.627500	0.585600	0.625700
C4771	C477	0.706900	0.609900	0.637200
C4781	C478	0.716400	0.650200	0.626200
C4791	C479	0.647700	0.667200	0.605100
C4801	C480	0.662200	0.712200	0.594200
C4811	C481	0.807100	0.676800	0.634900
C4821	C482	0.612700	0.541900	0.636600
C4831	C483	0.471200	0.578400	0.592700
C4841	C484	0.135700	0.393400	0.657000
C4851	C485	0.085700	0.430400	0.660700
C4861	C486	0.008400	0.440000	0.639800
C4871	C487	0.981100	0.412500	0.615200
C4881	C488	0.031100	0.375500	0.611500
C4891	C489	0.953500	0.479800	0.644400
C4901	C490	0.887500	0.482800	0.673100
C4911	C491	0.837400	0.518300	0.678300
C4921	C492	0.845300	0.551700	0.656900
C4931	C493	0.907200	0.546800	0.628100
C4941	C494	0.961200	0.511800	0.623300
C4951	C495	0.031600	0.508400	0.594200
C4961	C496	0.921000	0.585000	0.605100
C4971	C497	0.768500	0.521100	0.708800
C4981	C498	0.879600	0.444700	0.696000
C4991	C499	0.295800	0.302500	0.933300
C5001	C500	0.356200	0.321200	0.910100
C5011	C501	0.453600	0.329300	0.917700
C5021	C502	0.490600	0.318600	0.948500
C5031	C503	0.430200	0.299900	0.971600
C5041	C504	0.517400	0.350700	0.894500
C5051	C505	0.599600	0.330800	0.881700
C5061	C506	0.665200	0.351000	0.860400
C5071	C507	0.643600	0.390800	0.849300
C5081	C508	0.554200	0.410000	0.860700
C5091	C509	0.492000	0.390500	0.882600
C5101	C510	0.404900	0.411900	0.896100
C5111	C511	0.532100	0.451700	0.849200
C5121	C512	0.761300	0.330200	0.849100
C5131	C513	0.617600	0.285900	0.893900
C5141	C514	0.889000	0.640700	0.885600
C5151	C515	0.845300	0.602800	0.879400
C5161	C516	0.882700	0.577200	0.854900
C5171	C517	0.963900	0.589500	0.836800
C5181	C518	0.007600	0.627400	0.843000
C5191	C519	0.834700	0.535700	0.846700
C5201	C520	0.853200	0.502900	0.869400
C5211	C521	0.811700	0.463700	0.862500
C5221	C522	0.757500	0.458300	0.834200
C5231	C523	0.740400	0.492400	0.813400
C5241	C524	0.777100	0.530000	0.819800
C5251	C525	0.675600	0.484800	0.782700
C5261	C526	0.752800	0.567500	0.797600
C5271	C527	0.920500	0.511000	0.899300
C5281	C528	0.833700	0.426000	0.884400
C5291	C529	0.882900	0.244900	0.694400
C5301	C530	0.852100	0.272900	0.718160
C5311	C531	0.840200	0.314300	0.710000
C5321	C532	0.859000	0.327700	0.678100
C5331	C533	0.889800	0.299700	0.654300
C5341	C534	0.810700	0.342900	0.737200
C5351	C535	0.709200	0.348300	0.744200
C5361	C536	0.680500	0.372300	0.771100
C5371	C537	0.752700	0.392300	0.791400
C5381	C538	0.847100	0.387900	0.783300
C5391	C539	0.879100	0.364500	0.756500
C5401	C540	0.986800	0.359300	0.745700
C5411	C541	0.926200	0.410300	0.804500
C5421	C542	0.568300	0.376600	0.778100
C5431	C543	0.632500	0.327800	0.723600
C5441	C544	0.435000	0.759300	0.028000
S11	S1	0.928600	0.766690	0.933740
S21	S2	0.571400	0.233310	0.433740
S31	S3	0.071400	0.266690	0.566260
S41	S4	0.428600	0.733310	0.066260
N11	N1	0.173800	0.685800	0.102100
N21	N2	0.181100	0.691300	0.908200
N31	N3	0.721500	0.313500	0.998200
N41	N4	0.329800	0.740900	0.170300
N51	N5	0.866400	0.795700	0.470400
N61	N6	0.608400	0.134100	0.367600
N71	N7	0.832900	0.208200	0.036000
N81	N8	0.470100	0.847000	0.132600
N91	N9	0.401700	0.241700	0.337600
N101	N10	0.326200	0.314200	0.602100
N111	N11	0.318900	0.308700	0.408200
N121	N12	0.778500	0.686500	0.498200
N131	N13	0.170200	0.259100	0.670300
N141	N14	0.633600	0.204300	0.970400
N151	N15	0.891600	0.865900	0.867600
N161	N16	0.667100	0.791800	0.536000
N171	N17	0.029900	0.153000	0.632600
N181	N18	0.098300	0.758300	0.837600
N191	N19	0.826200	0.185800	0.397900
N201	N20	0.818900	0.191300	0.591800
N211	N21	0.278500	0.813500	0.501800
N221	N22	0.670200	0.240900	0.329700
N231	N23	0.133600	0.295700	0.029600
N241	N24	0.391600	0.634100	0.132400
N251	N25	0.167100	0.708200	0.464000
N261	N26	0.529900	0.347000	0.367400
N271	N27	0.598300	0.741700	0.162400
N281	N28	0.673800	0.814200	0.897900
N291	N29	0.681100	0.808700	0.091800
N301	N30	0.221500	0.186500	0.001800
N311	N31	0.829800	0.759100	0.829700
N321	N32	0.366400	0.704300	0.529600
N331	N33	0.108400	0.365900	0.632400
N341	N34	0.332900	0.291800	0.964000
N351	N35	0.970100	0.653000	0.867400
N361	N36	0.901700	0.258300	0.662400
O11	O1	0.859400	0.741900	0.914700
O21	O2	0.889400	0.808100	0.944000
O31	O3	0.026900	0.768400	0.922000
O41	O4	0.640600	0.258100	0.414700
O51	O5	0.610600	0.191900	0.444000
O61	O6	0.473100	0.231600	0.422000
O71	O7	0.140600	0.241900	0.585300
O81	O8	0.110600	0.308100	0.556000
O91	O9	0.973100	0.268400	0.578000
O101	O10	0.359400	0.758100	0.085300
O111	O11	0.389400	0.691900	0.056000
O121	O12	0.526900	0.731600	0.078000
F11	F1	0.963400	0.701200	0.966600
F21	F2	0.843100	0.739400	0.985600
F31	F3	0.992100	0.757400	0.993100
F41	F4	0.536600	0.298800	0.466600
F51	F5	0.656900	0.260600	0.485600
F61	F6	0.507900	0.242600	0.493100
F71	F7	0.036600	0.201200	0.533400
F81	F8	0.156900	0.239400	0.514400
F91	F9	0.007900	0.257400	0.506900
F101	F10	0.463400	0.798800	0.033400
F111	F11	0.343100	0.760600	0.014400
F121	F12	0.492100	0.742600	0.006900
C5451	C545	0.944300	0.221100	0.899200
S51	S5	0.963600	0.252000	0.932860
O131	O13	0.936000	0.292700	0.919100
O141	O14	0.888000	0.243000	0.955800
O151	O15	0.063900	0.248400	0.943700
F131	F13	0.994700	0.230000	0.870900
F141	F14	0.970600	0.182100	0.908800
F151	F15	0.846400	0.218000	0.889500
C5461	C546	0.368300	0.607400	0.794000
S61	S6	0.242300	0.611300	0.785400
O161	O16	0.227000	0.604800	0.748500
O171	O17	0.185000	0.577500	0.802900
O181	O18	0.203000	0.652000	0.796100
F161	F16	0.428800	0.630400	0.775400
F171	F17	0.413700	0.571300	0.790800
F181	F18	0.405600	0.618300	0.823700
C5471	C547	0.555700	0.778900	0.399200
S71	S7	0.536400	0.748000	0.432860
O191	O19	0.564000	0.707300	0.419100
O201	O20	0.612000	0.757000	0.455800
O211	O21	0.436100	0.751600	0.443700
F191	F19	0.505300	0.770000	0.370900
F201	F20	0.529400	0.817900	0.408800
F211	F21	0.653600	0.782000	0.389500
C5481	C548	0.131700	0.392600	0.294000
S81	S8	0.257700	0.388700	0.285400
O221	O22	0.273000	0.395200	0.248500
O231	O23	0.315000	0.422500	0.302900
O241	O24	0.297000	0.348000	0.296100
F221	F22	0.071200	0.369600	0.275400
F231	F23	0.086300	0.428700	0.290800
F241	F24	0.094400	0.381700	0.323700
C5491	C549	0.055700	0.721100	0.600800
S91	S9	0.036400	0.752000	0.567140
O251	O25	0.064000	0.792700	0.580900
O261	O26	0.112000	0.743000	0.544200
O271	O27	0.936100	0.748400	0.556300
F251	F25	0.005300	0.730000	0.629100
F261	F26	0.029400	0.682100	0.591200
F271	F27	0.153600	0.718000	0.610500
C5501	C550	0.631700	0.107400	0.706000
S101	S10	0.757700	0.111300	0.714600
O281	O28	0.773000	0.104800	0.751500
O291	O29	0.815000	0.077500	0.697100
O301	O30	0.797000	0.152000	0.703900
F281	F28	0.571200	0.130400	0.724600
F291	F29	0.586300	0.071300	0.709200
F301	F30	0.594400	0.118300	0.676300
C5511	C551	0.444300	0.278900	0.100800
S111	S11	0.463600	0.248000	0.067140
O311	O31	0.436000	0.207300	0.080900
O321	O32	0.388000	0.257000	0.044200
O331	O33	0.563900	0.251600	0.056300
F311	F31	0.494700	0.270000	0.129100
F321	F32	0.470600	0.317900	0.091200
F331	F33	0.346400	0.282000	0.110500
C5521	C552	0.868300	0.892600	0.206000
S121	S12	0.742300	0.888700	0.214600
O341	O34	0.727000	0.895200	0.251500
O351	O35	0.685000	0.922500	0.197100
O361	O36	0.703000	0.848000	0.203900
F341	F34	0.928800	0.869600	0.224600
F351	F35	0.913700	0.928700	0.209200
F361	F36	0.905600	0.881700	0.176300
