data_CUVHEH_clean_PM
_symmetry_space_group_name_H-M	'P1'
_cell_length_a	36.405000
_cell_length_b	36.405000
_cell_length_c	11.694100
_cell_angle_alpha	90.000000
_cell_angle_beta	90.000000
_cell_angle_gamma	120.000000
_symmetry_Int_Tables_number 1

loop_
_symmetry_equiv_pos_as_xyz
'x,y,z'

loop_
_atom_site_label
_atom_site_type_symbol
_atom_site_fract_x
_atom_site_fract_y
_atom_site_fract_z
Nd11	Nd1	0.379740	0.149830	0.674940
O11	O1	0.410560	0.225100	0.627800
O21	O2	0.359410	0.242580	0.637900
O31	O3	0.447940	0.405120	0.806600
O41	O4	0.512270	0.414410	0.816600
O51	O5	0.340830	0.174500	0.788500
O61	O6	0.298300	0.190500	0.877700
C11	C1	0.396550	0.250260	0.623500
C21	C2	0.427510	0.296740	0.598300
C31	C3	0.442860	0.325570	0.688500
C41	C4	0.465490	0.369120	0.668800
C51	C5	0.476700	0.399220	0.770100
C61	C6	0.473590	0.383580	0.556200
C71	C7	0.460400	0.355900	0.461500
C81	C8	0.437240	0.311990	0.487100
C91	C9	0.327600	0.182400	0.876800
N11	N1	0.468500	0.370370	0.351200
I11	I1	0.433290	0.301900	0.856250
I21	I2	0.506270	0.449230	0.525250
I31	I3	0.417190	0.268100	0.352740
Nd21	Nd2	0.046410	0.483170	0.008270
O71	O7	0.077230	0.558430	0.961130
O81	O8	0.026080	0.575910	0.971230
O91	O9	0.114610	0.738450	0.139930
O101	O10	0.178940	0.747740	0.149930
O111	O11	0.007500	0.507830	0.121830
O121	O12	0.964970	0.523830	0.211030
C101	C10	0.063220	0.583590	0.956830
C111	C11	0.094180	0.630070	0.931630
C121	C12	0.109530	0.658900	0.021830
C131	C13	0.132160	0.702450	0.002130
C141	C14	0.143370	0.732550	0.103430
C151	C15	0.140260	0.716910	0.889530
C161	C16	0.127070	0.689230	0.794830
C171	C17	0.103910	0.645320	0.820430
C181	C18	0.994270	0.515730	0.210130
N21	N2	0.135170	0.703700	0.684530
I41	I4	0.099960	0.635230	0.189580
I51	I5	0.172940	0.782560	0.858580
I61	I6	0.083860	0.601440	0.686070
Nd31	Nd3	0.713070	0.816500	0.341610
O131	O13	0.743890	0.891770	0.294470
O141	O14	0.692740	0.909250	0.304570
O151	O15	0.781270	0.071790	0.473270
O161	O16	0.845600	0.081080	0.483270
O171	O17	0.674160	0.841170	0.455170
O181	O18	0.631630	0.857170	0.544370
C191	C19	0.729880	0.916930	0.290170
C201	C20	0.760840	0.963410	0.264970
C211	C21	0.776190	0.992240	0.355170
C221	C22	0.798820	0.035790	0.335470
C231	C23	0.810030	0.065890	0.436770
C241	C24	0.806920	0.050250	0.222870
C251	C25	0.793730	0.022570	0.128170
C261	C26	0.770570	0.978660	0.153770
C271	C27	0.660930	0.849070	0.543470
N31	N3	0.801830	0.037040	0.017870
I71	I7	0.766620	0.968560	0.522920
I81	I8	0.839610	0.115890	0.191920
I91	I9	0.750520	0.934770	0.019410
Nd41	Nd4	0.850170	0.229900	0.674940
O191	O19	0.774900	0.185460	0.627800
O201	O20	0.757420	0.116830	0.637900
O211	O21	0.594880	0.042820	0.806600
O221	O22	0.585590	0.097860	0.816600
O231	O23	0.825500	0.166330	0.788500
O241	O24	0.809500	0.107800	0.877700
C281	C28	0.749740	0.146290	0.623500
C291	C29	0.703260	0.130770	0.598300
C301	C30	0.674430	0.117290	0.688500
C311	C31	0.630880	0.096370	0.668800
C321	C32	0.600780	0.077480	0.770100
C331	C33	0.616420	0.090010	0.556200
C341	C34	0.644100	0.104500	0.461500
C351	C35	0.688010	0.125250	0.487100
C361	C36	0.817600	0.145200	0.876800
N41	N4	0.629630	0.098130	0.351200
I101	I10	0.698100	0.131390	0.856250
I111	I11	0.550770	0.057050	0.525250
I121	I12	0.731900	0.149090	0.352740
Nd51	Nd5	0.516830	0.563240	0.008270
O251	O25	0.441570	0.518790	0.961130
O261	O26	0.424090	0.450160	0.971230
O271	O27	0.261550	0.376150	0.139930
O281	O28	0.252260	0.431190	0.149930
O291	O29	0.492170	0.499660	0.121830
O301	O30	0.476170	0.441130	0.211030
C371	C37	0.416410	0.479620	0.956830
C381	C38	0.369930	0.464100	0.931630
C391	C39	0.341100	0.450620	0.021830
C401	C40	0.297550	0.429700	0.002130
C411	C41	0.267450	0.410810	0.103430
C421	C42	0.283090	0.423340	0.889530
C431	C43	0.310770	0.437830	0.794830
C441	C44	0.354680	0.458580	0.820430
C451	C45	0.484270	0.478530	0.210130
N51	N5	0.296300	0.431460	0.684530
I131	I13	0.364770	0.464730	0.189580
I141	I14	0.217440	0.390380	0.858580
I151	I15	0.398560	0.482420	0.686070
Nd61	Nd6	0.183500	0.896570	0.341610
O311	O31	0.108230	0.852130	0.294470
O321	O32	0.090750	0.783500	0.304570
O331	O33	0.928210	0.709490	0.473270
O341	O34	0.918920	0.764530	0.483270
O351	O35	0.158830	0.833000	0.455170
O361	O36	0.142830	0.774470	0.544370
C461	C46	0.083070	0.812960	0.290170
C471	C47	0.036590	0.797440	0.264970
C481	C48	0.007760	0.783960	0.355170
C491	C49	0.964210	0.763040	0.335470
C501	C50	0.934110	0.744150	0.436770
C511	C51	0.949750	0.756680	0.222870
C521	C52	0.977430	0.771170	0.128170
C531	C53	0.021340	0.791920	0.153770
C541	C54	0.150930	0.811870	0.543470
N61	N6	0.962960	0.764800	0.017870
I161	I16	0.031440	0.798060	0.522920
I171	I17	0.884110	0.723710	0.191920
I181	I18	0.065230	0.815750	0.019410
Nd71	Nd7	0.770100	0.620260	0.674940
O371	O37	0.814540	0.589440	0.627800
O381	O38	0.883170	0.640590	0.637900
O391	O39	0.957180	0.552060	0.806600
O401	O40	0.902140	0.487730	0.816600
O411	O41	0.833670	0.659170	0.788500
O421	O42	0.892200	0.701700	0.877700
C551	C55	0.853710	0.603450	0.623500
C561	C56	0.869230	0.572490	0.598300
C571	C57	0.882710	0.557140	0.688500
C581	C58	0.903630	0.534510	0.668800
C591	C59	0.922520	0.523300	0.770100
C601	C60	0.909990	0.526410	0.556200
C611	C61	0.895500	0.539600	0.461500
C621	C62	0.874750	0.562760	0.487100
C631	C63	0.854800	0.672400	0.876800
N71	N7	0.901870	0.531500	0.351200
I191	I19	0.868610	0.566710	0.856250
I201	I20	0.942950	0.493730	0.525250
I211	I21	0.850910	0.582810	0.352740
Nd81	Nd8	0.436760	0.953590	0.008270
O431	O43	0.481210	0.922770	0.961130
O441	O44	0.549840	0.973920	0.971230
O451	O45	0.623850	0.885390	0.139930
O461	O46	0.568810	0.821060	0.149930
O471	O47	0.500340	0.992500	0.121830
O481	O48	0.558870	0.035030	0.211030
C641	C64	0.520380	0.936780	0.956830
C651	C65	0.535900	0.905820	0.931630
C661	C66	0.549380	0.890470	0.021830
C671	C67	0.570300	0.867840	0.002130
C681	C68	0.589190	0.856630	0.103430
C691	C69	0.576660	0.859740	0.889530
C701	C70	0.562170	0.872930	0.794830
C711	C71	0.541420	0.896090	0.820430
C721	C72	0.521470	0.005730	0.210130
N81	N8	0.568540	0.864830	0.684530
I221	I22	0.535270	0.900040	0.189580
I231	I23	0.609620	0.827060	0.858580
I241	I24	0.517580	0.916140	0.686070
Nd91	Nd9	0.103430	0.286930	0.341610
O491	O49	0.147870	0.256110	0.294470
O501	O50	0.216500	0.307260	0.304570
O511	O51	0.290510	0.218730	0.473270
O521	O52	0.235470	0.154400	0.483270
O531	O53	0.167000	0.325840	0.455170
O541	O54	0.225530	0.368370	0.544370
C731	C73	0.187040	0.270120	0.290170
C741	C74	0.202560	0.239160	0.264970
C751	C75	0.216040	0.223810	0.355170
C761	C76	0.236960	0.201180	0.335470
C771	C77	0.255850	0.189970	0.436770
C781	C78	0.243320	0.193080	0.222870
C791	C79	0.228830	0.206270	0.128170
C801	C80	0.208080	0.229430	0.153770
C811	C81	0.188130	0.339070	0.543470
N91	N9	0.235200	0.198170	0.017870
I251	I25	0.201940	0.233380	0.522920
I261	I26	0.276290	0.160390	0.191920
I271	I27	0.184250	0.249480	0.019410
Nd101	Nd10	0.620260	0.850170	0.325060
O551	O55	0.589440	0.774900	0.372200
O561	O56	0.640590	0.757420	0.362100
O571	O57	0.552060	0.594880	0.193400
O581	O58	0.487730	0.585590	0.183400
O591	O59	0.659170	0.825500	0.211500
O601	O60	0.701700	0.809500	0.122300
C821	C82	0.603450	0.749740	0.376500
C831	C83	0.572490	0.703260	0.401700
C841	C84	0.557140	0.674430	0.311500
C851	C85	0.534510	0.630880	0.331200
C861	C86	0.523300	0.600780	0.229900
C871	C87	0.526410	0.616420	0.443800
C881	C88	0.539600	0.644100	0.538500
C891	C89	0.562760	0.688010	0.512900
C901	C90	0.672400	0.817600	0.123200
N101	N10	0.531500	0.629630	0.648800
I281	I28	0.566710	0.698100	0.143750
I291	I29	0.493730	0.550770	0.474750
I301	I30	0.582810	0.731900	0.647260
Nd111	Nd11	0.286930	0.183500	0.658390
O611	O61	0.256110	0.108230	0.705530
O621	O62	0.307260	0.090750	0.695430
O631	O63	0.218730	0.928210	0.526730
O641	O64	0.154400	0.918920	0.516730
O651	O65	0.325840	0.158830	0.544830
O661	O66	0.368370	0.142830	0.455630
C911	C91	0.270120	0.083070	0.709830
C921	C92	0.239160	0.036590	0.735030
C931	C93	0.223810	0.007760	0.644830
C941	C94	0.201180	0.964210	0.664530
C951	C95	0.189970	0.934110	0.563230
C961	C96	0.193080	0.949750	0.777130
C971	C97	0.206270	0.977430	0.871830
C981	C98	0.229430	0.021340	0.846230
C991	C99	0.339070	0.150930	0.456530
N111	N11	0.198170	0.962960	0.982130
I311	I31	0.233380	0.031440	0.477080
I321	I32	0.160390	0.884110	0.808080
I331	I33	0.249480	0.065230	0.980590
Nd121	Nd12	0.953590	0.516830	0.991730
O671	O67	0.922770	0.441570	0.038870
O681	O68	0.973920	0.424090	0.028770
O691	O69	0.885390	0.261550	0.860070
O701	O70	0.821060	0.252260	0.850070
O711	O71	0.992500	0.492170	0.878170
O721	O72	0.035030	0.476170	0.788970
C1001	C100	0.936780	0.416410	0.043170
C1011	C101	0.905820	0.369930	0.068370
C1021	C102	0.890470	0.341100	0.978170
C1031	C103	0.867840	0.297550	0.997870
C1041	C104	0.856630	0.267450	0.896570
C1051	C105	0.859740	0.283090	0.110470
C1061	C106	0.872930	0.310770	0.205170
C1071	C107	0.896090	0.354680	0.179570
C1081	C108	0.005730	0.484270	0.789870
N121	N12	0.864830	0.296300	0.315470
I341	I34	0.900040	0.364770	0.810420
I351	I35	0.827060	0.217440	0.141420
I361	I36	0.916140	0.398560	0.313930
Nd131	Nd13	0.149830	0.770100	0.325060
O731	O73	0.225100	0.814540	0.372200
O741	O74	0.242580	0.883170	0.362100
O751	O75	0.405120	0.957180	0.193400
O761	O76	0.414410	0.902140	0.183400
O771	O77	0.174500	0.833670	0.211500
O781	O78	0.190500	0.892200	0.122300
C1091	C109	0.250260	0.853710	0.376500
C1101	C110	0.296740	0.869230	0.401700
C1111	C111	0.325570	0.882710	0.311500
C1121	C112	0.369120	0.903630	0.331200
C1131	C113	0.399220	0.922520	0.229900
C1141	C114	0.383580	0.909990	0.443800
C1151	C115	0.355900	0.895500	0.538500
C1161	C116	0.311990	0.874750	0.512900
C1171	C117	0.182400	0.854800	0.123200
N131	N13	0.370370	0.901870	0.648800
I371	I37	0.301900	0.868610	0.143750
I381	I38	0.449230	0.942950	0.474750
I391	I39	0.268100	0.850910	0.647260
Nd141	Nd14	0.816500	0.103430	0.658390
O791	O79	0.891770	0.147870	0.705530
O801	O80	0.909250	0.216500	0.695430
O811	O81	0.071790	0.290510	0.526730
O821	O82	0.081080	0.235470	0.516730
O831	O83	0.841170	0.167000	0.544830
O841	O84	0.857170	0.225530	0.455630
C1181	C118	0.916930	0.187040	0.709830
C1191	C119	0.963410	0.202560	0.735030
C1201	C120	0.992240	0.216040	0.644830
C1211	C121	0.035790	0.236960	0.664530
C1221	C122	0.065890	0.255850	0.563230
C1231	C123	0.050250	0.243320	0.777130
C1241	C124	0.022570	0.228830	0.871830
C1251	C125	0.978660	0.208080	0.846230
C1261	C126	0.849070	0.188130	0.456530
N141	N14	0.037040	0.235200	0.982130
I401	I40	0.968560	0.201940	0.477080
I411	I41	0.115890	0.276290	0.808080
I421	I42	0.934770	0.184250	0.980590
Nd151	Nd15	0.483170	0.436760	0.991730
O851	O85	0.558430	0.481210	0.038870
O861	O86	0.575910	0.549840	0.028770
O871	O87	0.738450	0.623850	0.860070
O881	O88	0.747740	0.568810	0.850070
O891	O89	0.507830	0.500340	0.878170
O901	O90	0.523830	0.558870	0.788970
C1271	C127	0.583590	0.520380	0.043170
C1281	C128	0.630070	0.535900	0.068370
C1291	C129	0.658900	0.549380	0.978170
C1301	C130	0.702450	0.570300	0.997870
C1311	C131	0.732550	0.589190	0.896570
C1321	C132	0.716910	0.576660	0.110470
C1331	C133	0.689230	0.562170	0.205170
C1341	C134	0.645320	0.541420	0.179570
C1351	C135	0.515730	0.521470	0.789870
N151	N15	0.703700	0.568540	0.315470
I431	I43	0.635230	0.535270	0.810420
I441	I44	0.782560	0.609620	0.141420
I451	I45	0.601440	0.517580	0.313930
Nd161	Nd16	0.229900	0.379740	0.325060
O911	O91	0.185460	0.410560	0.372200
O921	O92	0.116830	0.359410	0.362100
O931	O93	0.042820	0.447940	0.193400
O941	O94	0.097860	0.512270	0.183400
O951	O95	0.166330	0.340830	0.211500
O961	O96	0.107800	0.298300	0.122300
C1361	C136	0.146290	0.396550	0.376500
C1371	C137	0.130770	0.427510	0.401700
C1381	C138	0.117290	0.442860	0.311500
C1391	C139	0.096370	0.465490	0.331200
C1401	C140	0.077480	0.476700	0.229900
C1411	C141	0.090010	0.473590	0.443800
C1421	C142	0.104500	0.460400	0.538500
C1431	C143	0.125250	0.437240	0.512900
C1441	C144	0.145200	0.327600	0.123200
N161	N16	0.098130	0.468500	0.648800
I461	I46	0.131390	0.433290	0.143750
I471	I47	0.057050	0.506270	0.474750
I481	I48	0.149090	0.417190	0.647260
Nd171	Nd17	0.896570	0.713070	0.658390
O971	O97	0.852130	0.743890	0.705530
O981	O98	0.783500	0.692740	0.695430
O991	O99	0.709490	0.781270	0.526730
O1001	O100	0.764530	0.845600	0.516730
O1011	O101	0.833000	0.674160	0.544830
O1021	O102	0.774470	0.631630	0.455630
C1451	C145	0.812960	0.729880	0.709830
C1461	C146	0.797440	0.760840	0.735030
C1471	C147	0.783960	0.776190	0.644830
C1481	C148	0.763040	0.798820	0.664530
C1491	C149	0.744150	0.810030	0.563230
C1501	C150	0.756680	0.806920	0.777130
C1511	C151	0.771170	0.793730	0.871830
C1521	C152	0.791920	0.770570	0.846230
C1531	C153	0.811870	0.660930	0.456530
N171	N17	0.764800	0.801830	0.982130
I491	I49	0.798060	0.766620	0.477080
I501	I50	0.723710	0.839610	0.808080
I511	I51	0.815750	0.750520	0.980590
Nd181	Nd18	0.563240	0.046410	0.991730
O1031	O103	0.518790	0.077230	0.038870
O1041	O104	0.450160	0.026080	0.028770
O1051	O105	0.376150	0.114610	0.860070
O1061	O106	0.431190	0.178940	0.850070
O1071	O107	0.499660	0.007500	0.878170
O1081	O108	0.441130	0.964970	0.788970
C1541	C154	0.479620	0.063220	0.043170
C1551	C155	0.464100	0.094180	0.068370
C1561	C156	0.450620	0.109530	0.978170
C1571	C157	0.429700	0.132160	0.997870
C1581	C158	0.410810	0.143370	0.896570
C1591	C159	0.423340	0.140260	0.110470
C1601	C160	0.437830	0.127070	0.205170
C1611	C161	0.458580	0.103910	0.179570
C1621	C162	0.478530	0.994270	0.789870
N181	N18	0.431460	0.135170	0.315470
I521	I52	0.464730	0.099960	0.810420
I531	I53	0.390380	0.172940	0.141420
I541	I54	0.482420	0.083860	0.313930
