data_CUYHIO_clean_PM
_symmetry_space_group_name_H-M	'P1'
_cell_length_a	6.204700
_cell_length_b	17.746000
_cell_length_c	20.423000
_cell_angle_alpha	90.000000
_cell_angle_beta	98.452300
_cell_angle_gamma	90.000000
_symmetry_Int_Tables_number 1

loop_
_symmetry_equiv_pos_as_xyz
'x,y,z'

loop_
_atom_site_label
_atom_site_type_symbol
_atom_site_fract_x
_atom_site_fract_y
_atom_site_fract_z
Zn11	Zn1	0.211910	0.513800	0.280620
Zn21	Zn2	0.288090	0.013800	0.219380
Zn31	Zn3	0.788090	0.486200	0.719380
Zn41	Zn4	0.711910	0.986200	0.780620
H11	H1	0.643400	0.714000	0.265500
H21	H2	0.443500	0.758800	0.284800
H31	H3	0.661100	0.683600	0.152600
H41	H4	0.545500	0.699200	0.042600
H51	H5	0.206600	0.749400	0.007200
H61	H6	0.993800	0.790900	0.083800
H71	H7	0.903800	0.792700	0.193200
H81	H8	0.058700	0.754200	0.251100
H91	H9	0.751600	0.473200	0.223700
H101	H10	0.527300	0.470300	0.125900
H111	H11	0.979000	0.577500	0.042600
H121	H12	0.199100	0.577000	0.141800
H131	H13	0.634900	0.549600	0.974200
H141	H14	0.892700	0.606400	0.344100
H151	H15	0.656200	0.595600	0.418800
H161	H16	0.855000	0.383200	0.452300
H171	H17	0.084200	0.399000	0.376200
H181	H18	0.578800	0.429400	0.513700
H191	H19	0.856600	0.214000	0.234500
H201	H20	0.056500	0.258800	0.215200
H211	H21	0.838900	0.183600	0.347400
H221	H22	0.954500	0.199200	0.457400
H231	H23	0.293400	0.249400	0.492800
H241	H24	0.506200	0.290900	0.416200
H251	H25	0.596200	0.292700	0.306800
H261	H26	0.441300	0.254200	0.248900
H271	H27	0.748400	0.973200	0.276300
H281	H28	0.972700	0.970300	0.374100
H291	H29	0.521000	0.077500	0.457400
H301	H30	0.300900	0.077000	0.358200
H311	H31	0.865100	0.049600	0.525800
H321	H32	0.607300	0.106400	0.155900
H331	H33	0.843800	0.095600	0.081200
H341	H34	0.645000	0.883200	0.047700
H351	H35	0.415800	0.899000	0.123800
H361	H36	0.921200	0.929400	0.986300
H371	H37	0.356600	0.286000	0.734500
H381	H38	0.556500	0.241200	0.715200
H391	H39	0.338900	0.316400	0.847400
H401	H40	0.454500	0.300800	0.957400
H411	H41	0.793400	0.250600	0.992800
H421	H42	0.006200	0.209100	0.916200
H431	H43	0.096200	0.207300	0.806800
H441	H44	0.941300	0.245800	0.748900
H451	H45	0.248400	0.526800	0.776300
H461	H46	0.472700	0.529700	0.874100
H471	H47	0.021000	0.422500	0.957400
H481	H48	0.800900	0.423000	0.858200
H491	H49	0.365100	0.450400	0.025800
H501	H50	0.107300	0.393600	0.655900
H511	H51	0.343800	0.404400	0.581200
H521	H52	0.145000	0.616800	0.547700
H531	H53	0.915800	0.601000	0.623800
H541	H54	0.421200	0.570600	0.486300
H551	H55	0.143400	0.786000	0.765500
H561	H56	0.943500	0.741200	0.784800
H571	H57	0.161100	0.816400	0.652600
H581	H58	0.045500	0.800800	0.542600
H591	H59	0.706600	0.750600	0.507200
H601	H60	0.493800	0.709100	0.583800
H611	H61	0.403800	0.707300	0.693200
H621	H62	0.558700	0.745800	0.751100
H631	H63	0.251600	0.026800	0.723700
H641	H64	0.027300	0.029700	0.625900
H651	H65	0.479000	0.922500	0.542600
H661	H66	0.699100	0.923000	0.641800
H671	H67	0.134900	0.950400	0.474200
H681	H68	0.392700	0.893600	0.844100
H691	H69	0.156200	0.904400	0.918800
H701	H70	0.355000	0.116800	0.952300
H711	H71	0.584200	0.101000	0.876200
H721	H72	0.078800	0.070600	0.013700
C11	C1	0.391400	0.645300	0.280500
C21	C2	0.485700	0.717100	0.258800
C31	C3	0.401700	0.730000	0.185700
C41	C4	0.526600	0.705900	0.138800
C51	C5	0.457200	0.714300	0.073300
C61	C6	0.256900	0.744900	0.052200
C71	C7	0.128800	0.769300	0.098500
C81	C8	0.197100	0.762200	0.166200
C91	C9	0.053200	0.790100	0.215100
C101	C10	0.120600	0.867100	0.243500
C111	C11	0.800700	0.493700	0.186700
C121	C12	0.664400	0.492200	0.128000
C131	C13	0.726600	0.522400	0.072000
C141	C14	0.930700	0.555100	0.078900
C151	C15	0.062400	0.554800	0.138800
C161	C16	0.591200	0.520300	0.007600
C171	C17	0.884500	0.560700	0.365900
C181	C18	0.741900	0.554600	0.410800
C191	C19	0.724500	0.487000	0.444600
C201	C20	0.858400	0.429200	0.430600
C211	C21	0.996600	0.439300	0.384900
C221	C22	0.572400	0.475700	0.492200
C231	C23	0.108600	0.145300	0.219500
C241	C24	0.014300	0.217100	0.241200
C251	C25	0.098300	0.230000	0.314300
C261	C26	0.973400	0.205900	0.361200
C271	C27	0.042800	0.214300	0.426700
C281	C28	0.243100	0.244900	0.447800
C291	C29	0.371200	0.269300	0.401500
C301	C30	0.302900	0.262200	0.333800
C311	C31	0.446800	0.290100	0.284900
C321	C32	0.379400	0.367100	0.256500
C331	C33	0.699300	0.993700	0.313300
C341	C34	0.835600	0.992200	0.372000
C351	C35	0.773400	0.022400	0.428000
C361	C36	0.569300	0.055100	0.421100
C371	C37	0.437600	0.054800	0.361200
C381	C38	0.908800	0.020300	0.492400
C391	C39	0.615500	0.060700	0.134100
C401	C40	0.758100	0.054600	0.089200
C411	C41	0.775500	0.987000	0.055400
C421	C42	0.641600	0.929200	0.069400
C431	C43	0.503400	0.939300	0.115100
C441	C44	0.927600	0.975700	0.007800
C451	C45	0.608600	0.354700	0.719500
C461	C46	0.514300	0.282900	0.741200
C471	C47	0.598300	0.270000	0.814300
C481	C48	0.473400	0.294100	0.861200
C491	C49	0.542800	0.285700	0.926700
C501	C50	0.743100	0.255100	0.947800
C511	C51	0.871200	0.230700	0.901500
C521	C52	0.802900	0.237800	0.833800
C531	C53	0.946800	0.209900	0.784900
C541	C54	0.879400	0.132900	0.756500
C551	C55	0.199300	0.506300	0.813300
C561	C56	0.335600	0.507800	0.872000
C571	C57	0.273400	0.477600	0.928000
C581	C58	0.069300	0.444900	0.921100
C591	C59	0.937600	0.445200	0.861200
C601	C60	0.408800	0.479700	0.992400
C611	C61	0.115500	0.439300	0.634100
C621	C62	0.258100	0.445400	0.589200
C631	C63	0.275500	0.513000	0.555400
C641	C64	0.141600	0.570800	0.569400
C651	C65	0.003400	0.560700	0.615100
C661	C66	0.427600	0.524300	0.507800
C671	C67	0.891400	0.854700	0.780500
C681	C68	0.985700	0.782900	0.758800
C691	C69	0.901700	0.770000	0.685700
C701	C70	0.026600	0.794100	0.638800
C711	C71	0.957200	0.785700	0.573300
C721	C72	0.756900	0.755100	0.552200
C731	C73	0.628800	0.730700	0.598500
C741	C74	0.697100	0.737800	0.666200
C751	C75	0.553200	0.709900	0.715100
C761	C76	0.620600	0.632900	0.743500
C771	C77	0.300700	0.006300	0.686700
C781	C78	0.164400	0.007800	0.628000
C791	C79	0.226600	0.977600	0.572000
C801	C80	0.430700	0.944900	0.578900
C811	C81	0.562400	0.945200	0.638800
C821	C82	0.091200	0.979700	0.507600
C831	C83	0.384500	0.939300	0.865900
C841	C84	0.241900	0.945400	0.910800
C851	C85	0.224500	0.013000	0.944600
C861	C86	0.358400	0.070800	0.930600
C871	C87	0.496600	0.060700	0.884900
C881	C88	0.072400	0.024300	0.992200
N11	N1	0.002200	0.523300	0.194000
N21	N2	0.012750	0.504100	0.351850
N31	N3	0.497800	0.023300	0.306000
N41	N4	0.487250	0.004100	0.148150
N51	N5	0.997800	0.476700	0.806000
N61	N6	0.987250	0.495900	0.648150
N71	N7	0.502200	0.976700	0.694000
N81	N8	0.512750	0.995900	0.851850
O11	O1	0.256900	0.646300	0.319000
O21	O2	0.440960	0.584500	0.257160
O31	O3	0.134250	0.879900	0.302850
O41	O4	0.152410	0.915940	0.200910
O51	O5	0.243100	0.146300	0.181000
O61	O6	0.059040	0.084500	0.242840
O71	O7	0.365750	0.379900	0.197150
O81	O8	0.347590	0.415940	0.299090
O91	O9	0.743100	0.353700	0.681000
O101	O10	0.559040	0.415500	0.742840
O111	O11	0.865750	0.120100	0.697150
O121	O12	0.847590	0.084060	0.799090
O131	O13	0.756900	0.853700	0.819000
O141	O14	0.940960	0.915500	0.757160
O151	O15	0.634250	0.620100	0.802850
O161	O16	0.652410	0.584060	0.700910
