data_CUYRUK_clean_PM
_symmetry_space_group_name_H-M	'P1'
_cell_length_a	7.662000
_cell_length_b	9.905600
_cell_length_c	36.857000
_cell_angle_alpha	96.245000
_cell_angle_beta	90.000000
_cell_angle_gamma	90.000000
_symmetry_Int_Tables_number 1

loop_
_symmetry_equiv_pos_as_xyz
'x,y,z'

loop_
_atom_site_label
_atom_site_type_symbol
_atom_site_fract_x
_atom_site_fract_y
_atom_site_fract_z
Zn11	Zn1	0.457540	0.168220	0.027380
Zn21	Zn2	0.662160	0.727860	0.331860
Zn31	Zn3	0.957540	0.831780	0.472620
Zn41	Zn4	0.162160	0.272140	0.168140
Zn51	Zn5	0.542460	0.831780	0.972620
Zn61	Zn6	0.337840	0.272140	0.668140
Zn71	Zn7	0.042460	0.168220	0.527380
Zn81	Zn8	0.837840	0.727860	0.831860
H11	H1	0.797200	0.725700	0.092200
H21	H2	0.701200	0.877900	0.196000
H31	H3	0.581400	0.489000	0.162000
H41	H4	0.912500	0.509500	0.065900
H51	H5	0.819800	0.308300	0.026100
H61	H6	0.461900	0.378100	0.102300
H71	H7	0.363800	0.534000	0.215700
H81	H8	0.369200	0.553900	0.282300
H91	H9	0.750400	0.774300	0.251800
H101	H10	0.787600	0.968800	0.082200
H111	H11	0.966900	0.172600	0.092000
H121	H12	0.953000	0.010300	0.184300
H131	H13	0.721400	0.504900	0.427400
H141	H14	0.803400	0.354900	0.467000
H151	H15	0.814900	0.056700	0.384600
H161	H16	0.721100	0.204900	0.345000
H171	H17	0.297200	0.274300	0.407800
H181	H18	0.201200	0.122100	0.304000
H191	H19	0.081400	0.511000	0.338000
H201	H20	0.412500	0.490500	0.434100
H211	H21	0.319800	0.691700	0.473900
H221	H22	0.961900	0.621900	0.397700
H231	H23	0.863800	0.466000	0.284300
H241	H24	0.869200	0.446100	0.217700
H251	H25	0.250400	0.225700	0.248200
H261	H26	0.287600	0.031200	0.417800
H271	H27	0.466900	0.827400	0.408000
H281	H28	0.453000	0.989700	0.315700
H291	H29	0.221400	0.495100	0.072600
H301	H30	0.303400	0.645100	0.033000
H311	H31	0.314900	0.943300	0.115400
H321	H32	0.221100	0.795100	0.155000
H331	H33	0.202800	0.274300	0.907800
H341	H34	0.298800	0.122100	0.804000
H351	H35	0.418600	0.511000	0.838000
H361	H36	0.087500	0.490500	0.934100
H371	H37	0.180200	0.691700	0.973900
H381	H38	0.538100	0.621900	0.897700
H391	H39	0.636200	0.466000	0.784300
H401	H40	0.630800	0.446100	0.717700
H411	H41	0.249600	0.225700	0.748200
H421	H42	0.212400	0.031200	0.917800
H431	H43	0.033100	0.827400	0.908000
H441	H44	0.047000	0.989700	0.815700
H451	H45	0.278600	0.495100	0.572600
H461	H46	0.196600	0.645100	0.533000
H471	H47	0.185100	0.943300	0.615400
H481	H48	0.278900	0.795100	0.655000
H491	H49	0.702800	0.725700	0.592200
H501	H50	0.798800	0.877900	0.696000
H511	H51	0.918600	0.489000	0.662000
H521	H52	0.587500	0.509500	0.565900
H531	H53	0.680200	0.308300	0.526100
H541	H54	0.038100	0.378100	0.602300
H551	H55	0.136200	0.534000	0.715700
H561	H56	0.130800	0.553900	0.782300
H571	H57	0.749600	0.774300	0.751800
H581	H58	0.712400	0.968800	0.582200
H591	H59	0.533100	0.172600	0.592000
H601	H60	0.547000	0.010300	0.684300
H611	H61	0.778600	0.504900	0.927400
H621	H62	0.696600	0.354900	0.967000
H631	H63	0.685100	0.056700	0.884600
H641	H64	0.778900	0.204900	0.845000
C11	C1	0.685900	0.591300	0.123350
C21	C2	0.755800	0.714500	0.115420
C31	C3	0.761300	0.819200	0.143230
C41	C4	0.698200	0.805500	0.177690
C51	C5	0.630700	0.681300	0.184220
C61	C6	0.625300	0.572700	0.157190
C71	C7	0.812000	0.458600	0.068320
C81	C8	0.759100	0.347700	0.046440
C91	C9	0.561800	0.385100	0.088290
C101	C10	0.441600	0.584900	0.230990
C111	C11	0.446000	0.596400	0.267660
C121	C12	0.654100	0.717000	0.251330
C131	C13	0.842800	0.002100	0.103800
C141	C14	0.941300	0.114600	0.109560
C151	C15	0.934500	0.026200	0.160200
C161	C16	0.711800	0.371200	0.381750
C171	C17	0.737900	0.414000	0.418840
C181	C18	0.787000	0.324800	0.442450
C191	C19	0.812500	0.189300	0.430060
C201	C20	0.792200	0.146700	0.393250
C211	C21	0.739000	0.235600	0.369460
C221	C22	0.659400	0.469800	0.355750
C231	C23	0.869500	0.090700	0.455380
C241	C24	0.185900	0.408700	0.376650
C251	C25	0.255800	0.285500	0.384580
C261	C26	0.261300	0.180800	0.356770
C271	C27	0.198200	0.194500	0.322310
C281	C28	0.130700	0.318700	0.315780
C291	C29	0.125300	0.427300	0.342810
C301	C30	0.312000	0.541400	0.431680
C311	C31	0.259100	0.652300	0.453560
C321	C32	0.061800	0.614900	0.411710
C331	C33	0.941600	0.415100	0.269010
C341	C34	0.946000	0.403600	0.232340
C351	C35	0.154100	0.283000	0.248670
C361	C36	0.342800	0.997900	0.396200
C371	C37	0.441300	0.885400	0.390440
C381	C38	0.434500	0.973800	0.339800
C391	C39	0.211800	0.628800	0.118250
C401	C40	0.237900	0.586000	0.081160
C411	C41	0.287000	0.675200	0.057550
C421	C42	0.312500	0.810700	0.069940
C431	C43	0.292200	0.853300	0.106750
C441	C44	0.239000	0.764400	0.130540
C451	C45	0.159400	0.530200	0.144250
C461	C46	0.369500	0.909300	0.044620
C471	C47	0.314100	0.408700	0.876650
C481	C48	0.244200	0.285500	0.884580
C491	C49	0.238700	0.180800	0.856770
C501	C50	0.301800	0.194500	0.822310
C511	C51	0.369300	0.318700	0.815780
C521	C52	0.374700	0.427300	0.842810
C531	C53	0.188000	0.541400	0.931680
C541	C54	0.240900	0.652300	0.953560
C551	C55	0.438200	0.614900	0.911710
C561	C56	0.558400	0.415100	0.769010
C571	C57	0.554000	0.403600	0.732340
C581	C58	0.345900	0.283000	0.748670
C591	C59	0.157200	0.997900	0.896200
C601	C60	0.058700	0.885400	0.890440
C611	C61	0.065500	0.973800	0.839800
C621	C62	0.288200	0.628800	0.618250
C631	C63	0.262100	0.586000	0.581160
C641	C64	0.213000	0.675200	0.557550
C651	C65	0.187500	0.810700	0.569940
C661	C66	0.207800	0.853300	0.606750
C671	C67	0.261000	0.764400	0.630540
C681	C68	0.340600	0.530200	0.644250
C691	C69	0.130500	0.909300	0.544620
C701	C70	0.814100	0.591300	0.623350
C711	C71	0.744200	0.714500	0.615420
C721	C72	0.738700	0.819200	0.643230
C731	C73	0.801800	0.805500	0.677690
C741	C74	0.869300	0.681300	0.684220
C751	C75	0.874700	0.572700	0.657190
C761	C76	0.688000	0.458600	0.568320
C771	C77	0.740900	0.347700	0.546440
C781	C78	0.938200	0.385100	0.588290
C791	C79	0.058400	0.584900	0.730990
C801	C80	0.054000	0.596400	0.767660
C811	C81	0.845900	0.717000	0.751330
C821	C82	0.657200	0.002100	0.603800
C831	C83	0.558700	0.114600	0.609560
C841	C84	0.565500	0.026200	0.660200
C851	C85	0.788200	0.371200	0.881750
C861	C86	0.762100	0.414000	0.918840
C871	C87	0.713000	0.324800	0.942450
C881	C88	0.687500	0.189300	0.930060
C891	C89	0.707800	0.146700	0.893250
C901	C90	0.761000	0.235600	0.869460
C911	C91	0.840600	0.469800	0.855750
C921	C92	0.630500	0.090700	0.955380
I11	I1	0.193350	0.258900	0.997230
I21	I2	0.979490	0.816270	0.325070
I31	I3	0.693350	0.741100	0.502770
I41	I4	0.479490	0.183730	0.174930
I51	I5	0.806650	0.741100	0.002770
I61	I6	0.020510	0.183730	0.674930
I71	I7	0.306650	0.258900	0.497230
I81	I8	0.520510	0.816270	0.825070
N11	N1	0.603400	0.301800	0.058480
N21	N2	0.686400	0.480500	0.094930
N31	N3	0.580300	0.679800	0.280200
N41	N4	0.575100	0.663400	0.220910
N51	N5	0.999000	0.131700	0.145220
N61	N6	0.840400	0.946400	0.136430
N71	N7	0.103400	0.698200	0.441520
N81	N8	0.186400	0.519500	0.405070
N91	N9	0.080300	0.320200	0.219800
N101	N10	0.075100	0.336600	0.279090
N111	N11	0.499000	0.868300	0.354780
N121	N12	0.340400	0.053600	0.363570
N131	N13	0.396600	0.698200	0.941520
N141	N14	0.313600	0.519500	0.905070
N151	N15	0.419700	0.320200	0.719800
N161	N16	0.424900	0.336600	0.779090
N171	N17	0.001000	0.868300	0.854780
N181	N18	0.159600	0.053600	0.863570
N191	N19	0.896600	0.301800	0.558480
N201	N20	0.813600	0.480500	0.594930
N211	N21	0.919700	0.679800	0.780200
N221	N22	0.924900	0.663400	0.720910
N231	N23	0.501000	0.131700	0.645220
N241	N24	0.659600	0.946400	0.636430
O11	O1	0.677400	0.596300	0.367200
O21	O2	0.611200	0.429100	0.325050
O31	O3	0.864000	0.124300	0.489080
O41	O4	0.917300	0.973700	0.441560
O51	O5	0.177400	0.403700	0.132800
O61	O6	0.111200	0.570900	0.174950
O71	O7	0.364000	0.875700	0.010920
O81	O8	0.417300	0.026300	0.058440
O91	O9	0.322600	0.403700	0.632800
O101	O10	0.388800	0.570900	0.674950
O111	O11	0.136000	0.875700	0.510920
O121	O12	0.082700	0.026300	0.558440
O131	O13	0.822600	0.596300	0.867200
O141	O14	0.888800	0.429100	0.825050
O151	O15	0.636000	0.124300	0.989080
O161	O16	0.582700	0.973700	0.941560
