data_CUYVOI_clean_PM
_symmetry_space_group_name_H-M	'P1'
_cell_length_a	8.985000
_cell_length_b	19.114000
_cell_length_c	19.994700
_cell_angle_alpha	92.375600
_cell_angle_beta	102.984000
_cell_angle_gamma	90.000000
_symmetry_Int_Tables_number 1

loop_
_symmetry_equiv_pos_as_xyz
'x,y,z'

loop_
_atom_site_label
_atom_site_type_symbol
_atom_site_fract_x
_atom_site_fract_y
_atom_site_fract_z
Zn11	Zn1	0.404120	0.401030	0.453000
Zn21	Zn2	0.955020	0.911220	0.058140
Zn31	Zn3	0.951120	0.098970	0.547000
Zn41	Zn4	0.896880	0.588780	0.941860
Zn51	Zn5	0.595880	0.598970	0.547000
Zn61	Zn6	0.044980	0.088780	0.941860
Zn71	Zn7	0.048880	0.901030	0.453000
Zn81	Zn8	0.103120	0.411220	0.058140
H11	H1	0.763200	0.798100	0.402000
H21	H2	0.768300	0.683600	0.342600
H31	H3	0.191100	0.760400	0.399400
H41	H4	0.174000	0.636100	0.355600
H51	H5	0.015600	0.598200	0.343400
H61	H6	0.269500	0.590200	0.250000
H71	H7	0.134900	0.552700	0.197600
H81	H8	0.372900	0.529700	0.359400
H91	H9	0.063100	0.385500	0.355000
H101	H10	0.970300	0.458100	0.256400
H111	H11	0.189300	0.680600	0.194800
H121	H12	0.213000	0.716200	0.268000
H131	H13	0.917400	0.793300	0.270800
H141	H14	0.832500	0.886500	0.191600
H151	H15	0.107800	0.766600	0.111800
H161	H16	0.829600	0.650200	0.236800
H171	H17	0.868900	0.572200	0.222400
H181	H18	0.663300	0.692600	0.128800
H191	H19	0.654000	0.681600	0.006200
H201	H20	0.009600	0.576400	0.099800
H211	H21	0.546500	0.990300	0.117600
H221	H22	0.000000	0.389700	0.540800
H231	H23	0.361200	0.701900	0.598000
H241	H24	0.425700	0.816400	0.657400
H251	H25	0.791700	0.739600	0.600600
H261	H26	0.818400	0.863900	0.644400
H271	H27	0.672200	0.901800	0.656600
H281	H28	0.019500	0.909800	0.750000
H291	H29	0.937300	0.947300	0.802400
H301	H30	0.013500	0.970300	0.640600
H311	H31	0.708100	0.114500	0.645000
H321	H32	0.713900	0.041900	0.743600
H331	H33	0.994500	0.819400	0.805200
H341	H34	0.945000	0.783800	0.732000
H351	H35	0.646600	0.706700	0.729200
H361	H36	0.640900	0.613500	0.808400
H371	H37	0.996000	0.733400	0.888200
H381	H38	0.592800	0.849800	0.763200
H391	H39	0.646500	0.927800	0.777600
H401	H40	0.534500	0.807400	0.871200
H411	H41	0.647800	0.818400	0.993800
H421	H42	0.909800	0.923600	0.900200
H431	H43	0.428900	0.509700	0.882400
H441	H44	0.459200	0.110300	0.459200
H451	H45	0.236800	0.201900	0.598000
H461	H46	0.231700	0.316400	0.657400
H471	H47	0.808900	0.239600	0.600600
H481	H48	0.826000	0.363900	0.644400
H491	H49	0.984400	0.401800	0.656600
H501	H50	0.730500	0.409800	0.750000
H511	H51	0.865100	0.447300	0.802400
H521	H52	0.627100	0.470300	0.640600
H531	H53	0.936900	0.614500	0.645000
H541	H54	0.029700	0.541900	0.743600
H551	H55	0.810700	0.319400	0.805200
H561	H56	0.787000	0.283800	0.732000
H571	H57	0.082600	0.206700	0.729200
H581	H58	0.167500	0.113500	0.808400
H591	H59	0.892200	0.233400	0.888200
H601	H60	0.170400	0.349800	0.763200
H611	H61	0.131100	0.427800	0.777600
H621	H62	0.336700	0.307400	0.871200
H631	H63	0.346000	0.318400	0.993800
H641	H64	0.990400	0.423600	0.900200
H651	H65	0.453500	0.009700	0.882400
H661	H66	0.000000	0.610300	0.459200
H671	H67	0.638800	0.298100	0.402000
H681	H68	0.574300	0.183600	0.342600
H691	H69	0.208300	0.260400	0.399400
H701	H70	0.181600	0.136100	0.355600
H711	H71	0.327800	0.098200	0.343400
H721	H72	0.980500	0.090200	0.250000
H731	H73	0.062700	0.052700	0.197600
H741	H74	0.986500	0.029700	0.359400
H751	H75	0.291900	0.885500	0.355000
H761	H76	0.286100	0.958100	0.256400
H771	H77	0.005500	0.180600	0.194800
H781	H78	0.055000	0.216200	0.268000
H791	H79	0.353400	0.293300	0.270800
H801	H80	0.359100	0.386500	0.191600
H811	H81	0.004000	0.266600	0.111800
H821	H82	0.407200	0.150200	0.236800
H831	H83	0.353500	0.072200	0.222400
H841	H84	0.465500	0.192600	0.128800
H851	H85	0.352200	0.181600	0.006200
H861	H86	0.090200	0.076400	0.099800
H871	H87	0.571100	0.490300	0.117600
H881	H88	0.540800	0.889700	0.540800
C11	C1	0.849980	0.776100	0.393560
C21	C2	0.851440	0.713000	0.360480
C31	C3	0.085510	0.756100	0.392020
C41	C4	0.067600	0.638900	0.331800
C51	C5	0.059700	0.634000	0.253600
C61	C6	0.166580	0.571900	0.244360
C71	C7	0.284350	0.502600	0.346100
C81	C8	0.114450	0.423800	0.343300
C91	C9	0.061870	0.463900	0.288940
C101	C10	0.136050	0.697700	0.229300
C111	C11	0.944830	0.799200	0.229260
C121	C12	0.898760	0.850600	0.185520
C131	C13	0.049550	0.784900	0.141300
C141	C14	0.894650	0.620300	0.215500
C151	C15	0.731570	0.668100	0.108140
C161	C16	0.727080	0.661800	0.040560
C171	C17	0.922620	0.604000	0.091640
C181	C18	0.262630	0.949100	0.065260
C191	C19	0.385730	0.973800	0.029860
C201	C20	0.355400	0.980800	0.958600
C211	C21	0.528380	0.993900	0.070160
C221	C22	0.208670	0.959200	0.909940
C231	C23	0.278860	0.434000	0.573920
C241	C24	0.137980	0.468900	0.532960
C251	C25	0.000260	0.434400	0.524120
C261	C26	0.138510	0.537400	0.508220
C271	C27	0.283270	0.577100	0.511140
C281	C28	0.456420	0.723900	0.606440
C291	C29	0.490960	0.787000	0.639520
C301	C30	0.693490	0.743900	0.607980
C311	C31	0.735800	0.861100	0.668200
C321	C32	0.806100	0.866000	0.746400
C331	C33	0.922220	0.928100	0.755640
C341	C34	0.938250	0.997400	0.653900
C351	C35	0.771150	0.076200	0.656700
C361	C36	0.772930	0.036100	0.711060
C371	C37	0.906750	0.802300	0.770700
C381	C38	0.715570	0.700800	0.770740
C391	C39	0.713240	0.649400	0.814480
C401	C40	0.908250	0.715100	0.858700
C411	C41	0.679150	0.879700	0.784500
C421	C42	0.623430	0.831900	0.891860
C431	C43	0.686520	0.838200	0.959440
C441	C44	0.830980	0.896000	0.908360
C451	C45	0.197370	0.550900	0.934740
C461	C46	0.355870	0.526200	0.970140
C471	C47	0.396800	0.519200	0.041400
C481	C48	0.458220	0.506100	0.929840
C491	C49	0.298730	0.540800	0.090060
C501	C50	0.704940	0.066000	0.426080
C511	C51	0.605020	0.031100	0.467040
C521	C52	0.476140	0.065600	0.475880
C531	C53	0.630290	0.962600	0.491780
C541	C54	0.772130	0.922900	0.488860
C551	C55	0.150020	0.223900	0.606440
C561	C56	0.148560	0.287000	0.639520
C571	C57	0.914490	0.243900	0.607980
C581	C58	0.932400	0.361100	0.668200
C591	C59	0.940300	0.366000	0.746400
C601	C60	0.833420	0.428100	0.755640
C611	C61	0.715650	0.497400	0.653900
C621	C62	0.885550	0.576200	0.656700
C631	C63	0.938130	0.536100	0.711060
C641	C64	0.863950	0.302300	0.770700
C651	C65	0.055170	0.200800	0.770740
C661	C66	0.101240	0.149400	0.814480
C671	C67	0.950450	0.215100	0.858700
C681	C68	0.105350	0.379700	0.784500
C691	C69	0.268430	0.331900	0.891860
C701	C70	0.272920	0.338200	0.959440
C711	C71	0.077380	0.396000	0.908360
C721	C72	0.737370	0.050900	0.934740
C731	C73	0.614270	0.026200	0.970140
C741	C74	0.644600	0.019200	0.041400
C751	C75	0.471620	0.006100	0.929840
C761	C76	0.791330	0.040800	0.090060
C771	C77	0.721140	0.566000	0.426080
C781	C78	0.862020	0.531100	0.467040
C791	C79	0.999740	0.565600	0.475880
C801	C80	0.861490	0.462600	0.491780
C811	C81	0.716730	0.422900	0.488860
C821	C82	0.543580	0.276100	0.393560
C831	C83	0.509040	0.213000	0.360480
C841	C84	0.306510	0.256100	0.392020
C851	C85	0.264200	0.138900	0.331800
C861	C86	0.193900	0.134000	0.253600
C871	C87	0.077780	0.071900	0.244360
C881	C88	0.061750	0.002600	0.346100
C891	C89	0.228850	0.923800	0.343300
C901	C90	0.227070	0.963900	0.288940
C911	C91	0.093250	0.197700	0.229300
C921	C92	0.284430	0.299200	0.229260
C931	C93	0.286760	0.350600	0.185520
C941	C94	0.091750	0.284900	0.141300
C951	C95	0.320850	0.120300	0.215500
C961	C96	0.376570	0.168100	0.108140
C971	C97	0.313480	0.161800	0.040560
C981	C98	0.169020	0.104000	0.091640
C991	C99	0.802630	0.449100	0.065260
C1001	C100	0.644130	0.473800	0.029860
C1011	C101	0.603200	0.480800	0.958600
C1021	C102	0.541780	0.493900	0.070160
C1031	C103	0.701270	0.459200	0.909940
C1041	C104	0.295060	0.934000	0.573920
C1051	C105	0.394980	0.968900	0.532960
C1061	C106	0.523860	0.934400	0.524120
C1071	C107	0.369710	0.037400	0.508220
C1081	C108	0.227870	0.077100	0.511140
N11	N1	0.995570	0.802800	0.412740
N21	N2	0.002850	0.701400	0.358900
N31	N3	0.254690	0.448100	0.378180
N41	N4	0.170440	0.514700	0.291280
N51	N5	0.040170	0.756700	0.200540
N61	N6	0.966160	0.841500	0.130120
N71	N7	0.847210	0.621700	0.030220
N81	N8	0.855870	0.631300	0.140740
N91	N9	0.582830	0.697200	0.587260
N101	N10	0.643950	0.798600	0.641100
N111	N11	0.876510	0.051900	0.621820
N121	N12	0.879160	0.985300	0.708720
N131	N13	0.839630	0.743300	0.799460
N141	N14	0.836040	0.658500	0.869880
N151	N15	0.816990	0.878300	0.969780
N161	N16	0.715130	0.868700	0.859260
N171	N17	0.004430	0.197200	0.587260
N181	N18	0.997150	0.298600	0.641100
N191	N19	0.745310	0.551900	0.621820
N201	N20	0.829560	0.485300	0.708720
N211	N21	0.959830	0.243300	0.799460
N221	N22	0.033840	0.158500	0.869880
N231	N23	0.152790	0.378300	0.969780
N241	N24	0.144130	0.368700	0.859260
N251	N25	0.417170	0.302800	0.412740
N261	N26	0.356050	0.201400	0.358900
N271	N27	0.123490	0.948100	0.378180
N281	N28	0.120840	0.014700	0.291280
N291	N29	0.160370	0.256700	0.200540
N301	N30	0.163960	0.341500	0.130120
N311	N31	0.183010	0.121700	0.030220
N321	N32	0.284870	0.131300	0.140740
O11	O1	0.291680	0.945300	0.127960
O21	O2	0.134610	0.935100	0.025420
O31	O3	0.198760	0.900400	0.882520
O41	O4	0.105170	0.005540	0.894940
O51	O5	0.354380	0.394200	0.541560
O61	O6	0.303480	0.440600	0.636760
O71	O7	0.406390	0.548600	0.542980
O81	O8	0.279730	0.633100	0.483460
O91	O9	0.163720	0.554700	0.872040
O101	O10	0.109190	0.564900	0.974580
O111	O11	0.316240	0.599600	0.117480
O121	O12	0.210230	0.494460	0.105060
O131	O13	0.812820	0.105800	0.458440
O141	O14	0.666720	0.059400	0.363240
O151	O15	0.863410	0.951400	0.457020
O161	O16	0.796270	0.866900	0.516540
O171	O17	0.708320	0.054700	0.872040
O181	O18	0.865390	0.064900	0.974580
O191	O19	0.801240	0.099600	0.117480
O201	O20	0.894830	0.994460	0.105060
O211	O21	0.645620	0.605800	0.458440
O221	O22	0.696520	0.559400	0.363240
O231	O23	0.593610	0.451400	0.457020
O241	O24	0.720270	0.366900	0.516540
O251	O25	0.836280	0.445300	0.127960
O261	O26	0.890810	0.435100	0.025420
O271	O27	0.683760	0.400400	0.882520
O281	O28	0.789770	0.505540	0.894940
O291	O29	0.187180	0.894200	0.541560
O301	O30	0.333280	0.940600	0.636760
O311	O31	0.136590	0.048600	0.542980
O321	O32	0.203730	0.133100	0.483460
