data_CUYYAX_clean_PM
_symmetry_space_group_name_H-M	'P1'
_cell_length_a	9.075200
_cell_length_b	9.075200
_cell_length_c	27.014000
_cell_angle_alpha	90.000000
_cell_angle_beta	90.000000
_cell_angle_gamma	90.000000
_symmetry_Int_Tables_number 1

loop_
_symmetry_equiv_pos_as_xyz
'x,y,z'

loop_
_atom_site_label
_atom_site_type_symbol
_atom_site_fract_x
_atom_site_fract_y
_atom_site_fract_z
Cd11	Cd1	0.181550	0.623300	0.374960
Cd21	Cd2	0.818450	0.376700	0.874960
Cd31	Cd3	0.376700	0.181550	0.624960
Cd41	Cd4	0.623300	0.818450	0.124960
H11	H1	0.415000	0.186200	0.243500
H21	H2	0.707200	0.478700	0.296600
H31	H3	0.660100	0.082600	0.362100
H41	H4	0.364500	0.967800	0.374800
H51	H5	0.346100	0.677000	0.269100
H61	H6	0.492600	0.880700	0.238400
H71	H7	0.692400	0.585600	0.220200
H81	H8	0.326600	0.594300	0.145000
H91	H9	0.310800	0.385200	0.203000
H101	H10	0.834800	0.539600	0.365300
H111	H11	0.099500	0.254600	0.428400
H121	H12	0.900300	0.117700	0.389100
H131	H13	0.585000	0.813800	0.743500
H141	H14	0.292800	0.521300	0.796600
H151	H15	0.339900	0.917400	0.862100
H161	H16	0.635500	0.032200	0.874800
H171	H17	0.653900	0.323000	0.769100
H181	H18	0.507400	0.119300	0.738400
H191	H19	0.307600	0.414400	0.720200
H201	H20	0.673400	0.405700	0.645000
H211	H21	0.689200	0.614800	0.703000
H221	H22	0.165200	0.460400	0.865300
H231	H23	0.900500	0.745400	0.928400
H241	H24	0.099700	0.882300	0.889100
H251	H25	0.813800	0.415000	0.493500
H261	H26	0.521300	0.707200	0.546600
H271	H27	0.917400	0.660100	0.612100
H281	H28	0.032200	0.364500	0.624800
H291	H29	0.323000	0.346100	0.519100
H301	H30	0.119300	0.492600	0.488400
H311	H31	0.414400	0.692400	0.470200
H321	H32	0.405700	0.326600	0.395000
H331	H33	0.614800	0.310800	0.453000
H341	H34	0.460400	0.834800	0.615300
H351	H35	0.745400	0.099500	0.678400
H361	H36	0.882300	0.900300	0.639100
H371	H37	0.186200	0.585000	0.993500
H381	H38	0.478700	0.292800	0.046600
H391	H39	0.082600	0.339900	0.112100
H401	H40	0.967800	0.635500	0.124800
H411	H41	0.677000	0.653900	0.019100
H421	H42	0.880700	0.507400	0.988400
H431	H43	0.585600	0.307600	0.970200
H441	H44	0.594300	0.673400	0.895000
H451	H45	0.385200	0.689200	0.953000
H461	H46	0.539600	0.165200	0.115300
H471	H47	0.254600	0.900500	0.178400
H481	H48	0.117700	0.099700	0.139100
C11	C1	0.526300	0.115800	0.303400
C21	C2	0.487100	0.211700	0.266400
C31	C3	0.556400	0.346100	0.263800
C41	C4	0.663800	0.385900	0.297870
C51	C5	0.705500	0.284200	0.334090
C61	C6	0.634900	0.149400	0.337400
C71	C7	0.377700	0.920100	0.344700
C81	C8	0.368400	0.761900	0.286800
C91	C9	0.449000	0.873800	0.269500
C101	C10	0.599300	0.561600	0.208300
C111	C11	0.399300	0.565900	0.167200
C121	C12	0.389500	0.450100	0.199600
C131	C13	0.877000	0.452000	0.376200
C141	C14	0.021200	0.295500	0.410900
C151	C15	0.912100	0.219500	0.388800
C161	C16	0.473700	0.884200	0.803400
C171	C17	0.512900	0.788300	0.766400
C181	C18	0.443600	0.653900	0.763800
C191	C19	0.336200	0.614100	0.797870
C201	C20	0.294500	0.715800	0.834090
C211	C21	0.365100	0.850600	0.837400
C221	C22	0.622300	0.079900	0.844700
C231	C23	0.631600	0.238100	0.786800
C241	C24	0.551000	0.126200	0.769500
C251	C25	0.400700	0.438400	0.708300
C261	C26	0.600700	0.434100	0.667200
C271	C27	0.610500	0.549900	0.699600
C281	C28	0.123000	0.548000	0.876200
C291	C29	0.978800	0.704500	0.910900
C301	C30	0.087900	0.780500	0.888800
C311	C31	0.884200	0.526300	0.553400
C321	C32	0.788300	0.487100	0.516400
C331	C33	0.653900	0.556400	0.513800
C341	C34	0.614100	0.663800	0.547870
C351	C35	0.715800	0.705500	0.584090
C361	C36	0.850600	0.634900	0.587400
C371	C37	0.079900	0.377700	0.594700
C381	C38	0.238100	0.368400	0.536800
C391	C39	0.126200	0.449000	0.519500
C401	C40	0.438400	0.599300	0.458300
C411	C41	0.434100	0.399300	0.417200
C421	C42	0.549900	0.389500	0.449600
C431	C43	0.548000	0.877000	0.626200
C441	C44	0.704500	0.021200	0.660900
C451	C45	0.780500	0.912100	0.638800
C461	C46	0.115800	0.473700	0.053400
C471	C47	0.211700	0.512900	0.016400
C481	C48	0.346100	0.443600	0.013800
C491	C49	0.385900	0.336200	0.047870
C501	C50	0.284200	0.294500	0.084090
C511	C51	0.149400	0.365100	0.087400
C521	C52	0.920100	0.622300	0.094700
C531	C53	0.761900	0.631600	0.036800
C541	C54	0.873800	0.551000	0.019500
C551	C55	0.561600	0.400700	0.958300
C561	C56	0.565900	0.600700	0.917200
C571	C57	0.450100	0.610500	0.949600
C581	C58	0.452000	0.123000	0.126200
C591	C59	0.295500	0.978800	0.160900
C601	C60	0.219500	0.087900	0.138800
N11	N1	0.323500	0.789500	0.333970
N21	N2	0.454500	0.975900	0.306470
N31	N3	0.532700	0.632900	0.172890
N41	N4	0.517100	0.448700	0.225690
N51	N5	0.997300	0.446500	0.403250
N61	N6	0.821400	0.319300	0.365950
N71	N7	0.676500	0.210500	0.833970
N81	N8	0.545500	0.024100	0.806470
N91	N9	0.467300	0.367100	0.672890
N101	N10	0.482900	0.551300	0.725690
N111	N11	0.002700	0.553500	0.903250
N121	N12	0.178600	0.680700	0.865950
N131	N13	0.210500	0.323500	0.583970
N141	N14	0.024100	0.454500	0.556470
N151	N15	0.367100	0.532700	0.422890
N161	N16	0.551300	0.517100	0.475690
N171	N17	0.553500	0.997300	0.653250
N181	N18	0.680700	0.821400	0.615950
N191	N19	0.789500	0.676500	0.083970
N201	N20	0.975900	0.545500	0.056470
N211	N21	0.632900	0.467300	0.922890
N221	N22	0.448700	0.482900	0.975690
N231	N23	0.446500	0.002700	0.153250
N241	N24	0.319300	0.178600	0.115950
