data_CUZBUW_clean_PM
_symmetry_space_group_name_H-M	'P1'
_cell_length_a	7.875800
_cell_length_b	9.187700
_cell_length_c	11.342700
_cell_angle_alpha	112.883000
_cell_angle_beta	91.057000
_cell_angle_gamma	105.877000
_symmetry_Int_Tables_number 1

loop_
_symmetry_equiv_pos_as_xyz
'x,y,z'

loop_
_atom_site_label
_atom_site_type_symbol
_atom_site_fract_x
_atom_site_fract_y
_atom_site_fract_z
O11	O1	0.716000	0.889200	0.477100
H11	H1	0.681000	0.841000	0.529000
H21	H2	0.711000	0.813000	0.398800
O21	O2	0.981900	0.179900	0.677900
O31	O3	0.267100	0.323800	0.753900
O41	O4	0.500300	0.986100	0.315600
O51	O5	0.385100	0.186900	0.327500
C11	C1	0.105400	0.293600	0.764100
C21	C2	0.050100	0.397700	0.886400
C31	C3	0.871000	0.376900	0.901500
H31	H3	0.783500	0.294600	0.835300
C41	C4	0.178700	0.524100	0.987300
H41	H4	0.299100	0.541200	0.979100
C51	C5	0.452400	0.074500	0.269200
C61	C6	0.477600	0.037800	0.129600
C71	C7	0.431100	0.127300	0.067100
H51	H5	0.384600	0.213000	0.111700
C81	C8	0.547000	0.909700	0.061400
H61	H6	0.578700	0.848600	0.102100
O61	O6	0.284000	0.110800	0.522900
H71	H7	0.319000	0.159000	0.471000
H81	H8	0.289000	0.187000	0.601200
O71	O7	0.018100	0.820100	0.322100
O81	O8	0.732900	0.676200	0.246100
O91	O9	0.499700	0.013900	0.684400
O101	O10	0.614900	0.813100	0.672500
C91	C9	0.894600	0.706400	0.235900
C101	C10	0.949900	0.602300	0.113600
C111	C11	0.129000	0.623100	0.098500
H91	H9	0.216500	0.705400	0.164700
C121	C12	0.821300	0.475900	0.012700
H101	H10	0.700900	0.458800	0.020900
C131	C13	0.547600	0.925500	0.730800
C141	C14	0.522400	0.962200	0.870400
C151	C15	0.568900	0.872700	0.932900
H111	H11	0.615400	0.787000	0.888300
C161	C16	0.453000	0.090300	0.938600
H121	H12	0.421300	0.151400	0.897900
Co11	Co1	0.000000	0.000000	0.500000
Co21	Co2	0.500000	0.000000	0.500000
