data_DABFIX_clean_PM
_symmetry_space_group_name_H-M	'P1'
_cell_length_a	23.053800
_cell_length_b	23.053800
_cell_length_c	23.053800
_cell_angle_alpha	90.000000
_cell_angle_beta	90.000000
_cell_angle_gamma	90.000000
_symmetry_Int_Tables_number 1

loop_
_symmetry_equiv_pos_as_xyz
'x,y,z'

loop_
_atom_site_label
_atom_site_type_symbol
_atom_site_fract_x
_atom_site_fract_y
_atom_site_fract_z
N11	N1	0.223000	0.883500	0.365800
C11	C1	0.251500	0.889200	0.418600
C21	C2	0.310400	0.902000	0.419800
H11	H1	0.329900	0.905900	0.455900
C31	C3	0.340800	0.909200	0.368300
H21	H2	0.381000	0.917900	0.369100
C41	C4	0.312300	0.903500	0.315400
H31	H3	0.333000	0.908400	0.280200
C51	C5	0.253400	0.890600	0.314200
H41	H4	0.233900	0.886700	0.278100
N21	N2	0.134600	0.876600	0.514500
N31	N3	0.156200	0.879100	0.459800
C61	C6	0.214400	0.886400	0.469000
C71	C7	0.227100	0.889600	0.528500
H51	H5	0.263900	0.893600	0.546600
C81	C8	0.174100	0.885800	0.553900
H61	H6	0.166900	0.889200	0.594400
C91	C9	0.074100	0.863400	0.524900
H71	H7	0.051200	0.877100	0.491200
H81	H8	0.061100	0.885700	0.559200
C101	C10	0.060600	0.801100	0.534700
C111	C11	0.106300	0.762000	0.537800
H91	H9	0.145200	0.775500	0.535900
C121	C12	0.095200	0.703000	0.543800
H101	H10	0.126500	0.676300	0.545900
C131	C13	0.038300	0.683200	0.546600
C141	C14	0.992600	0.722300	0.543500
C151	C15	0.003700	0.781300	0.537500
C161	C16	0.936000	0.701600	0.546200
H111	H11	0.929100	0.661500	0.552300
C171	C17	0.889600	0.739600	0.539900
H121	H12	0.851000	0.725400	0.537700
C181	C18	0.900700	0.798800	0.536900
H131	H13	0.869300	0.825200	0.533200
C191	C19	0.957600	0.820100	0.539200
H141	H14	0.964500	0.860600	0.541900
C201	C20	0.032600	0.620200	0.552900
N41	N4	0.028300	0.570900	0.557800
N51	N5	0.277000	0.116500	0.865800
C211	C21	0.248500	0.110800	0.918600
C221	C22	0.189600	0.098000	0.919800
H151	H15	0.170100	0.094100	0.955900
C231	C23	0.159200	0.090800	0.868300
H161	H16	0.119000	0.082100	0.869100
C241	C24	0.187700	0.096500	0.815400
H171	H17	0.167000	0.091600	0.780200
C251	C25	0.246600	0.109400	0.814200
H181	H18	0.266100	0.113300	0.778100
N61	N6	0.365400	0.123400	0.014500
N71	N7	0.343800	0.120900	0.959800
C261	C26	0.285600	0.113600	0.969000
C271	C27	0.272900	0.110400	0.028500
H191	H19	0.236100	0.106400	0.046600
C281	C28	0.325900	0.114200	0.053900
H201	H20	0.333100	0.110800	0.094400
C291	C29	0.425900	0.136600	0.024900
H211	H21	0.448800	0.122900	0.991200
H221	H22	0.438900	0.114300	0.059200
C301	C30	0.439400	0.198900	0.034700
C311	C31	0.393700	0.238000	0.037800
H231	H23	0.354800	0.224500	0.035900
C321	C32	0.404800	0.297000	0.043800
H241	H24	0.373500	0.323700	0.045900
C331	C33	0.461700	0.316800	0.046600
C341	C34	0.507400	0.277700	0.043500
C351	C35	0.496300	0.218700	0.037500
C361	C36	0.564000	0.298400	0.046200
H251	H25	0.570900	0.338500	0.052300
C371	C37	0.610400	0.260400	0.039900
H261	H26	0.649000	0.274600	0.037700
C381	C38	0.599300	0.201200	0.036900
H271	H27	0.630700	0.174800	0.033200
C391	C39	0.542400	0.179900	0.039200
H281	H28	0.535500	0.139400	0.041900
C401	C40	0.467400	0.379800	0.052900
N81	N8	0.471700	0.429100	0.057800
N91	N9	0.777000	0.383500	0.134200
C411	C41	0.748500	0.389200	0.081400
C421	C42	0.689600	0.402000	0.080200
H291	H29	0.670100	0.405900	0.044100
C431	C43	0.659200	0.409200	0.131700
H301	H30	0.619000	0.417900	0.130900
C441	C44	0.687700	0.403500	0.184600
H311	H31	0.667000	0.408400	0.219800
C451	C45	0.746600	0.390600	0.185800
H321	H32	0.766100	0.386700	0.221900
N101	N10	0.865400	0.376600	0.985500
N111	N11	0.843800	0.379100	0.040200
C461	C46	0.785600	0.386400	0.031000
C471	C47	0.772900	0.389600	0.971500
H331	H33	0.736100	0.393600	0.953400
C481	C48	0.825900	0.385800	0.946100
H341	H34	0.833100	0.389200	0.905600
C491	C49	0.925900	0.363400	0.975100
H351	H35	0.948800	0.377100	0.008800
H361	H36	0.938900	0.385700	0.940800
C501	C50	0.939400	0.301100	0.965300
C511	C51	0.893700	0.262000	0.962200
H371	H37	0.854800	0.275500	0.964100
C521	C52	0.904800	0.203000	0.956200
H381	H38	0.873500	0.176300	0.954100
C531	C53	0.961700	0.183200	0.953400
C541	C54	0.007400	0.222300	0.956500
C551	C55	0.996300	0.281300	0.962500
C561	C56	0.064000	0.201600	0.953800
H391	H39	0.070900	0.161500	0.947700
C571	C57	0.110400	0.239600	0.960100
H401	H40	0.149000	0.225400	0.962300
C581	C58	0.099300	0.298800	0.963100
H411	H41	0.130700	0.325200	0.966800
C591	C59	0.042400	0.320100	0.960800
H421	H42	0.035500	0.360600	0.958100
C601	C60	0.967400	0.120200	0.947100
N121	N12	0.971700	0.070900	0.942200
N131	N13	0.723000	0.616500	0.634200
C611	C61	0.751500	0.610800	0.581400
C621	C62	0.810400	0.598000	0.580200
H431	H43	0.829900	0.594100	0.544100
C631	C63	0.840800	0.590800	0.631700
H441	H44	0.881000	0.582100	0.630900
C641	C64	0.812300	0.596500	0.684600
H451	H45	0.833000	0.591600	0.719800
C651	C65	0.753400	0.609400	0.685800
H461	H46	0.733900	0.613300	0.721900
N141	N14	0.634600	0.623400	0.485500
N151	N15	0.656200	0.620900	0.540200
C661	C66	0.714400	0.613600	0.531000
C671	C67	0.727100	0.610400	0.471500
H471	H47	0.763900	0.606400	0.453400
C681	C68	0.674100	0.614200	0.446100
H481	H48	0.666900	0.610800	0.405600
C691	C69	0.574100	0.636600	0.475100
H491	H49	0.551200	0.622900	0.508800
H501	H50	0.561100	0.614300	0.440800
C701	C70	0.560600	0.698900	0.465300
C711	C71	0.606300	0.738000	0.462200
H511	H51	0.645200	0.724500	0.464100
C721	C72	0.595200	0.797000	0.456200
H521	H52	0.626500	0.823700	0.454100
C731	C73	0.538300	0.816800	0.453400
C741	C74	0.492600	0.777700	0.456500
C751	C75	0.503700	0.718700	0.462500
C761	C76	0.436000	0.798400	0.453800
H531	H53	0.429100	0.838500	0.447700
C771	C77	0.389600	0.760400	0.460100
H541	H54	0.351000	0.774600	0.462300
C781	C78	0.400700	0.701200	0.463100
H551	H55	0.369300	0.674800	0.466800
C791	C79	0.457600	0.679900	0.460800
H561	H56	0.464500	0.639400	0.458100
C801	C80	0.532600	0.879800	0.447100
N161	N16	0.528300	0.929100	0.442200
N171	N17	0.365800	0.223000	0.883500
C811	C81	0.418600	0.251500	0.889200
C821	C82	0.419800	0.310400	0.902000
H571	H57	0.455900	0.329900	0.905900
C831	C83	0.368300	0.340800	0.909200
H581	H58	0.369100	0.381000	0.917900
C841	C84	0.315400	0.312300	0.903500
H591	H59	0.280200	0.333000	0.908400
C851	C85	0.314200	0.253400	0.890600
H601	H60	0.278100	0.233900	0.886700
N181	N18	0.514500	0.134600	0.876600
N191	N19	0.459800	0.156200	0.879100
C861	C86	0.469000	0.214400	0.886400
C871	C87	0.528500	0.227100	0.889600
H611	H61	0.546600	0.263900	0.893600
C881	C88	0.553900	0.174100	0.885800
H621	H62	0.594400	0.166900	0.889200
C891	C89	0.524900	0.074100	0.863400
H631	H63	0.491200	0.051200	0.877100
H641	H64	0.559200	0.061100	0.885700
C901	C90	0.534700	0.060600	0.801100
C911	C91	0.537800	0.106300	0.762000
H651	H65	0.535900	0.145200	0.775500
C921	C92	0.543800	0.095200	0.703000
H661	H66	0.545900	0.126500	0.676300
C931	C93	0.546600	0.038300	0.683200
C941	C94	0.543500	0.992600	0.722300
C951	C95	0.537500	0.003700	0.781300
C961	C96	0.546200	0.936000	0.701600
H671	H67	0.552300	0.929100	0.661500
C971	C97	0.539900	0.889600	0.739600
H681	H68	0.537700	0.851000	0.725400
C981	C98	0.536900	0.900700	0.798800
H691	H69	0.533200	0.869300	0.825200
C991	C99	0.539200	0.957600	0.820100
H701	H70	0.541900	0.964500	0.860600
C1001	C100	0.552900	0.032600	0.620200
N201	N20	0.557800	0.028300	0.570900
N211	N21	0.865800	0.277000	0.116500
C1011	C101	0.918600	0.248500	0.110800
C1021	C102	0.919800	0.189600	0.098000
H711	H71	0.955900	0.170100	0.094100
C1031	C103	0.868300	0.159200	0.090800
H721	H72	0.869100	0.119000	0.082100
C1041	C104	0.815400	0.187700	0.096500
H731	H73	0.780200	0.167000	0.091600
C1051	C105	0.814200	0.246600	0.109400
H741	H74	0.778100	0.266100	0.113300
N221	N22	0.014500	0.365400	0.123400
N231	N23	0.959800	0.343800	0.120900
C1061	C106	0.969000	0.285600	0.113600
C1071	C107	0.028500	0.272900	0.110400
H751	H75	0.046600	0.236100	0.106400
C1081	C108	0.053900	0.325900	0.114200
H761	H76	0.094400	0.333100	0.110800
C1091	C109	0.024900	0.425900	0.136600
H771	H77	0.991200	0.448800	0.122900
H781	H78	0.059200	0.438900	0.114300
C1101	C110	0.034700	0.439400	0.198900
C1111	C111	0.037800	0.393700	0.238000
H791	H79	0.035900	0.354800	0.224500
C1121	C112	0.043800	0.404800	0.297000
H801	H80	0.045900	0.373500	0.323700
C1131	C113	0.046600	0.461700	0.316800
C1141	C114	0.043500	0.507400	0.277700
C1151	C115	0.037500	0.496300	0.218700
C1161	C116	0.046200	0.564000	0.298400
H811	H81	0.052300	0.570900	0.338500
C1171	C117	0.039900	0.610400	0.260400
H821	H82	0.037700	0.649000	0.274600
C1181	C118	0.036900	0.599300	0.201200
H831	H83	0.033200	0.630700	0.174800
C1191	C119	0.039200	0.542400	0.179900
H841	H84	0.041900	0.535500	0.139400
C1201	C120	0.052900	0.467400	0.379800
N241	N24	0.057800	0.471700	0.429100
N251	N25	0.134200	0.777000	0.383500
C1211	C121	0.081400	0.748500	0.389200
C1221	C122	0.080200	0.689600	0.402000
H851	H85	0.044100	0.670100	0.405900
C1231	C123	0.131700	0.659200	0.409200
H861	H86	0.130900	0.619000	0.417900
C1241	C124	0.184600	0.687700	0.403500
H871	H87	0.219800	0.667000	0.408400
C1251	C125	0.185800	0.746600	0.390600
H881	H88	0.221900	0.766100	0.386700
N261	N26	0.985500	0.865400	0.376600
N271	N27	0.040200	0.843800	0.379100
C1261	C126	0.031000	0.785600	0.386400
C1271	C127	0.971500	0.772900	0.389600
H891	H89	0.953400	0.736100	0.393600
C1281	C128	0.946100	0.825900	0.385800
H901	H90	0.905600	0.833100	0.389200
C1291	C129	0.975100	0.925900	0.363400
H911	H91	0.008800	0.948800	0.377100
H921	H92	0.940800	0.938900	0.385700
C1301	C130	0.965300	0.939400	0.301100
C1311	C131	0.962200	0.893700	0.262000
H931	H93	0.964100	0.854800	0.275500
C1321	C132	0.956200	0.904800	0.203000
H941	H94	0.954100	0.873500	0.176300
C1331	C133	0.953400	0.961700	0.183200
C1341	C134	0.956500	0.007400	0.222300
C1351	C135	0.962500	0.996300	0.281300
C1361	C136	0.953800	0.064000	0.201600
H951	H95	0.947700	0.070900	0.161500
C1371	C137	0.960100	0.110400	0.239600
H961	H96	0.962300	0.149000	0.225400
C1381	C138	0.963100	0.099300	0.298800
H971	H97	0.966800	0.130700	0.325200
C1391	C139	0.960800	0.042400	0.320100
H981	H98	0.958100	0.035500	0.360600
C1401	C140	0.947100	0.967400	0.120200
N281	N28	0.942200	0.971700	0.070900
N291	N29	0.634200	0.723000	0.616500
C1411	C141	0.581400	0.751500	0.610800
C1421	C142	0.580200	0.810400	0.598000
H991	H99	0.544100	0.829900	0.594100
C1431	C143	0.631700	0.840800	0.590800
H1001	H100	0.630900	0.881000	0.582100
C1441	C144	0.684600	0.812300	0.596500
H1011	H101	0.719800	0.833000	0.591600
C1451	C145	0.685800	0.753400	0.609400
H1021	H102	0.721900	0.733900	0.613300
N301	N30	0.485500	0.634600	0.623400
N311	N31	0.540200	0.656200	0.620900
C1461	C146	0.531000	0.714400	0.613600
C1471	C147	0.471500	0.727100	0.610400
H1031	H103	0.453400	0.763900	0.606400
C1481	C148	0.446100	0.674100	0.614200
H1041	H104	0.405600	0.666900	0.610800
C1491	C149	0.475100	0.574100	0.636600
H1051	H105	0.508800	0.551200	0.622900
H1061	H106	0.440800	0.561100	0.614300
C1501	C150	0.465300	0.560600	0.698900
C1511	C151	0.462200	0.606300	0.738000
H1071	H107	0.464100	0.645200	0.724500
C1521	C152	0.456200	0.595200	0.797000
H1081	H108	0.454100	0.626500	0.823700
C1531	C153	0.453400	0.538300	0.816800
C1541	C154	0.456500	0.492600	0.777700
C1551	C155	0.462500	0.503700	0.718700
C1561	C156	0.453800	0.436000	0.798400
H1091	H109	0.447700	0.429100	0.838500
C1571	C157	0.460100	0.389600	0.760400
H1101	H110	0.462300	0.351000	0.774600
C1581	C158	0.463100	0.400700	0.701200
H1111	H111	0.466800	0.369300	0.674800
C1591	C159	0.460800	0.457600	0.679900
H1121	H112	0.458100	0.464500	0.639400
C1601	C160	0.447100	0.532600	0.879800
N321	N32	0.442200	0.528300	0.929100
N331	N33	0.883500	0.365800	0.223000
C1611	C161	0.889200	0.418600	0.251500
C1621	C162	0.902000	0.419800	0.310400
H1131	H113	0.905900	0.455900	0.329900
C1631	C163	0.909200	0.368300	0.340800
H1141	H114	0.917900	0.369100	0.381000
C1641	C164	0.903500	0.315400	0.312300
H1151	H115	0.908400	0.280200	0.333000
C1651	C165	0.890600	0.314200	0.253400
H1161	H116	0.886700	0.278100	0.233900
N341	N34	0.876600	0.514500	0.134600
N351	N35	0.879100	0.459800	0.156200
C1661	C166	0.886400	0.469000	0.214400
C1671	C167	0.889600	0.528500	0.227100
H1171	H117	0.893600	0.546600	0.263900
C1681	C168	0.885800	0.553900	0.174100
H1181	H118	0.889200	0.594400	0.166900
C1691	C169	0.863400	0.524900	0.074100
H1191	H119	0.877100	0.491200	0.051200
H1201	H120	0.885700	0.559200	0.061100
C1701	C170	0.801100	0.534700	0.060600
C1711	C171	0.762000	0.537800	0.106300
H1211	H121	0.775500	0.535900	0.145200
C1721	C172	0.703000	0.543800	0.095200
H1221	H122	0.676300	0.545900	0.126500
C1731	C173	0.683200	0.546600	0.038300
C1741	C174	0.722300	0.543500	0.992600
C1751	C175	0.781300	0.537500	0.003700
C1761	C176	0.701600	0.546200	0.936000
H1231	H123	0.661500	0.552300	0.929100
C1771	C177	0.739600	0.539900	0.889600
H1241	H124	0.725400	0.537700	0.851000
C1781	C178	0.798800	0.536900	0.900700
H1251	H125	0.825200	0.533200	0.869300
C1791	C179	0.820100	0.539200	0.957600
H1261	H126	0.860600	0.541900	0.964500
C1801	C180	0.620200	0.552900	0.032600
N361	N36	0.570900	0.557800	0.028300
N371	N37	0.116500	0.865800	0.277000
C1811	C181	0.110800	0.918600	0.248500
C1821	C182	0.098000	0.919800	0.189600
H1271	H127	0.094100	0.955900	0.170100
C1831	C183	0.090800	0.868300	0.159200
H1281	H128	0.082100	0.869100	0.119000
C1841	C184	0.096500	0.815400	0.187700
H1291	H129	0.091600	0.780200	0.167000
C1851	C185	0.109400	0.814200	0.246600
H1301	H130	0.113300	0.778100	0.266100
N381	N38	0.123400	0.014500	0.365400
N391	N39	0.120900	0.959800	0.343800
C1861	C186	0.113600	0.969000	0.285600
C1871	C187	0.110400	0.028500	0.272900
H1311	H131	0.106400	0.046600	0.236100
C1881	C188	0.114200	0.053900	0.325900
H1321	H132	0.110800	0.094400	0.333100
C1891	C189	0.136600	0.024900	0.425900
H1331	H133	0.122900	0.991200	0.448800
H1341	H134	0.114300	0.059200	0.438900
C1901	C190	0.198900	0.034700	0.439400
C1911	C191	0.238000	0.037800	0.393700
H1351	H135	0.224500	0.035900	0.354800
C1921	C192	0.297000	0.043800	0.404800
H1361	H136	0.323700	0.045900	0.373500
C1931	C193	0.316800	0.046600	0.461700
C1941	C194	0.277700	0.043500	0.507400
C1951	C195	0.218700	0.037500	0.496300
C1961	C196	0.298400	0.046200	0.564000
H1371	H137	0.338500	0.052300	0.570900
C1971	C197	0.260400	0.039900	0.610400
H1381	H138	0.274600	0.037700	0.649000
C1981	C198	0.201200	0.036900	0.599300
H1391	H139	0.174800	0.033200	0.630700
C1991	C199	0.179900	0.039200	0.542400
H1401	H140	0.139400	0.041900	0.535500
C2001	C200	0.379800	0.052900	0.467400
N401	N40	0.429100	0.057800	0.471700
N411	N41	0.383500	0.134200	0.777000
C2011	C201	0.389200	0.081400	0.748500
C2021	C202	0.402000	0.080200	0.689600
H1411	H141	0.405900	0.044100	0.670100
C2031	C203	0.409200	0.131700	0.659200
H1421	H142	0.417900	0.130900	0.619000
C2041	C204	0.403500	0.184600	0.687700
H1431	H143	0.408400	0.219800	0.667000
C2051	C205	0.390600	0.185800	0.746600
H1441	H144	0.386700	0.221900	0.766100
N421	N42	0.376600	0.985500	0.865400
N431	N43	0.379100	0.040200	0.843800
C2061	C206	0.386400	0.031000	0.785600
C2071	C207	0.389600	0.971500	0.772900
H1451	H145	0.393600	0.953400	0.736100
C2081	C208	0.385800	0.946100	0.825900
H1461	H146	0.389200	0.905600	0.833100
C2091	C209	0.363400	0.975100	0.925900
H1471	H147	0.377100	0.008800	0.948800
H1481	H148	0.385700	0.940800	0.938900
C2101	C210	0.301100	0.965300	0.939400
C2111	C211	0.262000	0.962200	0.893700
H1491	H149	0.275500	0.964100	0.854800
C2121	C212	0.203000	0.956200	0.904800
H1501	H150	0.176300	0.954100	0.873500
C2131	C213	0.183200	0.953400	0.961700
C2141	C214	0.222300	0.956500	0.007400
C2151	C215	0.281300	0.962500	0.996300
C2161	C216	0.201600	0.953800	0.064000
H1511	H151	0.161500	0.947700	0.070900
C2171	C217	0.239600	0.960100	0.110400
H1521	H152	0.225400	0.962300	0.149000
C2181	C218	0.298800	0.963100	0.099300
H1531	H153	0.325200	0.966800	0.130700
C2191	C219	0.320100	0.960800	0.042400
H1541	H154	0.360600	0.958100	0.035500
C2201	C220	0.120200	0.947100	0.967400
N441	N44	0.070900	0.942200	0.971700
N451	N45	0.616500	0.634200	0.723000
C2211	C221	0.610800	0.581400	0.751500
C2221	C222	0.598000	0.580200	0.810400
H1551	H155	0.594100	0.544100	0.829900
C2231	C223	0.590800	0.631700	0.840800
H1561	H156	0.582100	0.630900	0.881000
C2241	C224	0.596500	0.684600	0.812300
H1571	H157	0.591600	0.719800	0.833000
C2251	C225	0.609400	0.685800	0.753400
H1581	H158	0.613300	0.721900	0.733900
N461	N46	0.623400	0.485500	0.634600
N471	N47	0.620900	0.540200	0.656200
C2261	C226	0.613600	0.531000	0.714400
C2271	C227	0.610400	0.471500	0.727100
H1591	H159	0.606400	0.453400	0.763900
C2281	C228	0.614200	0.446100	0.674100
H1601	H160	0.610800	0.405600	0.666900
C2291	C229	0.636600	0.475100	0.574100
H1611	H161	0.622900	0.508800	0.551200
H1621	H162	0.614300	0.440800	0.561100
C2301	C230	0.698900	0.465300	0.560600
C2311	C231	0.738000	0.462200	0.606300
H1631	H163	0.724500	0.464100	0.645200
C2321	C232	0.797000	0.456200	0.595200
H1641	H164	0.823700	0.454100	0.626500
C2331	C233	0.816800	0.453400	0.538300
C2341	C234	0.777700	0.456500	0.492600
C2351	C235	0.718700	0.462500	0.503700
C2361	C236	0.798400	0.453800	0.436000
H1651	H165	0.838500	0.447700	0.429100
C2371	C237	0.760400	0.460100	0.389600
H1661	H166	0.774600	0.462300	0.351000
C2381	C238	0.701200	0.463100	0.400700
H1671	H167	0.674800	0.466800	0.369300
C2391	C239	0.679900	0.460800	0.457600
H1681	H168	0.639400	0.458100	0.464500
C2401	C240	0.879800	0.447100	0.532600
N481	N48	0.929100	0.442200	0.528300
Ag11	Ag1	0.006790	0.493210	0.506790
Ag21	Ag2	0.493210	0.506790	0.006790
Ag31	Ag3	0.993210	0.993210	0.993210
Ag41	Ag4	0.506790	0.006790	0.493210
Co11	Co1	0.129780	0.870220	0.370220
Co21	Co2	0.370220	0.129780	0.870220
Co31	Co3	0.870220	0.370220	0.129780
Co41	Co4	0.629780	0.629780	0.629780
N491	N49	0.852600	0.046500	0.636800
C2411	C241	0.850500	0.019300	0.690600
C2421	C242	0.843900	0.959500	0.694000
H1691	H169	0.842500	0.941000	0.730700
C2431	C243	0.839300	0.926800	0.643500
H1701	H170	0.834700	0.885900	0.645800
C2441	C244	0.841400	0.954000	0.589700
H1711	H171	0.838300	0.931700	0.555200
C2451	C245	0.848000	0.013800	0.586400
H1721	H172	0.849500	0.032400	0.549600
N501	N50	0.852700	0.140100	0.783300
N511	N51	0.854800	0.115000	0.728800
C2461	C246	0.847600	0.058600	0.739100
C2471	C247	0.842900	0.046600	0.797800
H1731	H173	0.839500	0.009400	0.815200
C2481	C248	0.844000	0.096600	0.824400
H1741	H174	0.839600	0.102300	0.865000
C2491	C249	0.867700	0.202300	0.789700
H1751	H175	0.846600	0.218400	0.823400
H1761	H176	0.854600	0.223400	0.754700
C2501	C250	0.934100	0.212800	0.798200
C2511	C251	0.971900	0.165900	0.795900
H1771	H177	0.957000	0.127700	0.792100
C2521	C252	0.031400	0.175000	0.799200
H1781	H178	0.057200	0.142900	0.797600
C2531	C253	0.053100	0.231000	0.804700
C2541	C254	0.015300	0.277900	0.807000
C2551	C255	0.955800	0.268800	0.803800
C2561	C256	0.038100	0.333400	0.812500
H1791	H179	0.078900	0.338800	0.815400
C2571	C257	0.001300	0.381200	0.813900
H1801	H180	0.016400	0.419500	0.812900
C2581	C258	0.941900	0.371500	0.816800
H1811	H181	0.916500	0.402900	0.825100
C2591	C259	0.918800	0.316300	0.807800
H1821	H182	0.878100	0.311200	0.804400
C2601	C260	0.113800	0.237700	0.800700
N521	N52	0.166100	0.242600	0.799900
N531	N53	0.647400	0.953500	0.136800
C2611	C261	0.649500	0.980700	0.190600
C2621	C262	0.656100	0.040500	0.194000
H1831	H183	0.657500	0.059000	0.230700
C2631	C263	0.660700	0.073200	0.143500
H1841	H184	0.665300	0.114100	0.145800
C2641	C264	0.658600	0.046000	0.089700
H1851	H185	0.661700	0.068300	0.055200
C2651	C265	0.652000	0.986200	0.086400
H1861	H186	0.650500	0.967600	0.049600
N541	N54	0.647300	0.859900	0.283300
N551	N55	0.645200	0.885000	0.228800
C2661	C266	0.652400	0.941400	0.239100
C2671	C267	0.657100	0.953400	0.297800
H1871	H187	0.660500	0.990600	0.315200
C2681	C268	0.656000	0.903400	0.324400
H1881	H188	0.660400	0.897700	0.365000
C2691	C269	0.632300	0.797700	0.289700
H1891	H189	0.653400	0.781600	0.323400
H1901	H190	0.645400	0.776600	0.254700
C2701	C270	0.565900	0.787200	0.298200
C2711	C271	0.528100	0.834100	0.295900
H1911	H191	0.543000	0.872300	0.292100
C2721	C272	0.468600	0.825000	0.299200
H1921	H192	0.442800	0.857100	0.297600
C2731	C273	0.446900	0.769000	0.304700
C2741	C274	0.484700	0.722100	0.307000
C2751	C275	0.544200	0.731200	0.303800
C2761	C276	0.461900	0.666600	0.312500
H1931	H193	0.421100	0.661200	0.315400
C2771	C277	0.498700	0.618800	0.313900
H1941	H194	0.483600	0.580500	0.312900
C2781	C278	0.558100	0.628500	0.316800
H1951	H195	0.583500	0.597100	0.325100
C2791	C279	0.581200	0.683700	0.307800
H1961	H196	0.621900	0.688800	0.304400
C2801	C280	0.386200	0.762300	0.300700
N561	N56	0.333900	0.757400	0.299900
N571	N57	0.147400	0.546500	0.863200
C2811	C281	0.149500	0.519300	0.809400
C2821	C282	0.156100	0.459500	0.806000
H1971	H197	0.157500	0.441000	0.769300
C2831	C283	0.160700	0.426800	0.856500
H1981	H198	0.165300	0.385900	0.854200
C2841	C284	0.158600	0.454000	0.910300
H1991	H199	0.161700	0.431700	0.944800
C2851	C285	0.152000	0.513800	0.913600
H2001	H200	0.150500	0.532400	0.950400
N581	N58	0.147300	0.640100	0.716700
N591	N59	0.145200	0.615000	0.771200
C2861	C286	0.152400	0.558600	0.760900
C2871	C287	0.157100	0.546600	0.702200
H2011	H201	0.160500	0.509400	0.684800
C2881	C288	0.156000	0.596600	0.675600
H2021	H202	0.160400	0.602300	0.635000
C2891	C289	0.132300	0.702300	0.710300
H2031	H203	0.153400	0.718400	0.676600
H2041	H204	0.145400	0.723400	0.745300
C2901	C290	0.065900	0.712800	0.701800
C2911	C291	0.028100	0.665900	0.704100
H2051	H205	0.043000	0.627700	0.707900
C2921	C292	0.968600	0.675000	0.700800
H2061	H206	0.942800	0.642900	0.702400
C2931	C293	0.946900	0.731000	0.695300
C2941	C294	0.984700	0.777900	0.693000
C2951	C295	0.044200	0.768800	0.696200
C2961	C296	0.961900	0.833400	0.687500
H2071	H207	0.921100	0.838800	0.684600
C2971	C297	0.998700	0.881200	0.686100
H2081	H208	0.983600	0.919500	0.687100
C2981	C298	0.058100	0.871500	0.683200
H2091	H209	0.083500	0.902900	0.674900
C2991	C299	0.081200	0.816300	0.692200
H2101	H210	0.121900	0.811200	0.695600
C3001	C300	0.886200	0.737700	0.699300
N601	N60	0.833900	0.742600	0.700100
N611	N61	0.352600	0.453500	0.363200
C3011	C301	0.350500	0.480700	0.309400
C3021	C302	0.343900	0.540500	0.306000
H2111	H211	0.342500	0.559000	0.269300
C3031	C303	0.339300	0.573200	0.356500
H2121	H212	0.334700	0.614100	0.354200
C3041	C304	0.341400	0.546000	0.410300
H2131	H213	0.338300	0.568300	0.444800
C3051	C305	0.348000	0.486200	0.413600
H2141	H214	0.349500	0.467600	0.450400
N621	N62	0.352700	0.359900	0.216700
N631	N63	0.354800	0.385000	0.271200
C3061	C306	0.347600	0.441400	0.260900
C3071	C307	0.342900	0.453400	0.202200
H2151	H215	0.339500	0.490600	0.184800
C3081	C308	0.344000	0.403400	0.175600
H2161	H216	0.339600	0.397700	0.135000
C3091	C309	0.367700	0.297700	0.210300
H2171	H217	0.346600	0.281600	0.176600
H2181	H218	0.354600	0.276600	0.245300
C3101	C310	0.434100	0.287200	0.201800
C3111	C311	0.471900	0.334100	0.204100
H2191	H219	0.457000	0.372300	0.207900
C3121	C312	0.531400	0.325000	0.200800
H2201	H220	0.557200	0.357100	0.202400
C3131	C313	0.553100	0.269000	0.195300
C3141	C314	0.515300	0.222100	0.193000
C3151	C315	0.455800	0.231200	0.196200
C3161	C316	0.538100	0.166600	0.187500
H2211	H221	0.578900	0.161200	0.184600
C3171	C317	0.501300	0.118800	0.186100
H2221	H222	0.516400	0.080500	0.187100
C3181	C318	0.441900	0.128500	0.183200
H2231	H223	0.416500	0.097100	0.174900
C3191	C319	0.418800	0.183700	0.192200
H2241	H224	0.378100	0.188800	0.195600
C3201	C320	0.613800	0.262300	0.199300
N641	N64	0.666100	0.257400	0.200100
N651	N65	0.636800	0.852600	0.046500
C3211	C321	0.690600	0.850500	0.019300
C3221	C322	0.694000	0.843900	0.959500
H2251	H225	0.730700	0.842500	0.941000
C3231	C323	0.643500	0.839300	0.926800
H2261	H226	0.645800	0.834700	0.885900
C3241	C324	0.589700	0.841400	0.954000
H2271	H227	0.555200	0.838300	0.931700
C3251	C325	0.586400	0.848000	0.013800
H2281	H228	0.549600	0.849500	0.032400
N661	N66	0.783300	0.852700	0.140100
N671	N67	0.728800	0.854800	0.115000
C3261	C326	0.739100	0.847600	0.058600
C3271	C327	0.797800	0.842900	0.046600
H2291	H229	0.815200	0.839500	0.009400
C3281	C328	0.824400	0.844000	0.096600
H2301	H230	0.865000	0.839600	0.102300
C3291	C329	0.789700	0.867700	0.202300
H2311	H231	0.823400	0.846600	0.218400
H2321	H232	0.754700	0.854600	0.223400
C3301	C330	0.798200	0.934100	0.212800
C3311	C331	0.795900	0.971900	0.165900
H2331	H233	0.792100	0.957000	0.127700
C3321	C332	0.799200	0.031400	0.175000
H2341	H234	0.797600	0.057200	0.142900
C3331	C333	0.804700	0.053100	0.231000
C3341	C334	0.807000	0.015300	0.277900
C3351	C335	0.803800	0.955800	0.268800
C3361	C336	0.812500	0.038100	0.333400
H2351	H235	0.815400	0.078900	0.338800
C3371	C337	0.813900	0.001300	0.381200
H2361	H236	0.812900	0.016400	0.419500
C3381	C338	0.816800	0.941900	0.371500
H2371	H237	0.825100	0.916500	0.402900
C3391	C339	0.807800	0.918800	0.316300
H2381	H238	0.804400	0.878100	0.311200
C3401	C340	0.800700	0.113800	0.237700
N681	N68	0.799900	0.166100	0.242600
N691	N69	0.136800	0.647400	0.953500
C3411	C341	0.190600	0.649500	0.980700
C3421	C342	0.194000	0.656100	0.040500
H2391	H239	0.230700	0.657500	0.059000
C3431	C343	0.143500	0.660700	0.073200
H2401	H240	0.145800	0.665300	0.114100
C3441	C344	0.089700	0.658600	0.046000
H2411	H241	0.055200	0.661700	0.068300
C3451	C345	0.086400	0.652000	0.986200
H2421	H242	0.049600	0.650500	0.967600
N701	N70	0.283300	0.647300	0.859900
N711	N71	0.228800	0.645200	0.885000
C3461	C346	0.239100	0.652400	0.941400
C3471	C347	0.297800	0.657100	0.953400
H2431	H243	0.315200	0.660500	0.990600
C3481	C348	0.324400	0.656000	0.903400
H2441	H244	0.365000	0.660400	0.897700
C3491	C349	0.289700	0.632300	0.797700
H2451	H245	0.323400	0.653400	0.781600
H2461	H246	0.254700	0.645400	0.776600
C3501	C350	0.298200	0.565900	0.787200
C3511	C351	0.295900	0.528100	0.834100
H2471	H247	0.292100	0.543000	0.872300
C3521	C352	0.299200	0.468600	0.825000
H2481	H248	0.297600	0.442800	0.857100
C3531	C353	0.304700	0.446900	0.769000
C3541	C354	0.307000	0.484700	0.722100
C3551	C355	0.303800	0.544200	0.731200
C3561	C356	0.312500	0.461900	0.666600
H2491	H249	0.315400	0.421100	0.661200
C3571	C357	0.313900	0.498700	0.618800
H2501	H250	0.312900	0.483600	0.580500
C3581	C358	0.316800	0.558100	0.628500
H2511	H251	0.325100	0.583500	0.597100
C3591	C359	0.307800	0.581200	0.683700
H2521	H252	0.304400	0.621900	0.688800
C3601	C360	0.300700	0.386200	0.762300
N721	N72	0.299900	0.333900	0.757400
N731	N73	0.863200	0.147400	0.546500
C3611	C361	0.809400	0.149500	0.519300
C3621	C362	0.806000	0.156100	0.459500
H2531	H253	0.769300	0.157500	0.441000
C3631	C363	0.856500	0.160700	0.426800
H2541	H254	0.854200	0.165300	0.385900
C3641	C364	0.910300	0.158600	0.454000
H2551	H255	0.944800	0.161700	0.431700
C3651	C365	0.913600	0.152000	0.513800
H2561	H256	0.950400	0.150500	0.532400
N741	N74	0.716700	0.147300	0.640100
N751	N75	0.771200	0.145200	0.615000
C3661	C366	0.760900	0.152400	0.558600
C3671	C367	0.702200	0.157100	0.546600
H2571	H257	0.684800	0.160500	0.509400
C3681	C368	0.675600	0.156000	0.596600
H2581	H258	0.635000	0.160400	0.602300
C3691	C369	0.710300	0.132300	0.702300
H2591	H259	0.676600	0.153400	0.718400
H2601	H260	0.745300	0.145400	0.723400
C3701	C370	0.701800	0.065900	0.712800
C3711	C371	0.704100	0.028100	0.665900
H2611	H261	0.707900	0.043000	0.627700
C3721	C372	0.700800	0.968600	0.675000
H2621	H262	0.702400	0.942800	0.642900
C3731	C373	0.695300	0.946900	0.731000
C3741	C374	0.693000	0.984700	0.777900
C3751	C375	0.696200	0.044200	0.768800
C3761	C376	0.687500	0.961900	0.833400
H2631	H263	0.684600	0.921100	0.838800
C3771	C377	0.686100	0.998700	0.881200
H2641	H264	0.687100	0.983600	0.919500
C3781	C378	0.683200	0.058100	0.871500
H2651	H265	0.674900	0.083500	0.902900
C3791	C379	0.692200	0.081200	0.816300
H2661	H266	0.695600	0.121900	0.811200
C3801	C380	0.699300	0.886200	0.737700
N761	N76	0.700100	0.833900	0.742600
N771	N77	0.363200	0.352600	0.453500
C3811	C381	0.309400	0.350500	0.480700
C3821	C382	0.306000	0.343900	0.540500
H2671	H267	0.269300	0.342500	0.559000
C3831	C383	0.356500	0.339300	0.573200
H2681	H268	0.354200	0.334700	0.614100
C3841	C384	0.410300	0.341400	0.546000
H2691	H269	0.444800	0.338300	0.568300
C3851	C385	0.413600	0.348000	0.486200
H2701	H270	0.450400	0.349500	0.467600
N781	N78	0.216700	0.352700	0.359900
N791	N79	0.271200	0.354800	0.385000
C3861	C386	0.260900	0.347600	0.441400
C3871	C387	0.202200	0.342900	0.453400
H2711	H271	0.184800	0.339500	0.490600
C3881	C388	0.175600	0.344000	0.403400
H2721	H272	0.135000	0.339600	0.397700
C3891	C389	0.210300	0.367700	0.297700
H2731	H273	0.176600	0.346600	0.281600
H2741	H274	0.245300	0.354600	0.276600
C3901	C390	0.201800	0.434100	0.287200
C3911	C391	0.204100	0.471900	0.334100
H2751	H275	0.207900	0.457000	0.372300
C3921	C392	0.200800	0.531400	0.325000
H2761	H276	0.202400	0.557200	0.357100
C3931	C393	0.195300	0.553100	0.269000
C3941	C394	0.193000	0.515300	0.222100
C3951	C395	0.196200	0.455800	0.231200
C3961	C396	0.187500	0.538100	0.166600
H2771	H277	0.184600	0.578900	0.161200
C3971	C397	0.186100	0.501300	0.118800
H2781	H278	0.187100	0.516400	0.080500
C3981	C398	0.183200	0.441900	0.128500
H2791	H279	0.174900	0.416500	0.097100
C3991	C399	0.192200	0.418800	0.183700
H2801	H280	0.195600	0.378100	0.188800
C4001	C400	0.199300	0.613800	0.262300
N801	N80	0.200100	0.666100	0.257400
N811	N81	0.046500	0.636800	0.852600
C4011	C401	0.019300	0.690600	0.850500
C4021	C402	0.959500	0.694000	0.843900
H2811	H281	0.941000	0.730700	0.842500
C4031	C403	0.926800	0.643500	0.839300
H2821	H282	0.885900	0.645800	0.834700
C4041	C404	0.954000	0.589700	0.841400
H2831	H283	0.931700	0.555200	0.838300
C4051	C405	0.013800	0.586400	0.848000
H2841	H284	0.032400	0.549600	0.849500
N821	N82	0.140100	0.783300	0.852700
N831	N83	0.115000	0.728800	0.854800
C4061	C406	0.058600	0.739100	0.847600
C4071	C407	0.046600	0.797800	0.842900
H2851	H285	0.009400	0.815200	0.839500
C4081	C408	0.096600	0.824400	0.844000
H2861	H286	0.102300	0.865000	0.839600
C4091	C409	0.202300	0.789700	0.867700
H2871	H287	0.218400	0.823400	0.846600
H2881	H288	0.223400	0.754700	0.854600
C4101	C410	0.212800	0.798200	0.934100
C4111	C411	0.165900	0.795900	0.971900
H2891	H289	0.127700	0.792100	0.957000
C4121	C412	0.175000	0.799200	0.031400
H2901	H290	0.142900	0.797600	0.057200
C4131	C413	0.231000	0.804700	0.053100
C4141	C414	0.277900	0.807000	0.015300
C4151	C415	0.268800	0.803800	0.955800
C4161	C416	0.333400	0.812500	0.038100
H2911	H291	0.338800	0.815400	0.078900
C4171	C417	0.381200	0.813900	0.001300
H2921	H292	0.419500	0.812900	0.016400
C4181	C418	0.371500	0.816800	0.941900
H2931	H293	0.402900	0.825100	0.916500
C4191	C419	0.316300	0.807800	0.918800
H2941	H294	0.311200	0.804400	0.878100
C4201	C420	0.237700	0.800700	0.113800
N841	N84	0.242600	0.799900	0.166100
N851	N85	0.953500	0.136800	0.647400
C4211	C421	0.980700	0.190600	0.649500
C4221	C422	0.040500	0.194000	0.656100
H2951	H295	0.059000	0.230700	0.657500
C4231	C423	0.073200	0.143500	0.660700
H2961	H296	0.114100	0.145800	0.665300
C4241	C424	0.046000	0.089700	0.658600
H2971	H297	0.068300	0.055200	0.661700
C4251	C425	0.986200	0.086400	0.652000
H2981	H298	0.967600	0.049600	0.650500
N861	N86	0.859900	0.283300	0.647300
N871	N87	0.885000	0.228800	0.645200
C4261	C426	0.941400	0.239100	0.652400
C4271	C427	0.953400	0.297800	0.657100
H2991	H299	0.990600	0.315200	0.660500
C4281	C428	0.903400	0.324400	0.656000
H3001	H300	0.897700	0.365000	0.660400
C4291	C429	0.797700	0.289700	0.632300
H3011	H301	0.781600	0.323400	0.653400
H3021	H302	0.776600	0.254700	0.645400
C4301	C430	0.787200	0.298200	0.565900
C4311	C431	0.834100	0.295900	0.528100
H3031	H303	0.872300	0.292100	0.543000
C4321	C432	0.825000	0.299200	0.468600
H3041	H304	0.857100	0.297600	0.442800
C4331	C433	0.769000	0.304700	0.446900
C4341	C434	0.722100	0.307000	0.484700
C4351	C435	0.731200	0.303800	0.544200
C4361	C436	0.666600	0.312500	0.461900
H3051	H305	0.661200	0.315400	0.421100
C4371	C437	0.618800	0.313900	0.498700
H3061	H306	0.580500	0.312900	0.483600
C4381	C438	0.628500	0.316800	0.558100
H3071	H307	0.597100	0.325100	0.583500
C4391	C439	0.683700	0.307800	0.581200
H3081	H308	0.688800	0.304400	0.621900
C4401	C440	0.762300	0.300700	0.386200
N881	N88	0.757400	0.299900	0.333900
N891	N89	0.546500	0.863200	0.147400
C4411	C441	0.519300	0.809400	0.149500
C4421	C442	0.459500	0.806000	0.156100
H3091	H309	0.441000	0.769300	0.157500
C4431	C443	0.426800	0.856500	0.160700
H3101	H310	0.385900	0.854200	0.165300
C4441	C444	0.454000	0.910300	0.158600
H3111	H311	0.431700	0.944800	0.161700
C4451	C445	0.513800	0.913600	0.152000
H3121	H312	0.532400	0.950400	0.150500
N901	N90	0.640100	0.716700	0.147300
N911	N91	0.615000	0.771200	0.145200
C4461	C446	0.558600	0.760900	0.152400
C4471	C447	0.546600	0.702200	0.157100
H3131	H313	0.509400	0.684800	0.160500
C4481	C448	0.596600	0.675600	0.156000
H3141	H314	0.602300	0.635000	0.160400
C4491	C449	0.702300	0.710300	0.132300
H3151	H315	0.718400	0.676600	0.153400
H3161	H316	0.723400	0.745300	0.145400
C4501	C450	0.712800	0.701800	0.065900
C4511	C451	0.665900	0.704100	0.028100
H3171	H317	0.627700	0.707900	0.043000
C4521	C452	0.675000	0.700800	0.968600
H3181	H318	0.642900	0.702400	0.942800
C4531	C453	0.731000	0.695300	0.946900
C4541	C454	0.777900	0.693000	0.984700
C4551	C455	0.768800	0.696200	0.044200
C4561	C456	0.833400	0.687500	0.961900
H3191	H319	0.838800	0.684600	0.921100
C4571	C457	0.881200	0.686100	0.998700
H3201	H320	0.919500	0.687100	0.983600
C4581	C458	0.871500	0.683200	0.058100
H3211	H321	0.902900	0.674900	0.083500
C4591	C459	0.816300	0.692200	0.081200
H3221	H322	0.811200	0.695600	0.121900
C4601	C460	0.737700	0.699300	0.886200
N921	N92	0.742600	0.700100	0.833900
N931	N93	0.453500	0.363200	0.352600
C4611	C461	0.480700	0.309400	0.350500
C4621	C462	0.540500	0.306000	0.343900
H3231	H323	0.559000	0.269300	0.342500
C4631	C463	0.573200	0.356500	0.339300
H3241	H324	0.614100	0.354200	0.334700
C4641	C464	0.546000	0.410300	0.341400
H3251	H325	0.568300	0.444800	0.338300
C4651	C465	0.486200	0.413600	0.348000
H3261	H326	0.467600	0.450400	0.349500
N941	N94	0.359900	0.216700	0.352700
N951	N95	0.385000	0.271200	0.354800
C4661	C466	0.441400	0.260900	0.347600
C4671	C467	0.453400	0.202200	0.342900
H3271	H327	0.490600	0.184800	0.339500
C4681	C468	0.403400	0.175600	0.344000
H3281	H328	0.397700	0.135000	0.339600
C4691	C469	0.297700	0.210300	0.367700
H3291	H329	0.281600	0.176600	0.346600
H3301	H330	0.276600	0.245300	0.354600
C4701	C470	0.287200	0.201800	0.434100
C4711	C471	0.334100	0.204100	0.471900
H3311	H331	0.372300	0.207900	0.457000
C4721	C472	0.325000	0.200800	0.531400
H3321	H332	0.357100	0.202400	0.557200
C4731	C473	0.269000	0.195300	0.553100
C4741	C474	0.222100	0.193000	0.515300
C4751	C475	0.231200	0.196200	0.455800
C4761	C476	0.166600	0.187500	0.538100
H3331	H333	0.161200	0.184600	0.578900
C4771	C477	0.118800	0.186100	0.501300
H3341	H334	0.080500	0.187100	0.516400
C4781	C478	0.128500	0.183200	0.441900
H3351	H335	0.097100	0.174900	0.416500
C4791	C479	0.183700	0.192200	0.418800
H3361	H336	0.188800	0.195600	0.378100
C4801	C480	0.262300	0.199300	0.613800
N961	N96	0.257400	0.200100	0.666100
Ag51	Ag5	0.240840	0.259160	0.740840
Ag61	Ag6	0.259160	0.740840	0.240840
Ag71	Ag7	0.759160	0.759160	0.759160
Ag81	Ag8	0.740840	0.240840	0.259160
Co51	Co5	0.861610	0.138390	0.638390
Co61	Co6	0.638390	0.861610	0.138390
Co71	Co7	0.138390	0.638390	0.861610
Co81	Co8	0.361610	0.361610	0.361610
