data_DABMUR_clean_PM
_symmetry_space_group_name_H-M	'P1'
_cell_length_a	21.851800
_cell_length_b	14.161000
_cell_length_c	17.918500
_cell_angle_alpha	90.000000
_cell_angle_beta	108.165000
_cell_angle_gamma	90.000000
_symmetry_Int_Tables_number 1

loop_
_symmetry_equiv_pos_as_xyz
'x,y,z'

loop_
_atom_site_label
_atom_site_type_symbol
_atom_site_fract_x
_atom_site_fract_y
_atom_site_fract_z
F11	F1	0.917190	0.457980	0.729940
Cu11	Cu1	0.810630	0.381940	0.476260
Cu21	Cu2	0.751790	0.895460	0.584710
F21	F2	0.024490	0.459210	0.849710
F31	F3	0.934620	0.788070	0.703430
F41	F4	0.041170	0.788800	0.822990
F51	F5	0.594280	0.435800	0.358700
F61	F6	0.581480	0.453100	0.091730
N11	N1	0.313100	0.391700	0.019900
N21	N2	0.743520	0.397500	0.378000
F71	F7	0.468170	0.421500	0.318620
N31	N3	0.144840	0.765900	0.989900
C11	C1	0.494900	0.428900	0.260700
F81	F8	0.455960	0.443800	0.051530
C21	C2	0.003870	0.541700	0.813200
C31	C3	0.347470	0.405900	0.081500
C41	C4	0.861210	0.622500	0.644800
N41	N4	0.788240	0.768400	0.617200
N51	N5	0.718270	0.542700	0.163300
C51	C5	0.100360	0.622600	0.904000
N61	N6	0.176730	0.481800	0.920200
C61	C6	0.920750	0.622600	0.709800
C71	C7	0.124330	0.701700	0.950900
C81	C8	0.955580	0.705200	0.738500
C91	C9	0.141900	0.544500	0.913800
C101	C10	0.664580	0.452300	0.248800
C111	C11	0.039340	0.623900	0.840900
C121	C12	0.706580	0.421300	0.321000
C131	C13	0.554700	0.446300	0.150100
C141	C14	0.560900	0.436200	0.281000
C151	C15	0.455010	0.431000	0.183000
C161	C16	0.011580	0.705300	0.801000
C171	C17	0.488640	0.440800	0.129100
C181	C18	0.948280	0.541400	0.751000
C191	C19	0.844790	0.547700	0.592000
C201	C20	0.820110	0.702000	0.629000
N71	N7	0.831580	0.487100	0.546500
C211	C21	0.693910	0.501000	0.201500
C221	C22	0.385050	0.422000	0.159100
C231	C23	0.594100	0.444700	0.227400
C241	C24	0.350000	0.427500	0.212700
N81	N8	0.317100	0.429600	0.252100
F91	F9	0.082810	0.957980	0.770060
Cu31	Cu3	0.189370	0.881940	0.023740
Cu41	Cu4	0.248210	0.395460	0.915290
F101	F10	0.975510	0.959210	0.650290
F111	F11	0.065380	0.288070	0.796570
F121	F12	0.958830	0.288800	0.677010
F131	F13	0.405720	0.935800	0.141300
F141	F14	0.418520	0.953100	0.408270
N91	N9	0.686900	0.891700	0.480100
N101	N10	0.256480	0.897500	0.122000
F151	F15	0.531830	0.921500	0.181380
N111	N11	0.855160	0.265900	0.510100
C251	C25	0.505100	0.928900	0.239300
F161	F16	0.544040	0.943800	0.448470
C261	C26	0.996130	0.041700	0.686800
C271	C27	0.652530	0.905900	0.418500
C281	C28	0.138790	0.122500	0.855200
N121	N12	0.211760	0.268400	0.882800
N131	N13	0.281730	0.042700	0.336700
C291	C29	0.899640	0.122600	0.596000
N141	N14	0.823270	0.981800	0.579800
C301	C30	0.079250	0.122600	0.790200
C311	C31	0.875670	0.201700	0.549100
C321	C32	0.044420	0.205200	0.761500
C331	C33	0.858100	0.044500	0.586200
C341	C34	0.335420	0.952300	0.251200
C351	C35	0.960660	0.123900	0.659100
C361	C36	0.293420	0.921300	0.179000
C371	C37	0.445300	0.946300	0.349900
C381	C38	0.439100	0.936200	0.219000
C391	C39	0.544990	0.931000	0.317000
C401	C40	0.988420	0.205300	0.699000
C411	C41	0.511360	0.940800	0.370900
C421	C42	0.051720	0.041400	0.749000
C431	C43	0.155210	0.047700	0.908000
C441	C44	0.179890	0.202000	0.871000
N151	N15	0.168420	0.987100	0.953500
C451	C45	0.306090	0.001000	0.298500
C461	C46	0.614950	0.922000	0.340900
C471	C47	0.405900	0.944700	0.272600
C481	C48	0.650000	0.927500	0.287300
N161	N16	0.682900	0.929600	0.247900
F171	F17	0.082810	0.542020	0.270060
Cu51	Cu5	0.189370	0.618060	0.523740
Cu61	Cu6	0.248210	0.104540	0.415290
F181	F18	0.975510	0.540790	0.150290
F191	F19	0.065380	0.211930	0.296570
F201	F20	0.958830	0.211200	0.177010
F211	F21	0.405720	0.564200	0.641300
F221	F22	0.418520	0.546900	0.908270
N171	N17	0.686900	0.608300	0.980100
N181	N18	0.256480	0.602500	0.622000
F231	F23	0.531830	0.578500	0.681380
N191	N19	0.855160	0.234100	0.010100
C491	C49	0.505100	0.571100	0.739300
F241	F24	0.544040	0.556200	0.948470
C501	C50	0.996130	0.458300	0.186800
C511	C51	0.652530	0.594100	0.918500
C521	C52	0.138790	0.377500	0.355200
N201	N20	0.211760	0.231600	0.382800
N211	N21	0.281730	0.457300	0.836700
C531	C53	0.899640	0.377400	0.096000
N221	N22	0.823270	0.518200	0.079800
C541	C54	0.079250	0.377400	0.290200
C551	C55	0.875670	0.298300	0.049100
C561	C56	0.044420	0.294800	0.261500
C571	C57	0.858100	0.455500	0.086200
C581	C58	0.335420	0.547700	0.751200
C591	C59	0.960660	0.376100	0.159100
C601	C60	0.293420	0.578700	0.679000
C611	C61	0.445300	0.553700	0.849900
C621	C62	0.439100	0.563800	0.719000
C631	C63	0.544990	0.569000	0.817000
C641	C64	0.988420	0.294700	0.199000
C651	C65	0.511360	0.559200	0.870900
C661	C66	0.051720	0.458600	0.249000
C671	C67	0.155210	0.452300	0.408000
C681	C68	0.179890	0.298000	0.371000
N231	N23	0.168420	0.512900	0.453500
C691	C69	0.306090	0.499000	0.798500
C701	C70	0.614950	0.578000	0.840900
C711	C71	0.405900	0.555300	0.772600
C721	C72	0.650000	0.572500	0.787300
N241	N24	0.682900	0.570400	0.747900
F251	F25	0.917190	0.042020	0.229940
Cu71	Cu7	0.810630	0.118060	0.976260
Cu81	Cu8	0.751790	0.604540	0.084710
F261	F26	0.024490	0.040790	0.349710
F271	F27	0.934620	0.711930	0.203430
F281	F28	0.041170	0.711200	0.322990
F291	F29	0.594280	0.064200	0.858700
F301	F30	0.581480	0.046900	0.591730
N251	N25	0.313100	0.108300	0.519900
N261	N26	0.743520	0.102500	0.878000
F311	F31	0.468170	0.078500	0.818620
N271	N27	0.144840	0.734100	0.489900
C731	C73	0.494900	0.071100	0.760700
F321	F32	0.455960	0.056200	0.551530
C741	C74	0.003870	0.958300	0.313200
C751	C75	0.347470	0.094100	0.581500
C761	C76	0.861210	0.877500	0.144800
N281	N28	0.788240	0.731600	0.117200
N291	N29	0.718270	0.957300	0.663300
C771	C77	0.100360	0.877400	0.404000
N301	N30	0.176730	0.018200	0.420200
C781	C78	0.920750	0.877400	0.209800
C791	C79	0.124330	0.798300	0.450900
C801	C80	0.955580	0.794800	0.238500
C811	C81	0.141900	0.955500	0.413800
C821	C82	0.664580	0.047700	0.748800
C831	C83	0.039340	0.876100	0.340900
C841	C84	0.706580	0.078700	0.821000
C851	C85	0.554700	0.053700	0.650100
C861	C86	0.560900	0.063800	0.781000
C871	C87	0.455010	0.069000	0.683000
C881	C88	0.011580	0.794700	0.301000
C891	C89	0.488640	0.059200	0.629100
C901	C90	0.948280	0.958600	0.251000
C911	C91	0.844790	0.952300	0.092000
C921	C92	0.820110	0.798000	0.129000
N311	N31	0.831580	0.012900	0.046500
C931	C93	0.693910	0.999000	0.701500
C941	C94	0.385050	0.078000	0.659100
C951	C95	0.594100	0.055300	0.727400
C961	C96	0.350000	0.072500	0.712700
N321	N32	0.317100	0.070400	0.752100
