data_DADLIG_clean_PM
_symmetry_space_group_name_H-M	'P1'
_cell_length_a	13.020300
_cell_length_b	19.776000
_cell_length_c	20.827400
_cell_angle_alpha	61.932000
_cell_angle_beta	73.268000
_cell_angle_gamma	80.162000
_symmetry_Int_Tables_number 1

loop_
_symmetry_equiv_pos_as_xyz
'x,y,z'

loop_
_atom_site_label
_atom_site_type_symbol
_atom_site_fract_x
_atom_site_fract_y
_atom_site_fract_z
Mn11	Mn1	0.915450	0.797650	0.099580
Mn21	Mn2	0.706610	0.701940	0.096200
O11	O1	0.873500	0.921840	0.024330
O21	O2	0.941900	0.675800	0.157280
O31	O3	0.121200	0.925790	0.964780
O41	O4	0.070000	0.805420	0.031620
O51	O5	0.845200	0.771330	0.016390
O61	O6	0.020000	0.944800	0.110120
O71	O7	0.797700	0.620150	0.169000
O81	O8	0.957500	0.827300	0.172480
O91	O9	0.757300	0.788000	0.161500
O101	O10	0.834500	0.682300	0.983870
O111	O11	0.230200	0.548600	0.365600
H11	H1	0.295700	0.542400	0.356200
O121	O12	0.253700	0.544800	0.468900
O131	O13	0.605800	0.764500	0.153600
C11	C1	0.122700	0.858600	0.974400
C21	C2	0.604400	0.849700	0.205400
C31	C3	0.188800	0.838300	0.913600
C41	C4	0.085900	0.319100	0.334200
C51	C5	0.034700	0.395800	0.296300
C61	C6	0.361600	0.769800	0.489300
C71	C7	0.180100	0.767800	0.918100
H21	H2	0.142900	0.729900	0.962600
C81	C8	0.080100	0.946700	0.662200
C91	C9	0.183800	0.173000	0.405000
C101	C10	0.325000	0.791900	0.724700
C111	C11	0.937700	0.541000	0.222300
C121	C12	0.295300	0.876800	0.788000
H31	H3	0.335500	0.913800	0.744500
C131	C13	0.541400	0.723200	0.515800
C141	C14	0.461100	0.803700	0.613900
H41	H4	0.527400	0.821300	0.581800
C151	C15	0.866300	0.635400	0.470100
C161	C16	0.889300	0.618900	0.179600
C171	C17	0.960300	0.865000	0.871100
H51	H5	0.951600	0.880100	0.908500
C181	C18	0.283300	0.807200	0.790900
C191	C19	0.214900	0.809500	0.399400
C201	C20	0.922200	0.796300	0.888800
C211	C21	0.399400	0.764500	0.599200
C221	C22	0.266000	0.753100	0.708200
H61	H6	0.199600	0.735400	0.740100
C231	C23	0.248800	0.892600	0.848600
H71	H7	0.258000	0.939800	0.845400
C241	C24	0.002800	0.881400	0.166300
C251	C25	0.079300	0.580800	0.443300
C261	C26	0.934600	0.776600	0.831200
H81	H8	0.909200	0.730500	0.841500
C271	C27	0.225400	0.752800	0.858000
H91	H9	0.217400	0.705000	0.862100
C281	C28	0.146800	0.832600	0.345400
C291	C29	0.024400	0.894600	0.740100
C301	C30	0.423900	0.816700	0.676200
H101	H10	0.466000	0.842600	0.686000
C311	C31	0.753600	0.666200	0.484600
C321	C32	0.184500	0.047700	0.514900
C331	C33	0.194600	0.303900	0.310400
H111	H11	0.236300	0.342800	0.270200
C341	C34	0.788100	0.947300	0.002600
C351	C35	0.017200	0.595400	0.394200
H121	H12	0.046400	0.587800	0.351600
C361	C36	0.035600	0.593100	0.505600
H131	H13	0.076900	0.583500	0.539000
C371	C37	0.659000	0.879000	0.233000
H141	H14	0.732100	0.867400	0.229200
C381	C38	0.034600	0.533600	0.239500
H151	H15	0.068400	0.577500	0.226800
C391	C39	0.196500	0.555600	0.428300
C401	C40	0.607700	0.925600	0.266500
H161	H16	0.646800	0.943600	0.285900
C411	C41	0.242500	0.232000	0.345200
H171	H17	0.315400	0.223600	0.327800
C421	C42	0.864900	0.746000	0.968000
C431	C43	0.083200	0.462700	0.275200
H181	H18	0.149300	0.459800	0.285300
C441	C44	0.457700	0.984600	0.375600
H191	H19	0.515900	0.953700	0.392500
C451	C45	0.911200	0.621600	0.408200
H201	H20	0.869400	0.630100	0.375400
C461	C46	0.658100	0.797700	0.170600
C471	C47	0.305900	0.067100	0.393800
C481	C48	0.046000	0.867900	0.230900
C491	C49	0.588400	0.670400	0.572900
H211	H21	0.549100	0.652700	0.622400
C501	C50	0.142800	0.981900	0.530100
H221	H22	0.147800	0.970000	0.491000
C511	C51	0.500600	0.946000	0.271900
C521	C52	0.011600	0.912000	0.798400
H231	H23	0.038600	0.957400	0.788600
C531	C53	0.705300	0.718600	0.427900
H241	H24	0.743900	0.735000	0.378300
C541	C54	0.392800	0.021300	0.416700
H251	H25	0.408500	0.014800	0.460100
C551	C55	0.297400	0.836400	0.473200
H261	H26	0.302600	0.868900	0.492900
C561	C56	0.693100	0.643500	0.557300
H271	H27	0.723700	0.609200	0.596700
C571	C57	0.111200	0.919700	0.224900
H281	H28	0.122800	0.966300	0.182100
C581	C58	0.301900	0.740000	0.647000
H291	H29	0.259500	0.714000	0.637500
C591	C59	0.226100	0.855900	0.429100
H301	H30	0.184700	0.901300	0.419300
C601	C60	0.076300	0.187600	0.430200
H311	H31	0.035500	0.148900	0.471600
C611	C61	0.438700	0.992500	0.310700
C621	C62	0.092800	0.931900	0.602600
H321	H32	0.067200	0.886800	0.610800
C631	C63	0.028000	0.259500	0.394500
H331	H33	0.954900	0.267600	0.411800
C641	C64	0.984700	0.825300	0.758200
H341	H34	0.991800	0.811100	0.720400
C651	C65	0.600900	0.747300	0.442800
H351	H35	0.571000	0.782900	0.403500
C661	C66	0.159100	0.902700	0.281900
H361	H36	0.200700	0.939000	0.277800
C671	C67	0.286900	0.078000	0.327700
H371	H37	0.229500	0.109900	0.310600
C681	C68	0.936100	0.403800	0.280800
H381	H38	0.900600	0.360000	0.295300
C691	C69	0.353400	0.041500	0.286100
H391	H39	0.340200	0.050300	0.241200
C701	C70	0.274800	0.742200	0.417400
H401	H40	0.265800	0.709000	0.399500
C711	C71	0.888300	0.475000	0.244300
H411	H41	0.821800	0.478100	0.234600
C721	C72	0.931500	0.619500	0.518300
H421	H42	0.903100	0.627100	0.560900
C731	C73	0.023400	0.804600	0.297200
H431	H43	0.972500	0.772200	0.304800
C741	C74	0.072900	0.786200	0.354100
H441	H44	0.055500	0.741800	0.398700
C751	C75	0.349100	0.720500	0.461500
H451	H45	0.389100	0.674500	0.472100
C761	C76	0.498000	0.868100	0.210700
H461	H46	0.458700	0.848300	0.193000
C771	C77	0.447400	0.917300	0.243100
H471	H47	0.375000	0.930700	0.245000
C781	C78	0.644800	0.027400	0.967400
H481	H48	0.660400	0.069700	0.917500
H491	H49	0.578900	0.039600	0.997000
C791	C79	0.122700	0.014100	0.645200
H501	H50	0.116200	0.027000	0.683700
C801	C80	0.637900	0.952500	0.964800
H511	H51	0.579600	0.922400	0.004300
H521	H52	0.628400	0.961900	0.916700
C811	C81	0.175000	0.063300	0.573100
H531	H53	0.203700	0.107500	0.564700
N11	N1	0.732400	0.010000	0.002500
H541	H54	0.746800	0.036900	0.021100
N21	N2	0.739200	0.915900	0.976100
H551	H55	0.765900	0.877700	0.966700
N31	N3	0.234700	0.099700	0.439900
N41	N4	0.435900	0.751800	0.534100
Mn31	Mn3	0.084550	0.202350	0.900420
Mn41	Mn4	0.293390	0.298060	0.903800
O141	O14	0.126500	0.078160	0.975670
O151	O15	0.058100	0.324200	0.842720
O161	O16	0.878800	0.074210	0.035220
O171	O17	0.930000	0.194580	0.968380
O181	O18	0.154800	0.228670	0.983610
O191	O19	0.980000	0.055200	0.889880
O201	O20	0.202300	0.379850	0.831000
O211	O21	0.042500	0.172700	0.827520
O221	O22	0.242700	0.212000	0.838500
O231	O23	0.165500	0.317700	0.016130
O241	O24	0.769800	0.451400	0.634400
H561	H56	0.704300	0.457600	0.643800
O251	O25	0.746300	0.455200	0.531100
O261	O26	0.394200	0.235500	0.846400
C821	C82	0.877300	0.141400	0.025600
C831	C83	0.395600	0.150300	0.794600
C841	C84	0.811200	0.161700	0.086400
C851	C85	0.914100	0.680900	0.665800
C861	C86	0.965300	0.604200	0.703700
C871	C87	0.638400	0.230200	0.510700
C881	C88	0.819900	0.232200	0.081900
H571	H57	0.857100	0.270100	0.037400
C891	C89	0.919900	0.053300	0.337800
C901	C90	0.816200	0.827000	0.595000
C911	C91	0.675000	0.208100	0.275300
C921	C92	0.062300	0.459000	0.777700
C931	C93	0.704700	0.123200	0.212000
H581	H58	0.664500	0.086200	0.255500
C941	C94	0.458600	0.276800	0.484200
C951	C95	0.538900	0.196300	0.386100
H591	H59	0.472600	0.178700	0.418200
C961	C96	0.133700	0.364600	0.529900
C971	C97	0.110700	0.381100	0.820400
C981	C98	0.039700	0.135000	0.128900
H601	H60	0.048400	0.119900	0.091500
C991	C99	0.716700	0.192800	0.209100
C1001	C100	0.785100	0.190500	0.600600
C1011	C101	0.077800	0.203700	0.111200
C1021	C102	0.600600	0.235500	0.400800
C1031	C103	0.734000	0.246900	0.291800
H611	H61	0.800400	0.264600	0.259900
C1041	C104	0.751200	0.107400	0.151400
H621	H62	0.742000	0.060200	0.154600
C1051	C105	0.997200	0.118600	0.833700
C1061	C106	0.920700	0.419200	0.556700
C1071	C107	0.065400	0.223400	0.168800
H631	H63	0.090800	0.269500	0.158500
C1081	C108	0.774600	0.247200	0.142000
H641	H64	0.782600	0.295000	0.137900
C1091	C109	0.853200	0.167400	0.654600
C1101	C110	0.975600	0.105400	0.259900
C1111	C111	0.576100	0.183300	0.323800
H651	H65	0.534000	0.157400	0.314000
C1121	C112	0.246400	0.333800	0.515400
C1131	C113	0.815500	0.952300	0.485100
C1141	C114	0.805400	0.696100	0.689600
H661	H66	0.763700	0.657200	0.729800
C1151	C115	0.211900	0.052700	0.997400
C1161	C116	0.982800	0.404600	0.605800
H671	H67	0.953600	0.412200	0.648400
C1171	C117	0.964400	0.406900	0.494400
H681	H68	0.923100	0.416500	0.461000
C1181	C118	0.341000	0.121000	0.767000
H691	H69	0.267900	0.132600	0.770800
C1191	C119	0.965400	0.466400	0.760500
H701	H70	0.931600	0.422500	0.773200
C1201	C120	0.803500	0.444400	0.571700
C1211	C121	0.392300	0.074400	0.733500
H711	H71	0.353200	0.056400	0.714100
C1221	C122	0.757500	0.768000	0.654800
H721	H72	0.684600	0.776400	0.672200
C1231	C123	0.135100	0.254000	0.032000
C1241	C124	0.916800	0.537300	0.724800
H731	H73	0.850700	0.540200	0.714700
C1251	C125	0.542300	0.015400	0.624400
H741	H74	0.484100	0.046300	0.607500
C1261	C126	0.088800	0.378400	0.591800
H751	H75	0.130600	0.369900	0.624600
C1271	C127	0.341900	0.202300	0.829400
C1281	C128	0.694100	0.932900	0.606200
C1291	C129	0.954000	0.132100	0.769100
C1301	C130	0.411600	0.329600	0.427100
H761	H76	0.450900	0.347300	0.377600
C1311	C131	0.857200	0.018100	0.469900
H771	H77	0.852200	0.030000	0.509000
C1321	C132	0.499400	0.054000	0.728100
C1331	C133	0.988400	0.088000	0.201600
H781	H78	0.961400	0.042600	0.211400
C1341	C134	0.294700	0.281400	0.572100
H791	H79	0.256100	0.265000	0.621700
C1351	C135	0.607200	0.978700	0.583300
H801	H80	0.591500	0.985200	0.539900
C1361	C136	0.702600	0.163600	0.526800
H811	H81	0.697400	0.131100	0.507100
C1371	C137	0.306900	0.356500	0.442700
H821	H82	0.276300	0.390800	0.403300
C1381	C138	0.888800	0.080300	0.775100
H831	H83	0.877200	0.033700	0.817900
C1391	C139	0.698100	0.260000	0.353000
H841	H84	0.740500	0.286000	0.362500
C1401	C140	0.773900	0.144100	0.570900
H851	H85	0.815300	0.098700	0.580700
C1411	C141	0.923700	0.812400	0.569800
H861	H86	0.964500	0.851100	0.528400
C1421	C142	0.561300	0.007500	0.689300
C1431	C143	0.907200	0.068100	0.397400
H871	H87	0.932800	0.113200	0.389200
C1441	C144	0.972000	0.740500	0.605500
H881	H88	0.045100	0.732400	0.588200
C1451	C145	0.015300	0.174700	0.241800
H891	H89	0.008200	0.188900	0.279600
C1461	C146	0.399100	0.252700	0.557200
H901	H90	0.429000	0.217100	0.596500
C1471	C147	0.840900	0.097300	0.718100
H911	H91	0.799300	0.061000	0.722200
C1481	C148	0.713100	0.922000	0.672300
H921	H92	0.770500	0.890100	0.689400
C1491	C149	0.063900	0.596200	0.719200
H931	H93	0.099400	0.640000	0.704700
C1501	C150	0.646600	0.958500	0.713900
H941	H94	0.659800	0.949700	0.758800
C1511	C151	0.725200	0.257800	0.582600
H951	H95	0.734200	0.291000	0.600500
C1521	C152	0.111700	0.525000	0.755700
H961	H96	0.178200	0.521900	0.765400
C1531	C153	0.068500	0.380500	0.481700
H971	H97	0.096900	0.372900	0.439100
C1541	C154	0.976600	0.195400	0.702800
H981	H98	0.027500	0.227800	0.695200
C1551	C155	0.927100	0.213800	0.645900
H991	H99	0.944500	0.258200	0.601300
C1561	C156	0.650900	0.279500	0.538500
H1001	H100	0.610900	0.325500	0.527900
C1571	C157	0.502000	0.131900	0.789300
H1011	H101	0.541300	0.151700	0.807000
C1581	C158	0.552600	0.082700	0.756900
H1021	H102	0.625000	0.069300	0.755000
C1591	C159	0.355200	0.972600	0.032600
H1031	H103	0.339600	0.930300	0.082500
H1041	H104	0.421100	0.960400	0.003000
C1601	C160	0.877300	0.985900	0.354800
H1051	H105	0.883800	0.973000	0.316300
C1611	C161	0.362100	0.047500	0.035200
H1061	H106	0.420400	0.077600	0.995700
H1071	H107	0.371600	0.038100	0.083300
C1621	C162	0.825000	0.936700	0.426900
H1081	H108	0.796300	0.892500	0.435300
N51	N5	0.267600	0.990000	0.997500
H1091	H109	0.253200	0.963100	0.978900
N61	N6	0.260800	0.084100	0.023900
H1101	H110	0.234100	0.122300	0.033300
N71	N7	0.765300	0.900300	0.560100
N81	N8	0.564100	0.248200	0.465900
Mn51	Mn5	0.000000	0.000000	0.000000
