data_DADNOO_clean_PM
_symmetry_space_group_name_H-M	'P1'
_cell_length_a	15.576000
_cell_length_b	16.427000
_cell_length_c	12.477000
_cell_angle_alpha	90.000000
_cell_angle_beta	92.314000
_cell_angle_gamma	90.000000
_symmetry_Int_Tables_number 1

loop_
_symmetry_equiv_pos_as_xyz
'x,y,z'

loop_
_atom_site_label
_atom_site_type_symbol
_atom_site_fract_x
_atom_site_fract_y
_atom_site_fract_z
Dy11	Dy1	0.119730	0.187110	0.907300
S11	S1	0.104890	0.219410	0.663560
S21	S2	0.188760	0.351270	0.072900
O11	O1	0.056800	0.062500	0.899300
O21	O2	0.101100	0.141000	0.723600
O31	O3	0.083700	0.145100	0.072800
O41	O4	0.021600	0.233700	0.607500
O51	O5	0.135800	0.311100	0.990200
O61	O6	0.120700	0.281900	0.748200
O71	O7	0.072800	0.042300	0.182800
O81	O8	0.173500	0.217700	0.589300
O91	O9	0.260100	0.393700	0.027400
C11	C1	0.065000	0.073100	0.092300
O101	O10	0.134800	0.400200	0.135000
O111	O11	0.234100	0.291300	0.139400
C21	C2	0.041600	0.019200	0.997800
H11	H1	0.083500	0.974700	0.000900
Dy21	Dy2	0.619730	0.687110	0.907300
S31	S3	0.604890	0.719410	0.663560
S41	S4	0.688760	0.851270	0.072900
O121	O12	0.556800	0.562500	0.899300
O131	O13	0.601100	0.641000	0.723600
O141	O14	0.583700	0.645100	0.072800
O151	O15	0.521600	0.733700	0.607500
O161	O16	0.635800	0.811100	0.990200
O171	O17	0.620700	0.781900	0.748200
O181	O18	0.572800	0.542300	0.182800
O191	O19	0.673500	0.717700	0.589300
O201	O20	0.760100	0.893700	0.027400
C31	C3	0.565000	0.573100	0.092300
O211	O21	0.634800	0.900200	0.135000
O221	O22	0.734100	0.791300	0.139400
C41	C4	0.541600	0.519200	0.997800
H21	H2	0.583500	0.474700	0.000900
Dy31	Dy3	0.880270	0.187110	0.592700
S51	S5	0.895110	0.219410	0.836440
S61	S6	0.811240	0.351270	0.427100
O231	O23	0.943200	0.062500	0.600700
O241	O24	0.898900	0.141000	0.776400
O251	O25	0.916300	0.145100	0.427200
O261	O26	0.978400	0.233700	0.892500
O271	O27	0.864200	0.311100	0.509800
O281	O28	0.879300	0.281900	0.751800
O291	O29	0.927200	0.042300	0.317200
O301	O30	0.826500	0.217700	0.910700
O311	O31	0.739900	0.393700	0.472600
C51	C5	0.935000	0.073100	0.407700
O321	O32	0.865200	0.400200	0.365000
O331	O33	0.765900	0.291300	0.360600
C61	C6	0.958400	0.019200	0.502200
H31	H3	0.916500	0.974700	0.499100
Dy41	Dy4	0.380270	0.687110	0.592700
S71	S7	0.395110	0.719410	0.836440
S81	S8	0.311240	0.851270	0.427100
O341	O34	0.443200	0.562500	0.600700
O351	O35	0.398900	0.641000	0.776400
O361	O36	0.416300	0.645100	0.427200
O371	O37	0.478400	0.733700	0.892500
O381	O38	0.364200	0.811100	0.509800
O391	O39	0.379300	0.781900	0.751800
O401	O40	0.427200	0.542300	0.317200
O411	O41	0.326500	0.717700	0.910700
O421	O42	0.239900	0.893700	0.472600
C71	C7	0.435000	0.573100	0.407700
O431	O43	0.365200	0.900200	0.365000
O441	O44	0.265900	0.791300	0.360600
C81	C8	0.458400	0.519200	0.502200
H41	H4	0.416500	0.474700	0.499100
Dy51	Dy5	0.880270	0.812890	0.092700
S91	S9	0.895110	0.780590	0.336440
S101	S10	0.811240	0.648730	0.927100
O451	O45	0.943200	0.937500	0.100700
O461	O46	0.898900	0.859000	0.276400
O471	O47	0.916300	0.854900	0.927200
O481	O48	0.978400	0.766300	0.392500
O491	O49	0.864200	0.688900	0.009800
O501	O50	0.879300	0.718100	0.251800
O511	O51	0.927200	0.957700	0.817200
O521	O52	0.826500	0.782300	0.410700
O531	O53	0.739900	0.606300	0.972600
C91	C9	0.935000	0.926900	0.907700
O541	O54	0.865200	0.599800	0.865000
O551	O55	0.765900	0.708700	0.860600
C101	C10	0.958400	0.980800	0.002200
H51	H5	0.916500	0.025300	0.999100
Dy61	Dy6	0.380270	0.312890	0.092700
S111	S11	0.395110	0.280590	0.336440
S121	S12	0.311240	0.148730	0.927100
O561	O56	0.443200	0.437500	0.100700
O571	O57	0.398900	0.359000	0.276400
O581	O58	0.416300	0.354900	0.927200
O591	O59	0.478400	0.266300	0.392500
O601	O60	0.364200	0.188900	0.009800
O611	O61	0.379300	0.218100	0.251800
O621	O62	0.427200	0.457700	0.817200
O631	O63	0.326500	0.282300	0.410700
O641	O64	0.239900	0.106300	0.972600
C111	C11	0.435000	0.426900	0.907700
O651	O65	0.365200	0.099800	0.865000
O661	O66	0.265900	0.208700	0.860600
C121	C12	0.458400	0.480800	0.002200
H61	H6	0.416500	0.525300	0.999100
Dy71	Dy7	0.119730	0.812890	0.407300
S131	S13	0.104890	0.780590	0.163560
S141	S14	0.188760	0.648730	0.572900
O671	O67	0.056800	0.937500	0.399300
O681	O68	0.101100	0.859000	0.223600
O691	O69	0.083700	0.854900	0.572800
O701	O70	0.021600	0.766300	0.107500
O711	O71	0.135800	0.688900	0.490200
O721	O72	0.120700	0.718100	0.248200
O731	O73	0.072800	0.957700	0.682800
O741	O74	0.173500	0.782300	0.089300
O751	O75	0.260100	0.606300	0.527400
C131	C13	0.065000	0.926900	0.592300
O761	O76	0.134800	0.599800	0.635000
O771	O77	0.234100	0.708700	0.639400
C141	C14	0.041600	0.980800	0.497800
H71	H7	0.083500	0.025300	0.500900
Dy81	Dy8	0.619730	0.312890	0.407300
S151	S15	0.604890	0.280590	0.163560
S161	S16	0.688760	0.148730	0.572900
O781	O78	0.556800	0.437500	0.399300
O791	O79	0.601100	0.359000	0.223600
O801	O80	0.583700	0.354900	0.572800
O811	O81	0.521600	0.266300	0.107500
O821	O82	0.635800	0.188900	0.490200
O831	O83	0.620700	0.218100	0.248200
O841	O84	0.572800	0.457700	0.682800
O851	O85	0.673500	0.282300	0.089300
O861	O86	0.760100	0.106300	0.527400
C151	C15	0.565000	0.426900	0.592300
O871	O87	0.634800	0.099800	0.635000
O881	O88	0.734100	0.208700	0.639400
C161	C16	0.541600	0.480800	0.497800
H81	H8	0.583500	0.525300	0.500900
Fe11	Fe1	0.000000	0.048310	0.750000
Fe21	Fe2	0.500000	0.548310	0.750000
Fe31	Fe3	0.000000	0.951690	0.250000
Fe41	Fe4	0.500000	0.451690	0.250000
