data_DAFYOB_clean_PM
_symmetry_space_group_name_H-M	'P1'
_cell_length_a	16.212200
_cell_length_b	16.212200
_cell_length_c	16.064200
_cell_angle_alpha	90.000000
_cell_angle_beta	90.000000
_cell_angle_gamma	120.000000
_symmetry_Int_Tables_number 1

loop_
_symmetry_equiv_pos_as_xyz
'x,y,z'

loop_
_atom_site_label
_atom_site_type_symbol
_atom_site_fract_x
_atom_site_fract_y
_atom_site_fract_z
C11	C1	0.033640	0.443070	0.031880
O11	O1	0.169310	0.653410	0.158270
O21	O2	0.063300	0.383400	0.058300
H11	H1	0.106800	0.413100	0.096400
C21	C2	0.556930	0.590570	0.031880
O31	O3	0.346590	0.515900	0.158270
O41	O4	0.616600	0.679900	0.058300
H21	H2	0.586900	0.693700	0.096400
C31	C3	0.409430	0.966360	0.031880
O51	O5	0.484100	0.830690	0.158270
O61	O6	0.320100	0.936700	0.058300
H31	H3	0.306300	0.893200	0.096400
C41	C4	0.966360	0.556930	0.531880
O71	O7	0.830690	0.346590	0.658270
O81	O8	0.936700	0.616600	0.558300
H41	H4	0.893200	0.586900	0.596400
C51	C5	0.443070	0.409430	0.531880
O91	O9	0.653410	0.484100	0.658270
O101	O10	0.383400	0.320100	0.558300
H51	H5	0.413100	0.306300	0.596400
C61	C6	0.590570	0.033640	0.531880
O111	O11	0.515900	0.169310	0.658270
O121	O12	0.679900	0.063300	0.558300
H61	H6	0.693700	0.106800	0.596400
C71	C7	0.443070	0.033640	0.968120
O131	O13	0.653410	0.169310	0.841730
O141	O14	0.383400	0.063300	0.941700
H71	H7	0.413100	0.106800	0.903600
C81	C8	0.590570	0.556930	0.968120
O151	O15	0.515900	0.346590	0.841730
O161	O16	0.679900	0.616600	0.941700
H81	H8	0.693700	0.586900	0.903600
C91	C9	0.966360	0.409430	0.968120
O171	O17	0.830690	0.484100	0.841730
O181	O18	0.936700	0.320100	0.941700
H91	H9	0.893200	0.306300	0.903600
C101	C10	0.556930	0.966360	0.468120
O191	O19	0.346590	0.830690	0.341730
O201	O20	0.616600	0.936700	0.441700
H101	H10	0.586900	0.893200	0.403600
C111	C11	0.409430	0.443070	0.468120
O211	O21	0.484100	0.653410	0.341730
O221	O22	0.320100	0.383400	0.441700
H111	H11	0.306300	0.413100	0.403600
C121	C12	0.033640	0.590570	0.468120
O231	O23	0.169310	0.515900	0.341730
O241	O24	0.063300	0.679900	0.441700
H121	H12	0.106800	0.693700	0.403600
C131	C13	0.966360	0.556930	0.968120
O251	O25	0.830690	0.346590	0.841730
O261	O26	0.936700	0.616600	0.941700
H131	H13	0.893200	0.586900	0.903600
C141	C14	0.443070	0.409430	0.968120
O271	O27	0.653410	0.484100	0.841730
O281	O28	0.383400	0.320100	0.941700
H141	H14	0.413100	0.306300	0.903600
C151	C15	0.590570	0.033640	0.968120
O291	O29	0.515900	0.169310	0.841730
O301	O30	0.679900	0.063300	0.941700
H151	H15	0.693700	0.106800	0.903600
C161	C16	0.033640	0.443070	0.468120
O311	O31	0.169310	0.653410	0.341730
O321	O32	0.063300	0.383400	0.441700
H161	H16	0.106800	0.413100	0.403600
C171	C17	0.556930	0.590570	0.468120
O331	O33	0.346590	0.515900	0.341730
O341	O34	0.616600	0.679900	0.441700
H171	H17	0.586900	0.693700	0.403600
C181	C18	0.409430	0.966360	0.468120
O351	O35	0.484100	0.830690	0.341730
O361	O36	0.320100	0.936700	0.441700
H181	H18	0.306300	0.893200	0.403600
C191	C19	0.556930	0.966360	0.031880
O371	O37	0.346590	0.830690	0.158270
O381	O38	0.616600	0.936700	0.058300
H191	H19	0.586900	0.893200	0.096400
C201	C20	0.409430	0.443070	0.031880
O391	O39	0.484100	0.653410	0.158270
O401	O40	0.320100	0.383400	0.058300
H201	H20	0.306300	0.413100	0.096400
C211	C21	0.033640	0.590570	0.031880
O411	O41	0.169310	0.515900	0.158270
O421	O42	0.063300	0.679900	0.058300
H211	H21	0.106800	0.693700	0.096400
C221	C22	0.443070	0.033640	0.531880
O431	O43	0.653410	0.169310	0.658270
O441	O44	0.383400	0.063300	0.558300
H221	H22	0.413100	0.106800	0.596400
C231	C23	0.590570	0.556930	0.531880
O451	O45	0.515900	0.346590	0.658270
O461	O46	0.679900	0.616600	0.558300
H231	H23	0.693700	0.586900	0.596400
C241	C24	0.966360	0.409430	0.531880
O471	O47	0.830690	0.484100	0.658270
O481	O48	0.936700	0.320100	0.558300
H241	H24	0.893200	0.306300	0.596400
Mg11	Mg1	0.261810	0.738190	0.250000
Mg21	Mg2	0.261810	0.523620	0.250000
Mg31	Mg3	0.476380	0.738190	0.250000
Mg41	Mg4	0.738190	0.261810	0.750000
Mg51	Mg5	0.738190	0.476380	0.750000
Mg61	Mg6	0.523620	0.261810	0.750000
C251	C25	0.068800	0.534400	0.063740
C261	C26	0.142000	0.571000	0.131330
C271	C27	0.465600	0.534400	0.063740
C281	C28	0.429000	0.571000	0.131330
C291	C29	0.465600	0.931200	0.063740
C301	C30	0.429000	0.858000	0.131330
C311	C31	0.931200	0.465600	0.563740
C321	C32	0.858000	0.429000	0.631330
C331	C33	0.534400	0.465600	0.563740
C341	C34	0.571000	0.429000	0.631330
C351	C35	0.534400	0.068800	0.563740
C361	C36	0.571000	0.142000	0.631330
C371	C37	0.534400	0.068800	0.936260
C381	C38	0.571000	0.142000	0.868670
C391	C39	0.534400	0.465600	0.936260
C401	C40	0.571000	0.429000	0.868670
C411	C41	0.931200	0.465600	0.936260
C421	C42	0.858000	0.429000	0.868670
C431	C43	0.465600	0.931200	0.436260
C441	C44	0.429000	0.858000	0.368670
C451	C45	0.465600	0.534400	0.436260
C461	C46	0.429000	0.571000	0.368670
C471	C47	0.068800	0.534400	0.436260
C481	C48	0.142000	0.571000	0.368670
O491	O49	0.333330	0.666670	0.250000
O501	O50	0.666670	0.333330	0.750000
