data_DAHNOQ_clean_PM
_symmetry_space_group_name_H-M	'P1'
_cell_length_a	14.184000
_cell_length_b	11.515000
_cell_length_c	15.619000
_cell_angle_alpha	90.000000
_cell_angle_beta	106.633000
_cell_angle_gamma	90.000000
_symmetry_Int_Tables_number 1

loop_
_symmetry_equiv_pos_as_xyz
'x,y,z'

loop_
_atom_site_label
_atom_site_type_symbol
_atom_site_fract_x
_atom_site_fract_y
_atom_site_fract_z
Nd11	Nd1	0.324550	0.357170	0.339830
O11	O1	0.195150	0.239820	0.236000
O21	O2	0.142890	0.066770	0.176520
O31	O3	0.321720	0.977950	0.245620
O41	O4	0.376530	0.150730	0.306940
O51	O5	0.356740	0.220680	0.468630
O61	O6	0.305420	0.146090	0.580190
O71	O7	0.503470	0.364810	0.363260
O81	O8	0.627570	0.365990	0.300230
C11	C1	0.207450	0.134400	0.221880
C21	C2	0.311860	0.083700	0.262030
C31	C3	0.297290	0.211200	0.514240
C41	C4	0.537950	0.364800	0.297780
Nd21	Nd2	0.824550	0.857170	0.339830
O91	O9	0.695150	0.739820	0.236000
O101	O10	0.642890	0.566770	0.176520
O111	O11	0.821720	0.477950	0.245620
O121	O12	0.876530	0.650730	0.306940
O131	O13	0.856740	0.720680	0.468630
O141	O14	0.805420	0.646090	0.580190
O151	O15	0.003470	0.864810	0.363260
O161	O16	0.127570	0.865990	0.300230
C51	C5	0.707450	0.634400	0.221880
C61	C6	0.811860	0.583700	0.262030
C71	C7	0.797290	0.711200	0.514240
C81	C8	0.037950	0.864800	0.297780
Nd31	Nd3	0.675450	0.357170	0.160170
O171	O17	0.804850	0.239820	0.264000
O181	O18	0.857110	0.066770	0.323480
O191	O19	0.678280	0.977950	0.254380
O201	O20	0.623470	0.150730	0.193060
O211	O21	0.643260	0.220680	0.031370
O221	O22	0.694580	0.146090	0.919810
O231	O23	0.496530	0.364810	0.136740
O241	O24	0.372430	0.365990	0.199770
C91	C9	0.792550	0.134400	0.278120
C101	C10	0.688140	0.083700	0.237970
C111	C11	0.702710	0.211200	0.985760
C121	C12	0.462050	0.364800	0.202220
Nd41	Nd4	0.175450	0.857170	0.160170
O251	O25	0.304850	0.739820	0.264000
O261	O26	0.357110	0.566770	0.323480
O271	O27	0.178280	0.477950	0.254380
O281	O28	0.123470	0.650730	0.193060
O291	O29	0.143260	0.720680	0.031370
O301	O30	0.194580	0.646090	0.919810
O311	O31	0.996530	0.864810	0.136740
O321	O32	0.872430	0.865990	0.199770
C131	C13	0.292550	0.634400	0.278120
C141	C14	0.188140	0.583700	0.237970
C151	C15	0.202710	0.711200	0.985760
C161	C16	0.962050	0.864800	0.202220
Nd51	Nd5	0.675450	0.642830	0.660170
O331	O33	0.804850	0.760180	0.764000
O341	O34	0.857110	0.933230	0.823480
O351	O35	0.678280	0.022050	0.754380
O361	O36	0.623470	0.849270	0.693060
O371	O37	0.643260	0.779320	0.531370
O381	O38	0.694580	0.853910	0.419810
O391	O39	0.496530	0.635190	0.636740
O401	O40	0.372430	0.634010	0.699770
C171	C17	0.792550	0.865600	0.778120
C181	C18	0.688140	0.916300	0.737970
C191	C19	0.702710	0.788800	0.485760
C201	C20	0.462050	0.635200	0.702220
Nd61	Nd6	0.175450	0.142830	0.660170
O411	O41	0.304850	0.260180	0.764000
O421	O42	0.357110	0.433230	0.823480
O431	O43	0.178280	0.522050	0.754380
O441	O44	0.123470	0.349270	0.693060
O451	O45	0.143260	0.279320	0.531370
O461	O46	0.194580	0.353910	0.419810
O471	O47	0.996530	0.135190	0.636740
O481	O48	0.872430	0.134010	0.699770
C211	C21	0.292550	0.365600	0.778120
C221	C22	0.188140	0.416300	0.737970
C231	C23	0.202710	0.288800	0.485760
C241	C24	0.962050	0.135200	0.702220
Nd71	Nd7	0.324550	0.642830	0.839830
O491	O49	0.195150	0.760180	0.736000
O501	O50	0.142890	0.933230	0.676520
O511	O51	0.321720	0.022050	0.745620
O521	O52	0.376530	0.849270	0.806940
O531	O53	0.356740	0.779320	0.968630
O541	O54	0.305420	0.853910	0.080190
O551	O55	0.503470	0.635190	0.863260
O561	O56	0.627570	0.634010	0.800230
C251	C25	0.207450	0.865600	0.721880
C261	C26	0.311860	0.916300	0.762030
C271	C27	0.297290	0.788800	0.014240
C281	C28	0.537950	0.635200	0.797780
Nd81	Nd8	0.824550	0.142830	0.839830
O571	O57	0.695150	0.260180	0.736000
O581	O58	0.642890	0.433230	0.676520
O591	O59	0.821720	0.522050	0.745620
O601	O60	0.876530	0.349270	0.806940
O611	O61	0.856740	0.279320	0.968630
O621	O62	0.805420	0.353910	0.080190
O631	O63	0.003470	0.135190	0.863260
O641	O64	0.127570	0.134010	0.800230
C291	C29	0.707450	0.365600	0.721880
C301	C30	0.811860	0.416300	0.762030
C311	C31	0.797290	0.288800	0.014240
C321	C32	0.037950	0.135200	0.797780
