data_DAKVUI_clean_PM
_symmetry_space_group_name_H-M	'P1'
_cell_length_a	12.297000
_cell_length_b	26.057000
_cell_length_c	26.084000
_cell_angle_alpha	90.000000
_cell_angle_beta	90.000000
_cell_angle_gamma	90.000000
_symmetry_Int_Tables_number 1

loop_
_symmetry_equiv_pos_as_xyz
'x,y,z'

loop_
_atom_site_label
_atom_site_type_symbol
_atom_site_fract_x
_atom_site_fract_y
_atom_site_fract_z
Cu11	Cu1	0.074130	0.506400	0.963630
Cu21	Cu2	0.925870	0.493600	0.463630
Cu31	Cu3	0.925870	0.006400	0.536370
Cu41	Cu4	0.074130	0.993600	0.036370
Cu51	Cu5	0.925870	0.493600	0.036370
Cu61	Cu6	0.074130	0.506400	0.536370
Cu71	Cu7	0.074130	0.993600	0.463630
Cu81	Cu8	0.925870	0.006400	0.963630
Cu91	Cu9	0.853470	0.775720	0.750000
Cu101	Cu10	0.004000	0.703020	0.750000
Cu111	Cu11	0.146530	0.224280	0.250000
Cu121	Cu12	0.996000	0.296980	0.250000
Cu131	Cu13	0.146530	0.275720	0.750000
Cu141	Cu14	0.996000	0.203020	0.750000
Cu151	Cu15	0.853470	0.724280	0.250000
Cu161	Cu16	0.004000	0.796980	0.250000
H11	H1	0.208600	0.755600	0.867000
H21	H2	0.245700	0.867300	0.971300
H31	H3	0.999800	0.875100	0.868900
H41	H4	0.429300	0.824500	0.974600
H51	H5	0.335100	0.804500	0.010300
H61	H6	0.577000	0.740200	0.054800
H71	H7	0.481500	0.775300	0.074500
H81	H8	0.660300	0.781600	0.119000
H91	H9	0.902600	0.885400	0.128000
H101	H10	0.698700	0.886500	0.007200
H111	H11	0.791400	0.244400	0.367000
H121	H12	0.754300	0.132700	0.471300
H131	H13	0.000200	0.124900	0.368900
H141	H14	0.570700	0.175500	0.474600
H151	H15	0.664900	0.195500	0.510300
H161	H16	0.423000	0.259800	0.554800
H171	H17	0.518500	0.224700	0.574500
H181	H18	0.339700	0.218400	0.619000
H191	H19	0.097400	0.114600	0.628000
H201	H20	0.301300	0.113500	0.507200
H211	H21	0.791400	0.255600	0.633000
H221	H22	0.754300	0.367300	0.528700
H231	H23	0.000200	0.375100	0.631100
H241	H24	0.570700	0.324500	0.525400
H251	H25	0.664900	0.304500	0.489700
H261	H26	0.423000	0.240200	0.445200
H271	H27	0.518500	0.275300	0.425500
H281	H28	0.339700	0.281600	0.381000
H291	H29	0.097400	0.385400	0.372000
H301	H30	0.301300	0.386500	0.492800
H311	H31	0.208600	0.744400	0.133000
H321	H32	0.245700	0.632700	0.028700
H331	H33	0.999800	0.624900	0.131100
H341	H34	0.429300	0.675500	0.025400
H351	H35	0.335100	0.695500	0.989700
H361	H36	0.577000	0.759800	0.945200
H371	H37	0.481500	0.724700	0.925500
H381	H38	0.660300	0.718400	0.881000
H391	H39	0.902600	0.614600	0.872000
H401	H40	0.698700	0.613500	0.992800
H411	H41	0.791400	0.244400	0.133000
H421	H42	0.754300	0.132700	0.028700
H431	H43	0.000200	0.124900	0.131100
H441	H44	0.570700	0.175500	0.025400
H451	H45	0.664900	0.195500	0.989700
H461	H46	0.423000	0.259800	0.945200
H471	H47	0.518500	0.224700	0.925500
H481	H48	0.339700	0.218400	0.881000
H491	H49	0.097400	0.114600	0.872000
H501	H50	0.301300	0.113500	0.992800
H511	H51	0.208600	0.755600	0.633000
H521	H52	0.245700	0.867300	0.528700
H531	H53	0.999800	0.875100	0.631100
H541	H54	0.429300	0.824500	0.525400
H551	H55	0.335100	0.804500	0.489700
H561	H56	0.577000	0.740200	0.445200
H571	H57	0.481500	0.775300	0.425500
H581	H58	0.660300	0.781600	0.381000
H591	H59	0.902600	0.885400	0.372000
H601	H60	0.698700	0.886500	0.492800
H611	H61	0.208600	0.744400	0.367000
H621	H62	0.245700	0.632700	0.471300
H631	H63	0.999800	0.624900	0.368900
H641	H64	0.429300	0.675500	0.474600
H651	H65	0.335100	0.695500	0.510300
H661	H66	0.577000	0.759800	0.554800
H671	H67	0.481500	0.724700	0.574500
H681	H68	0.660300	0.718400	0.619000
H691	H69	0.902600	0.614600	0.628000
H701	H70	0.698700	0.613500	0.507200
H711	H71	0.791400	0.255600	0.867000
H721	H72	0.754300	0.367300	0.971300
H731	H73	0.000200	0.375100	0.868900
H741	H74	0.570700	0.324500	0.974600
H751	H75	0.664900	0.304500	0.010300
H761	H76	0.423000	0.240200	0.054800
H771	H77	0.518500	0.275300	0.074500
H781	H78	0.339700	0.281600	0.119000
H791	H79	0.097400	0.385400	0.128000
H801	H80	0.301300	0.386500	0.007200
C11	C1	0.033200	0.786500	0.818200
C21	C2	0.094600	0.811700	0.861100
C31	C3	0.185800	0.786500	0.881200
C41	C4	0.242100	0.807500	0.922100
C51	C5	0.208400	0.853500	0.943500
C61	C6	0.118100	0.879100	0.923300
C71	C7	0.060200	0.858200	0.882100
C81	C8	0.077700	0.927000	0.948800
C91	C9	0.384800	0.795000	0.983100
C101	C10	0.526700	0.767100	0.045200
C111	C11	0.666500	0.830200	0.058200
C121	C12	0.698000	0.809200	0.105000
C131	C13	0.786800	0.830200	0.130500
C141	C14	0.843000	0.871900	0.110600
C151	C15	0.808800	0.893200	0.064300
C161	C16	0.721000	0.872300	0.038200
C171	C17	0.830000	0.806100	0.179100
C181	C18	0.874400	0.935800	0.040500
C191	C19	0.966800	0.213500	0.318200
C201	C20	0.905400	0.188300	0.361100
C211	C21	0.814200	0.213500	0.381200
C221	C22	0.757900	0.192500	0.422100
C231	C23	0.791600	0.146500	0.443500
C241	C24	0.881900	0.120900	0.423300
C251	C25	0.939800	0.141800	0.382100
C261	C26	0.922300	0.073000	0.448800
C271	C27	0.615200	0.205000	0.483100
C281	C28	0.473300	0.232900	0.545200
C291	C29	0.333500	0.169800	0.558200
C301	C30	0.302000	0.190800	0.605000
C311	C31	0.213200	0.169800	0.630500
C321	C32	0.157000	0.128100	0.610600
C331	C33	0.191200	0.106800	0.564300
C341	C34	0.279000	0.127700	0.538200
C351	C35	0.170000	0.193900	0.679100
C361	C36	0.125600	0.064200	0.540500
C371	C37	0.966800	0.286500	0.681800
C381	C38	0.905400	0.311700	0.638900
C391	C39	0.814200	0.286500	0.618800
C401	C40	0.757900	0.307500	0.577900
C411	C41	0.791600	0.353500	0.556500
C421	C42	0.881900	0.379100	0.576700
C431	C43	0.939800	0.358200	0.617900
C441	C44	0.922300	0.427000	0.551200
C451	C45	0.615200	0.295000	0.516900
C461	C46	0.473300	0.267100	0.454800
C471	C47	0.333500	0.330200	0.441800
C481	C48	0.302000	0.309200	0.395000
C491	C49	0.213200	0.330200	0.369500
C501	C50	0.157000	0.371900	0.389400
C511	C51	0.191200	0.393200	0.435700
C521	C52	0.279000	0.372300	0.461800
C531	C53	0.170000	0.306100	0.320900
C541	C54	0.125600	0.435800	0.459500
C551	C55	0.033200	0.713500	0.181800
C561	C56	0.094600	0.688300	0.138900
C571	C57	0.185800	0.713500	0.118800
C581	C58	0.242100	0.692500	0.077900
C591	C59	0.208400	0.646500	0.056500
C601	C60	0.118100	0.620900	0.076700
C611	C61	0.060200	0.641800	0.117900
C621	C62	0.077700	0.573000	0.051200
C631	C63	0.384800	0.705000	0.016900
C641	C64	0.526700	0.732900	0.954800
C651	C65	0.666500	0.669800	0.941800
C661	C66	0.698000	0.690800	0.895000
C671	C67	0.786800	0.669800	0.869500
C681	C68	0.843000	0.628100	0.889400
C691	C69	0.808800	0.606800	0.935700
C701	C70	0.721000	0.627700	0.961800
C711	C71	0.830000	0.693900	0.820900
C721	C72	0.874400	0.564200	0.959500
C731	C73	0.966800	0.213500	0.181800
C741	C74	0.905400	0.188300	0.138900
C751	C75	0.814200	0.213500	0.118800
C761	C76	0.757900	0.192500	0.077900
C771	C77	0.791600	0.146500	0.056500
C781	C78	0.881900	0.120900	0.076700
C791	C79	0.939800	0.141800	0.117900
C801	C80	0.922300	0.073000	0.051200
C811	C81	0.615200	0.205000	0.016900
C821	C82	0.473300	0.232900	0.954800
C831	C83	0.333500	0.169800	0.941800
C841	C84	0.302000	0.190800	0.895000
C851	C85	0.213200	0.169800	0.869500
C861	C86	0.157000	0.128100	0.889400
C871	C87	0.191200	0.106800	0.935700
C881	C88	0.279000	0.127700	0.961800
C891	C89	0.170000	0.193900	0.820900
C901	C90	0.125600	0.064200	0.959500
C911	C91	0.033200	0.786500	0.681800
C921	C92	0.094600	0.811700	0.638900
C931	C93	0.185800	0.786500	0.618800
C941	C94	0.242100	0.807500	0.577900
C951	C95	0.208400	0.853500	0.556500
C961	C96	0.118100	0.879100	0.576700
C971	C97	0.060200	0.858200	0.617900
C981	C98	0.077700	0.927000	0.551200
C991	C99	0.384800	0.795000	0.516900
C1001	C100	0.526700	0.767100	0.454800
C1011	C101	0.666500	0.830200	0.441800
C1021	C102	0.698000	0.809200	0.395000
C1031	C103	0.786800	0.830200	0.369500
C1041	C104	0.843000	0.871900	0.389400
C1051	C105	0.808800	0.893200	0.435700
C1061	C106	0.721000	0.872300	0.461800
C1071	C107	0.830000	0.806100	0.320900
C1081	C108	0.874400	0.935800	0.459500
C1091	C109	0.033200	0.713500	0.318200
C1101	C110	0.094600	0.688300	0.361100
C1111	C111	0.185800	0.713500	0.381200
C1121	C112	0.242100	0.692500	0.422100
C1131	C113	0.208400	0.646500	0.443500
C1141	C114	0.118100	0.620900	0.423300
C1151	C115	0.060200	0.641800	0.382100
C1161	C116	0.077700	0.573000	0.448800
C1171	C117	0.384800	0.705000	0.483100
C1181	C118	0.526700	0.732900	0.545200
C1191	C119	0.666500	0.669800	0.558200
C1201	C120	0.698000	0.690800	0.605000
C1211	C121	0.786800	0.669800	0.630500
C1221	C122	0.843000	0.628100	0.610600
C1231	C123	0.808800	0.606800	0.564300
C1241	C124	0.721000	0.627700	0.538200
C1251	C125	0.830000	0.693900	0.679100
C1261	C126	0.874400	0.564200	0.540500
C1271	C127	0.966800	0.286500	0.818200
C1281	C128	0.905400	0.311700	0.861100
C1291	C129	0.814200	0.286500	0.881200
C1301	C130	0.757900	0.307500	0.922100
C1311	C131	0.791600	0.353500	0.943500
C1321	C132	0.881900	0.379100	0.923300
C1331	C133	0.939800	0.358200	0.882100
C1341	C134	0.922300	0.427000	0.948800
C1351	C135	0.615200	0.295000	0.983100
C1361	C136	0.473300	0.267100	0.045200
C1371	C137	0.333500	0.330200	0.058200
C1381	C138	0.302000	0.309200	0.105000
C1391	C139	0.213200	0.330200	0.130500
C1401	C140	0.157000	0.371900	0.110600
C1411	C141	0.191200	0.393200	0.064300
C1421	C142	0.279000	0.372300	0.038200
C1431	C143	0.170000	0.306100	0.179100
C1441	C144	0.125600	0.435800	0.040500
C1451	C145	0.456600	0.750000	0.000000
C1461	C146	0.543400	0.250000	0.500000
C1471	C147	0.543400	0.250000	0.000000
C1481	C148	0.456600	0.750000	0.500000
O11	O1	0.947600	0.807760	0.803110
O21	O2	0.071300	0.744700	0.802400
O31	O3	0.997800	0.949030	0.928760
O41	O4	0.124700	0.939550	0.989670
O51	O5	0.325500	0.778100	0.938900
O61	O6	0.584900	0.811840	0.028220
O71	O7	0.785300	0.766410	0.195450
O81	O8	0.913600	0.827300	0.197500
O91	O9	0.962000	0.946710	0.062110
O101	O10	0.836900	0.955670	0.000020
O111	O11	0.052400	0.192240	0.303110
O121	O12	0.928700	0.255300	0.302400
O131	O13	0.002200	0.050970	0.428760
O141	O14	0.875300	0.060450	0.489670
O151	O15	0.674500	0.221900	0.438900
O161	O16	0.415100	0.188160	0.528220
O171	O17	0.214700	0.233590	0.695450
O181	O18	0.086400	0.172700	0.697500
O191	O19	0.038000	0.053290	0.562110
O201	O20	0.163100	0.044330	0.500020
O211	O21	0.052400	0.307760	0.696890
O221	O22	0.928700	0.244700	0.697600
O231	O23	0.002200	0.449030	0.571240
O241	O24	0.875300	0.439550	0.510330
O251	O25	0.674500	0.278100	0.561100
O261	O26	0.415100	0.311840	0.471780
O271	O27	0.214700	0.266410	0.304550
O281	O28	0.086400	0.327300	0.302500
O291	O29	0.038000	0.446710	0.437890
O301	O30	0.163100	0.455670	0.499980
O311	O31	0.947600	0.692240	0.196890
O321	O32	0.071300	0.755300	0.197600
O331	O33	0.997800	0.550970	0.071240
O341	O34	0.124700	0.560450	0.010330
O351	O35	0.325500	0.721900	0.061100
O361	O36	0.584900	0.688160	0.971780
O371	O37	0.785300	0.733590	0.804550
O381	O38	0.913600	0.672700	0.802500
O391	O39	0.962000	0.553290	0.937890
O401	O40	0.836900	0.544330	0.999980
O411	O41	0.052400	0.192240	0.196890
O421	O42	0.928700	0.255300	0.197600
O431	O43	0.002200	0.050970	0.071240
O441	O44	0.875300	0.060450	0.010330
O451	O45	0.674500	0.221900	0.061100
O461	O46	0.415100	0.188160	0.971780
O471	O47	0.214700	0.233590	0.804550
O481	O48	0.086400	0.172700	0.802500
O491	O49	0.038000	0.053290	0.937890
O501	O50	0.163100	0.044330	0.999980
O511	O51	0.947600	0.807760	0.696890
O521	O52	0.071300	0.744700	0.697600
O531	O53	0.997800	0.949030	0.571240
O541	O54	0.124700	0.939550	0.510330
O551	O55	0.325500	0.778100	0.561100
O561	O56	0.584900	0.811840	0.471780
O571	O57	0.785300	0.766410	0.304550
O581	O58	0.913600	0.827300	0.302500
O591	O59	0.962000	0.946710	0.437890
O601	O60	0.836900	0.955670	0.499980
O611	O61	0.947600	0.692240	0.303110
O621	O62	0.071300	0.755300	0.302400
O631	O63	0.997800	0.550970	0.428760
O641	O64	0.124700	0.560450	0.489670
O651	O65	0.325500	0.721900	0.438900
O661	O66	0.584900	0.688160	0.528220
O671	O67	0.785300	0.733590	0.695450
O681	O68	0.913600	0.672700	0.697500
O691	O69	0.962000	0.553290	0.562110
O701	O70	0.836900	0.544330	0.500020
O711	O71	0.052400	0.307760	0.803110
O721	O72	0.928700	0.244700	0.802400
O731	O73	0.002200	0.449030	0.928760
O741	O74	0.875300	0.439550	0.989670
O751	O75	0.674500	0.278100	0.938900
O761	O76	0.415100	0.311840	0.028220
O771	O77	0.214700	0.266410	0.195450
O781	O78	0.086400	0.327300	0.197500
O791	O79	0.038000	0.446710	0.062110
O801	O80	0.163100	0.455670	0.000020
