data_DALVAQ_clean_PM
_symmetry_space_group_name_H-M	'P1'
_cell_length_a	7.129100
_cell_length_b	16.074800
_cell_length_c	11.037500
_cell_angle_alpha	90.000000
_cell_angle_beta	90.000000
_cell_angle_gamma	90.000000
_symmetry_Int_Tables_number 1

loop_
_symmetry_equiv_pos_as_xyz
'x,y,z'

loop_
_atom_site_label
_atom_site_type_symbol
_atom_site_fract_x
_atom_site_fract_y
_atom_site_fract_z
Cd11	Cd1	0.544640	0.223840	0.866210
O11	O1	0.428700	0.111710	0.985300
O21	O2	0.257200	0.224570	0.998600
C11	C1	0.288400	0.149800	0.024700
C21	C2	0.155900	0.104600	0.109100
C31	C3	0.200400	0.024800	0.151500
H11	H1	0.311200	0.999500	0.126800
C41	C4	0.079800	0.983000	0.230700
C51	C5	0.133300	0.898700	0.284700
O31	O3	0.300900	0.877300	0.270900
O41	O4	0.007100	0.860630	0.338100
C61	C6	0.911000	0.020100	0.265600
H21	H2	0.828800	0.992200	0.316800
C71	C7	0.867000	0.099300	0.222900
C81	C8	0.691400	0.137200	0.259300
N11	N1	0.550000	0.165100	0.289200
C91	C9	0.990000	0.142200	0.146400
H31	H3	0.960900	0.195800	0.120600
Cd21	Cd2	0.455360	0.776160	0.366210
O51	O5	0.571300	0.888290	0.485300
O61	O6	0.742800	0.775430	0.498600
C101	C10	0.711600	0.850200	0.524700
C111	C11	0.844100	0.895400	0.609100
C121	C12	0.799600	0.975200	0.651500
H41	H4	0.688800	0.000500	0.626800
C131	C13	0.920200	0.017000	0.730700
C141	C14	0.866700	0.101300	0.784700
O71	O7	0.699100	0.122700	0.770900
O81	O8	0.992900	0.139370	0.838100
C151	C15	0.089000	0.979900	0.765600
H51	H5	0.171200	0.007800	0.816800
C161	C16	0.133000	0.900700	0.722900
C171	C17	0.308600	0.862800	0.759300
N21	N2	0.450000	0.834900	0.789200
C181	C18	0.010000	0.857800	0.646400
H61	H6	0.039100	0.804200	0.620600
Cd31	Cd3	0.044640	0.276160	0.866210
O91	O9	0.928700	0.388290	0.985300
O101	O10	0.757200	0.275430	0.998600
C191	C19	0.788400	0.350200	0.024700
C201	C20	0.655900	0.395400	0.109100
C211	C21	0.700400	0.475200	0.151500
H71	H7	0.811200	0.500500	0.126800
C221	C22	0.579800	0.517000	0.230700
C231	C23	0.633300	0.601300	0.284700
O111	O11	0.800900	0.622700	0.270900
O121	O12	0.507100	0.639370	0.338100
C241	C24	0.411000	0.479900	0.265600
H81	H8	0.328800	0.507800	0.316800
C251	C25	0.367000	0.400700	0.222900
C261	C26	0.191400	0.362800	0.259300
N31	N3	0.050000	0.334900	0.289200
C271	C27	0.490000	0.357800	0.146400
H91	H9	0.460900	0.304200	0.120600
Cd41	Cd4	0.955360	0.723840	0.366210
O131	O13	0.071300	0.611710	0.485300
O141	O14	0.242800	0.724570	0.498600
C281	C28	0.211600	0.649800	0.524700
C291	C29	0.344100	0.604600	0.609100
C301	C30	0.299600	0.524800	0.651500
H101	H10	0.188800	0.499500	0.626800
C311	C31	0.420200	0.483000	0.730700
C321	C32	0.366700	0.398700	0.784700
O151	O15	0.199100	0.377300	0.770900
O161	O16	0.492900	0.360630	0.838100
C331	C33	0.589000	0.520100	0.765600
H111	H11	0.671200	0.492200	0.816800
C341	C34	0.633000	0.599300	0.722900
C351	C35	0.808600	0.637200	0.759300
N41	N4	0.950000	0.665100	0.789200
C361	C36	0.510000	0.642200	0.646400
H121	H12	0.539100	0.695800	0.620600
