data_DALVIY_clean_PM
_symmetry_space_group_name_H-M	'P1'
_cell_length_a	34.967000
_cell_length_b	21.612500
_cell_length_c	41.296000
_cell_angle_alpha	90.000000
_cell_angle_beta	90.000000
_cell_angle_gamma	90.000000
_symmetry_Int_Tables_number 1

loop_
_symmetry_equiv_pos_as_xyz
'x,y,z'

loop_
_atom_site_label
_atom_site_type_symbol
_atom_site_fract_x
_atom_site_fract_y
_atom_site_fract_z
Gd11	Gd1	0.276600	0.062480	0.043410
Gd21	Gd2	0.522330	0.275730	0.894070
Gd31	Gd3	0.448910	0.145420	0.839860
Gd41	Gd4	0.593040	0.353010	0.146230
Gd51	Gd5	0.353670	0.780270	0.929940
Gd61	Gd6	0.345700	0.940070	0.983240
C11	C1	0.274200	0.256800	0.061700
C21	C2	0.273000	0.188100	0.057000
O11	O1	0.249400	0.167100	0.037400
O21	O2	0.292700	0.155300	0.075000
C31	C3	0.249500	0.294900	0.045100
H11	H1	0.231200	0.277500	0.031500
C41	C4	0.251200	0.359300	0.048300
C51	C5	0.223400	0.399800	0.030400
O31	O3	0.225400	0.457900	0.036100
O41	O4	0.199800	0.374800	0.010600
C61	C6	0.279000	0.386100	0.066400
H21	H2	0.281200	0.429000	0.067500
C71	C7	0.304600	0.347300	0.083600
C81	C8	0.331600	0.373900	0.102900
N11	N1	0.357500	0.393300	0.119400
C91	C9	0.386000	0.330800	0.818400
H31	H3	0.382100	0.288400	0.816200
C101	C10	0.301200	0.284300	0.080900
H41	H4	0.317900	0.259300	0.092600
C111	C11	0.377100	0.149600	0.986100
C121	C12	0.348800	0.100000	0.997200
O51	O5	0.322100	0.115200	0.014600
O61	O6	0.355700	0.045900	0.987700
C131	C13	0.397900	0.142900	0.958700
H51	H5	0.396200	0.106800	0.946500
C141	C14	0.422400	0.191300	0.948900
C151	C15	0.441900	0.190400	0.917300
O71	O7	0.469600	0.228900	0.913500
O81	O8	0.431000	0.154000	0.896000
C161	C16	0.426500	0.241300	0.969500
H61	H6	0.442100	0.274000	0.963200
C171	C17	0.408000	0.244600	0.999200
C181	C18	0.409300	0.300200	0.018600
N21	N2	0.413100	0.343200	0.034500
C191	C19	0.381900	0.198500	0.008200
H71	H7	0.368600	0.200100	0.027600
C201	C20	0.554900	0.066400	0.889400
C211	C21	0.530300	0.123800	0.886800
O91	O9	0.540900	0.170300	0.901700
O101	O10	0.503500	0.118500	0.867400
C221	C22	0.584200	0.063200	0.912400
H81	H8	0.588300	0.097200	0.925700
C231	C23	0.608000	0.010600	0.916200
C241	C24	0.639300	0.009600	0.939800
O111	O11	0.637100	0.049300	0.962900
O121	O12	0.664000	0.969300	0.936700
C251	C25	0.602000	0.960600	0.898700
H91	H9	0.616900	0.925500	0.901800
C261	C26	0.571900	0.960700	0.874400
C271	C27	0.562000	0.902000	0.866200
N31	N3	0.558000	0.871000	0.843800
C281	C28	0.548600	0.016700	0.870200
H101	H10	0.529500	0.017900	0.854500
C291	C29	0.522000	0.352800	0.990000
C301	C30	0.522000	0.328300	0.957100
O131	O13	0.499000	0.350800	0.935600
O141	O14	0.543500	0.283900	0.949600
C311	C31	0.547000	0.332000	0.013200
H111	H11	0.563300	0.299600	0.008000
C321	C32	0.548900	0.356500	0.043700
C331	C33	0.577200	0.332700	0.065800
O151	O15	0.584900	0.366700	0.090400
O161	O16	0.592800	0.280600	0.061600
C341	C34	0.523300	0.402000	0.052200
H121	H12	0.524200	0.418700	0.073000
C351	C35	0.495800	0.423500	0.030200
C361	C36	0.468500	0.472300	0.040200
N41	N4	0.447800	0.508700	0.048000
C371	C37	0.495400	0.400100	0.999400
H131	H13	0.477800	0.415100	0.984400
C381	C38	0.557800	0.232600	0.792900
C391	C39	0.526000	0.215300	0.813700
O171	O17	0.526300	0.243500	0.841900
O181	O18	0.501100	0.179500	0.805200
C401	C40	0.560800	0.204300	0.761900
H141	H14	0.542400	0.176300	0.754800
C411	C41	0.591800	0.219700	0.742600
C421	C42	0.594400	0.190900	0.709200
O191	O19	0.564600	0.163200	0.698700
O201	O20	0.624500	0.198400	0.692700
C431	C43	0.619600	0.258400	0.752200
H151	H15	0.641500	0.266500	0.740100
C441	C44	0.612600	0.285000	0.782000
C451	C45	0.641800	0.321000	0.792000
N51	N5	0.662700	0.359000	0.800200
C461	C46	0.585200	0.272600	0.803200
H161	H16	0.584700	0.290100	0.823800
C471	C47	0.451900	0.947400	0.829000
C481	C48	0.449500	0.015400	0.831500
O211	O21	0.466400	0.049400	0.811500
O221	O22	0.430400	0.037900	0.854400
C491	C49	0.435100	0.911100	0.850700
H171	H17	0.421600	0.929000	0.867700
C501	C50	0.437200	0.844900	0.848500
C511	C51	0.415300	0.806600	0.872600
O231	O23	0.401100	0.829600	0.897700
O241	O24	0.413900	0.750000	0.866000
C521	C52	0.455300	0.821500	0.823000
H181	H18	0.455400	0.778800	0.820200
C531	C53	0.474000	0.858700	0.800200
C541	C54	0.495000	0.832300	0.773700
N61	N6	0.512500	0.813900	0.751700
C551	C55	0.471200	0.920600	0.803400
H191	H19	0.482500	0.946000	0.787900
C561	C56	0.241800	0.029400	0.934000
C571	C57	0.264300	0.021400	0.964800
O251	O25	0.256600	0.054900	0.988500
O261	O26	0.288400	0.974500	0.965800
C581	C58	0.218800	0.078600	0.931300
H201	H20	0.215400	0.105200	0.948800
C591	C59	0.200400	0.089600	0.903000
C601	C60	0.173600	0.145300	0.898300
O271	O27	0.172700	0.181800	0.921100
O281	O28	0.154300	0.151600	0.872600
C611	C61	0.204800	0.050400	0.875200
H211	H21	0.192800	0.059400	0.855700
C621	C62	0.227800	0.999000	0.878600
C631	C63	0.234700	0.959400	0.851400
N71	N7	0.239500	0.927800	0.830900
C641	C64	0.247600	0.992500	0.907200
H221	H22	0.266000	0.961500	0.908600
C651	C65	0.417300	0.350700	0.835100
C661	C66	0.446400	0.307100	0.851100
O291	O29	0.471800	0.328000	0.868200
O301	O30	0.440400	0.250500	0.842900
C671	C67	0.419800	0.414000	0.841300
H231	H23	0.439700	0.428400	0.854200
C681	C68	0.394700	0.454900	0.829300
C691	C69	0.399200	0.522000	0.836000
O311	O31	0.425100	0.540000	0.854300
O321	O32	0.375400	0.561400	0.823700
C701	C70	0.365200	0.434800	0.810300
H241	H24	0.348600	0.463500	0.801000
C711	C71	0.359500	0.371300	0.804500
C721	C72	0.327200	0.347000	0.784000
N81	N8	0.303800	0.329300	0.767400
O331	O33	0.341700	0.890000	0.930100
C731	C73	0.349900	0.939000	0.911700
H251	H25	0.351200	0.935200	0.889300
O341	O34	0.355400	0.986100	0.923800
O351	O35	0.367900	0.833500	0.981400
C741	C74	0.358400	0.785400	0.999500
H261	H26	0.359400	0.789200	0.021900
O361	O36	0.348300	0.736000	0.987700
Gd71	Gd7	0.223400	0.937520	0.543410
Gd81	Gd8	0.977670	0.724270	0.394070
Gd91	Gd9	0.051090	0.854580	0.339860
Gd101	Gd10	0.906960	0.646990	0.646230
Gd111	Gd11	0.146330	0.219730	0.429940
Gd121	Gd12	0.154300	0.059930	0.483240
C751	C75	0.225800	0.743200	0.561700
C761	C76	0.227000	0.811900	0.557000
O371	O37	0.250600	0.832900	0.537400
O381	O38	0.207300	0.844700	0.575000
C771	C77	0.250500	0.705100	0.545100
H271	H27	0.268800	0.722500	0.531500
C781	C78	0.248800	0.640700	0.548300
C791	C79	0.276600	0.600200	0.530400
O391	O39	0.274600	0.542100	0.536100
O401	O40	0.300200	0.625200	0.510600
C801	C80	0.221000	0.613900	0.566400
H281	H28	0.218800	0.571000	0.567500
C811	C81	0.195400	0.652700	0.583600
C821	C82	0.168400	0.626100	0.602900
N91	N9	0.142500	0.606700	0.619400
C831	C83	0.114000	0.669200	0.318400
H291	H29	0.117900	0.711600	0.316200
C841	C84	0.198800	0.715700	0.580900
H301	H30	0.182100	0.740700	0.592600
C851	C85	0.122900	0.850400	0.486100
C861	C86	0.151200	0.900000	0.497200
O411	O41	0.177900	0.884800	0.514600
O421	O42	0.144300	0.954100	0.487700
C871	C87	0.102100	0.857100	0.458700
H311	H31	0.103800	0.893200	0.446500
C881	C88	0.077600	0.808700	0.448900
C891	C89	0.058100	0.809600	0.417300
O431	O43	0.030400	0.771100	0.413500
O441	O44	0.069000	0.846000	0.396000
C901	C90	0.073500	0.758700	0.469500
H321	H32	0.057900	0.726000	0.463200
C911	C91	0.092000	0.755400	0.499200
C921	C92	0.090700	0.699800	0.518600
N101	N10	0.086900	0.656800	0.534500
C931	C93	0.118100	0.801500	0.508200
H331	H33	0.131400	0.799900	0.527600
C941	C94	0.945100	0.933600	0.389400
C951	C95	0.969700	0.876200	0.386800
O451	O45	0.959100	0.829700	0.401700
O461	O46	0.996500	0.881500	0.367400
C961	C96	0.915800	0.936800	0.412400
H341	H34	0.911700	0.902800	0.425700
C971	C97	0.892000	0.989400	0.416200
C981	C98	0.860700	0.990400	0.439800
O471	O47	0.862900	0.950700	0.462900
O481	O48	0.836000	0.030700	0.436700
C991	C99	0.898000	0.039400	0.398700
H351	H35	0.883100	0.074500	0.401800
C1001	C100	0.928100	0.039300	0.374400
C1011	C101	0.938000	0.098000	0.366200
N111	N11	0.942000	0.129000	0.343800
C1021	C102	0.951400	0.983300	0.370200
H361	H36	0.970500	0.982100	0.354500
C1031	C103	0.978000	0.647200	0.490000
C1041	C104	0.978000	0.671700	0.457100
O491	O49	0.001000	0.649200	0.435600
O501	O50	0.956500	0.716100	0.449600
C1051	C105	0.953000	0.668000	0.513200
H371	H37	0.936700	0.700400	0.508000
C1061	C106	0.951100	0.643500	0.543700
C1071	C107	0.922800	0.667300	0.565800
O511	O51	0.915100	0.633300	0.590400
O521	O52	0.907200	0.719400	0.561600
C1081	C108	0.976700	0.598000	0.552200
H381	H38	0.975800	0.581300	0.573000
C1091	C109	0.004200	0.576500	0.530200
C1101	C110	0.031500	0.527700	0.540200
N121	N12	0.052200	0.491300	0.548000
C1111	C111	0.004600	0.599900	0.499400
H391	H39	0.022200	0.584900	0.484400
C1121	C112	0.942200	0.767400	0.292900
C1131	C113	0.974000	0.784700	0.313700
O531	O53	0.973700	0.756500	0.341900
O541	O54	0.998900	0.820500	0.305200
C1141	C114	0.939200	0.795700	0.261900
H401	H40	0.957600	0.823700	0.254800
C1151	C115	0.908200	0.780300	0.242600
C1161	C116	0.905600	0.809100	0.209200
O551	O55	0.935400	0.836800	0.198700
O561	O56	0.875500	0.801600	0.192700
C1171	C117	0.880400	0.741600	0.252200
H411	H41	0.858500	0.733500	0.240100
C1181	C118	0.887400	0.715000	0.282000
C1191	C119	0.858200	0.679000	0.292000
N131	N13	0.837300	0.641000	0.300200
C1201	C120	0.914800	0.727400	0.303200
H421	H42	0.915300	0.709900	0.323800
C1211	C121	0.048100	0.052600	0.329000
C1221	C122	0.050500	0.984600	0.331500
O571	O57	0.033600	0.950600	0.311500
O581	O58	0.069600	0.962100	0.354400
C1231	C123	0.064900	0.088900	0.350700
H431	H43	0.078400	0.071000	0.367700
C1241	C124	0.062800	0.155100	0.348500
C1251	C125	0.084700	0.193400	0.372600
O591	O59	0.098900	0.170400	0.397700
O601	O60	0.086100	0.250000	0.366000
C1261	C126	0.044700	0.178500	0.323000
H441	H44	0.044600	0.221200	0.320200
C1271	C127	0.026000	0.141300	0.300200
C1281	C128	0.005000	0.167700	0.273700
N141	N14	0.987500	0.186100	0.251700
C1291	C129	0.028800	0.079400	0.303400
H451	H45	0.017500	0.054000	0.287900
C1301	C130	0.258200	0.970600	0.434000
C1311	C131	0.235700	0.978600	0.464800
O611	O61	0.243400	0.945100	0.488500
O621	O62	0.211600	0.025500	0.465800
C1321	C132	0.281200	0.921400	0.431300
H461	H46	0.284600	0.894800	0.448800
C1331	C133	0.299600	0.910400	0.403000
C1341	C134	0.326400	0.854700	0.398300
O631	O63	0.327300	0.818200	0.421100
O641	O64	0.345700	0.848400	0.372600
C1351	C135	0.295200	0.949600	0.375200
H471	H47	0.307200	0.940600	0.355700
C1361	C136	0.272200	0.001000	0.378600
C1371	C137	0.265300	0.040600	0.351400
N151	N15	0.260500	0.072200	0.330900
C1381	C138	0.252400	0.007500	0.407200
H481	H48	0.234000	0.038500	0.408600
C1391	C139	0.082700	0.649300	0.335100
C1401	C140	0.053600	0.692900	0.351100
O651	O65	0.028200	0.672000	0.368200
O661	O66	0.059600	0.749500	0.342900
C1411	C141	0.080200	0.586000	0.341300
H491	H49	0.060300	0.571600	0.354200
C1421	C142	0.105300	0.545100	0.329300
C1431	C143	0.100800	0.478000	0.336000
O671	O67	0.074900	0.460000	0.354300
O681	O68	0.124600	0.438600	0.323700
C1441	C144	0.134800	0.565200	0.310300
H501	H50	0.151400	0.536500	0.301000
C1451	C145	0.140500	0.628700	0.304500
C1461	C146	0.172800	0.653000	0.284000
N161	N16	0.196200	0.670700	0.267400
O691	O69	0.158300	0.110000	0.430100
C1471	C147	0.150100	0.061000	0.411700
H511	H51	0.148800	0.064800	0.389300
O701	O70	0.144600	0.013900	0.423800
O711	O71	0.132100	0.166500	0.481400
C1481	C148	0.141600	0.214600	0.499500
H521	H52	0.140600	0.210800	0.521900
O721	O72	0.151700	0.264000	0.487700
Gd131	Gd13	0.723400	0.562480	0.456590
Gd141	Gd14	0.477670	0.775730	0.605930
Gd151	Gd15	0.551090	0.645420	0.660140
Gd161	Gd16	0.406960	0.853010	0.353770
Gd171	Gd17	0.646330	0.280270	0.570060
Gd181	Gd18	0.654300	0.440070	0.516760
C1491	C149	0.725800	0.756800	0.438300
C1501	C150	0.727000	0.688100	0.443000
O731	O73	0.750600	0.667100	0.462600
O741	O74	0.707300	0.655300	0.425000
C1511	C151	0.750500	0.794900	0.454900
H531	H53	0.768800	0.777500	0.468500
C1521	C152	0.748800	0.859300	0.451700
C1531	C153	0.776600	0.899800	0.469600
O751	O75	0.774600	0.957900	0.463900
O761	O76	0.800200	0.874800	0.489400
C1541	C154	0.721000	0.886100	0.433600
H541	H54	0.718800	0.929000	0.432500
C1551	C155	0.695400	0.847300	0.416400
C1561	C156	0.668400	0.873900	0.397100
N171	N17	0.642500	0.893300	0.380600
C1571	C157	0.614000	0.830800	0.681600
H551	H55	0.617900	0.788400	0.683800
C1581	C158	0.698800	0.784300	0.419100
H561	H56	0.682100	0.759300	0.407400
C1591	C159	0.622900	0.649600	0.513900
C1601	C160	0.651200	0.600000	0.502800
O771	O77	0.677900	0.615200	0.485400
O781	O78	0.644300	0.545900	0.512300
C1611	C161	0.602100	0.642900	0.541300
H571	H57	0.603800	0.606800	0.553500
C1621	C162	0.577600	0.691300	0.551100
C1631	C163	0.558100	0.690400	0.582700
O791	O79	0.530400	0.728900	0.586500
O801	O80	0.569000	0.654000	0.604000
C1641	C164	0.573500	0.741300	0.530500
H581	H58	0.557900	0.774000	0.536800
C1651	C165	0.592000	0.744600	0.500800
C1661	C166	0.590700	0.800200	0.481400
N181	N18	0.586900	0.843200	0.465500
C1671	C167	0.618100	0.698500	0.491800
H591	H59	0.631400	0.700100	0.472400
C1681	C168	0.445100	0.566400	0.610600
C1691	C169	0.469700	0.623800	0.613200
O811	O81	0.459100	0.670300	0.598300
O821	O82	0.496500	0.618500	0.632600
C1701	C170	0.415800	0.563200	0.587600
H601	H60	0.411700	0.597200	0.574300
C1711	C171	0.392000	0.510600	0.583800
C1721	C172	0.360700	0.509600	0.560200
O831	O83	0.362900	0.549300	0.537100
O841	O84	0.336000	0.469300	0.563300
C1731	C173	0.398000	0.460600	0.601300
H611	H61	0.383100	0.425500	0.598200
C1741	C174	0.428100	0.460700	0.625600
C1751	C175	0.438000	0.402000	0.633800
N191	N19	0.442000	0.371000	0.656200
C1761	C176	0.451400	0.516700	0.629800
H621	H62	0.470500	0.517900	0.645500
C1771	C177	0.478000	0.852800	0.510000
C1781	C178	0.478000	0.828300	0.542900
O851	O85	0.501000	0.850800	0.564400
O861	O86	0.456500	0.783900	0.550400
C1791	C179	0.453000	0.832000	0.486800
H631	H63	0.436700	0.799600	0.492000
C1801	C180	0.451100	0.856500	0.456300
C1811	C181	0.422800	0.832700	0.434200
O871	O87	0.415100	0.866700	0.409600
O881	O88	0.407200	0.780600	0.438400
C1821	C182	0.476700	0.902000	0.447800
H641	H64	0.475800	0.918700	0.427000
C1831	C183	0.504200	0.923500	0.469800
C1841	C184	0.531500	0.972300	0.459800
N201	N20	0.552200	0.008700	0.452000
C1851	C185	0.504600	0.900100	0.500600
H651	H65	0.522200	0.915100	0.515600
C1861	C186	0.442200	0.732600	0.707100
C1871	C187	0.474000	0.715300	0.686300
O891	O89	0.473700	0.743500	0.658100
O901	O90	0.498900	0.679500	0.694800
C1881	C188	0.439200	0.704300	0.738100
H661	H66	0.457600	0.676300	0.745200
C1891	C189	0.408200	0.719700	0.757400
C1901	C190	0.405600	0.690900	0.790800
O911	O91	0.435400	0.663200	0.801300
O921	O92	0.375500	0.698400	0.807300
C1911	C191	0.380400	0.758400	0.747800
H671	H67	0.358500	0.766500	0.759900
C1921	C192	0.387400	0.785000	0.718000
C1931	C193	0.358200	0.821000	0.708000
N211	N21	0.337300	0.859000	0.699800
C1941	C194	0.414800	0.772600	0.696800
H681	H68	0.415300	0.790100	0.676200
C1951	C195	0.548100	0.447400	0.671000
C1961	C196	0.550500	0.515400	0.668500
O931	O93	0.533600	0.549400	0.688500
O941	O94	0.569600	0.537900	0.645600
C1971	C197	0.564900	0.411100	0.649300
H691	H69	0.578400	0.429000	0.632300
C1981	C198	0.562800	0.344900	0.651500
C1991	C199	0.584700	0.306600	0.627400
O951	O95	0.598900	0.329600	0.602300
O961	O96	0.586100	0.250000	0.634000
C2001	C200	0.544700	0.321500	0.677000
H701	H70	0.544600	0.278800	0.679800
C2011	C201	0.526000	0.358700	0.699800
C2021	C202	0.505000	0.332300	0.726300
N221	N22	0.487500	0.313900	0.748300
C2031	C203	0.528800	0.420600	0.696600
H711	H71	0.517500	0.446000	0.712100
C2041	C204	0.758200	0.529400	0.566000
C2051	C205	0.735700	0.521400	0.535200
O971	O97	0.743400	0.554900	0.511500
O981	O98	0.711600	0.474500	0.534200
C2061	C206	0.781200	0.578600	0.568700
H721	H72	0.784600	0.605200	0.551200
C2071	C207	0.799600	0.589600	0.597000
C2081	C208	0.826400	0.645300	0.601700
O991	O99	0.827300	0.681800	0.578900
O1001	O100	0.845700	0.651600	0.627400
C2091	C209	0.795200	0.550400	0.624800
H731	H73	0.807200	0.559400	0.644300
C2101	C210	0.772200	0.499000	0.621400
C2111	C211	0.765300	0.459400	0.648600
N231	N23	0.760500	0.427800	0.669100
C2121	C212	0.752400	0.492500	0.592800
H741	H74	0.734000	0.461500	0.591400
C2131	C213	0.582700	0.850700	0.664900
C2141	C214	0.553600	0.807100	0.648900
O1011	O101	0.528200	0.828000	0.631800
O1021	O102	0.559600	0.750500	0.657100
C2151	C215	0.580200	0.914000	0.658700
H751	H75	0.560300	0.928400	0.645800
C2161	C216	0.605300	0.954900	0.670700
C2171	C217	0.600800	0.022000	0.664000
O1031	O103	0.574900	0.040000	0.645700
O1041	O104	0.624600	0.061400	0.676300
C2181	C218	0.634800	0.934800	0.689700
H761	H76	0.651400	0.963500	0.699000
C2191	C219	0.640500	0.871300	0.695500
C2201	C220	0.672800	0.847000	0.716000
N241	N24	0.696200	0.829300	0.732600
O1051	O105	0.658300	0.390000	0.569900
C2211	C221	0.650100	0.439000	0.588300
H771	H77	0.648800	0.435200	0.610700
O1061	O106	0.644600	0.486100	0.576200
O1071	O107	0.632100	0.333500	0.518600
C2221	C222	0.641600	0.285400	0.500500
H781	H78	0.640600	0.289200	0.478100
O1081	O108	0.651700	0.236000	0.512300
Gd191	Gd19	0.776600	0.437520	0.956590
Gd201	Gd20	0.022330	0.224270	0.105930
Gd211	Gd21	0.948910	0.354580	0.160140
Gd221	Gd22	0.093040	0.146990	0.853770
Gd231	Gd23	0.853670	0.719730	0.070060
Gd241	Gd24	0.845700	0.559930	0.016760
C2231	C223	0.774200	0.243200	0.938300
C2241	C224	0.773000	0.311900	0.943000
O1091	O109	0.749400	0.332900	0.962600
O1101	O110	0.792700	0.344700	0.925000
C2251	C225	0.749500	0.205100	0.954900
H791	H79	0.731200	0.222500	0.968500
C2261	C226	0.751200	0.140700	0.951700
C2271	C227	0.723400	0.100200	0.969600
O1111	O111	0.725400	0.042100	0.963900
O1121	O112	0.699800	0.125200	0.989400
C2281	C228	0.779000	0.113900	0.933600
H801	H80	0.781200	0.071000	0.932500
C2291	C229	0.804600	0.152700	0.916400
C2301	C230	0.831600	0.126100	0.897100
N251	N25	0.857500	0.106700	0.880600
C2311	C231	0.886000	0.169200	0.181600
H811	H81	0.882100	0.211600	0.183800
C2321	C232	0.801200	0.215700	0.919100
H821	H82	0.817900	0.240700	0.907400
C2331	C233	0.877100	0.350400	0.013900
C2341	C234	0.848800	0.400000	0.002800
O1131	O113	0.822100	0.384800	0.985400
O1141	O114	0.855700	0.454100	0.012300
C2351	C235	0.897900	0.357100	0.041300
H831	H83	0.896200	0.393200	0.053500
C2361	C236	0.922400	0.308700	0.051100
C2371	C237	0.941900	0.309600	0.082700
O1151	O115	0.969600	0.271100	0.086500
O1161	O116	0.931000	0.346000	0.104000
C2381	C238	0.926500	0.258700	0.030500
H841	H84	0.942100	0.226000	0.036800
C2391	C239	0.908000	0.255400	0.000800
C2401	C240	0.909300	0.199800	0.981400
N261	N26	0.913100	0.156800	0.965500
C2411	C241	0.881900	0.301500	0.991800
H851	H85	0.868600	0.299900	0.972400
C2421	C242	0.054900	0.433600	0.110600
C2431	C243	0.030300	0.376200	0.113200
O1171	O117	0.040900	0.329700	0.098300
O1181	O118	0.003500	0.381500	0.132600
C2441	C244	0.084200	0.436800	0.087600
H861	H86	0.088300	0.402800	0.074300
C2451	C245	0.108000	0.489400	0.083800
C2461	C246	0.139300	0.490400	0.060200
O1191	O119	0.137100	0.450700	0.037100
O1201	O120	0.164000	0.530700	0.063300
C2471	C247	0.102000	0.539400	0.101300
H871	H87	0.116900	0.574500	0.098200
C2481	C248	0.071900	0.539300	0.125600
C2491	C249	0.062000	0.598000	0.133800
N271	N27	0.058000	0.629000	0.156200
C2501	C250	0.048600	0.483300	0.129800
H881	H88	0.029500	0.482100	0.145500
C2511	C251	0.022000	0.147200	0.010000
C2521	C252	0.022000	0.171700	0.042900
O1211	O121	0.999000	0.149200	0.064400
O1221	O122	0.043500	0.216100	0.050400
C2531	C253	0.047000	0.168000	0.986800
H891	H89	0.063300	0.200400	0.992000
C2541	C254	0.048900	0.143500	0.956300
C2551	C255	0.077200	0.167300	0.934200
O1231	O123	0.084900	0.133300	0.909600
O1241	O124	0.092800	0.219400	0.938400
C2561	C256	0.023300	0.098000	0.947800
H901	H90	0.024200	0.081300	0.927000
C2571	C257	0.995800	0.076500	0.969800
C2581	C258	0.968500	0.027700	0.959800
N281	N28	0.947800	0.991300	0.952000
C2591	C259	0.995400	0.099900	0.000600
H911	H91	0.977800	0.084900	0.015600
C2601	C260	0.057800	0.267400	0.207100
C2611	C261	0.026000	0.284700	0.186300
O1251	O125	0.026300	0.256500	0.158100
O1261	O126	0.001100	0.320500	0.194800
C2621	C262	0.060800	0.295700	0.238100
H921	H92	0.042400	0.323700	0.245200
C2631	C263	0.091800	0.280300	0.257400
C2641	C264	0.094400	0.309100	0.290800
O1271	O127	0.064600	0.336800	0.301300
O1281	O128	0.124500	0.301600	0.307300
C2651	C265	0.119600	0.241600	0.247800
H931	H93	0.141500	0.233500	0.259900
C2661	C266	0.112600	0.215000	0.218000
C2671	C267	0.141800	0.179000	0.208000
N291	N29	0.162700	0.141000	0.199800
C2681	C268	0.085200	0.227400	0.196800
H941	H94	0.084700	0.209900	0.176200
C2691	C269	0.951900	0.552600	0.171000
C2701	C270	0.949500	0.484600	0.168500
O1291	O129	0.966400	0.450600	0.188500
O1301	O130	0.930400	0.462100	0.145600
C2711	C271	0.935100	0.588900	0.149300
H951	H95	0.921600	0.571000	0.132300
C2721	C272	0.937200	0.655100	0.151500
C2731	C273	0.915300	0.693400	0.127400
O1311	O131	0.901100	0.670400	0.102300
O1321	O132	0.913900	0.750000	0.134000
C2741	C274	0.955300	0.678500	0.177000
H961	H96	0.955400	0.721200	0.179800
C2751	C275	0.974000	0.641300	0.199800
C2761	C276	0.995000	0.667700	0.226300
N301	N30	0.012500	0.686100	0.248300
C2771	C277	0.971200	0.579400	0.196600
H971	H97	0.982500	0.554000	0.212100
C2781	C278	0.741800	0.470600	0.066000
C2791	C279	0.764300	0.478600	0.035200
O1331	O133	0.756600	0.445100	0.011500
O1341	O134	0.788400	0.525500	0.034200
C2801	C280	0.718800	0.421400	0.068700
H981	H98	0.715400	0.394800	0.051200
C2811	C281	0.700400	0.410400	0.097000
C2821	C282	0.673600	0.354700	0.101700
O1351	O135	0.672700	0.318200	0.078900
O1361	O136	0.654300	0.348400	0.127400
C2831	C283	0.704800	0.449600	0.124800
H991	H99	0.692800	0.440600	0.144300
C2841	C284	0.727800	0.501000	0.121400
C2851	C285	0.734700	0.540600	0.148600
N311	N31	0.739500	0.572200	0.169100
C2861	C286	0.747600	0.507500	0.092800
H1001	H100	0.766000	0.538500	0.091400
C2871	C287	0.917300	0.149300	0.164900
C2881	C288	0.946400	0.192900	0.148900
O1371	O137	0.971800	0.172000	0.131800
O1381	O138	0.940400	0.249500	0.157100
C2891	C289	0.919800	0.086000	0.158700
H1011	H101	0.939700	0.071600	0.145800
C2901	C290	0.894700	0.045100	0.170700
C2911	C291	0.899200	0.978000	0.164000
O1391	O139	0.925100	0.960000	0.145700
O1401	O140	0.875400	0.938600	0.176300
C2921	C292	0.865200	0.065200	0.189700
H1021	H102	0.848600	0.036500	0.199000
C2931	C293	0.859500	0.128700	0.195500
C2941	C294	0.827200	0.153000	0.216000
N321	N32	0.803800	0.170700	0.232600
O1411	O141	0.841700	0.610000	0.069900
C2951	C295	0.849900	0.561000	0.088300
H1031	H103	0.851200	0.564800	0.110700
O1421	O142	0.855400	0.513900	0.076200
O1431	O143	0.867900	0.666500	0.018600
C2961	C296	0.858400	0.714600	0.000500
H1041	H104	0.859400	0.710800	0.978100
O1441	O144	0.848300	0.764000	0.012300
Gd251	Gd25	0.723400	0.937520	0.956590
Gd261	Gd26	0.477670	0.724270	0.105930
Gd271	Gd27	0.551090	0.854580	0.160140
Gd281	Gd28	0.406960	0.646990	0.853770
Gd291	Gd29	0.646330	0.219730	0.070060
Gd301	Gd30	0.654300	0.059930	0.016760
C2971	C297	0.725800	0.743200	0.938300
C2981	C298	0.727000	0.811900	0.943000
O1451	O145	0.750600	0.832900	0.962600
O1461	O146	0.707300	0.844700	0.925000
C2991	C299	0.750500	0.705100	0.954900
H1051	H105	0.768800	0.722500	0.968500
C3001	C300	0.748800	0.640700	0.951700
C3011	C301	0.776600	0.600200	0.969600
O1471	O147	0.774600	0.542100	0.963900
O1481	O148	0.800200	0.625200	0.989400
C3021	C302	0.721000	0.613900	0.933600
H1061	H106	0.718800	0.571000	0.932500
C3031	C303	0.695400	0.652700	0.916400
C3041	C304	0.668400	0.626100	0.897100
N331	N33	0.642500	0.606700	0.880600
C3051	C305	0.614000	0.669200	0.181600
H1071	H107	0.617900	0.711600	0.183800
C3061	C306	0.698800	0.715700	0.919100
H1081	H108	0.682100	0.740700	0.907400
C3071	C307	0.622900	0.850400	0.013900
C3081	C308	0.651200	0.900000	0.002800
O1491	O149	0.677900	0.884800	0.985400
O1501	O150	0.644300	0.954100	0.012300
C3091	C309	0.602100	0.857100	0.041300
H1091	H109	0.603800	0.893200	0.053500
C3101	C310	0.577600	0.808700	0.051100
C3111	C311	0.558100	0.809600	0.082700
O1511	O151	0.530400	0.771100	0.086500
O1521	O152	0.569000	0.846000	0.104000
C3121	C312	0.573500	0.758700	0.030500
H1101	H110	0.557900	0.726000	0.036800
C3131	C313	0.592000	0.755400	0.000800
C3141	C314	0.590700	0.699800	0.981400
N341	N34	0.586900	0.656800	0.965500
C3151	C315	0.618100	0.801500	0.991800
H1111	H111	0.631400	0.799900	0.972400
C3161	C316	0.445100	0.933600	0.110600
C3171	C317	0.469700	0.876200	0.113200
O1531	O153	0.459100	0.829700	0.098300
O1541	O154	0.496500	0.881500	0.132600
C3181	C318	0.415800	0.936800	0.087600
H1121	H112	0.411700	0.902800	0.074300
C3191	C319	0.392000	0.989400	0.083800
C3201	C320	0.360700	0.990400	0.060200
O1551	O155	0.362900	0.950700	0.037100
O1561	O156	0.336000	0.030700	0.063300
C3211	C321	0.398000	0.039400	0.101300
H1131	H113	0.383100	0.074500	0.098200
C3221	C322	0.428100	0.039300	0.125600
C3231	C323	0.438000	0.098000	0.133800
N351	N35	0.442000	0.129000	0.156200
C3241	C324	0.451400	0.983300	0.129800
H1141	H114	0.470500	0.982100	0.145500
C3251	C325	0.478000	0.647200	0.010000
C3261	C326	0.478000	0.671700	0.042900
O1571	O157	0.501000	0.649200	0.064400
O1581	O158	0.456500	0.716100	0.050400
C3271	C327	0.453000	0.668000	0.986800
H1151	H115	0.436700	0.700400	0.992000
C3281	C328	0.451100	0.643500	0.956300
C3291	C329	0.422800	0.667300	0.934200
O1591	O159	0.415100	0.633300	0.909600
O1601	O160	0.407200	0.719400	0.938400
C3301	C330	0.476700	0.598000	0.947800
H1161	H116	0.475800	0.581300	0.927000
C3311	C331	0.504200	0.576500	0.969800
C3321	C332	0.531500	0.527700	0.959800
N361	N36	0.552200	0.491300	0.952000
C3331	C333	0.504600	0.599900	0.000600
H1171	H117	0.522200	0.584900	0.015600
C3341	C334	0.442200	0.767400	0.207100
C3351	C335	0.474000	0.784700	0.186300
O1611	O161	0.473700	0.756500	0.158100
O1621	O162	0.498900	0.820500	0.194800
C3361	C336	0.439200	0.795700	0.238100
H1181	H118	0.457600	0.823700	0.245200
C3371	C337	0.408200	0.780300	0.257400
C3381	C338	0.405600	0.809100	0.290800
O1631	O163	0.435400	0.836800	0.301300
O1641	O164	0.375500	0.801600	0.307300
C3391	C339	0.380400	0.741600	0.247800
H1191	H119	0.358500	0.733500	0.259900
C3401	C340	0.387400	0.715000	0.218000
C3411	C341	0.358200	0.679000	0.208000
N371	N37	0.337300	0.641000	0.199800
C3421	C342	0.414800	0.727400	0.196800
H1201	H120	0.415300	0.709900	0.176200
C3431	C343	0.548100	0.052600	0.171000
C3441	C344	0.550500	0.984600	0.168500
O1651	O165	0.533600	0.950600	0.188500
O1661	O166	0.569600	0.962100	0.145600
C3451	C345	0.564900	0.088900	0.149300
H1211	H121	0.578400	0.071000	0.132300
C3461	C346	0.562800	0.155100	0.151500
C3471	C347	0.584700	0.193400	0.127400
O1671	O167	0.598900	0.170400	0.102300
O1681	O168	0.586100	0.250000	0.134000
C3481	C348	0.544700	0.178500	0.177000
H1221	H122	0.544600	0.221200	0.179800
C3491	C349	0.526000	0.141300	0.199800
C3501	C350	0.505000	0.167700	0.226300
N381	N38	0.487500	0.186100	0.248300
C3511	C351	0.528800	0.079400	0.196600
H1231	H123	0.517500	0.054000	0.212100
C3521	C352	0.758200	0.970600	0.066000
C3531	C353	0.735700	0.978600	0.035200
O1691	O169	0.743400	0.945100	0.011500
O1701	O170	0.711600	0.025500	0.034200
C3541	C354	0.781200	0.921400	0.068700
H1241	H124	0.784600	0.894800	0.051200
C3551	C355	0.799600	0.910400	0.097000
C3561	C356	0.826400	0.854700	0.101700
O1711	O171	0.827300	0.818200	0.078900
O1721	O172	0.845700	0.848400	0.127400
C3571	C357	0.795200	0.949600	0.124800
H1251	H125	0.807200	0.940600	0.144300
C3581	C358	0.772200	0.001000	0.121400
C3591	C359	0.765300	0.040600	0.148600
N391	N39	0.760500	0.072200	0.169100
C3601	C360	0.752400	0.007500	0.092800
H1261	H126	0.734000	0.038500	0.091400
C3611	C361	0.582700	0.649300	0.164900
C3621	C362	0.553600	0.692900	0.148900
O1731	O173	0.528200	0.672000	0.131800
O1741	O174	0.559600	0.749500	0.157100
C3631	C363	0.580200	0.586000	0.158700
H1271	H127	0.560300	0.571600	0.145800
C3641	C364	0.605300	0.545100	0.170700
C3651	C365	0.600800	0.478000	0.164000
O1751	O175	0.574900	0.460000	0.145700
O1761	O176	0.624600	0.438600	0.176300
C3661	C366	0.634800	0.565200	0.189700
H1281	H128	0.651400	0.536500	0.199000
C3671	C367	0.640500	0.628700	0.195500
C3681	C368	0.672800	0.653000	0.216000
N401	N40	0.696200	0.670700	0.232600
O1771	O177	0.658300	0.110000	0.069900
C3691	C369	0.650100	0.061000	0.088300
H1291	H129	0.648800	0.064800	0.110700
O1781	O178	0.644600	0.013900	0.076200
O1791	O179	0.632100	0.166500	0.018600
C3701	C370	0.641600	0.214600	0.000500
H1301	H130	0.640600	0.210800	0.978100
O1801	O180	0.651700	0.264000	0.012300
Gd311	Gd31	0.776600	0.062480	0.456590
Gd321	Gd32	0.022330	0.275730	0.605930
Gd331	Gd33	0.948910	0.145420	0.660140
Gd341	Gd34	0.093040	0.353010	0.353770
Gd351	Gd35	0.853670	0.780270	0.570060
Gd361	Gd36	0.845700	0.940070	0.516760
C3711	C371	0.774200	0.256800	0.438300
C3721	C372	0.773000	0.188100	0.443000
O1811	O181	0.749400	0.167100	0.462600
O1821	O182	0.792700	0.155300	0.425000
C3731	C373	0.749500	0.294900	0.454900
H1311	H131	0.731200	0.277500	0.468500
C3741	C374	0.751200	0.359300	0.451700
C3751	C375	0.723400	0.399800	0.469600
O1831	O183	0.725400	0.457900	0.463900
O1841	O184	0.699800	0.374800	0.489400
C3761	C376	0.779000	0.386100	0.433600
H1321	H132	0.781200	0.429000	0.432500
C3771	C377	0.804600	0.347300	0.416400
C3781	C378	0.831600	0.373900	0.397100
N411	N41	0.857500	0.393300	0.380600
C3791	C379	0.886000	0.330800	0.681600
H1331	H133	0.882100	0.288400	0.683800
C3801	C380	0.801200	0.284300	0.419100
H1341	H134	0.817900	0.259300	0.407400
C3811	C381	0.877100	0.149600	0.513900
C3821	C382	0.848800	0.100000	0.502800
O1851	O185	0.822100	0.115200	0.485400
O1861	O186	0.855700	0.045900	0.512300
C3831	C383	0.897900	0.142900	0.541300
H1351	H135	0.896200	0.106800	0.553500
C3841	C384	0.922400	0.191300	0.551100
C3851	C385	0.941900	0.190400	0.582700
O1871	O187	0.969600	0.228900	0.586500
O1881	O188	0.931000	0.154000	0.604000
C3861	C386	0.926500	0.241300	0.530500
H1361	H136	0.942100	0.274000	0.536800
C3871	C387	0.908000	0.244600	0.500800
C3881	C388	0.909300	0.300200	0.481400
N421	N42	0.913100	0.343200	0.465500
C3891	C389	0.881900	0.198500	0.491800
H1371	H137	0.868600	0.200100	0.472400
C3901	C390	0.054900	0.066400	0.610600
C3911	C391	0.030300	0.123800	0.613200
O1891	O189	0.040900	0.170300	0.598300
O1901	O190	0.003500	0.118500	0.632600
C3921	C392	0.084200	0.063200	0.587600
H1381	H138	0.088300	0.097200	0.574300
C3931	C393	0.108000	0.010600	0.583800
C3941	C394	0.139300	0.009600	0.560200
O1911	O191	0.137100	0.049300	0.537100
O1921	O192	0.164000	0.969300	0.563300
C3951	C395	0.102000	0.960600	0.601300
H1391	H139	0.116900	0.925500	0.598200
C3961	C396	0.071900	0.960700	0.625600
C3971	C397	0.062000	0.902000	0.633800
N431	N43	0.058000	0.871000	0.656200
C3981	C398	0.048600	0.016700	0.629800
H1401	H140	0.029500	0.017900	0.645500
C3991	C399	0.022000	0.352800	0.510000
C4001	C400	0.022000	0.328300	0.542900
O1931	O193	0.999000	0.350800	0.564400
O1941	O194	0.043500	0.283900	0.550400
C4011	C401	0.047000	0.332000	0.486800
H1411	H141	0.063300	0.299600	0.492000
C4021	C402	0.048900	0.356500	0.456300
C4031	C403	0.077200	0.332700	0.434200
O1951	O195	0.084900	0.366700	0.409600
O1961	O196	0.092800	0.280600	0.438400
C4041	C404	0.023300	0.402000	0.447800
H1421	H142	0.024200	0.418700	0.427000
C4051	C405	0.995800	0.423500	0.469800
C4061	C406	0.968500	0.472300	0.459800
N441	N44	0.947800	0.508700	0.452000
C4071	C407	0.995400	0.400100	0.500600
H1431	H143	0.977800	0.415100	0.515600
C4081	C408	0.057800	0.232600	0.707100
C4091	C409	0.026000	0.215300	0.686300
O1971	O197	0.026300	0.243500	0.658100
O1981	O198	0.001100	0.179500	0.694800
C4101	C410	0.060800	0.204300	0.738100
H1441	H144	0.042400	0.176300	0.745200
C4111	C411	0.091800	0.219700	0.757400
C4121	C412	0.094400	0.190900	0.790800
O1991	O199	0.064600	0.163200	0.801300
O2001	O200	0.124500	0.198400	0.807300
C4131	C413	0.119600	0.258400	0.747800
H1451	H145	0.141500	0.266500	0.759900
C4141	C414	0.112600	0.285000	0.718000
C4151	C415	0.141800	0.321000	0.708000
N451	N45	0.162700	0.359000	0.699800
C4161	C416	0.085200	0.272600	0.696800
H1461	H146	0.084700	0.290100	0.676200
C4171	C417	0.951900	0.947400	0.671000
C4181	C418	0.949500	0.015400	0.668500
O2011	O201	0.966400	0.049400	0.688500
O2021	O202	0.930400	0.037900	0.645600
C4191	C419	0.935100	0.911100	0.649300
H1471	H147	0.921600	0.929000	0.632300
C4201	C420	0.937200	0.844900	0.651500
C4211	C421	0.915300	0.806600	0.627400
O2031	O203	0.901100	0.829600	0.602300
O2041	O204	0.913900	0.750000	0.634000
C4221	C422	0.955300	0.821500	0.677000
H1481	H148	0.955400	0.778800	0.679800
C4231	C423	0.974000	0.858700	0.699800
C4241	C424	0.995000	0.832300	0.726300
N461	N46	0.012500	0.813900	0.748300
C4251	C425	0.971200	0.920600	0.696600
H1491	H149	0.982500	0.946000	0.712100
C4261	C426	0.741800	0.029400	0.566000
C4271	C427	0.764300	0.021400	0.535200
O2051	O205	0.756600	0.054900	0.511500
O2061	O206	0.788400	0.974500	0.534200
C4281	C428	0.718800	0.078600	0.568700
H1501	H150	0.715400	0.105200	0.551200
C4291	C429	0.700400	0.089600	0.597000
C4301	C430	0.673600	0.145300	0.601700
O2071	O207	0.672700	0.181800	0.578900
O2081	O208	0.654300	0.151600	0.627400
C4311	C431	0.704800	0.050400	0.624800
H1511	H151	0.692800	0.059400	0.644300
C4321	C432	0.727800	0.999000	0.621400
C4331	C433	0.734700	0.959400	0.648600
N471	N47	0.739500	0.927800	0.669100
C4341	C434	0.747600	0.992500	0.592800
H1521	H152	0.766000	0.961500	0.591400
C4351	C435	0.917300	0.350700	0.664900
C4361	C436	0.946400	0.307100	0.648900
O2091	O209	0.971800	0.328000	0.631800
O2101	O210	0.940400	0.250500	0.657100
C4371	C437	0.919800	0.414000	0.658700
H1531	H153	0.939700	0.428400	0.645800
C4381	C438	0.894700	0.454900	0.670700
C4391	C439	0.899200	0.522000	0.664000
O2111	O211	0.925100	0.540000	0.645700
O2121	O212	0.875400	0.561400	0.676300
C4401	C440	0.865200	0.434800	0.689700
H1541	H154	0.848600	0.463500	0.699000
C4411	C441	0.859500	0.371300	0.695500
C4421	C442	0.827200	0.347000	0.716000
N481	N48	0.803800	0.329300	0.732600
O2131	O213	0.841700	0.890000	0.569900
C4431	C443	0.849900	0.939000	0.588300
H1551	H155	0.851200	0.935200	0.610700
O2141	O214	0.855400	0.986100	0.576200
O2151	O215	0.867900	0.833500	0.518600
C4441	C444	0.858400	0.785400	0.500500
H1561	H156	0.859400	0.789200	0.478100
O2161	O216	0.848300	0.736000	0.512300
Gd371	Gd37	0.276600	0.437520	0.543410
Gd381	Gd38	0.522330	0.224270	0.394070
Gd391	Gd39	0.448910	0.354580	0.339860
Gd401	Gd40	0.593040	0.146990	0.646230
Gd411	Gd41	0.353670	0.719730	0.429940
Gd421	Gd42	0.345700	0.559930	0.483240
C4451	C445	0.274200	0.243200	0.561700
C4461	C446	0.273000	0.311900	0.557000
O2171	O217	0.249400	0.332900	0.537400
O2181	O218	0.292700	0.344700	0.575000
C4471	C447	0.249500	0.205100	0.545100
H1571	H157	0.231200	0.222500	0.531500
C4481	C448	0.251200	0.140700	0.548300
C4491	C449	0.223400	0.100200	0.530400
O2191	O219	0.225400	0.042100	0.536100
O2201	O220	0.199800	0.125200	0.510600
C4501	C450	0.279000	0.113900	0.566400
H1581	H158	0.281200	0.071000	0.567500
C4511	C451	0.304600	0.152700	0.583600
C4521	C452	0.331600	0.126100	0.602900
N491	N49	0.357500	0.106700	0.619400
C4531	C453	0.386000	0.169200	0.318400
H1591	H159	0.382100	0.211600	0.316200
C4541	C454	0.301200	0.215700	0.580900
H1601	H160	0.317900	0.240700	0.592600
C4551	C455	0.377100	0.350400	0.486100
C4561	C456	0.348800	0.400000	0.497200
O2211	O221	0.322100	0.384800	0.514600
O2221	O222	0.355700	0.454100	0.487700
C4571	C457	0.397900	0.357100	0.458700
H1611	H161	0.396200	0.393200	0.446500
C4581	C458	0.422400	0.308700	0.448900
C4591	C459	0.441900	0.309600	0.417300
O2231	O223	0.469600	0.271100	0.413500
O2241	O224	0.431000	0.346000	0.396000
C4601	C460	0.426500	0.258700	0.469500
H1621	H162	0.442100	0.226000	0.463200
C4611	C461	0.408000	0.255400	0.499200
C4621	C462	0.409300	0.199800	0.518600
N501	N50	0.413100	0.156800	0.534500
C4631	C463	0.381900	0.301500	0.508200
H1631	H163	0.368600	0.299900	0.527600
C4641	C464	0.554900	0.433600	0.389400
C4651	C465	0.530300	0.376200	0.386800
O2251	O225	0.540900	0.329700	0.401700
O2261	O226	0.503500	0.381500	0.367400
C4661	C466	0.584200	0.436800	0.412400
H1641	H164	0.588300	0.402800	0.425700
C4671	C467	0.608000	0.489400	0.416200
C4681	C468	0.639300	0.490400	0.439800
O2271	O227	0.637100	0.450700	0.462900
O2281	O228	0.664000	0.530700	0.436700
C4691	C469	0.602000	0.539400	0.398700
H1651	H165	0.616900	0.574500	0.401800
C4701	C470	0.571900	0.539300	0.374400
C4711	C471	0.562000	0.598000	0.366200
N511	N51	0.558000	0.629000	0.343800
C4721	C472	0.548600	0.483300	0.370200
H1661	H166	0.529500	0.482100	0.354500
C4731	C473	0.522000	0.147200	0.490000
C4741	C474	0.522000	0.171700	0.457100
O2291	O229	0.499000	0.149200	0.435600
O2301	O230	0.543500	0.216100	0.449600
C4751	C475	0.547000	0.168000	0.513200
H1671	H167	0.563300	0.200400	0.508000
C4761	C476	0.548900	0.143500	0.543700
C4771	C477	0.577200	0.167300	0.565800
O2311	O231	0.584900	0.133300	0.590400
O2321	O232	0.592800	0.219400	0.561600
C4781	C478	0.523300	0.098000	0.552200
H1681	H168	0.524200	0.081300	0.573000
C4791	C479	0.495800	0.076500	0.530200
C4801	C480	0.468500	0.027700	0.540200
N521	N52	0.447800	0.991300	0.548000
C4811	C481	0.495400	0.099900	0.499400
H1691	H169	0.477800	0.084900	0.484400
C4821	C482	0.557800	0.267400	0.292900
C4831	C483	0.526000	0.284700	0.313700
O2331	O233	0.526300	0.256500	0.341900
O2341	O234	0.501100	0.320500	0.305200
C4841	C484	0.560800	0.295700	0.261900
H1701	H170	0.542400	0.323700	0.254800
C4851	C485	0.591800	0.280300	0.242600
C4861	C486	0.594400	0.309100	0.209200
O2351	O235	0.564600	0.336800	0.198700
O2361	O236	0.624500	0.301600	0.192700
C4871	C487	0.619600	0.241600	0.252200
H1711	H171	0.641500	0.233500	0.240100
C4881	C488	0.612600	0.215000	0.282000
C4891	C489	0.641800	0.179000	0.292000
N531	N53	0.662700	0.141000	0.300200
C4901	C490	0.585200	0.227400	0.303200
H1721	H172	0.584700	0.209900	0.323800
C4911	C491	0.451900	0.552600	0.329000
C4921	C492	0.449500	0.484600	0.331500
O2371	O237	0.466400	0.450600	0.311500
O2381	O238	0.430400	0.462100	0.354400
C4931	C493	0.435100	0.588900	0.350700
H1731	H173	0.421600	0.571000	0.367700
C4941	C494	0.437200	0.655100	0.348500
C4951	C495	0.415300	0.693400	0.372600
O2391	O239	0.401100	0.670400	0.397700
O2401	O240	0.413900	0.750000	0.366000
C4961	C496	0.455300	0.678500	0.323000
H1741	H174	0.455400	0.721200	0.320200
C4971	C497	0.474000	0.641300	0.300200
C4981	C498	0.495000	0.667700	0.273700
N541	N54	0.512500	0.686100	0.251700
C4991	C499	0.471200	0.579400	0.303400
H1751	H175	0.482500	0.554000	0.287900
C5001	C500	0.241800	0.470600	0.434000
C5011	C501	0.264300	0.478600	0.464800
O2411	O241	0.256600	0.445100	0.488500
O2421	O242	0.288400	0.525500	0.465800
C5021	C502	0.218800	0.421400	0.431300
H1761	H176	0.215400	0.394800	0.448800
C5031	C503	0.200400	0.410400	0.403000
C5041	C504	0.173600	0.354700	0.398300
O2431	O243	0.172700	0.318200	0.421100
O2441	O244	0.154300	0.348400	0.372600
C5051	C505	0.204800	0.449600	0.375200
H1771	H177	0.192800	0.440600	0.355700
C5061	C506	0.227800	0.501000	0.378600
C5071	C507	0.234700	0.540600	0.351400
N551	N55	0.239500	0.572200	0.330900
C5081	C508	0.247600	0.507500	0.407200
H1781	H178	0.266000	0.538500	0.408600
C5091	C509	0.417300	0.149300	0.335100
C5101	C510	0.446400	0.192900	0.351100
O2451	O245	0.471800	0.172000	0.368200
O2461	O246	0.440400	0.249500	0.342900
C5111	C511	0.419800	0.086000	0.341300
H1791	H179	0.439700	0.071600	0.354200
C5121	C512	0.394700	0.045100	0.329300
C5131	C513	0.399200	0.978000	0.336000
O2471	O247	0.425100	0.960000	0.354300
O2481	O248	0.375400	0.938600	0.323700
C5141	C514	0.365200	0.065200	0.310300
H1801	H180	0.348600	0.036500	0.301000
C5151	C515	0.359500	0.128700	0.304500
C5161	C516	0.327200	0.153000	0.284000
N561	N56	0.303800	0.170700	0.267400
O2491	O249	0.341700	0.610000	0.430100
C5171	C517	0.349900	0.561000	0.411700
H1811	H181	0.351200	0.564800	0.389300
O2501	O250	0.355400	0.513900	0.423800
O2511	O251	0.367900	0.666500	0.481400
C5181	C518	0.358400	0.714600	0.499500
H1821	H182	0.359400	0.710800	0.521900
O2521	O252	0.348300	0.764000	0.487700
Gd431	Gd43	0.223400	0.562480	0.043410
Gd441	Gd44	0.977670	0.775730	0.894070
Gd451	Gd45	0.051090	0.645420	0.839860
Gd461	Gd46	0.906960	0.853010	0.146230
Gd471	Gd47	0.146330	0.280270	0.929940
Gd481	Gd48	0.154300	0.440070	0.983240
C5191	C519	0.225800	0.756800	0.061700
C5201	C520	0.227000	0.688100	0.057000
O2531	O253	0.250600	0.667100	0.037400
O2541	O254	0.207300	0.655300	0.075000
C5211	C521	0.250500	0.794900	0.045100
H1831	H183	0.268800	0.777500	0.031500
C5221	C522	0.248800	0.859300	0.048300
C5231	C523	0.276600	0.899800	0.030400
O2551	O255	0.274600	0.957900	0.036100
O2561	O256	0.300200	0.874800	0.010600
C5241	C524	0.221000	0.886100	0.066400
H1841	H184	0.218800	0.929000	0.067500
C5251	C525	0.195400	0.847300	0.083600
C5261	C526	0.168400	0.873900	0.102900
N571	N57	0.142500	0.893300	0.119400
C5271	C527	0.114000	0.830800	0.818400
H1851	H185	0.117900	0.788400	0.816200
C5281	C528	0.198800	0.784300	0.080900
H1861	H186	0.182100	0.759300	0.092600
C5291	C529	0.122900	0.649600	0.986100
C5301	C530	0.151200	0.600000	0.997200
O2571	O257	0.177900	0.615200	0.014600
O2581	O258	0.144300	0.545900	0.987700
C5311	C531	0.102100	0.642900	0.958700
H1871	H187	0.103800	0.606800	0.946500
C5321	C532	0.077600	0.691300	0.948900
C5331	C533	0.058100	0.690400	0.917300
O2591	O259	0.030400	0.728900	0.913500
O2601	O260	0.069000	0.654000	0.896000
C5341	C534	0.073500	0.741300	0.969500
H1881	H188	0.057900	0.774000	0.963200
C5351	C535	0.092000	0.744600	0.999200
C5361	C536	0.090700	0.800200	0.018600
N581	N58	0.086900	0.843200	0.034500
C5371	C537	0.118100	0.698500	0.008200
H1891	H189	0.131400	0.700100	0.027600
C5381	C538	0.945100	0.566400	0.889400
C5391	C539	0.969700	0.623800	0.886800
O2611	O261	0.959100	0.670300	0.901700
O2621	O262	0.996500	0.618500	0.867400
C5401	C540	0.915800	0.563200	0.912400
H1901	H190	0.911700	0.597200	0.925700
C5411	C541	0.892000	0.510600	0.916200
C5421	C542	0.860700	0.509600	0.939800
O2631	O263	0.862900	0.549300	0.962900
O2641	O264	0.836000	0.469300	0.936700
C5431	C543	0.898000	0.460600	0.898700
H1911	H191	0.883100	0.425500	0.901800
C5441	C544	0.928100	0.460700	0.874400
C5451	C545	0.938000	0.402000	0.866200
N591	N59	0.942000	0.371000	0.843800
C5461	C546	0.951400	0.516700	0.870200
H1921	H192	0.970500	0.517900	0.854500
C5471	C547	0.978000	0.852800	0.990000
C5481	C548	0.978000	0.828300	0.957100
O2651	O265	0.001000	0.850800	0.935600
O2661	O266	0.956500	0.783900	0.949600
C5491	C549	0.953000	0.832000	0.013200
H1931	H193	0.936700	0.799600	0.008000
C5501	C550	0.951100	0.856500	0.043700
C5511	C551	0.922800	0.832700	0.065800
O2671	O267	0.915100	0.866700	0.090400
O2681	O268	0.907200	0.780600	0.061600
C5521	C552	0.976700	0.902000	0.052200
H1941	H194	0.975800	0.918700	0.073000
C5531	C553	0.004200	0.923500	0.030200
C5541	C554	0.031500	0.972300	0.040200
N601	N60	0.052200	0.008700	0.048000
C5551	C555	0.004600	0.900100	0.999400
H1951	H195	0.022200	0.915100	0.984400
C5561	C556	0.942200	0.732600	0.792900
C5571	C557	0.974000	0.715300	0.813700
O2691	O269	0.973700	0.743500	0.841900
O2701	O270	0.998900	0.679500	0.805200
C5581	C558	0.939200	0.704300	0.761900
H1961	H196	0.957600	0.676300	0.754800
C5591	C559	0.908200	0.719700	0.742600
C5601	C560	0.905600	0.690900	0.709200
O2711	O271	0.935400	0.663200	0.698700
O2721	O272	0.875500	0.698400	0.692700
C5611	C561	0.880400	0.758400	0.752200
H1971	H197	0.858500	0.766500	0.740100
C5621	C562	0.887400	0.785000	0.782000
C5631	C563	0.858200	0.821000	0.792000
N611	N61	0.837300	0.859000	0.800200
C5641	C564	0.914800	0.772600	0.803200
H1981	H198	0.915300	0.790100	0.823800
C5651	C565	0.048100	0.447400	0.829000
C5661	C566	0.050500	0.515400	0.831500
O2731	O273	0.033600	0.549400	0.811500
O2741	O274	0.069600	0.537900	0.854400
C5671	C567	0.064900	0.411100	0.850700
H1991	H199	0.078400	0.429000	0.867700
C5681	C568	0.062800	0.344900	0.848500
C5691	C569	0.084700	0.306600	0.872600
O2751	O275	0.098900	0.329600	0.897700
O2761	O276	0.086100	0.250000	0.866000
C5701	C570	0.044700	0.321500	0.823000
H2001	H200	0.044600	0.278800	0.820200
C5711	C571	0.026000	0.358700	0.800200
C5721	C572	0.005000	0.332300	0.773700
N621	N62	0.987500	0.313900	0.751700
C5731	C573	0.028800	0.420600	0.803400
H2011	H201	0.017500	0.446000	0.787900
C5741	C574	0.258200	0.529400	0.934000
C5751	C575	0.235700	0.521400	0.964800
O2771	O277	0.243400	0.554900	0.988500
O2781	O278	0.211600	0.474500	0.965800
C5761	C576	0.281200	0.578600	0.931300
H2021	H202	0.284600	0.605200	0.948800
C5771	C577	0.299600	0.589600	0.903000
C5781	C578	0.326400	0.645300	0.898300
O2791	O279	0.327300	0.681800	0.921100
O2801	O280	0.345700	0.651600	0.872600
C5791	C579	0.295200	0.550400	0.875200
H2031	H203	0.307200	0.559400	0.855700
C5801	C580	0.272200	0.499000	0.878600
C5811	C581	0.265300	0.459400	0.851400
N631	N63	0.260500	0.427800	0.830900
C5821	C582	0.252400	0.492500	0.907200
H2041	H204	0.234000	0.461500	0.908600
C5831	C583	0.082700	0.850700	0.835100
C5841	C584	0.053600	0.807100	0.851100
O2811	O281	0.028200	0.828000	0.868200
O2821	O282	0.059600	0.750500	0.842900
C5851	C585	0.080200	0.914000	0.841300
H2051	H205	0.060300	0.928400	0.854200
C5861	C586	0.105300	0.954900	0.829300
C5871	C587	0.100800	0.022000	0.836000
O2831	O283	0.074900	0.040000	0.854300
O2841	O284	0.124600	0.061400	0.823700
C5881	C588	0.134800	0.934800	0.810300
H2061	H206	0.151400	0.963500	0.801000
C5891	C589	0.140500	0.871300	0.804500
C5901	C590	0.172800	0.847000	0.784000
N641	N64	0.196200	0.829300	0.767400
O2851	O285	0.158300	0.390000	0.930100
C5911	C591	0.150100	0.439000	0.911700
H2071	H207	0.148800	0.435200	0.889300
O2861	O286	0.144600	0.486100	0.923800
O2871	O287	0.132100	0.333500	0.981400
C5921	C592	0.141600	0.285400	0.999500
H2081	H208	0.140600	0.289200	0.021900
O2881	O288	0.151700	0.236000	0.987700
