data_DANFUW_clean_PM
_symmetry_space_group_name_H-M	'P1'
_cell_length_a	19.602500
_cell_length_b	23.527400
_cell_length_c	25.922300
_cell_angle_alpha	90.000000
_cell_angle_beta	90.000000
_cell_angle_gamma	90.000000
_symmetry_Int_Tables_number 1

loop_
_symmetry_equiv_pos_as_xyz
'x,y,z'

loop_
_atom_site_label
_atom_site_type_symbol
_atom_site_fract_x
_atom_site_fract_y
_atom_site_fract_z
Ni11	Ni1	0.316200	0.335240	0.200280
O11	O1	0.955780	0.319810	0.227920
O21	O2	0.912640	0.363380	0.297140
O31	O3	0.210780	0.326400	0.214880
O41	O4	0.267430	0.396250	0.251000
O51	O5	0.084080	0.517140	0.334380
C11	C1	0.757650	0.380410	0.606930
H11	H1	0.771300	0.341900	0.603300
C21	C2	0.789940	0.420400	0.577240
H21	H2	0.824700	0.409300	0.553700
C31	C3	0.771670	0.477120	0.581640
C41	C4	0.718560	0.489330	0.615050
H31	H3	0.702800	0.527300	0.618600
C51	C5	0.688810	0.446560	0.642960
H41	H4	0.652200	0.456100	0.665300
C61	C6	0.809910	0.523190	0.555070
C71	C7	0.850110	0.513930	0.511650
H51	H5	0.850600	0.477500	0.495900
C81	C8	0.889440	0.557500	0.491220
C91	C9	0.885910	0.610230	0.515430
H61	H6	0.911700	0.641500	0.502800
C101	C10	0.843960	0.616510	0.558440
C111	C11	0.839710	0.670700	0.588310
C121	C12	0.889670	0.711400	0.588990
H71	H7	0.929300	0.706800	0.568300
C131	C13	0.882610	0.759240	0.619680
H81	H8	0.917700	0.787100	0.618900
C141	C14	0.781230	0.728100	0.649360
H91	H9	0.742100	0.733400	0.670400
C151	C15	0.784870	0.679940	0.620080
H101	H10	0.749200	0.652700	0.621700
C161	C16	0.937820	0.546750	0.448260
C171	C17	0.959380	0.589530	0.414700
H111	H11	0.941100	0.626700	0.418200
C181	C18	0.006710	0.578800	0.376500
H121	H12	0.020200	0.608300	0.353600
C191	C19	0.034290	0.525320	0.371670
C201	C20	0.014690	0.482690	0.404760
H131	H13	0.034500	0.446000	0.401900
C211	C21	0.966560	0.493270	0.441910
H141	H14	0.952500	0.463200	0.463900
C221	C22	0.083610	0.465150	0.308550
C231	C23	0.023330	0.436500	0.298690
H151	H15	0.981100	0.452000	0.309800
C241	C24	0.024700	0.385430	0.272680
C251	C25	0.086350	0.364320	0.254500
H161	H16	0.087300	0.329700	0.235600
C261	C26	0.146270	0.393400	0.263780
C271	C27	0.145360	0.444260	0.291540
H171	H17	0.186500	0.464100	0.298600
C281	C28	0.959420	0.353510	0.264910
C291	C29	0.212020	0.371070	0.242620
N11	N1	0.708230	0.392290	0.640620
N21	N2	0.806040	0.574200	0.577580
N31	N3	0.829220	0.767920	0.650070
Ni21	Ni2	0.816200	0.835240	0.700280
O61	O6	0.455780	0.819810	0.727920
O71	O7	0.412640	0.863380	0.797140
O81	O8	0.710780	0.826400	0.714880
O91	O9	0.767430	0.896250	0.751000
O101	O10	0.584080	0.017140	0.834380
C301	C30	0.257650	0.880410	0.106930
H181	H18	0.271300	0.841900	0.103300
C311	C31	0.289940	0.920400	0.077240
H191	H19	0.324700	0.909300	0.053700
C321	C32	0.271670	0.977120	0.081640
C331	C33	0.218560	0.989330	0.115050
H201	H20	0.202800	0.027300	0.118600
C341	C34	0.188810	0.946560	0.142960
H211	H21	0.152200	0.956100	0.165300
C351	C35	0.309910	0.023190	0.055070
C361	C36	0.350110	0.013930	0.011650
H221	H22	0.350600	0.977500	0.995900
C371	C37	0.389440	0.057500	0.991220
C381	C38	0.385910	0.110230	0.015430
H231	H23	0.411700	0.141500	0.002800
C391	C39	0.343960	0.116510	0.058440
C401	C40	0.339710	0.170700	0.088310
C411	C41	0.389670	0.211400	0.088990
H241	H24	0.429300	0.206800	0.068300
C421	C42	0.382610	0.259240	0.119680
H251	H25	0.417700	0.287100	0.118900
C431	C43	0.281230	0.228100	0.149360
H261	H26	0.242100	0.233400	0.170400
C441	C44	0.284870	0.179940	0.120080
H271	H27	0.249200	0.152700	0.121700
C451	C45	0.437820	0.046750	0.948260
C461	C46	0.459380	0.089530	0.914700
H281	H28	0.441100	0.126700	0.918200
C471	C47	0.506710	0.078800	0.876500
H291	H29	0.520200	0.108300	0.853600
C481	C48	0.534290	0.025320	0.871670
C491	C49	0.514690	0.982690	0.904760
H301	H30	0.534500	0.946000	0.901900
C501	C50	0.466560	0.993270	0.941910
H311	H31	0.452500	0.963200	0.963900
C511	C51	0.583610	0.965150	0.808550
C521	C52	0.523330	0.936500	0.798690
H321	H32	0.481100	0.952000	0.809800
C531	C53	0.524700	0.885430	0.772680
C541	C54	0.586350	0.864320	0.754500
H331	H33	0.587300	0.829700	0.735600
C551	C55	0.646270	0.893400	0.763780
C561	C56	0.645360	0.944260	0.791540
H341	H34	0.686500	0.964100	0.798600
C571	C57	0.459420	0.853510	0.764910
C581	C58	0.712020	0.871070	0.742620
N41	N4	0.208230	0.892290	0.140620
N51	N5	0.306040	0.074200	0.077580
N61	N6	0.329220	0.267920	0.150070
Ni31	Ni3	0.683800	0.835240	0.299720
O111	O11	0.044220	0.819810	0.272080
O121	O12	0.087360	0.863380	0.202860
O131	O13	0.789220	0.826400	0.285120
O141	O14	0.732570	0.896250	0.249000
O151	O15	0.915920	0.017140	0.165620
C591	C59	0.242350	0.880410	0.893070
H351	H35	0.228700	0.841900	0.896700
C601	C60	0.210060	0.920400	0.922760
H361	H36	0.175300	0.909300	0.946300
C611	C61	0.228330	0.977120	0.918360
C621	C62	0.281440	0.989330	0.884950
H371	H37	0.297200	0.027300	0.881400
C631	C63	0.311190	0.946560	0.857040
H381	H38	0.347800	0.956100	0.834700
C641	C64	0.190090	0.023190	0.944930
C651	C65	0.149890	0.013930	0.988350
H391	H39	0.149400	0.977500	0.004100
C661	C66	0.110560	0.057500	0.008780
C671	C67	0.114090	0.110230	0.984570
H401	H40	0.088300	0.141500	0.997200
C681	C68	0.156040	0.116510	0.941560
C691	C69	0.160290	0.170700	0.911690
C701	C70	0.110330	0.211400	0.911010
H411	H41	0.070700	0.206800	0.931700
C711	C71	0.117390	0.259240	0.880320
H421	H42	0.082300	0.287100	0.881100
C721	C72	0.218770	0.228100	0.850640
H431	H43	0.257900	0.233400	0.829600
C731	C73	0.215130	0.179940	0.879920
H441	H44	0.250800	0.152700	0.878300
C741	C74	0.062180	0.046750	0.051740
C751	C75	0.040620	0.089530	0.085300
H451	H45	0.058900	0.126700	0.081800
C761	C76	0.993290	0.078800	0.123500
H461	H46	0.979800	0.108300	0.146400
C771	C77	0.965710	0.025320	0.128330
C781	C78	0.985310	0.982690	0.095240
H471	H47	0.965500	0.946000	0.098100
C791	C79	0.033440	0.993270	0.058090
H481	H48	0.047500	0.963200	0.036100
C801	C80	0.916390	0.965150	0.191450
C811	C81	0.976670	0.936500	0.201310
H491	H49	0.018900	0.952000	0.190200
C821	C82	0.975300	0.885430	0.227320
C831	C83	0.913650	0.864320	0.245500
H501	H50	0.912700	0.829700	0.264400
C841	C84	0.853730	0.893400	0.236220
C851	C85	0.854640	0.944260	0.208460
H511	H51	0.813500	0.964100	0.201400
C861	C86	0.040580	0.853510	0.235090
C871	C87	0.787980	0.871070	0.257380
N71	N7	0.291770	0.892290	0.859380
N81	N8	0.193960	0.074200	0.922420
N91	N9	0.170780	0.267920	0.849930
Ni41	Ni4	0.183800	0.335240	0.799720
O161	O16	0.544220	0.319810	0.772080
O171	O17	0.587360	0.363380	0.702860
O181	O18	0.289220	0.326400	0.785120
O191	O19	0.232570	0.396250	0.749000
O201	O20	0.415920	0.517140	0.665620
C881	C88	0.742350	0.380410	0.393070
H521	H52	0.728700	0.341900	0.396700
C891	C89	0.710060	0.420400	0.422760
H531	H53	0.675300	0.409300	0.446300
C901	C90	0.728330	0.477120	0.418360
C911	C91	0.781440	0.489330	0.384950
H541	H54	0.797200	0.527300	0.381400
C921	C92	0.811190	0.446560	0.357040
H551	H55	0.847800	0.456100	0.334700
C931	C93	0.690090	0.523190	0.444930
C941	C94	0.649890	0.513930	0.488350
H561	H56	0.649400	0.477500	0.504100
C951	C95	0.610560	0.557500	0.508780
C961	C96	0.614090	0.610230	0.484570
H571	H57	0.588300	0.641500	0.497200
C971	C97	0.656040	0.616510	0.441560
C981	C98	0.660290	0.670700	0.411690
C991	C99	0.610330	0.711400	0.411010
H581	H58	0.570700	0.706800	0.431700
C1001	C100	0.617390	0.759240	0.380320
H591	H59	0.582300	0.787100	0.381100
C1011	C101	0.718770	0.728100	0.350640
H601	H60	0.757900	0.733400	0.329600
C1021	C102	0.715130	0.679940	0.379920
H611	H61	0.750800	0.652700	0.378300
C1031	C103	0.562180	0.546750	0.551740
C1041	C104	0.540620	0.589530	0.585300
H621	H62	0.558900	0.626700	0.581800
C1051	C105	0.493290	0.578800	0.623500
H631	H63	0.479800	0.608300	0.646400
C1061	C106	0.465710	0.525320	0.628330
C1071	C107	0.485310	0.482690	0.595240
H641	H64	0.465500	0.446000	0.598100
C1081	C108	0.533440	0.493270	0.558090
H651	H65	0.547500	0.463200	0.536100
C1091	C109	0.416390	0.465150	0.691450
C1101	C110	0.476670	0.436500	0.701310
H661	H66	0.518900	0.452000	0.690200
C1111	C111	0.475300	0.385430	0.727320
C1121	C112	0.413650	0.364320	0.745500
H671	H67	0.412700	0.329700	0.764400
C1131	C113	0.353730	0.393400	0.736220
C1141	C114	0.354640	0.444260	0.708460
H681	H68	0.313500	0.464100	0.701400
C1151	C115	0.540580	0.353510	0.735090
C1161	C116	0.287980	0.371070	0.757380
N101	N10	0.791770	0.392290	0.359380
N111	N11	0.693960	0.574200	0.422420
N121	N12	0.670780	0.767920	0.349930
Ni51	Ni5	0.816200	0.335240	0.299720
O211	O21	0.455780	0.319810	0.272080
O221	O22	0.412640	0.363380	0.202860
O231	O23	0.710780	0.326400	0.285120
O241	O24	0.767430	0.396250	0.249000
O251	O25	0.584080	0.517140	0.165620
C1171	C117	0.257650	0.380410	0.893070
H691	H69	0.271300	0.341900	0.896700
C1181	C118	0.289940	0.420400	0.922760
H701	H70	0.324700	0.409300	0.946300
C1191	C119	0.271670	0.477120	0.918360
C1201	C120	0.218560	0.489330	0.884950
H711	H71	0.202800	0.527300	0.881400
C1211	C121	0.188810	0.446560	0.857040
H721	H72	0.152200	0.456100	0.834700
C1221	C122	0.309910	0.523190	0.944930
C1231	C123	0.350110	0.513930	0.988350
H731	H73	0.350600	0.477500	0.004100
C1241	C124	0.389440	0.557500	0.008780
C1251	C125	0.385910	0.610230	0.984570
H741	H74	0.411700	0.641500	0.997200
C1261	C126	0.343960	0.616510	0.941560
C1271	C127	0.339710	0.670700	0.911690
C1281	C128	0.389670	0.711400	0.911010
H751	H75	0.429300	0.706800	0.931700
C1291	C129	0.382610	0.759240	0.880320
H761	H76	0.417700	0.787100	0.881100
C1301	C130	0.281230	0.728100	0.850640
H771	H77	0.242100	0.733400	0.829600
C1311	C131	0.284870	0.679940	0.879920
H781	H78	0.249200	0.652700	0.878300
C1321	C132	0.437820	0.546750	0.051740
C1331	C133	0.459380	0.589530	0.085300
H791	H79	0.441100	0.626700	0.081800
C1341	C134	0.506710	0.578800	0.123500
H801	H80	0.520200	0.608300	0.146400
C1351	C135	0.534290	0.525320	0.128330
C1361	C136	0.514690	0.482690	0.095240
H811	H81	0.534500	0.446000	0.098100
C1371	C137	0.466560	0.493270	0.058090
H821	H82	0.452500	0.463200	0.036100
C1381	C138	0.583610	0.465150	0.191450
C1391	C139	0.523330	0.436500	0.201310
H831	H83	0.481100	0.452000	0.190200
C1401	C140	0.524700	0.385430	0.227320
C1411	C141	0.586350	0.364320	0.245500
H841	H84	0.587300	0.329700	0.264400
C1421	C142	0.646270	0.393400	0.236220
C1431	C143	0.645360	0.444260	0.208460
H851	H85	0.686500	0.464100	0.201400
C1441	C144	0.459420	0.353510	0.235090
C1451	C145	0.712020	0.371070	0.257380
N131	N13	0.208230	0.392290	0.859380
N141	N14	0.306040	0.574200	0.922420
N151	N15	0.329220	0.767920	0.849930
Ni61	Ni6	0.316200	0.835240	0.799720
O261	O26	0.955780	0.819810	0.772080
O271	O27	0.912640	0.863380	0.702860
O281	O28	0.210780	0.826400	0.785120
O291	O29	0.267430	0.896250	0.749000
O301	O30	0.084080	0.017140	0.665620
C1461	C146	0.757650	0.880410	0.393070
H861	H86	0.771300	0.841900	0.396700
C1471	C147	0.789940	0.920400	0.422760
H871	H87	0.824700	0.909300	0.446300
C1481	C148	0.771670	0.977120	0.418360
C1491	C149	0.718560	0.989330	0.384950
H881	H88	0.702800	0.027300	0.381400
C1501	C150	0.688810	0.946560	0.357040
H891	H89	0.652200	0.956100	0.334700
C1511	C151	0.809910	0.023190	0.444930
C1521	C152	0.850110	0.013930	0.488350
H901	H90	0.850600	0.977500	0.504100
C1531	C153	0.889440	0.057500	0.508780
C1541	C154	0.885910	0.110230	0.484570
H911	H91	0.911700	0.141500	0.497200
C1551	C155	0.843960	0.116510	0.441560
C1561	C156	0.839710	0.170700	0.411690
C1571	C157	0.889670	0.211400	0.411010
H921	H92	0.929300	0.206800	0.431700
C1581	C158	0.882610	0.259240	0.380320
H931	H93	0.917700	0.287100	0.381100
C1591	C159	0.781230	0.228100	0.350640
H941	H94	0.742100	0.233400	0.329600
C1601	C160	0.784870	0.179940	0.379920
H951	H95	0.749200	0.152700	0.378300
C1611	C161	0.937820	0.046750	0.551740
C1621	C162	0.959380	0.089530	0.585300
H961	H96	0.941100	0.126700	0.581800
C1631	C163	0.006710	0.078800	0.623500
H971	H97	0.020200	0.108300	0.646400
C1641	C164	0.034290	0.025320	0.628330
C1651	C165	0.014690	0.982690	0.595240
H981	H98	0.034500	0.946000	0.598100
C1661	C166	0.966560	0.993270	0.558090
H991	H99	0.952500	0.963200	0.536100
C1671	C167	0.083610	0.965150	0.691450
C1681	C168	0.023330	0.936500	0.701310
H1001	H100	0.981100	0.952000	0.690200
C1691	C169	0.024700	0.885430	0.727320
C1701	C170	0.086350	0.864320	0.745500
H1011	H101	0.087300	0.829700	0.764400
C1711	C171	0.146270	0.893400	0.736220
C1721	C172	0.145360	0.944260	0.708460
H1021	H102	0.186500	0.964100	0.701400
C1731	C173	0.959420	0.853510	0.735090
C1741	C174	0.212020	0.871070	0.757380
N161	N16	0.708230	0.892290	0.359380
N171	N17	0.806040	0.074200	0.422420
N181	N18	0.829220	0.267920	0.349930
Ni71	Ni7	0.183800	0.835240	0.200280
O311	O31	0.544220	0.819810	0.227920
O321	O32	0.587360	0.863380	0.297140
O331	O33	0.289220	0.826400	0.214880
O341	O34	0.232570	0.896250	0.251000
O351	O35	0.415920	0.017140	0.334380
C1751	C175	0.742350	0.880410	0.606930
H1031	H103	0.728700	0.841900	0.603300
C1761	C176	0.710060	0.920400	0.577240
H1041	H104	0.675300	0.909300	0.553700
C1771	C177	0.728330	0.977120	0.581640
C1781	C178	0.781440	0.989330	0.615050
H1051	H105	0.797200	0.027300	0.618600
C1791	C179	0.811190	0.946560	0.642960
H1061	H106	0.847800	0.956100	0.665300
C1801	C180	0.690090	0.023190	0.555070
C1811	C181	0.649890	0.013930	0.511650
H1071	H107	0.649400	0.977500	0.495900
C1821	C182	0.610560	0.057500	0.491220
C1831	C183	0.614090	0.110230	0.515430
H1081	H108	0.588300	0.141500	0.502800
C1841	C184	0.656040	0.116510	0.558440
C1851	C185	0.660290	0.170700	0.588310
C1861	C186	0.610330	0.211400	0.588990
H1091	H109	0.570700	0.206800	0.568300
C1871	C187	0.617390	0.259240	0.619680
H1101	H110	0.582300	0.287100	0.618900
C1881	C188	0.718770	0.228100	0.649360
H1111	H111	0.757900	0.233400	0.670400
C1891	C189	0.715130	0.179940	0.620080
H1121	H112	0.750800	0.152700	0.621700
C1901	C190	0.562180	0.046750	0.448260
C1911	C191	0.540620	0.089530	0.414700
H1131	H113	0.558900	0.126700	0.418200
C1921	C192	0.493290	0.078800	0.376500
H1141	H114	0.479800	0.108300	0.353600
C1931	C193	0.465710	0.025320	0.371670
C1941	C194	0.485310	0.982690	0.404760
H1151	H115	0.465500	0.946000	0.401900
C1951	C195	0.533440	0.993270	0.441910
H1161	H116	0.547500	0.963200	0.463900
C1961	C196	0.416390	0.965150	0.308550
C1971	C197	0.476670	0.936500	0.298690
H1171	H117	0.518900	0.952000	0.309800
C1981	C198	0.475300	0.885430	0.272680
C1991	C199	0.413650	0.864320	0.254500
H1181	H118	0.412700	0.829700	0.235600
C2001	C200	0.353730	0.893400	0.263780
C2011	C201	0.354640	0.944260	0.291540
H1191	H119	0.313500	0.964100	0.298600
C2021	C202	0.540580	0.853510	0.264910
C2031	C203	0.287980	0.871070	0.242620
N191	N19	0.791770	0.892290	0.640620
N201	N20	0.693960	0.074200	0.577580
N211	N21	0.670780	0.267920	0.650070
Ni81	Ni8	0.683800	0.335240	0.700280
O361	O36	0.044220	0.319810	0.727920
O371	O37	0.087360	0.363380	0.797140
O381	O38	0.789220	0.326400	0.714880
O391	O39	0.732570	0.396250	0.751000
O401	O40	0.915920	0.517140	0.834380
C2041	C204	0.242350	0.380410	0.106930
H1201	H120	0.228700	0.341900	0.103300
C2051	C205	0.210060	0.420400	0.077240
H1211	H121	0.175300	0.409300	0.053700
C2061	C206	0.228330	0.477120	0.081640
C2071	C207	0.281440	0.489330	0.115050
H1221	H122	0.297200	0.527300	0.118600
C2081	C208	0.311190	0.446560	0.142960
H1231	H123	0.347800	0.456100	0.165300
C2091	C209	0.190090	0.523190	0.055070
C2101	C210	0.149890	0.513930	0.011650
H1241	H124	0.149400	0.477500	0.995900
C2111	C211	0.110560	0.557500	0.991220
C2121	C212	0.114090	0.610230	0.015430
H1251	H125	0.088300	0.641500	0.002800
C2131	C213	0.156040	0.616510	0.058440
C2141	C214	0.160290	0.670700	0.088310
C2151	C215	0.110330	0.711400	0.088990
H1261	H126	0.070700	0.706800	0.068300
C2161	C216	0.117390	0.759240	0.119680
H1271	H127	0.082300	0.787100	0.118900
C2171	C217	0.218770	0.728100	0.149360
H1281	H128	0.257900	0.733400	0.170400
C2181	C218	0.215130	0.679940	0.120080
H1291	H129	0.250800	0.652700	0.121700
C2191	C219	0.062180	0.546750	0.948260
C2201	C220	0.040620	0.589530	0.914700
H1301	H130	0.058900	0.626700	0.918200
C2211	C221	0.993290	0.578800	0.876500
H1311	H131	0.979800	0.608300	0.853600
C2221	C222	0.965710	0.525320	0.871670
C2231	C223	0.985310	0.482690	0.904760
H1321	H132	0.965500	0.446000	0.901900
C2241	C224	0.033440	0.493270	0.941910
H1331	H133	0.047500	0.463200	0.963900
C2251	C225	0.916390	0.465150	0.808550
C2261	C226	0.976670	0.436500	0.798690
H1341	H134	0.018900	0.452000	0.809800
C2271	C227	0.975300	0.385430	0.772680
C2281	C228	0.913650	0.364320	0.754500
H1351	H135	0.912700	0.329700	0.735600
C2291	C229	0.853730	0.393400	0.763780
C2301	C230	0.854640	0.444260	0.791540
H1361	H136	0.813500	0.464100	0.798600
C2311	C231	0.040580	0.353510	0.764910
C2321	C232	0.787980	0.371070	0.742620
N221	N22	0.291770	0.392290	0.140620
N231	N23	0.193960	0.574200	0.077580
N241	N24	0.170780	0.767920	0.150070
Ni91	Ni9	0.183800	0.664760	0.700280
O411	O41	0.544220	0.680190	0.727920
O421	O42	0.587360	0.636620	0.797140
O431	O43	0.289220	0.673600	0.714880
O441	O44	0.232570	0.603750	0.751000
O451	O45	0.415920	0.482860	0.834380
C2331	C233	0.742350	0.619590	0.106930
H1371	H137	0.728700	0.658100	0.103300
C2341	C234	0.710060	0.579600	0.077240
H1381	H138	0.675300	0.590700	0.053700
C2351	C235	0.728330	0.522880	0.081640
C2361	C236	0.781440	0.510670	0.115050
H1391	H139	0.797200	0.472700	0.118600
C2371	C237	0.811190	0.553440	0.142960
H1401	H140	0.847800	0.543900	0.165300
C2381	C238	0.690090	0.476810	0.055070
C2391	C239	0.649890	0.486070	0.011650
H1411	H141	0.649400	0.522500	0.995900
C2401	C240	0.610560	0.442500	0.991220
C2411	C241	0.614090	0.389770	0.015430
H1421	H142	0.588300	0.358500	0.002800
C2421	C242	0.656040	0.383490	0.058440
C2431	C243	0.660290	0.329300	0.088310
C2441	C244	0.610330	0.288600	0.088990
H1431	H143	0.570700	0.293200	0.068300
C2451	C245	0.617390	0.240760	0.119680
H1441	H144	0.582300	0.212900	0.118900
C2461	C246	0.718770	0.271900	0.149360
H1451	H145	0.757900	0.266600	0.170400
C2471	C247	0.715130	0.320060	0.120080
H1461	H146	0.750800	0.347300	0.121700
C2481	C248	0.562180	0.453250	0.948260
C2491	C249	0.540620	0.410470	0.914700
H1471	H147	0.558900	0.373300	0.918200
C2501	C250	0.493290	0.421200	0.876500
H1481	H148	0.479800	0.391700	0.853600
C2511	C251	0.465710	0.474680	0.871670
C2521	C252	0.485310	0.517310	0.904760
H1491	H149	0.465500	0.554000	0.901900
C2531	C253	0.533440	0.506730	0.941910
H1501	H150	0.547500	0.536800	0.963900
C2541	C254	0.416390	0.534850	0.808550
C2551	C255	0.476670	0.563500	0.798690
H1511	H151	0.518900	0.548000	0.809800
C2561	C256	0.475300	0.614570	0.772680
C2571	C257	0.413650	0.635680	0.754500
H1521	H152	0.412700	0.670300	0.735600
C2581	C258	0.353730	0.606600	0.763780
C2591	C259	0.354640	0.555740	0.791540
H1531	H153	0.313500	0.535900	0.798600
C2601	C260	0.540580	0.646490	0.764910
C2611	C261	0.287980	0.628930	0.742620
N251	N25	0.791770	0.607710	0.140620
N261	N26	0.693960	0.425800	0.077580
N271	N27	0.670780	0.232080	0.150070
Ni101	Ni10	0.683800	0.164760	0.200280
O461	O46	0.044220	0.180190	0.227920
O471	O47	0.087360	0.136620	0.297140
O481	O48	0.789220	0.173600	0.214880
O491	O49	0.732570	0.103750	0.251000
O501	O50	0.915920	0.982860	0.334380
C2621	C262	0.242350	0.119590	0.606930
H1541	H154	0.228700	0.158100	0.603300
C2631	C263	0.210060	0.079600	0.577240
H1551	H155	0.175300	0.090700	0.553700
C2641	C264	0.228330	0.022880	0.581640
C2651	C265	0.281440	0.010670	0.615050
H1561	H156	0.297200	0.972700	0.618600
C2661	C266	0.311190	0.053440	0.642960
H1571	H157	0.347800	0.043900	0.665300
C2671	C267	0.190090	0.976810	0.555070
C2681	C268	0.149890	0.986070	0.511650
H1581	H158	0.149400	0.022500	0.495900
C2691	C269	0.110560	0.942500	0.491220
C2701	C270	0.114090	0.889770	0.515430
H1591	H159	0.088300	0.858500	0.502800
C2711	C271	0.156040	0.883490	0.558440
C2721	C272	0.160290	0.829300	0.588310
C2731	C273	0.110330	0.788600	0.588990
H1601	H160	0.070700	0.793200	0.568300
C2741	C274	0.117390	0.740760	0.619680
H1611	H161	0.082300	0.712900	0.618900
C2751	C275	0.218770	0.771900	0.649360
H1621	H162	0.257900	0.766600	0.670400
C2761	C276	0.215130	0.820060	0.620080
H1631	H163	0.250800	0.847300	0.621700
C2771	C277	0.062180	0.953250	0.448260
C2781	C278	0.040620	0.910470	0.414700
H1641	H164	0.058900	0.873300	0.418200
C2791	C279	0.993290	0.921200	0.376500
H1651	H165	0.979800	0.891700	0.353600
C2801	C280	0.965710	0.974680	0.371670
C2811	C281	0.985310	0.017310	0.404760
H1661	H166	0.965500	0.054000	0.401900
C2821	C282	0.033440	0.006730	0.441910
H1671	H167	0.047500	0.036800	0.463900
C2831	C283	0.916390	0.034850	0.308550
C2841	C284	0.976670	0.063500	0.298690
H1681	H168	0.018900	0.048000	0.309800
C2851	C285	0.975300	0.114570	0.272680
C2861	C286	0.913650	0.135680	0.254500
H1691	H169	0.912700	0.170300	0.235600
C2871	C287	0.853730	0.106600	0.263780
C2881	C288	0.854640	0.055740	0.291540
H1701	H170	0.813500	0.035900	0.298600
C2891	C289	0.040580	0.146490	0.264910
C2901	C290	0.787980	0.128930	0.242620
N281	N28	0.291770	0.107710	0.640620
N291	N29	0.193960	0.925800	0.577580
N301	N30	0.170780	0.732080	0.650070
Ni111	Ni11	0.816200	0.164760	0.799720
O511	O51	0.455780	0.180190	0.772080
O521	O52	0.412640	0.136620	0.702860
O531	O53	0.710780	0.173600	0.785120
O541	O54	0.767430	0.103750	0.749000
O551	O55	0.584080	0.982860	0.665620
C2911	C291	0.257650	0.119590	0.393070
H1711	H171	0.271300	0.158100	0.396700
C2921	C292	0.289940	0.079600	0.422760
H1721	H172	0.324700	0.090700	0.446300
C2931	C293	0.271670	0.022880	0.418360
C2941	C294	0.218560	0.010670	0.384950
H1731	H173	0.202800	0.972700	0.381400
C2951	C295	0.188810	0.053440	0.357040
H1741	H174	0.152200	0.043900	0.334700
C2961	C296	0.309910	0.976810	0.444930
C2971	C297	0.350110	0.986070	0.488350
H1751	H175	0.350600	0.022500	0.504100
C2981	C298	0.389440	0.942500	0.508780
C2991	C299	0.385910	0.889770	0.484570
H1761	H176	0.411700	0.858500	0.497200
C3001	C300	0.343960	0.883490	0.441560
C3011	C301	0.339710	0.829300	0.411690
C3021	C302	0.389670	0.788600	0.411010
H1771	H177	0.429300	0.793200	0.431700
C3031	C303	0.382610	0.740760	0.380320
H1781	H178	0.417700	0.712900	0.381100
C3041	C304	0.281230	0.771900	0.350640
H1791	H179	0.242100	0.766600	0.329600
C3051	C305	0.284870	0.820060	0.379920
H1801	H180	0.249200	0.847300	0.378300
C3061	C306	0.437820	0.953250	0.551740
C3071	C307	0.459380	0.910470	0.585300
H1811	H181	0.441100	0.873300	0.581800
C3081	C308	0.506710	0.921200	0.623500
H1821	H182	0.520200	0.891700	0.646400
C3091	C309	0.534290	0.974680	0.628330
C3101	C310	0.514690	0.017310	0.595240
H1831	H183	0.534500	0.054000	0.598100
C3111	C311	0.466560	0.006730	0.558090
H1841	H184	0.452500	0.036800	0.536100
C3121	C312	0.583610	0.034850	0.691450
C3131	C313	0.523330	0.063500	0.701310
H1851	H185	0.481100	0.048000	0.690200
C3141	C314	0.524700	0.114570	0.727320
C3151	C315	0.586350	0.135680	0.745500
H1861	H186	0.587300	0.170300	0.764400
C3161	C316	0.646270	0.106600	0.736220
C3171	C317	0.645360	0.055740	0.708460
H1871	H187	0.686500	0.035900	0.701400
C3181	C318	0.459420	0.146490	0.735090
C3191	C319	0.712020	0.128930	0.757380
N311	N31	0.208230	0.107710	0.359380
N321	N32	0.306040	0.925800	0.422420
N331	N33	0.329220	0.732080	0.349930
Ni121	Ni12	0.316200	0.664760	0.299720
O561	O56	0.955780	0.680190	0.272080
O571	O57	0.912640	0.636620	0.202860
O581	O58	0.210780	0.673600	0.285120
O591	O59	0.267430	0.603750	0.249000
O601	O60	0.084080	0.482860	0.165620
C3201	C320	0.757650	0.619590	0.893070
H1881	H188	0.771300	0.658100	0.896700
C3211	C321	0.789940	0.579600	0.922760
H1891	H189	0.824700	0.590700	0.946300
C3221	C322	0.771670	0.522880	0.918360
C3231	C323	0.718560	0.510670	0.884950
H1901	H190	0.702800	0.472700	0.881400
C3241	C324	0.688810	0.553440	0.857040
H1911	H191	0.652200	0.543900	0.834700
C3251	C325	0.809910	0.476810	0.944930
C3261	C326	0.850110	0.486070	0.988350
H1921	H192	0.850600	0.522500	0.004100
C3271	C327	0.889440	0.442500	0.008780
C3281	C328	0.885910	0.389770	0.984570
H1931	H193	0.911700	0.358500	0.997200
C3291	C329	0.843960	0.383490	0.941560
C3301	C330	0.839710	0.329300	0.911690
C3311	C331	0.889670	0.288600	0.911010
H1941	H194	0.929300	0.293200	0.931700
C3321	C332	0.882610	0.240760	0.880320
H1951	H195	0.917700	0.212900	0.881100
C3331	C333	0.781230	0.271900	0.850640
H1961	H196	0.742100	0.266600	0.829600
C3341	C334	0.784870	0.320060	0.879920
H1971	H197	0.749200	0.347300	0.878300
C3351	C335	0.937820	0.453250	0.051740
C3361	C336	0.959380	0.410470	0.085300
H1981	H198	0.941100	0.373300	0.081800
C3371	C337	0.006710	0.421200	0.123500
H1991	H199	0.020200	0.391700	0.146400
C3381	C338	0.034290	0.474680	0.128330
C3391	C339	0.014690	0.517310	0.095240
H2001	H200	0.034500	0.554000	0.098100
C3401	C340	0.966560	0.506730	0.058090
H2011	H201	0.952500	0.536800	0.036100
C3411	C341	0.083610	0.534850	0.191450
C3421	C342	0.023330	0.563500	0.201310
H2021	H202	0.981100	0.548000	0.190200
C3431	C343	0.024700	0.614570	0.227320
C3441	C344	0.086350	0.635680	0.245500
H2031	H203	0.087300	0.670300	0.264400
C3451	C345	0.146270	0.606600	0.236220
C3461	C346	0.145360	0.555740	0.208460
H2041	H204	0.186500	0.535900	0.201400
C3471	C347	0.959420	0.646490	0.235090
C3481	C348	0.212020	0.628930	0.257380
N341	N34	0.708230	0.607710	0.859380
N351	N35	0.806040	0.425800	0.922420
N361	N36	0.829220	0.232080	0.849930
Ni131	Ni13	0.683800	0.664760	0.799720
O611	O61	0.044220	0.680190	0.772080
O621	O62	0.087360	0.636620	0.702860
O631	O63	0.789220	0.673600	0.785120
O641	O64	0.732570	0.603750	0.749000
O651	O65	0.915920	0.482860	0.665620
C3491	C349	0.242350	0.619590	0.393070
H2051	H205	0.228700	0.658100	0.396700
C3501	C350	0.210060	0.579600	0.422760
H2061	H206	0.175300	0.590700	0.446300
C3511	C351	0.228330	0.522880	0.418360
C3521	C352	0.281440	0.510670	0.384950
H2071	H207	0.297200	0.472700	0.381400
C3531	C353	0.311190	0.553440	0.357040
H2081	H208	0.347800	0.543900	0.334700
C3541	C354	0.190090	0.476810	0.444930
C3551	C355	0.149890	0.486070	0.488350
H2091	H209	0.149400	0.522500	0.504100
C3561	C356	0.110560	0.442500	0.508780
C3571	C357	0.114090	0.389770	0.484570
H2101	H210	0.088300	0.358500	0.497200
C3581	C358	0.156040	0.383490	0.441560
C3591	C359	0.160290	0.329300	0.411690
C3601	C360	0.110330	0.288600	0.411010
H2111	H211	0.070700	0.293200	0.431700
C3611	C361	0.117390	0.240760	0.380320
H2121	H212	0.082300	0.212900	0.381100
C3621	C362	0.218770	0.271900	0.350640
H2131	H213	0.257900	0.266600	0.329600
C3631	C363	0.215130	0.320060	0.379920
H2141	H214	0.250800	0.347300	0.378300
C3641	C364	0.062180	0.453250	0.551740
C3651	C365	0.040620	0.410470	0.585300
H2151	H215	0.058900	0.373300	0.581800
C3661	C366	0.993290	0.421200	0.623500
H2161	H216	0.979800	0.391700	0.646400
C3671	C367	0.965710	0.474680	0.628330
C3681	C368	0.985310	0.517310	0.595240
H2171	H217	0.965500	0.554000	0.598100
C3691	C369	0.033440	0.506730	0.558090
H2181	H218	0.047500	0.536800	0.536100
C3701	C370	0.916390	0.534850	0.691450
C3711	C371	0.976670	0.563500	0.701310
H2191	H219	0.018900	0.548000	0.690200
C3721	C372	0.975300	0.614570	0.727320
C3731	C373	0.913650	0.635680	0.745500
H2201	H220	0.912700	0.670300	0.764400
C3741	C374	0.853730	0.606600	0.736220
C3751	C375	0.854640	0.555740	0.708460
H2211	H221	0.813500	0.535900	0.701400
C3761	C376	0.040580	0.646490	0.735090
C3771	C377	0.787980	0.628930	0.757380
N371	N37	0.291770	0.607710	0.359380
N381	N38	0.193960	0.425800	0.422420
N391	N39	0.170780	0.232080	0.349930
Ni141	Ni14	0.183800	0.164760	0.299720
O661	O66	0.544220	0.180190	0.272080
O671	O67	0.587360	0.136620	0.202860
O681	O68	0.289220	0.173600	0.285120
O691	O69	0.232570	0.103750	0.249000
O701	O70	0.415920	0.982860	0.165620
C3781	C378	0.742350	0.119590	0.893070
H2221	H222	0.728700	0.158100	0.896700
C3791	C379	0.710060	0.079600	0.922760
H2231	H223	0.675300	0.090700	0.946300
C3801	C380	0.728330	0.022880	0.918360
C3811	C381	0.781440	0.010670	0.884950
H2241	H224	0.797200	0.972700	0.881400
C3821	C382	0.811190	0.053440	0.857040
H2251	H225	0.847800	0.043900	0.834700
C3831	C383	0.690090	0.976810	0.944930
C3841	C384	0.649890	0.986070	0.988350
H2261	H226	0.649400	0.022500	0.004100
C3851	C385	0.610560	0.942500	0.008780
C3861	C386	0.614090	0.889770	0.984570
H2271	H227	0.588300	0.858500	0.997200
C3871	C387	0.656040	0.883490	0.941560
C3881	C388	0.660290	0.829300	0.911690
C3891	C389	0.610330	0.788600	0.911010
H2281	H228	0.570700	0.793200	0.931700
C3901	C390	0.617390	0.740760	0.880320
H2291	H229	0.582300	0.712900	0.881100
C3911	C391	0.718770	0.771900	0.850640
H2301	H230	0.757900	0.766600	0.829600
C3921	C392	0.715130	0.820060	0.879920
H2311	H231	0.750800	0.847300	0.878300
C3931	C393	0.562180	0.953250	0.051740
C3941	C394	0.540620	0.910470	0.085300
H2321	H232	0.558900	0.873300	0.081800
C3951	C395	0.493290	0.921200	0.123500
H2331	H233	0.479800	0.891700	0.146400
C3961	C396	0.465710	0.974680	0.128330
C3971	C397	0.485310	0.017310	0.095240
H2341	H234	0.465500	0.054000	0.098100
C3981	C398	0.533440	0.006730	0.058090
H2351	H235	0.547500	0.036800	0.036100
C3991	C399	0.416390	0.034850	0.191450
C4001	C400	0.476670	0.063500	0.201310
H2361	H236	0.518900	0.048000	0.190200
C4011	C401	0.475300	0.114570	0.227320
C4021	C402	0.413650	0.135680	0.245500
H2371	H237	0.412700	0.170300	0.264400
C4031	C403	0.353730	0.106600	0.236220
C4041	C404	0.354640	0.055740	0.208460
H2381	H238	0.313500	0.035900	0.201400
C4051	C405	0.540580	0.146490	0.235090
C4061	C406	0.287980	0.128930	0.257380
N401	N40	0.791770	0.107710	0.859380
N411	N41	0.693960	0.925800	0.922420
N421	N42	0.670780	0.732080	0.849930
Ni151	Ni15	0.316200	0.164760	0.700280
O711	O71	0.955780	0.180190	0.727920
O721	O72	0.912640	0.136620	0.797140
O731	O73	0.210780	0.173600	0.714880
O741	O74	0.267430	0.103750	0.751000
O751	O75	0.084080	0.982860	0.834380
C4071	C407	0.757650	0.119590	0.106930
H2391	H239	0.771300	0.158100	0.103300
C4081	C408	0.789940	0.079600	0.077240
H2401	H240	0.824700	0.090700	0.053700
C4091	C409	0.771670	0.022880	0.081640
C4101	C410	0.718560	0.010670	0.115050
H2411	H241	0.702800	0.972700	0.118600
C4111	C411	0.688810	0.053440	0.142960
H2421	H242	0.652200	0.043900	0.165300
C4121	C412	0.809910	0.976810	0.055070
C4131	C413	0.850110	0.986070	0.011650
H2431	H243	0.850600	0.022500	0.995900
C4141	C414	0.889440	0.942500	0.991220
C4151	C415	0.885910	0.889770	0.015430
H2441	H244	0.911700	0.858500	0.002800
C4161	C416	0.843960	0.883490	0.058440
C4171	C417	0.839710	0.829300	0.088310
C4181	C418	0.889670	0.788600	0.088990
H2451	H245	0.929300	0.793200	0.068300
C4191	C419	0.882610	0.740760	0.119680
H2461	H246	0.917700	0.712900	0.118900
C4201	C420	0.781230	0.771900	0.149360
H2471	H247	0.742100	0.766600	0.170400
C4211	C421	0.784870	0.820060	0.120080
H2481	H248	0.749200	0.847300	0.121700
C4221	C422	0.937820	0.953250	0.948260
C4231	C423	0.959380	0.910470	0.914700
H2491	H249	0.941100	0.873300	0.918200
C4241	C424	0.006710	0.921200	0.876500
H2501	H250	0.020200	0.891700	0.853600
C4251	C425	0.034290	0.974680	0.871670
C4261	C426	0.014690	0.017310	0.904760
H2511	H251	0.034500	0.054000	0.901900
C4271	C427	0.966560	0.006730	0.941910
H2521	H252	0.952500	0.036800	0.963900
C4281	C428	0.083610	0.034850	0.808550
C4291	C429	0.023330	0.063500	0.798690
H2531	H253	0.981100	0.048000	0.809800
C4301	C430	0.024700	0.114570	0.772680
C4311	C431	0.086350	0.135680	0.754500
H2541	H254	0.087300	0.170300	0.735600
C4321	C432	0.146270	0.106600	0.763780
C4331	C433	0.145360	0.055740	0.791540
H2551	H255	0.186500	0.035900	0.798600
C4341	C434	0.959420	0.146490	0.764910
C4351	C435	0.212020	0.128930	0.742620
N431	N43	0.708230	0.107710	0.140620
N441	N44	0.806040	0.925800	0.077580
N451	N45	0.829220	0.732080	0.150070
Ni161	Ni16	0.816200	0.664760	0.200280
O761	O76	0.455780	0.680190	0.227920
O771	O77	0.412640	0.636620	0.297140
O781	O78	0.710780	0.673600	0.214880
O791	O79	0.767430	0.603750	0.251000
O801	O80	0.584080	0.482860	0.334380
C4361	C436	0.257650	0.619590	0.606930
H2561	H256	0.271300	0.658100	0.603300
C4371	C437	0.289940	0.579600	0.577240
H2571	H257	0.324700	0.590700	0.553700
C4381	C438	0.271670	0.522880	0.581640
C4391	C439	0.218560	0.510670	0.615050
H2581	H258	0.202800	0.472700	0.618600
C4401	C440	0.188810	0.553440	0.642960
H2591	H259	0.152200	0.543900	0.665300
C4411	C441	0.309910	0.476810	0.555070
C4421	C442	0.350110	0.486070	0.511650
H2601	H260	0.350600	0.522500	0.495900
C4431	C443	0.389440	0.442500	0.491220
C4441	C444	0.385910	0.389770	0.515430
H2611	H261	0.411700	0.358500	0.502800
C4451	C445	0.343960	0.383490	0.558440
C4461	C446	0.339710	0.329300	0.588310
C4471	C447	0.389670	0.288600	0.588990
H2621	H262	0.429300	0.293200	0.568300
C4481	C448	0.382610	0.240760	0.619680
H2631	H263	0.417700	0.212900	0.618900
C4491	C449	0.281230	0.271900	0.649360
H2641	H264	0.242100	0.266600	0.670400
C4501	C450	0.284870	0.320060	0.620080
H2651	H265	0.249200	0.347300	0.621700
C4511	C451	0.437820	0.453250	0.448260
C4521	C452	0.459380	0.410470	0.414700
H2661	H266	0.441100	0.373300	0.418200
C4531	C453	0.506710	0.421200	0.376500
H2671	H267	0.520200	0.391700	0.353600
C4541	C454	0.534290	0.474680	0.371670
C4551	C455	0.514690	0.517310	0.404760
H2681	H268	0.534500	0.554000	0.401900
C4561	C456	0.466560	0.506730	0.441910
H2691	H269	0.452500	0.536800	0.463900
C4571	C457	0.583610	0.534850	0.308550
C4581	C458	0.523330	0.563500	0.298690
H2701	H270	0.481100	0.548000	0.309800
C4591	C459	0.524700	0.614570	0.272680
C4601	C460	0.586350	0.635680	0.254500
H2711	H271	0.587300	0.670300	0.235600
C4611	C461	0.646270	0.606600	0.263780
C4621	C462	0.645360	0.555740	0.291540
H2721	H272	0.686500	0.535900	0.298600
C4631	C463	0.459420	0.646490	0.264910
C4641	C464	0.712020	0.628930	0.242620
N461	N46	0.208230	0.607710	0.640620
N471	N47	0.306040	0.425800	0.577580
N481	N48	0.329220	0.232080	0.650070
