data_DANVAQ_clean_PM
_symmetry_space_group_name_H-M	'P1'
_cell_length_a	19.981800
_cell_length_b	19.981800
_cell_length_c	19.981800
_cell_angle_alpha	90.000000
_cell_angle_beta	90.000000
_cell_angle_gamma	90.000000
_symmetry_Int_Tables_number 1

loop_
_symmetry_equiv_pos_as_xyz
'x,y,z'

loop_
_atom_site_label
_atom_site_type_symbol
_atom_site_fract_x
_atom_site_fract_y
_atom_site_fract_z
La11	La1	0.747390	0.153390	0.007070
O11	O1	0.644300	0.209800	0.046700
O21	O2	0.585800	0.298100	0.080900
O31	O3	0.843700	0.214700	0.958600
O41	O4	0.889100	0.301700	0.906100
N11	N1	0.742400	0.282600	0.999400
C11	C1	0.634800	0.273400	0.053000
C21	C2	0.688200	0.317500	0.024700
C31	C3	0.686500	0.386000	0.027000
H11	H1	0.650800	0.407900	0.047300
C41	C4	0.737100	0.421400	0.999300
H21	H2	0.735700	0.467900	0.000300
C51	C5	0.791700	0.389000	0.969100
H31	H3	0.825700	0.412600	0.947900
C61	C6	0.791600	0.319300	0.973000
C71	C7	0.845500	0.277300	0.944100
La21	La2	0.752610	0.846610	0.507070
O51	O5	0.855700	0.790200	0.546700
O61	O6	0.914200	0.701900	0.580900
O71	O7	0.656300	0.785300	0.458600
O81	O8	0.610900	0.698300	0.406100
N21	N2	0.757600	0.717400	0.499400
C81	C8	0.865200	0.726600	0.553000
C91	C9	0.811800	0.682500	0.524700
C101	C10	0.813500	0.614000	0.527000
H41	H4	0.849200	0.592100	0.547300
C111	C11	0.762900	0.578600	0.499300
H51	H5	0.764300	0.532100	0.500300
C121	C12	0.708300	0.611000	0.469100
H61	H6	0.674300	0.587400	0.447900
C131	C13	0.708400	0.680700	0.473000
C141	C14	0.654500	0.722700	0.444100
La31	La3	0.252610	0.653390	0.492930
O91	O9	0.355700	0.709800	0.453300
O101	O10	0.414200	0.798100	0.419100
O111	O11	0.156300	0.714700	0.541400
O121	O12	0.110900	0.801700	0.593900
N31	N3	0.257600	0.782600	0.500600
C151	C15	0.365200	0.773400	0.447000
C161	C16	0.311800	0.817500	0.475300
C171	C17	0.313500	0.886000	0.473000
H71	H7	0.349200	0.907900	0.452700
C181	C18	0.262900	0.921400	0.500700
H81	H8	0.264300	0.967900	0.499700
C191	C19	0.208300	0.889000	0.530900
H91	H9	0.174300	0.912600	0.552100
C201	C20	0.208400	0.819300	0.527000
C211	C21	0.154500	0.777300	0.555900
La41	La4	0.247390	0.346610	0.992930
O131	O13	0.144300	0.290200	0.953300
O141	O14	0.085800	0.201900	0.919100
O151	O15	0.343700	0.285300	0.041400
O161	O16	0.389100	0.198300	0.093900
N41	N4	0.242400	0.217400	0.000600
C221	C22	0.134800	0.226600	0.947000
C231	C23	0.188200	0.182500	0.975300
C241	C24	0.186500	0.114000	0.973000
H101	H10	0.150800	0.092100	0.952700
C251	C25	0.237100	0.078600	0.000700
H111	H11	0.235700	0.032100	0.999700
C261	C26	0.291700	0.111000	0.030900
H121	H12	0.325700	0.087400	0.052100
C271	C27	0.291600	0.180700	0.027000
C281	C28	0.345500	0.222700	0.055900
La51	La5	0.007070	0.747390	0.153390
O171	O17	0.046700	0.644300	0.209800
O181	O18	0.080900	0.585800	0.298100
O191	O19	0.958600	0.843700	0.214700
O201	O20	0.906100	0.889100	0.301700
N51	N5	0.999400	0.742400	0.282600
C291	C29	0.053000	0.634800	0.273400
C301	C30	0.024700	0.688200	0.317500
C311	C31	0.027000	0.686500	0.386000
H131	H13	0.047300	0.650800	0.407900
C321	C32	0.999300	0.737100	0.421400
H141	H14	0.000300	0.735700	0.467900
C331	C33	0.969100	0.791700	0.389000
H151	H15	0.947900	0.825700	0.412600
C341	C34	0.973000	0.791600	0.319300
C351	C35	0.944100	0.845500	0.277300
La61	La6	0.507070	0.752610	0.846610
O211	O21	0.546700	0.855700	0.790200
O221	O22	0.580900	0.914200	0.701900
O231	O23	0.458600	0.656300	0.785300
O241	O24	0.406100	0.610900	0.698300
N61	N6	0.499400	0.757600	0.717400
C361	C36	0.553000	0.865200	0.726600
C371	C37	0.524700	0.811800	0.682500
C381	C38	0.527000	0.813500	0.614000
H161	H16	0.547300	0.849200	0.592100
C391	C39	0.499300	0.762900	0.578600
H171	H17	0.500300	0.764300	0.532100
C401	C40	0.469100	0.708300	0.611000
H181	H18	0.447900	0.674300	0.587400
C411	C41	0.473000	0.708400	0.680700
C421	C42	0.444100	0.654500	0.722700
La71	La7	0.492930	0.252610	0.653390
O251	O25	0.453300	0.355700	0.709800
O261	O26	0.419100	0.414200	0.798100
O271	O27	0.541400	0.156300	0.714700
O281	O28	0.593900	0.110900	0.801700
N71	N7	0.500600	0.257600	0.782600
C431	C43	0.447000	0.365200	0.773400
C441	C44	0.475300	0.311800	0.817500
C451	C45	0.473000	0.313500	0.886000
H191	H19	0.452700	0.349200	0.907900
C461	C46	0.500700	0.262900	0.921400
H201	H20	0.499700	0.264300	0.967900
C471	C47	0.530900	0.208300	0.889000
H211	H21	0.552100	0.174300	0.912600
C481	C48	0.527000	0.208400	0.819300
C491	C49	0.555900	0.154500	0.777300
La81	La8	0.992930	0.247390	0.346610
O291	O29	0.953300	0.144300	0.290200
O301	O30	0.919100	0.085800	0.201900
O311	O31	0.041400	0.343700	0.285300
O321	O32	0.093900	0.389100	0.198300
N81	N8	0.000600	0.242400	0.217400
C501	C50	0.947000	0.134800	0.226600
C511	C51	0.975300	0.188200	0.182500
C521	C52	0.973000	0.186500	0.114000
H221	H22	0.952700	0.150800	0.092100
C531	C53	0.000700	0.237100	0.078600
H231	H23	0.999700	0.235700	0.032100
C541	C54	0.030900	0.291700	0.111000
H241	H24	0.052100	0.325700	0.087400
C551	C55	0.027000	0.291600	0.180700
C561	C56	0.055900	0.345500	0.222700
La91	La9	0.153390	0.007070	0.747390
O331	O33	0.209800	0.046700	0.644300
O341	O34	0.298100	0.080900	0.585800
O351	O35	0.214700	0.958600	0.843700
O361	O36	0.301700	0.906100	0.889100
N91	N9	0.282600	0.999400	0.742400
C571	C57	0.273400	0.053000	0.634800
C581	C58	0.317500	0.024700	0.688200
C591	C59	0.386000	0.027000	0.686500
H251	H25	0.407900	0.047300	0.650800
C601	C60	0.421400	0.999300	0.737100
H261	H26	0.467900	0.000300	0.735700
C611	C61	0.389000	0.969100	0.791700
H271	H27	0.412600	0.947900	0.825700
C621	C62	0.319300	0.973000	0.791600
C631	C63	0.277300	0.944100	0.845500
La101	La10	0.846610	0.507070	0.752610
O371	O37	0.790200	0.546700	0.855700
O381	O38	0.701900	0.580900	0.914200
O391	O39	0.785300	0.458600	0.656300
O401	O40	0.698300	0.406100	0.610900
N101	N10	0.717400	0.499400	0.757600
C641	C64	0.726600	0.553000	0.865200
C651	C65	0.682500	0.524700	0.811800
C661	C66	0.614000	0.527000	0.813500
H281	H28	0.592100	0.547300	0.849200
C671	C67	0.578600	0.499300	0.762900
H291	H29	0.532100	0.500300	0.764300
C681	C68	0.611000	0.469100	0.708300
H301	H30	0.587400	0.447900	0.674300
C691	C69	0.680700	0.473000	0.708400
C701	C70	0.722700	0.444100	0.654500
La111	La11	0.653390	0.492930	0.252610
O411	O41	0.709800	0.453300	0.355700
O421	O42	0.798100	0.419100	0.414200
O431	O43	0.714700	0.541400	0.156300
O441	O44	0.801700	0.593900	0.110900
N111	N11	0.782600	0.500600	0.257600
C711	C71	0.773400	0.447000	0.365200
C721	C72	0.817500	0.475300	0.311800
C731	C73	0.886000	0.473000	0.313500
H311	H31	0.907900	0.452700	0.349200
C741	C74	0.921400	0.500700	0.262900
H321	H32	0.967900	0.499700	0.264300
C751	C75	0.889000	0.530900	0.208300
H331	H33	0.912600	0.552100	0.174300
C761	C76	0.819300	0.527000	0.208400
C771	C77	0.777300	0.555900	0.154500
La121	La12	0.346610	0.992930	0.247390
O451	O45	0.290200	0.953300	0.144300
O461	O46	0.201900	0.919100	0.085800
O471	O47	0.285300	0.041400	0.343700
O481	O48	0.198300	0.093900	0.389100
N121	N12	0.217400	0.000600	0.242400
C781	C78	0.226600	0.947000	0.134800
C791	C79	0.182500	0.975300	0.188200
C801	C80	0.114000	0.973000	0.186500
H341	H34	0.092100	0.952700	0.150800
C811	C81	0.078600	0.000700	0.237100
H351	H35	0.032100	0.999700	0.235700
C821	C82	0.111000	0.030900	0.291700
H361	H36	0.087400	0.052100	0.325700
C831	C83	0.180700	0.027000	0.291600
C841	C84	0.222700	0.055900	0.345500
La131	La13	0.252610	0.846610	0.992930
O491	O49	0.355700	0.790200	0.953300
O501	O50	0.414200	0.701900	0.919100
O511	O51	0.156300	0.785300	0.041400
O521	O52	0.110900	0.698300	0.093900
N131	N13	0.257600	0.717400	0.000600
C851	C85	0.365200	0.726600	0.947000
C861	C86	0.311800	0.682500	0.975300
C871	C87	0.313500	0.614000	0.973000
H371	H37	0.349200	0.592100	0.952700
C881	C88	0.262900	0.578600	0.000700
H381	H38	0.264300	0.532100	0.999700
C891	C89	0.208300	0.611000	0.030900
H391	H39	0.174300	0.587400	0.052100
C901	C90	0.208400	0.680700	0.027000
C911	C91	0.154500	0.722700	0.055900
La141	La14	0.247390	0.153390	0.492930
O531	O53	0.144300	0.209800	0.453300
O541	O54	0.085800	0.298100	0.419100
O551	O55	0.343700	0.214700	0.541400
O561	O56	0.389100	0.301700	0.593900
N141	N14	0.242400	0.282600	0.500600
C921	C92	0.134800	0.273400	0.447000
C931	C93	0.188200	0.317500	0.475300
C941	C94	0.186500	0.386000	0.473000
H401	H40	0.150800	0.407900	0.452700
C951	C95	0.237100	0.421400	0.500700
H411	H41	0.235700	0.467900	0.499700
C961	C96	0.291700	0.389000	0.530900
H421	H42	0.325700	0.412600	0.552100
C971	C97	0.291600	0.319300	0.527000
C981	C98	0.345500	0.277300	0.555900
La151	La15	0.747390	0.346610	0.507070
O571	O57	0.644300	0.290200	0.546700
O581	O58	0.585800	0.201900	0.580900
O591	O59	0.843700	0.285300	0.458600
O601	O60	0.889100	0.198300	0.406100
N151	N15	0.742400	0.217400	0.499400
C991	C99	0.634800	0.226600	0.553000
C1001	C100	0.688200	0.182500	0.524700
C1011	C101	0.686500	0.114000	0.527000
H431	H43	0.650800	0.092100	0.547300
C1021	C102	0.737100	0.078600	0.499300
H441	H44	0.735700	0.032100	0.500300
C1031	C103	0.791700	0.111000	0.469100
H451	H45	0.825700	0.087400	0.447900
C1041	C104	0.791600	0.180700	0.473000
C1051	C105	0.845500	0.222700	0.444100
La161	La16	0.752610	0.653390	0.007070
O611	O61	0.855700	0.709800	0.046700
O621	O62	0.914200	0.798100	0.080900
O631	O63	0.656300	0.714700	0.958600
O641	O64	0.610900	0.801700	0.906100
N161	N16	0.757600	0.782600	0.999400
C1061	C106	0.865200	0.773400	0.053000
C1071	C107	0.811800	0.817500	0.024700
C1081	C108	0.813500	0.886000	0.027000
H461	H46	0.849200	0.907900	0.047300
C1091	C109	0.762900	0.921400	0.999300
H471	H47	0.764300	0.967900	0.000300
C1101	C110	0.708300	0.889000	0.969100
H481	H48	0.674300	0.912600	0.947900
C1111	C111	0.708400	0.819300	0.973000
C1121	C112	0.654500	0.777300	0.944100
La171	La17	0.992930	0.252610	0.846610
O651	O65	0.953300	0.355700	0.790200
O661	O66	0.919100	0.414200	0.701900
O671	O67	0.041400	0.156300	0.785300
O681	O68	0.093900	0.110900	0.698300
N171	N17	0.000600	0.257600	0.717400
C1131	C113	0.947000	0.365200	0.726600
C1141	C114	0.975300	0.311800	0.682500
C1151	C115	0.973000	0.313500	0.614000
H491	H49	0.952700	0.349200	0.592100
C1161	C116	0.000700	0.262900	0.578600
H501	H50	0.999700	0.264300	0.532100
C1171	C117	0.030900	0.208300	0.611000
H511	H51	0.052100	0.174300	0.587400
C1181	C118	0.027000	0.208400	0.680700
C1191	C119	0.055900	0.154500	0.722700
La181	La18	0.492930	0.247390	0.153390
O691	O69	0.453300	0.144300	0.209800
O701	O70	0.419100	0.085800	0.298100
O711	O71	0.541400	0.343700	0.214700
O721	O72	0.593900	0.389100	0.301700
N181	N18	0.500600	0.242400	0.282600
C1201	C120	0.447000	0.134800	0.273400
C1211	C121	0.475300	0.188200	0.317500
C1221	C122	0.473000	0.186500	0.386000
H521	H52	0.452700	0.150800	0.407900
C1231	C123	0.500700	0.237100	0.421400
H531	H53	0.499700	0.235700	0.467900
C1241	C124	0.530900	0.291700	0.389000
H541	H54	0.552100	0.325700	0.412600
C1251	C125	0.527000	0.291600	0.319300
C1261	C126	0.555900	0.345500	0.277300
La191	La19	0.507070	0.747390	0.346610
O731	O73	0.546700	0.644300	0.290200
O741	O74	0.580900	0.585800	0.201900
O751	O75	0.458600	0.843700	0.285300
O761	O76	0.406100	0.889100	0.198300
N191	N19	0.499400	0.742400	0.217400
C1271	C127	0.553000	0.634800	0.226600
C1281	C128	0.524700	0.688200	0.182500
C1291	C129	0.527000	0.686500	0.114000
H551	H55	0.547300	0.650800	0.092100
C1301	C130	0.499300	0.737100	0.078600
H561	H56	0.500300	0.735700	0.032100
C1311	C131	0.469100	0.791700	0.111000
H571	H57	0.447900	0.825700	0.087400
C1321	C132	0.473000	0.791600	0.180700
C1331	C133	0.444100	0.845500	0.222700
La201	La20	0.007070	0.752610	0.653390
O771	O77	0.046700	0.855700	0.709800
O781	O78	0.080900	0.914200	0.798100
O791	O79	0.958600	0.656300	0.714700
O801	O80	0.906100	0.610900	0.801700
N201	N20	0.999400	0.757600	0.782600
C1341	C134	0.053000	0.865200	0.773400
C1351	C135	0.024700	0.811800	0.817500
C1361	C136	0.027000	0.813500	0.886000
H581	H58	0.047300	0.849200	0.907900
C1371	C137	0.999300	0.762900	0.921400
H591	H59	0.000300	0.764300	0.967900
C1381	C138	0.969100	0.708300	0.889000
H601	H60	0.947900	0.674300	0.912600
C1391	C139	0.973000	0.708400	0.819300
C1401	C140	0.944100	0.654500	0.777300
La211	La21	0.846610	0.992930	0.252610
O811	O81	0.790200	0.953300	0.355700
O821	O82	0.701900	0.919100	0.414200
O831	O83	0.785300	0.041400	0.156300
O841	O84	0.698300	0.093900	0.110900
N211	N21	0.717400	0.000600	0.257600
C1411	C141	0.726600	0.947000	0.365200
C1421	C142	0.682500	0.975300	0.311800
C1431	C143	0.614000	0.973000	0.313500
H611	H61	0.592100	0.952700	0.349200
C1441	C144	0.578600	0.000700	0.262900
H621	H62	0.532100	0.999700	0.264300
C1451	C145	0.611000	0.030900	0.208300
H631	H63	0.587400	0.052100	0.174300
C1461	C146	0.680700	0.027000	0.208400
C1471	C147	0.722700	0.055900	0.154500
La221	La22	0.153390	0.492930	0.247390
O851	O85	0.209800	0.453300	0.144300
O861	O86	0.298100	0.419100	0.085800
O871	O87	0.214700	0.541400	0.343700
O881	O88	0.301700	0.593900	0.389100
N221	N22	0.282600	0.500600	0.242400
C1481	C148	0.273400	0.447000	0.134800
C1491	C149	0.317500	0.475300	0.188200
C1501	C150	0.386000	0.473000	0.186500
H641	H64	0.407900	0.452700	0.150800
C1511	C151	0.421400	0.500700	0.237100
H651	H65	0.467900	0.499700	0.235700
C1521	C152	0.389000	0.530900	0.291700
H661	H66	0.412600	0.552100	0.325700
C1531	C153	0.319300	0.527000	0.291600
C1541	C154	0.277300	0.555900	0.345500
La231	La23	0.346610	0.507070	0.747390
O891	O89	0.290200	0.546700	0.644300
O901	O90	0.201900	0.580900	0.585800
O911	O91	0.285300	0.458600	0.843700
O921	O92	0.198300	0.406100	0.889100
N231	N23	0.217400	0.499400	0.742400
C1551	C155	0.226600	0.553000	0.634800
C1561	C156	0.182500	0.524700	0.688200
C1571	C157	0.114000	0.527000	0.686500
H671	H67	0.092100	0.547300	0.650800
C1581	C158	0.078600	0.499300	0.737100
H681	H68	0.032100	0.500300	0.735700
C1591	C159	0.111000	0.469100	0.791700
H691	H69	0.087400	0.447900	0.825700
C1601	C160	0.180700	0.473000	0.791600
C1611	C161	0.222700	0.444100	0.845500
La241	La24	0.653390	0.007070	0.752610
O931	O93	0.709800	0.046700	0.855700
O941	O94	0.798100	0.080900	0.914200
O951	O95	0.714700	0.958600	0.656300
O961	O96	0.801700	0.906100	0.610900
N241	N24	0.782600	0.999400	0.757600
C1621	C162	0.773400	0.053000	0.865200
C1631	C163	0.817500	0.024700	0.811800
C1641	C164	0.886000	0.027000	0.813500
H701	H70	0.907900	0.047300	0.849200
C1651	C165	0.921400	0.999300	0.762900
H711	H71	0.967900	0.000300	0.764300
C1661	C166	0.889000	0.969100	0.708300
H721	H72	0.912600	0.947900	0.674300
C1671	C167	0.819300	0.973000	0.708400
C1681	C168	0.777300	0.944100	0.654500
