data_DAPHOU_clean_PM
_symmetry_space_group_name_H-M	'P1'
_cell_length_a	38.569000
_cell_length_b	38.569000
_cell_length_c	28.647000
_cell_angle_alpha	90.000000
_cell_angle_beta	90.000000
_cell_angle_gamma	120.000000
_symmetry_Int_Tables_number 1

loop_
_symmetry_equiv_pos_as_xyz
'x,y,z'

loop_
_atom_site_label
_atom_site_type_symbol
_atom_site_fract_x
_atom_site_fract_y
_atom_site_fract_z
Zn11	Zn1	0.719440	0.242050	0.453370
Zn21	Zn2	0.738650	0.217000	0.543920
Zn31	Zn3	0.969660	0.232750	0.549760
Zn41	Zn4	0.015330	0.258780	0.460140
C11	C1	0.841800	0.261800	0.456200
C21	C2	0.849800	0.278600	0.412300
H11	H1	0.830400	0.282600	0.396600
C31	C3	0.885300	0.289400	0.391400
C41	C4	0.914200	0.284200	0.413100
H21	H2	0.938700	0.291500	0.397600
C51	C5	0.907400	0.268000	0.458500
C61	C6	0.870100	0.257000	0.479600
H31	H3	0.864600	0.246200	0.510200
C71	C7	0.802300	0.249100	0.477200
C81	C8	0.936700	0.259600	0.481700
C91	C9	0.929300	0.338300	0.285400
C101	C10	0.901400	0.344900	0.263600
H41	H4	0.876400	0.336800	0.278100
C111	C11	0.910100	0.363900	0.218900
C121	C12	0.946100	0.374900	0.199300
H51	H5	0.951600	0.386400	0.169000
C131	C13	0.975600	0.370000	0.222200
C141	C14	0.966400	0.351100	0.264600
H61	H6	0.985600	0.346700	0.280200
C151	C15	0.879900	0.370800	0.196700
C161	C16	0.016100	0.383900	0.201200
C171	C17	0.919500	0.136900	0.448700
C181	C18	0.927600	0.127500	0.407000
H71	H7	0.952000	0.145800	0.392200
C191	C19	0.901400	0.091600	0.383900
C201	C20	0.864400	0.066600	0.401900
H81	H8	0.844500	0.044800	0.384400
C211	C21	0.856600	0.074600	0.447800
C221	C22	0.883500	0.108600	0.471100
H91	H9	0.878000	0.113200	0.502100
C231	C23	0.947400	0.174500	0.471600
C241	C24	0.817300	0.045300	0.469100
C251	C25	0.983400	0.110000	0.257200
H101	H10	0.004200	0.132200	0.273400
C261	C26	0.990900	0.099400	0.214000
C271	C27	0.959100	0.065500	0.190400
H111	H11	0.963500	0.058100	0.160300
C281	C28	0.923700	0.044600	0.210800
C291	C29	0.915000	0.053600	0.254600
H121	H12	0.889700	0.037200	0.268900
C301	C30	0.945200	0.088300	0.277100
C311	C31	0.031700	0.122300	0.194900
C321	C32	0.888800	0.005400	0.187500
N11	N1	0.890900	0.308100	0.345400
N21	N2	0.925000	0.320500	0.328900
N31	N3	0.907900	0.080300	0.339500
N41	N4	0.941200	0.100900	0.320600
O11	O1	0.776240	0.250300	0.452200
O21	O2	0.794180	0.233700	0.518600
O31	O3	0.965830	0.265800	0.456600
O41	O4	0.930620	0.247700	0.523130
O51	O5	0.851240	0.366280	0.221370
O61	O6	0.887210	0.384970	0.156400
O71	O7	0.021510	0.399800	0.160100
O81	O8	0.040450	0.383870	0.225700
O91	O9	0.976970	0.201690	0.447460
O101	O10	0.938180	0.180770	0.512500
O111	O11	0.810000	0.053380	0.509700
O121	O12	0.795160	0.016700	0.445700
O131	O13	0.057760	0.147980	0.219300
O141	O14	0.037250	0.114510	0.152700
O151	O15	0.896090	0.999800	0.147300
O161	O16	0.859820	0.985850	0.213100
Zn51	Zn5	0.386110	0.575380	0.786700
Zn61	Zn6	0.405320	0.550330	0.877250
Zn71	Zn7	0.636330	0.566080	0.883090
Zn81	Zn8	0.682000	0.592110	0.793470
C331	C33	0.508470	0.595130	0.789530
C341	C34	0.516470	0.611930	0.745630
H131	H13	0.497070	0.615930	0.729930
C351	C35	0.551970	0.622730	0.724730
C361	C36	0.580870	0.617530	0.746430
H141	H14	0.605370	0.624830	0.730930
C371	C37	0.574070	0.601330	0.791830
C381	C38	0.536770	0.590330	0.812930
H151	H15	0.531270	0.579530	0.843530
C391	C39	0.468970	0.582430	0.810530
C401	C40	0.603370	0.592930	0.815030
C411	C41	0.595970	0.671630	0.618730
C421	C42	0.568070	0.678230	0.596930
H161	H16	0.543070	0.670130	0.611430
C431	C43	0.576770	0.697230	0.552230
C441	C44	0.612770	0.708230	0.532630
H171	H17	0.618270	0.719730	0.502330
C451	C45	0.642270	0.703330	0.555530
C461	C46	0.633070	0.684430	0.597930
H181	H18	0.652270	0.680030	0.613530
C471	C47	0.546570	0.704130	0.530030
C481	C48	0.682770	0.717230	0.534530
C491	C49	0.586170	0.470230	0.782030
C501	C50	0.594270	0.460830	0.740330
H191	H19	0.618670	0.479130	0.725530
C511	C51	0.568070	0.424930	0.717230
C521	C52	0.531070	0.399930	0.735230
H201	H20	0.511170	0.378130	0.717730
C531	C53	0.523270	0.407930	0.781130
C541	C54	0.550170	0.441930	0.804430
H211	H21	0.544670	0.446530	0.835430
C551	C55	0.614070	0.507830	0.804930
C561	C56	0.483970	0.378630	0.802430
C571	C57	0.650070	0.443330	0.590530
H221	H22	0.670870	0.465530	0.606730
C581	C58	0.657570	0.432730	0.547330
C591	C59	0.625770	0.398830	0.523730
H231	H23	0.630170	0.391430	0.493630
C601	C60	0.590370	0.377930	0.544130
C611	C61	0.581670	0.386930	0.587930
H241	H24	0.556370	0.370530	0.602230
C621	C62	0.611870	0.421630	0.610430
C631	C63	0.698370	0.455630	0.528230
C641	C64	0.555470	0.338730	0.520830
N51	N5	0.557570	0.641430	0.678730
N61	N6	0.591670	0.653830	0.662230
N71	N7	0.574570	0.413630	0.672830
N81	N8	0.607870	0.434230	0.653930
O171	O17	0.442910	0.583630	0.785530
O181	O18	0.460850	0.567030	0.851930
O191	O19	0.632500	0.599130	0.789930
O201	O20	0.597290	0.581030	0.856460
O211	O21	0.517910	0.699610	0.554700
O221	O22	0.553880	0.718300	0.489730
O231	O23	0.688180	0.733130	0.493430
O241	O24	0.707120	0.717200	0.559030
O251	O25	0.643640	0.535020	0.780790
O261	O26	0.604850	0.514100	0.845830
O271	O27	0.476670	0.386710	0.843030
O281	O28	0.461830	0.350030	0.779030
O291	O29	0.724430	0.481310	0.552630
O301	O30	0.703920	0.447840	0.486030
O311	O31	0.562760	0.333130	0.480630
O321	O32	0.526490	0.319180	0.546430
Zn91	Zn9	0.052770	0.908720	0.120040
Zn101	Zn10	0.071980	0.883670	0.210590
Zn111	Zn11	0.302990	0.899420	0.216430
Zn121	Zn12	0.348660	0.925450	0.126810
C651	C65	0.175130	0.928470	0.122870
C661	C66	0.183130	0.945270	0.078970
H251	H25	0.163730	0.949270	0.063270
C671	C67	0.218630	0.956070	0.058070
C681	C68	0.247530	0.950870	0.079770
H261	H26	0.272030	0.958170	0.064270
C691	C69	0.240730	0.934670	0.125170
C701	C70	0.203430	0.923670	0.146270
H271	H27	0.197930	0.912870	0.176870
C711	C71	0.135630	0.915770	0.143870
C721	C72	0.270030	0.926270	0.148370
C731	C73	0.262630	0.004970	0.952070
C741	C74	0.234730	0.011570	0.930270
H281	H28	0.209730	0.003470	0.944770
C751	C75	0.243430	0.030570	0.885570
C761	C76	0.279430	0.041570	0.865970
H291	H29	0.284930	0.053070	0.835670
C771	C77	0.308930	0.036670	0.888870
C781	C78	0.299730	0.017770	0.931270
H301	H30	0.318930	0.013370	0.946870
C791	C79	0.213230	0.037470	0.863370
C801	C80	0.349430	0.050570	0.867870
C811	C81	0.252830	0.803570	0.115370
C821	C82	0.260930	0.794170	0.073670
H311	H31	0.285330	0.812470	0.058870
C831	C83	0.234730	0.758270	0.050570
C841	C84	0.197730	0.733270	0.068570
H321	H32	0.177830	0.711470	0.051070
C851	C85	0.189930	0.741270	0.114470
C861	C86	0.216830	0.775270	0.137770
H331	H33	0.211330	0.779870	0.168770
C871	C87	0.280730	0.841170	0.138270
C881	C88	0.150630	0.711970	0.135770
C891	C89	0.316730	0.776670	0.923870
H341	H34	0.337530	0.798870	0.940070
C901	C90	0.324230	0.766070	0.880670
C911	C91	0.292430	0.732170	0.857070
H351	H35	0.296830	0.724770	0.826970
C921	C92	0.257030	0.711270	0.877470
C931	C93	0.248330	0.720270	0.921270
H361	H36	0.223030	0.703870	0.935570
C941	C94	0.278530	0.754970	0.943770
C951	C95	0.365030	0.788970	0.861570
C961	C96	0.222130	0.672070	0.854170
N91	N9	0.224230	0.974770	0.012070
N101	N10	0.258330	0.987170	0.995570
N111	N11	0.241230	0.746970	0.006170
N121	N12	0.274530	0.767570	0.987270
O331	O33	0.109570	0.916970	0.118870
O341	O34	0.127510	0.900370	0.185270
O351	O35	0.299160	0.932470	0.123270
O361	O36	0.263950	0.914370	0.189800
O371	O37	0.184570	0.032950	0.888040
O381	O38	0.220540	0.051640	0.823070
O391	O39	0.354840	0.066470	0.826770
O401	O40	0.373780	0.050540	0.892370
O411	O41	0.310300	0.868360	0.114130
O421	O42	0.271510	0.847440	0.179170
O431	O43	0.143330	0.720050	0.176370
O441	O44	0.128490	0.683370	0.112370
O451	O45	0.391090	0.814650	0.885970
O461	O46	0.370580	0.781180	0.819370
O471	O47	0.229420	0.666470	0.813970
O481	O48	0.193150	0.652520	0.879770
Zn131	Zn13	0.757950	0.477390	0.453370
Zn141	Zn14	0.783000	0.521650	0.543920
Zn151	Zn15	0.767250	0.736910	0.549760
Zn161	Zn16	0.741220	0.756550	0.460140
C971	C97	0.738200	0.580000	0.456200
C981	C98	0.721400	0.571200	0.412300
H371	H37	0.717400	0.547800	0.396600
C991	C99	0.710600	0.595900	0.391400
C1001	C100	0.715800	0.630000	0.413100
H381	H38	0.708500	0.647200	0.397600
C1011	C101	0.732000	0.639400	0.458500
C1021	C102	0.743000	0.613100	0.479600
H391	H39	0.753800	0.618400	0.510200
C1031	C103	0.750900	0.553200	0.477200
C1041	C104	0.740400	0.677100	0.481700
C1051	C105	0.661700	0.591000	0.285400
C1061	C106	0.655100	0.556500	0.263600
H401	H40	0.663200	0.539600	0.278100
C1071	C107	0.636100	0.546200	0.218900
C1081	C108	0.625100	0.571200	0.199300
H411	H41	0.613600	0.565200	0.169000
C1091	C109	0.630000	0.605600	0.222200
C1101	C110	0.648900	0.615300	0.264600
H421	H42	0.653300	0.638900	0.280200
C1111	C111	0.629200	0.509100	0.196700
C1121	C112	0.616100	0.632200	0.201200
C1131	C113	0.863100	0.782600	0.448700
C1141	C114	0.872500	0.800100	0.407000
H431	H43	0.854200	0.806200	0.392200
C1151	C115	0.908400	0.809800	0.383900
C1161	C116	0.933400	0.797800	0.401900
H441	H44	0.955200	0.799700	0.384400
C1171	C117	0.925400	0.782000	0.447800
C1181	C118	0.891400	0.774900	0.471100
H451	H45	0.886800	0.764800	0.502100
C1191	C119	0.825500	0.772900	0.471600
C1201	C120	0.954700	0.772000	0.469100
C1211	C121	0.890000	0.873400	0.257200
H461	H46	0.867800	0.872000	0.273400
C1221	C122	0.900600	0.891500	0.214000
C1231	C123	0.934500	0.893600	0.190400
H471	H47	0.941900	0.905400	0.160300
C1241	C124	0.955400	0.879100	0.210800
C1251	C125	0.946400	0.861400	0.254600
H481	H48	0.962800	0.852500	0.268900
C1261	C126	0.911700	0.856900	0.277100
C1271	C127	0.877700	0.909400	0.194900
C1281	C128	0.994600	0.883400	0.187500
N131	N13	0.691900	0.582800	0.345400
N141	N14	0.679500	0.604500	0.328900
N151	N15	0.919700	0.827600	0.339500
N161	N16	0.899100	0.840300	0.320600
O491	O49	0.749700	0.525940	0.452200
O501	O50	0.766300	0.560480	0.518600
O511	O51	0.734200	0.700030	0.456600
O521	O52	0.752300	0.682920	0.523130
O531	O53	0.633720	0.484960	0.221370
O541	O54	0.615030	0.502240	0.156400
O551	O55	0.600200	0.621710	0.160100
O561	O56	0.616130	0.656580	0.225700
O571	O57	0.798310	0.775280	0.447460
O581	O58	0.819230	0.757410	0.512500
O591	O59	0.946620	0.756620	0.509700
O601	O60	0.983300	0.778460	0.445700
O611	O61	0.852020	0.909780	0.219300
O621	O62	0.885490	0.922740	0.152700
O631	O63	0.000200	0.896290	0.147300
O641	O64	0.014150	0.873970	0.213100
Zn171	Zn17	0.424620	0.810720	0.786700
Zn181	Zn18	0.449670	0.854980	0.877250
Zn191	Zn19	0.433920	0.070240	0.883090
Zn201	Zn20	0.407890	0.089880	0.793470
C1291	C129	0.404870	0.913330	0.789530
C1301	C130	0.388070	0.904530	0.745630
H491	H49	0.384070	0.881130	0.729930
C1311	C131	0.377270	0.929230	0.724730
C1321	C132	0.382470	0.963330	0.746430
H501	H50	0.375170	0.980530	0.730930
C1331	C133	0.398670	0.972730	0.791830
C1341	C134	0.409670	0.946430	0.812930
H511	H51	0.420470	0.951730	0.843530
C1351	C135	0.417570	0.886530	0.810530
C1361	C136	0.407070	0.010430	0.815030
C1371	C137	0.328370	0.924330	0.618730
C1381	C138	0.321770	0.889830	0.596930
H521	H52	0.329870	0.872930	0.611430
C1391	C139	0.302770	0.879530	0.552230
C1401	C140	0.291770	0.904530	0.532630
H531	H53	0.280270	0.898530	0.502330
C1411	C141	0.296670	0.938930	0.555530
C1421	C142	0.315570	0.948630	0.597930
H541	H54	0.319970	0.972230	0.613530
C1431	C143	0.295870	0.842430	0.530030
C1441	C144	0.282770	0.965530	0.534530
C1451	C145	0.529770	0.115930	0.782030
C1461	C146	0.539170	0.133430	0.740330
H551	H55	0.520870	0.139530	0.725530
C1471	C147	0.575070	0.143130	0.717230
C1481	C148	0.600070	0.131130	0.735230
H561	H56	0.621870	0.133030	0.717730
C1491	C149	0.592070	0.115330	0.781130
C1501	C150	0.558070	0.108230	0.804430
H571	H57	0.553470	0.098130	0.835430
C1511	C151	0.492170	0.106230	0.804930
C1521	C152	0.621370	0.105330	0.802430
C1531	C153	0.556670	0.206730	0.590530
H581	H58	0.534470	0.205330	0.606730
C1541	C154	0.567270	0.224830	0.547330
C1551	C155	0.601170	0.226930	0.523730
H591	H59	0.608570	0.238730	0.493630
C1561	C156	0.622070	0.212430	0.544130
C1571	C157	0.613070	0.194730	0.587930
H601	H60	0.629470	0.185830	0.602230
C1581	C158	0.578370	0.190230	0.610430
C1591	C159	0.544370	0.242730	0.528230
C1601	C160	0.661270	0.216730	0.520830
N171	N17	0.358570	0.916130	0.678730
N181	N18	0.346170	0.937830	0.662230
N191	N19	0.586370	0.160930	0.672830
N201	N20	0.565770	0.173630	0.653930
O651	O65	0.416370	0.859270	0.785530
O661	O66	0.432970	0.893810	0.851930
O671	O67	0.400870	0.033360	0.789930
O681	O68	0.418970	0.016250	0.856460
O691	O69	0.300390	0.818290	0.554700
O701	O70	0.281700	0.835570	0.489730
O711	O71	0.266870	0.955040	0.493430
O721	O72	0.282800	0.989910	0.559030
O731	O73	0.464980	0.108610	0.780790
O741	O74	0.485900	0.090740	0.845830
O751	O75	0.613290	0.089950	0.843030
O761	O76	0.649970	0.111790	0.779030
O771	O77	0.518690	0.243110	0.552630
O781	O78	0.552160	0.256070	0.486030
O791	O79	0.666870	0.229620	0.480630
O801	O80	0.680820	0.207300	0.546430
Zn211	Zn21	0.091280	0.144060	0.120040
Zn221	Zn22	0.116330	0.188320	0.210590
Zn231	Zn23	0.100580	0.403580	0.216430
Zn241	Zn24	0.074550	0.423220	0.126810
C1611	C161	0.071530	0.246670	0.122870
C1621	C162	0.054730	0.237870	0.078970
H611	H61	0.050730	0.214470	0.063270
C1631	C163	0.043930	0.262570	0.058070
C1641	C164	0.049130	0.296670	0.079770
H621	H62	0.041830	0.313870	0.064270
C1651	C165	0.065330	0.306070	0.125170
C1661	C166	0.076330	0.279770	0.146270
H631	H63	0.087130	0.285070	0.176870
C1671	C167	0.084230	0.219870	0.143870
C1681	C168	0.073730	0.343770	0.148370
C1691	C169	0.995030	0.257670	0.952070
C1701	C170	0.988430	0.223170	0.930270
H641	H64	0.996530	0.206270	0.944770
C1711	C171	0.969430	0.212870	0.885570
C1721	C172	0.958430	0.237870	0.865970
H651	H65	0.946930	0.231870	0.835670
C1731	C173	0.963330	0.272270	0.888870
C1741	C174	0.982230	0.281970	0.931270
H661	H66	0.986630	0.305570	0.946870
C1751	C175	0.962530	0.175770	0.863370
C1761	C176	0.949430	0.298870	0.867870
C1771	C177	0.196430	0.449270	0.115370
C1781	C178	0.205830	0.466770	0.073670
H671	H67	0.187530	0.472870	0.058870
C1791	C179	0.241730	0.476470	0.050570
C1801	C180	0.266730	0.464470	0.068570
H681	H68	0.288530	0.466370	0.051070
C1811	C181	0.258730	0.448670	0.114470
C1821	C182	0.224730	0.441570	0.137770
H691	H69	0.220130	0.431470	0.168770
C1831	C183	0.158830	0.439570	0.138270
C1841	C184	0.288030	0.438670	0.135770
C1851	C185	0.223330	0.540070	0.923870
H701	H70	0.201130	0.538670	0.940070
C1861	C186	0.233930	0.558170	0.880670
C1871	C187	0.267830	0.560270	0.857070
H711	H71	0.275230	0.572070	0.826970
C1881	C188	0.288730	0.545770	0.877470
C1891	C189	0.279730	0.528070	0.921270
H721	H72	0.296130	0.519170	0.935570
C1901	C190	0.245030	0.523570	0.943770
C1911	C191	0.211030	0.576070	0.861570
C1921	C192	0.327930	0.550070	0.854170
N211	N21	0.025230	0.249470	0.012070
N221	N22	0.012830	0.271170	0.995570
N231	N23	0.253030	0.494270	0.006170
N241	N24	0.232430	0.506970	0.987270
O811	O81	0.083030	0.192610	0.118870
O821	O82	0.099630	0.227150	0.185270
O831	O83	0.067530	0.366700	0.123270
O841	O84	0.085630	0.349590	0.189800
O851	O85	0.967050	0.151630	0.888040
O861	O86	0.948360	0.168910	0.823070
O871	O87	0.933530	0.288380	0.826770
O881	O88	0.949460	0.323250	0.892370
O891	O89	0.131640	0.441950	0.114130
O901	O90	0.152560	0.424080	0.179170
O911	O91	0.279950	0.423290	0.176370
O921	O92	0.316630	0.445130	0.112370
O931	O93	0.185350	0.576450	0.885970
O941	O94	0.218820	0.589410	0.819370
O951	O95	0.333530	0.562960	0.813970
O961	O96	0.347480	0.540640	0.879770
Zn251	Zn25	0.522610	0.280560	0.453370
Zn261	Zn26	0.478350	0.261350	0.543920
Zn271	Zn27	0.263090	0.030340	0.549760
Zn281	Zn28	0.243450	0.984670	0.460140
C1931	C193	0.420000	0.158200	0.456200
C1941	C194	0.428800	0.150200	0.412300
H731	H73	0.452200	0.169600	0.396600
C1951	C195	0.404100	0.114700	0.391400
C1961	C196	0.370000	0.085800	0.413100
H741	H74	0.352800	0.061300	0.397600
C1971	C197	0.360600	0.092600	0.458500
C1981	C198	0.386900	0.129900	0.479600
H751	H75	0.381600	0.135400	0.510200
C1991	C199	0.446800	0.197700	0.477200
C2001	C200	0.322900	0.063300	0.481700
C2011	C201	0.409000	0.070700	0.285400
C2021	C202	0.443500	0.098600	0.263600
H761	H76	0.460400	0.123600	0.278100
C2031	C203	0.453800	0.089900	0.218900
C2041	C204	0.428800	0.053900	0.199300
H771	H77	0.434800	0.048400	0.169000
C2051	C205	0.394400	0.024400	0.222200
C2061	C206	0.384700	0.033600	0.264600
H781	H78	0.361100	0.014400	0.280200
C2071	C207	0.490900	0.120100	0.196700
C2081	C208	0.367800	0.983900	0.201200
C2091	C209	0.217400	0.080500	0.448700
C2101	C210	0.199900	0.072400	0.407000
H791	H79	0.193800	0.048000	0.392200
C2111	C211	0.190200	0.098600	0.383900
C2121	C212	0.202200	0.135600	0.401900
H801	H80	0.200300	0.155500	0.384400
C2131	C213	0.218000	0.143400	0.447800
C2141	C214	0.225100	0.116500	0.471100
H811	H81	0.235200	0.122000	0.502100
C2151	C215	0.227100	0.052600	0.471600
C2161	C216	0.228000	0.182700	0.469100
C2171	C217	0.126600	0.016600	0.257200
H821	H82	0.128000	0.995800	0.273400
C2181	C218	0.108500	0.009100	0.214000
C2191	C219	0.106400	0.040900	0.190400
H831	H83	0.094600	0.036500	0.160300
C2201	C220	0.120900	0.076300	0.210800
C2211	C221	0.138600	0.085000	0.254600
H841	H84	0.147500	0.110300	0.268900
C2221	C222	0.143100	0.054800	0.277100
C2231	C223	0.090600	0.968300	0.194900
C2241	C224	0.116600	0.111200	0.187500
N251	N25	0.417200	0.109100	0.345400
N261	N26	0.395500	0.075000	0.328900
N271	N27	0.172400	0.092100	0.339500
N281	N28	0.159700	0.058800	0.320600
O971	O97	0.474060	0.223760	0.452200
O981	O98	0.439520	0.205820	0.518600
O991	O99	0.299970	0.034170	0.456600
O1001	O100	0.317080	0.069380	0.523130
O1011	O101	0.515040	0.148760	0.221370
O1021	O102	0.497760	0.112790	0.156400
O1031	O103	0.378290	0.978490	0.160100
O1041	O104	0.343420	0.959550	0.225700
O1051	O105	0.224720	0.023030	0.447460
O1061	O106	0.242590	0.061820	0.512500
O1071	O107	0.243380	0.190000	0.509700
O1081	O108	0.221540	0.204840	0.445700
O1091	O109	0.090220	0.942240	0.219300
O1101	O110	0.077260	0.962750	0.152700
O1111	O111	0.103710	0.103910	0.147300
O1121	O112	0.126030	0.140180	0.213100
Zn291	Zn29	0.189280	0.613890	0.786700
Zn301	Zn30	0.145020	0.594680	0.877250
Zn311	Zn31	0.929760	0.363670	0.883090
Zn321	Zn32	0.910120	0.318000	0.793470
C2251	C225	0.086670	0.491530	0.789530
C2261	C226	0.095470	0.483530	0.745630
H851	H85	0.118870	0.502930	0.729930
C2271	C227	0.070770	0.448030	0.724730
C2281	C228	0.036670	0.419130	0.746430
H861	H86	0.019470	0.394630	0.730930
C2291	C229	0.027270	0.425930	0.791830
C2301	C230	0.053570	0.463230	0.812930
H871	H87	0.048270	0.468730	0.843530
C2311	C231	0.113470	0.531030	0.810530
C2321	C232	0.989570	0.396630	0.815030
C2331	C233	0.075670	0.404030	0.618730
C2341	C234	0.110170	0.431930	0.596930
H881	H88	0.127070	0.456930	0.611430
C2351	C235	0.120470	0.423230	0.552230
C2361	C236	0.095470	0.387230	0.532630
H891	H89	0.101470	0.381730	0.502330
C2371	C237	0.061070	0.357730	0.555530
C2381	C238	0.051370	0.366930	0.597930
H901	H90	0.027770	0.347730	0.613530
C2391	C239	0.157570	0.453430	0.530030
C2401	C240	0.034470	0.317230	0.534530
C2411	C241	0.884070	0.413830	0.782030
C2421	C242	0.866570	0.405730	0.740330
H911	H91	0.860470	0.381330	0.725530
C2431	C243	0.856870	0.431930	0.717230
C2441	C244	0.868870	0.468930	0.735230
H921	H92	0.866970	0.488830	0.717730
C2451	C245	0.884670	0.476730	0.781130
C2461	C246	0.891770	0.449830	0.804430
H931	H93	0.901870	0.455330	0.835430
C2471	C247	0.893770	0.385930	0.804930
C2481	C248	0.894670	0.516030	0.802430
C2491	C249	0.793270	0.349930	0.590530
H941	H94	0.794670	0.329130	0.606730
C2501	C250	0.775170	0.342430	0.547330
C2511	C251	0.773070	0.374230	0.523730
H951	H95	0.761270	0.369830	0.493630
C2521	C252	0.787570	0.409630	0.544130
C2531	C253	0.805270	0.418330	0.587930
H961	H96	0.814170	0.443630	0.602230
C2541	C254	0.809770	0.388130	0.610430
C2551	C255	0.757270	0.301630	0.528230
C2561	C256	0.783270	0.444530	0.520830
N291	N29	0.083870	0.442430	0.678730
N301	N30	0.062170	0.408330	0.662230
N311	N31	0.839070	0.425430	0.672830
N321	N32	0.826370	0.392130	0.653930
O1131	O113	0.140730	0.557090	0.785530
O1141	O114	0.106190	0.539150	0.851930
O1151	O115	0.966640	0.367500	0.789930
O1161	O116	0.983750	0.402710	0.856460
O1171	O117	0.181710	0.482090	0.554700
O1181	O118	0.164430	0.446120	0.489730
O1191	O119	0.044960	0.311820	0.493430
O1201	O120	0.010090	0.292880	0.559030
O1211	O121	0.891390	0.356360	0.780790
O1221	O122	0.909260	0.395150	0.845830
O1231	O123	0.910050	0.523330	0.843030
O1241	O124	0.888210	0.538170	0.779030
O1251	O125	0.756890	0.275570	0.552630
O1261	O126	0.743930	0.296080	0.486030
O1271	O127	0.770380	0.437240	0.480630
O1281	O128	0.792700	0.473510	0.546430
Zn331	Zn33	0.855940	0.947230	0.120040
Zn341	Zn34	0.811680	0.928020	0.210590
Zn351	Zn35	0.596420	0.697010	0.216430
Zn361	Zn36	0.576780	0.651340	0.126810
C2571	C257	0.753330	0.824870	0.122870
C2581	C258	0.762130	0.816870	0.078970
H971	H97	0.785530	0.836270	0.063270
C2591	C259	0.737430	0.781370	0.058070
C2601	C260	0.703330	0.752470	0.079770
H981	H98	0.686130	0.727970	0.064270
C2611	C261	0.693930	0.759270	0.125170
C2621	C262	0.720230	0.796570	0.146270
H991	H99	0.714930	0.802070	0.176870
C2631	C263	0.780130	0.864370	0.143870
C2641	C264	0.656230	0.729970	0.148370
C2651	C265	0.742330	0.737370	0.952070
C2661	C266	0.776830	0.765270	0.930270
H1001	H100	0.793730	0.790270	0.944770
C2671	C267	0.787130	0.756570	0.885570
C2681	C268	0.762130	0.720570	0.865970
H1011	H101	0.768130	0.715070	0.835670
C2691	C269	0.727730	0.691070	0.888870
C2701	C270	0.718030	0.700270	0.931270
H1021	H102	0.694430	0.681070	0.946870
C2711	C271	0.824230	0.786770	0.863370
C2721	C272	0.701130	0.650570	0.867870
C2731	C273	0.550730	0.747170	0.115370
C2741	C274	0.533230	0.739070	0.073670
H1031	H103	0.527130	0.714670	0.058870
C2751	C275	0.523530	0.765270	0.050570
C2761	C276	0.535530	0.802270	0.068570
H1041	H104	0.533630	0.822170	0.051070
C2771	C277	0.551330	0.810070	0.114470
C2781	C278	0.558430	0.783170	0.137770
H1051	H105	0.568530	0.788670	0.168770
C2791	C279	0.560430	0.719270	0.138270
C2801	C280	0.561330	0.849370	0.135770
C2811	C281	0.459930	0.683270	0.923870
H1061	H106	0.461330	0.662470	0.940070
C2821	C282	0.441830	0.675770	0.880670
C2831	C283	0.439730	0.707570	0.857070
H1071	H107	0.427930	0.703170	0.826970
C2841	C284	0.454230	0.742970	0.877470
C2851	C285	0.471930	0.751670	0.921270
H1081	H108	0.480830	0.776970	0.935570
C2861	C286	0.476430	0.721470	0.943770
C2871	C287	0.423930	0.634970	0.861570
C2881	C288	0.449930	0.777870	0.854170
N331	N33	0.750530	0.775770	0.012070
N341	N34	0.728830	0.741670	0.995570
N351	N35	0.505730	0.758770	0.006170
N361	N36	0.493030	0.725470	0.987270
O1291	O129	0.807390	0.890430	0.118870
O1301	O130	0.772850	0.872490	0.185270
O1311	O131	0.633300	0.700840	0.123270
O1321	O132	0.650410	0.736050	0.189800
O1331	O133	0.848370	0.815430	0.888040
O1341	O134	0.831090	0.779460	0.823070
O1351	O135	0.711620	0.645160	0.826770
O1361	O136	0.676750	0.626220	0.892370
O1371	O137	0.558050	0.689700	0.114130
O1381	O138	0.575920	0.728490	0.179170
O1391	O139	0.576710	0.856670	0.176370
O1401	O140	0.554870	0.871510	0.112370
O1411	O141	0.423550	0.608910	0.885970
O1421	O142	0.410590	0.629420	0.819370
O1431	O143	0.437040	0.770580	0.813970
O1441	O144	0.459360	0.806850	0.879770
Zn371	Zn37	0.280560	0.757950	0.546630
Zn381	Zn38	0.261350	0.783000	0.456080
Zn391	Zn39	0.030340	0.767250	0.450240
Zn401	Zn40	0.984670	0.741220	0.539860
C2891	C289	0.158200	0.738200	0.543800
C2901	C290	0.150200	0.721400	0.587700
H1091	H109	0.169600	0.717400	0.603400
C2911	C291	0.114700	0.710600	0.608600
C2921	C292	0.085800	0.715800	0.586900
H1101	H110	0.061300	0.708500	0.602400
C2931	C293	0.092600	0.732000	0.541500
C2941	C294	0.129900	0.743000	0.520400
H1111	H111	0.135400	0.753800	0.489800
C2951	C295	0.197700	0.750900	0.522800
C2961	C296	0.063300	0.740400	0.518300
C2971	C297	0.070700	0.661700	0.714600
C2981	C298	0.098600	0.655100	0.736400
H1121	H112	0.123600	0.663200	0.721900
C2991	C299	0.089900	0.636100	0.781100
C3001	C300	0.053900	0.625100	0.800700
H1131	H113	0.048400	0.613600	0.831000
C3011	C301	0.024400	0.630000	0.777800
C3021	C302	0.033600	0.648900	0.735400
H1141	H114	0.014400	0.653300	0.719800
C3031	C303	0.120100	0.629200	0.803300
C3041	C304	0.983900	0.616100	0.798800
C3051	C305	0.080500	0.863100	0.551300
C3061	C306	0.072400	0.872500	0.593000
H1151	H115	0.048000	0.854200	0.607800
C3071	C307	0.098600	0.908400	0.616100
C3081	C308	0.135600	0.933400	0.598100
H1161	H116	0.155500	0.955200	0.615600
C3091	C309	0.143400	0.925400	0.552200
C3101	C310	0.116500	0.891400	0.528900
H1171	H117	0.122000	0.886800	0.497900
C3111	C311	0.052600	0.825500	0.528400
C3121	C312	0.182700	0.954700	0.530900
C3131	C313	0.016600	0.890000	0.742800
H1181	H118	0.995800	0.867800	0.726600
C3141	C314	0.009100	0.900600	0.786000
C3151	C315	0.040900	0.934500	0.809600
H1191	H119	0.036500	0.941900	0.839700
C3161	C316	0.076300	0.955400	0.789200
C3171	C317	0.085000	0.946400	0.745400
H1201	H120	0.110300	0.962800	0.731100
C3181	C318	0.054800	0.911700	0.722900
C3191	C319	0.968300	0.877700	0.805100
C3201	C320	0.111200	0.994600	0.812500
N371	N37	0.109100	0.691900	0.654600
N381	N38	0.075000	0.679500	0.671100
N391	N39	0.092100	0.919700	0.660500
N401	N40	0.058800	0.899100	0.679400
O1451	O145	0.223760	0.749700	0.547800
O1461	O146	0.205820	0.766300	0.481400
O1471	O147	0.034170	0.734200	0.543400
O1481	O148	0.069380	0.752300	0.476870
O1491	O149	0.148760	0.633720	0.778630
O1501	O150	0.112790	0.615030	0.843600
O1511	O151	0.978490	0.600200	0.839900
O1521	O152	0.959550	0.616130	0.774300
O1531	O153	0.023030	0.798310	0.552540
O1541	O154	0.061820	0.819230	0.487500
O1551	O155	0.190000	0.946620	0.490300
O1561	O156	0.204840	0.983300	0.554300
O1571	O157	0.942240	0.852020	0.780700
O1581	O158	0.962750	0.885490	0.847300
O1591	O159	0.103910	0.000200	0.852700
O1601	O160	0.140180	0.014150	0.786900
Zn411	Zn41	0.947230	0.091280	0.879960
Zn421	Zn42	0.928020	0.116330	0.789410
Zn431	Zn43	0.697010	0.100580	0.783570
Zn441	Zn44	0.651340	0.074550	0.873190
C3211	C321	0.824870	0.071530	0.877130
C3221	C322	0.816870	0.054730	0.921030
H1211	H121	0.836270	0.050730	0.936730
C3231	C323	0.781370	0.043930	0.941930
C3241	C324	0.752470	0.049130	0.920230
H1221	H122	0.727970	0.041830	0.935730
C3251	C325	0.759270	0.065330	0.874830
C3261	C326	0.796570	0.076330	0.853730
H1231	H123	0.802070	0.087130	0.823130
C3271	C327	0.864370	0.084230	0.856130
C3281	C328	0.729970	0.073730	0.851630
C3291	C329	0.737370	0.995030	0.047930
C3301	C330	0.765270	0.988430	0.069730
H1241	H124	0.790270	0.996530	0.055230
C3311	C331	0.756570	0.969430	0.114430
C3321	C332	0.720570	0.958430	0.134030
H1251	H125	0.715070	0.946930	0.164330
C3331	C333	0.691070	0.963330	0.111130
C3341	C334	0.700270	0.982230	0.068730
H1261	H126	0.681070	0.986630	0.053130
C3351	C335	0.786770	0.962530	0.136630
C3361	C336	0.650570	0.949430	0.132130
C3371	C337	0.747170	0.196430	0.884630
C3381	C338	0.739070	0.205830	0.926330
H1271	H127	0.714670	0.187530	0.941130
C3391	C339	0.765270	0.241730	0.949430
C3401	C340	0.802270	0.266730	0.931430
H1281	H128	0.822170	0.288530	0.948930
C3411	C341	0.810070	0.258730	0.885530
C3421	C342	0.783170	0.224730	0.862230
H1291	H129	0.788670	0.220130	0.831230
C3431	C343	0.719270	0.158830	0.861730
C3441	C344	0.849370	0.288030	0.864230
C3451	C345	0.683270	0.223330	0.076130
H1301	H130	0.662470	0.201130	0.059930
C3461	C346	0.675770	0.233930	0.119330
C3471	C347	0.707570	0.267830	0.142930
H1311	H131	0.703170	0.275230	0.173030
C3481	C348	0.742970	0.288730	0.122530
C3491	C349	0.751670	0.279730	0.078730
H1321	H132	0.776970	0.296130	0.064430
C3501	C350	0.721470	0.245030	0.056230
C3511	C351	0.634970	0.211030	0.138430
C3521	C352	0.777870	0.327930	0.145830
N411	N41	0.775770	0.025230	0.987930
N421	N42	0.741670	0.012830	0.004430
N431	N43	0.758770	0.253030	0.993830
N441	N44	0.725470	0.232430	0.012730
O1611	O161	0.890430	0.083030	0.881130
O1621	O162	0.872490	0.099630	0.814730
O1631	O163	0.700840	0.067530	0.876730
O1641	O164	0.736050	0.085630	0.810200
O1651	O165	0.815430	0.967050	0.111960
O1661	O166	0.779460	0.948360	0.176930
O1671	O167	0.645160	0.933530	0.173230
O1681	O168	0.626220	0.949460	0.107630
O1691	O169	0.689700	0.131640	0.885870
O1701	O170	0.728490	0.152560	0.820830
O1711	O171	0.856670	0.279950	0.823630
O1721	O172	0.871510	0.316630	0.887630
O1731	O173	0.608910	0.185350	0.114030
O1741	O174	0.629420	0.218820	0.180630
O1751	O175	0.770580	0.333530	0.186030
O1761	O176	0.806850	0.347480	0.120230
Zn451	Zn45	0.613890	0.424620	0.213300
Zn461	Zn46	0.594680	0.449670	0.122750
Zn471	Zn47	0.363670	0.433920	0.116910
Zn481	Zn48	0.318000	0.407890	0.206530
C3531	C353	0.491530	0.404870	0.210470
C3541	C354	0.483530	0.388070	0.254370
H1331	H133	0.502930	0.384070	0.270070
C3551	C355	0.448030	0.377270	0.275270
C3561	C356	0.419130	0.382470	0.253570
H1341	H134	0.394630	0.375170	0.269070
C3571	C357	0.425930	0.398670	0.208170
C3581	C358	0.463230	0.409670	0.187070
H1351	H135	0.468730	0.420470	0.156470
C3591	C359	0.531030	0.417570	0.189470
C3601	C360	0.396630	0.407070	0.184970
C3611	C361	0.404030	0.328370	0.381270
C3621	C362	0.431930	0.321770	0.403070
H1361	H136	0.456930	0.329870	0.388570
C3631	C363	0.423230	0.302770	0.447770
C3641	C364	0.387230	0.291770	0.467370
H1371	H137	0.381730	0.280270	0.497670
C3651	C365	0.357730	0.296670	0.444470
C3661	C366	0.366930	0.315570	0.402070
H1381	H138	0.347730	0.319970	0.386470
C3671	C367	0.453430	0.295870	0.469970
C3681	C368	0.317230	0.282770	0.465470
C3691	C369	0.413830	0.529770	0.217970
C3701	C370	0.405730	0.539170	0.259670
H1391	H139	0.381330	0.520870	0.274470
C3711	C371	0.431930	0.575070	0.282770
C3721	C372	0.468930	0.600070	0.264770
H1401	H140	0.488830	0.621870	0.282270
C3731	C373	0.476730	0.592070	0.218870
C3741	C374	0.449830	0.558070	0.195570
H1411	H141	0.455330	0.553470	0.164570
C3751	C375	0.385930	0.492170	0.195070
C3761	C376	0.516030	0.621370	0.197570
C3771	C377	0.349930	0.556670	0.409470
H1421	H142	0.329130	0.534470	0.393270
C3781	C378	0.342430	0.567270	0.452670
C3791	C379	0.374230	0.601170	0.476270
H1431	H143	0.369830	0.608570	0.506370
C3801	C380	0.409630	0.622070	0.455870
C3811	C381	0.418330	0.613070	0.412070
H1441	H144	0.443630	0.629470	0.397770
C3821	C382	0.388130	0.578370	0.389570
C3831	C383	0.301630	0.544370	0.471770
C3841	C384	0.444530	0.661270	0.479170
N451	N45	0.442430	0.358570	0.321270
N461	N46	0.408330	0.346170	0.337770
N471	N47	0.425430	0.586370	0.327170
N481	N48	0.392130	0.565770	0.346070
O1771	O177	0.557090	0.416370	0.214470
O1781	O178	0.539150	0.432970	0.148070
O1791	O179	0.367500	0.400870	0.210070
O1801	O180	0.402710	0.418970	0.143540
O1811	O181	0.482090	0.300390	0.445300
O1821	O182	0.446120	0.281700	0.510270
O1831	O183	0.311820	0.266870	0.506570
O1841	O184	0.292880	0.282800	0.440970
O1851	O185	0.356360	0.464980	0.219210
O1861	O186	0.395150	0.485900	0.154170
O1871	O187	0.523330	0.613290	0.156970
O1881	O188	0.538170	0.649970	0.220970
O1891	O189	0.275570	0.518690	0.447370
O1901	O190	0.296080	0.552160	0.513970
O1911	O191	0.437240	0.666870	0.519370
O1921	O192	0.473510	0.680820	0.453570
Zn491	Zn49	0.242050	0.522610	0.546630
Zn501	Zn50	0.217000	0.478350	0.456080
Zn511	Zn51	0.232750	0.263090	0.450240
Zn521	Zn52	0.258780	0.243450	0.539860
C3851	C385	0.261800	0.420000	0.543800
C3861	C386	0.278600	0.428800	0.587700
H1451	H145	0.282600	0.452200	0.603400
C3871	C387	0.289400	0.404100	0.608600
C3881	C388	0.284200	0.370000	0.586900
H1461	H146	0.291500	0.352800	0.602400
C3891	C389	0.268000	0.360600	0.541500
C3901	C390	0.257000	0.386900	0.520400
H1471	H147	0.246200	0.381600	0.489800
C3911	C391	0.249100	0.446800	0.522800
C3921	C392	0.259600	0.322900	0.518300
C3931	C393	0.338300	0.409000	0.714600
C3941	C394	0.344900	0.443500	0.736400
H1481	H148	0.336800	0.460400	0.721900
C3951	C395	0.363900	0.453800	0.781100
C3961	C396	0.374900	0.428800	0.800700
H1491	H149	0.386400	0.434800	0.831000
C3971	C397	0.370000	0.394400	0.777800
C3981	C398	0.351100	0.384700	0.735400
H1501	H150	0.346700	0.361100	0.719800
C3991	C399	0.370800	0.490900	0.803300
C4001	C400	0.383900	0.367800	0.798800
C4011	C401	0.136900	0.217400	0.551300
C4021	C402	0.127500	0.199900	0.593000
H1511	H151	0.145800	0.193800	0.607800
C4031	C403	0.091600	0.190200	0.616100
C4041	C404	0.066600	0.202200	0.598100
H1521	H152	0.044800	0.200300	0.615600
C4051	C405	0.074600	0.218000	0.552200
C4061	C406	0.108600	0.225100	0.528900
H1531	H153	0.113200	0.235200	0.497900
C4071	C407	0.174500	0.227100	0.528400
C4081	C408	0.045300	0.228000	0.530900
C4091	C409	0.110000	0.126600	0.742800
H1541	H154	0.132200	0.128000	0.726600
C4101	C410	0.099400	0.108500	0.786000
C4111	C411	0.065500	0.106400	0.809600
H1551	H155	0.058100	0.094600	0.839700
C4121	C412	0.044600	0.120900	0.789200
C4131	C413	0.053600	0.138600	0.745400
H1561	H156	0.037200	0.147500	0.731100
C4141	C414	0.088300	0.143100	0.722900
C4151	C415	0.122300	0.090600	0.805100
C4161	C416	0.005400	0.116600	0.812500
N491	N49	0.308100	0.417200	0.654600
N501	N50	0.320500	0.395500	0.671100
N511	N51	0.080300	0.172400	0.660500
N521	N52	0.100900	0.159700	0.679400
O1931	O193	0.250300	0.474060	0.547800
O1941	O194	0.233700	0.439520	0.481400
O1951	O195	0.265800	0.299970	0.543400
O1961	O196	0.247700	0.317080	0.476870
O1971	O197	0.366280	0.515040	0.778630
O1981	O198	0.384970	0.497760	0.843600
O1991	O199	0.399800	0.378290	0.839900
O2001	O200	0.383870	0.343420	0.774300
O2011	O201	0.201690	0.224720	0.552540
O2021	O202	0.180770	0.242590	0.487500
O2031	O203	0.053380	0.243380	0.490300
O2041	O204	0.016700	0.221540	0.554300
O2051	O205	0.147980	0.090220	0.780700
O2061	O206	0.114510	0.077260	0.847300
O2071	O207	0.999800	0.103710	0.852700
O2081	O208	0.985850	0.126030	0.786900
Zn531	Zn53	0.908720	0.855940	0.879960
Zn541	Zn54	0.883670	0.811680	0.789410
Zn551	Zn55	0.899420	0.596420	0.783570
Zn561	Zn56	0.925450	0.576780	0.873190
C4171	C417	0.928470	0.753330	0.877130
C4181	C418	0.945270	0.762130	0.921030
H1571	H157	0.949270	0.785530	0.936730
C4191	C419	0.956070	0.737430	0.941930
C4201	C420	0.950870	0.703330	0.920230
H1581	H158	0.958170	0.686130	0.935730
C4211	C421	0.934670	0.693930	0.874830
C4221	C422	0.923670	0.720230	0.853730
H1591	H159	0.912870	0.714930	0.823130
C4231	C423	0.915770	0.780130	0.856130
C4241	C424	0.926270	0.656230	0.851630
C4251	C425	0.004970	0.742330	0.047930
C4261	C426	0.011570	0.776830	0.069730
H1601	H160	0.003470	0.793730	0.055230
C4271	C427	0.030570	0.787130	0.114430
C4281	C428	0.041570	0.762130	0.134030
H1611	H161	0.053070	0.768130	0.164330
C4291	C429	0.036670	0.727730	0.111130
C4301	C430	0.017770	0.718030	0.068730
H1621	H162	0.013370	0.694430	0.053130
C4311	C431	0.037470	0.824230	0.136630
C4321	C432	0.050570	0.701130	0.132130
C4331	C433	0.803570	0.550730	0.884630
C4341	C434	0.794170	0.533230	0.926330
H1631	H163	0.812470	0.527130	0.941130
C4351	C435	0.758270	0.523530	0.949430
C4361	C436	0.733270	0.535530	0.931430
H1641	H164	0.711470	0.533630	0.948930
C4371	C437	0.741270	0.551330	0.885530
C4381	C438	0.775270	0.558430	0.862230
H1651	H165	0.779870	0.568530	0.831230
C4391	C439	0.841170	0.560430	0.861730
C4401	C440	0.711970	0.561330	0.864230
C4411	C441	0.776670	0.459930	0.076130
H1661	H166	0.798870	0.461330	0.059930
C4421	C442	0.766070	0.441830	0.119330
C4431	C443	0.732170	0.439730	0.142930
H1671	H167	0.724770	0.427930	0.173030
C4441	C444	0.711270	0.454230	0.122530
C4451	C445	0.720270	0.471930	0.078730
H1681	H168	0.703870	0.480830	0.064430
C4461	C446	0.754970	0.476430	0.056230
C4471	C447	0.788970	0.423930	0.138430
C4481	C448	0.672070	0.449930	0.145830
N531	N53	0.974770	0.750530	0.987930
N541	N54	0.987170	0.728830	0.004430
N551	N55	0.746970	0.505730	0.993830
N561	N56	0.767570	0.493030	0.012730
O2091	O209	0.916970	0.807390	0.881130
O2101	O210	0.900370	0.772850	0.814730
O2111	O211	0.932470	0.633300	0.876730
O2121	O212	0.914370	0.650410	0.810200
O2131	O213	0.032950	0.848370	0.111960
O2141	O214	0.051640	0.831090	0.176930
O2151	O215	0.066470	0.711620	0.173230
O2161	O216	0.050540	0.676750	0.107630
O2171	O217	0.868360	0.558050	0.885870
O2181	O218	0.847440	0.575920	0.820830
O2191	O219	0.720050	0.576710	0.823630
O2201	O220	0.683370	0.554870	0.887630
O2211	O221	0.814650	0.423550	0.114030
O2221	O222	0.781180	0.410590	0.180630
O2231	O223	0.666470	0.437040	0.186030
O2241	O224	0.652520	0.459360	0.120230
Zn571	Zn57	0.575380	0.189280	0.213300
Zn581	Zn58	0.550330	0.145020	0.122750
Zn591	Zn59	0.566080	0.929760	0.116910
Zn601	Zn60	0.592110	0.910120	0.206530
C4491	C449	0.595130	0.086670	0.210470
C4501	C450	0.611930	0.095470	0.254370
H1691	H169	0.615930	0.118870	0.270070
C4511	C451	0.622730	0.070770	0.275270
C4521	C452	0.617530	0.036670	0.253570
H1701	H170	0.624830	0.019470	0.269070
C4531	C453	0.601330	0.027270	0.208170
C4541	C454	0.590330	0.053570	0.187070
H1711	H171	0.579530	0.048270	0.156470
C4551	C455	0.582430	0.113470	0.189470
C4561	C456	0.592930	0.989570	0.184970
C4571	C457	0.671630	0.075670	0.381270
C4581	C458	0.678230	0.110170	0.403070
H1721	H172	0.670130	0.127070	0.388570
C4591	C459	0.697230	0.120470	0.447770
C4601	C460	0.708230	0.095470	0.467370
H1731	H173	0.719730	0.101470	0.497670
C4611	C461	0.703330	0.061070	0.444470
C4621	C462	0.684430	0.051370	0.402070
H1741	H174	0.680030	0.027770	0.386470
C4631	C463	0.704130	0.157570	0.469970
C4641	C464	0.717230	0.034470	0.465470
C4651	C465	0.470230	0.884070	0.217970
C4661	C466	0.460830	0.866570	0.259670
H1751	H175	0.479130	0.860470	0.274470
C4671	C467	0.424930	0.856870	0.282770
C4681	C468	0.399930	0.868870	0.264770
H1761	H176	0.378130	0.866970	0.282270
C4691	C469	0.407930	0.884670	0.218870
C4701	C470	0.441930	0.891770	0.195570
H1771	H177	0.446530	0.901870	0.164570
C4711	C471	0.507830	0.893770	0.195070
C4721	C472	0.378630	0.894670	0.197570
C4731	C473	0.443330	0.793270	0.409470
H1781	H178	0.465530	0.794670	0.393270
C4741	C474	0.432730	0.775170	0.452670
C4751	C475	0.398830	0.773070	0.476270
H1791	H179	0.391430	0.761270	0.506370
C4761	C476	0.377930	0.787570	0.455870
C4771	C477	0.386930	0.805270	0.412070
H1801	H180	0.370530	0.814170	0.397770
C4781	C478	0.421630	0.809770	0.389570
C4791	C479	0.455630	0.757270	0.471770
C4801	C480	0.338730	0.783270	0.479170
N571	N57	0.641430	0.083870	0.321270
N581	N58	0.653830	0.062170	0.337770
N591	N59	0.413630	0.839070	0.327170
N601	N60	0.434230	0.826370	0.346070
O2251	O225	0.583630	0.140730	0.214470
O2261	O226	0.567030	0.106190	0.148070
O2271	O227	0.599130	0.966640	0.210070
O2281	O228	0.581030	0.983750	0.143540
O2291	O229	0.699610	0.181710	0.445300
O2301	O230	0.718300	0.164430	0.510270
O2311	O231	0.733130	0.044960	0.506570
O2321	O232	0.717200	0.010090	0.440970
O2331	O233	0.535020	0.891390	0.219210
O2341	O234	0.514100	0.909260	0.154170
O2351	O235	0.386710	0.910050	0.156970
O2361	O236	0.350030	0.888210	0.220970
O2371	O237	0.481310	0.756890	0.447370
O2381	O238	0.447840	0.743930	0.513970
O2391	O239	0.333130	0.770380	0.519370
O2401	O240	0.319180	0.792700	0.453570
Zn611	Zn61	0.477390	0.719440	0.546630
Zn621	Zn62	0.521650	0.738650	0.456080
Zn631	Zn63	0.736910	0.969660	0.450240
Zn641	Zn64	0.756550	0.015330	0.539860
C4811	C481	0.580000	0.841800	0.543800
C4821	C482	0.571200	0.849800	0.587700
H1811	H181	0.547800	0.830400	0.603400
C4831	C483	0.595900	0.885300	0.608600
C4841	C484	0.630000	0.914200	0.586900
H1821	H182	0.647200	0.938700	0.602400
C4851	C485	0.639400	0.907400	0.541500
C4861	C486	0.613100	0.870100	0.520400
H1831	H183	0.618400	0.864600	0.489800
C4871	C487	0.553200	0.802300	0.522800
C4881	C488	0.677100	0.936700	0.518300
C4891	C489	0.591000	0.929300	0.714600
C4901	C490	0.556500	0.901400	0.736400
H1841	H184	0.539600	0.876400	0.721900
C4911	C491	0.546200	0.910100	0.781100
C4921	C492	0.571200	0.946100	0.800700
H1851	H185	0.565200	0.951600	0.831000
C4931	C493	0.605600	0.975600	0.777800
C4941	C494	0.615300	0.966400	0.735400
H1861	H186	0.638900	0.985600	0.719800
C4951	C495	0.509100	0.879900	0.803300
C4961	C496	0.632200	0.016100	0.798800
C4971	C497	0.782600	0.919500	0.551300
C4981	C498	0.800100	0.927600	0.593000
H1871	H187	0.806200	0.952000	0.607800
C4991	C499	0.809800	0.901400	0.616100
C5001	C500	0.797800	0.864400	0.598100
H1881	H188	0.799700	0.844500	0.615600
C5011	C501	0.782000	0.856600	0.552200
C5021	C502	0.774900	0.883500	0.528900
H1891	H189	0.764800	0.878000	0.497900
C5031	C503	0.772900	0.947400	0.528400
C5041	C504	0.772000	0.817300	0.530900
C5051	C505	0.873400	0.983400	0.742800
H1901	H190	0.872000	0.004200	0.726600
C5061	C506	0.891500	0.990900	0.786000
C5071	C507	0.893600	0.959100	0.809600
H1911	H191	0.905400	0.963500	0.839700
C5081	C508	0.879100	0.923700	0.789200
C5091	C509	0.861400	0.915000	0.745400
H1921	H192	0.852500	0.889700	0.731100
C5101	C510	0.856900	0.945200	0.722900
C5111	C511	0.909400	0.031700	0.805100
C5121	C512	0.883400	0.888800	0.812500
N611	N61	0.582800	0.890900	0.654600
N621	N62	0.604500	0.925000	0.671100
N631	N63	0.827600	0.907900	0.660500
N641	N64	0.840300	0.941200	0.679400
O2411	O241	0.525940	0.776240	0.547800
O2421	O242	0.560480	0.794180	0.481400
O2431	O243	0.700030	0.965830	0.543400
O2441	O244	0.682920	0.930620	0.476870
O2451	O245	0.484960	0.851240	0.778630
O2461	O246	0.502240	0.887210	0.843600
O2471	O247	0.621710	0.021510	0.839900
O2481	O248	0.656580	0.040450	0.774300
O2491	O249	0.775280	0.976970	0.552540
O2501	O250	0.757410	0.938180	0.487500
O2511	O251	0.756620	0.810000	0.490300
O2521	O252	0.778460	0.795160	0.554300
O2531	O253	0.909780	0.057760	0.780700
O2541	O254	0.922740	0.037250	0.847300
O2551	O255	0.896290	0.896090	0.852700
O2561	O256	0.873970	0.859820	0.786900
Zn651	Zn65	0.144060	0.052770	0.879960
Zn661	Zn66	0.188320	0.071980	0.789410
Zn671	Zn67	0.403580	0.302990	0.783570
Zn681	Zn68	0.423220	0.348660	0.873190
C5131	C513	0.246670	0.175130	0.877130
C5141	C514	0.237870	0.183130	0.921030
H1931	H193	0.214470	0.163730	0.936730
C5151	C515	0.262570	0.218630	0.941930
C5161	C516	0.296670	0.247530	0.920230
H1941	H194	0.313870	0.272030	0.935730
C5171	C517	0.306070	0.240730	0.874830
C5181	C518	0.279770	0.203430	0.853730
H1951	H195	0.285070	0.197930	0.823130
C5191	C519	0.219870	0.135630	0.856130
C5201	C520	0.343770	0.270030	0.851630
C5211	C521	0.257670	0.262630	0.047930
C5221	C522	0.223170	0.234730	0.069730
H1961	H196	0.206270	0.209730	0.055230
C5231	C523	0.212870	0.243430	0.114430
C5241	C524	0.237870	0.279430	0.134030
H1971	H197	0.231870	0.284930	0.164330
C5251	C525	0.272270	0.308930	0.111130
C5261	C526	0.281970	0.299730	0.068730
H1981	H198	0.305570	0.318930	0.053130
C5271	C527	0.175770	0.213230	0.136630
C5281	C528	0.298870	0.349430	0.132130
C5291	C529	0.449270	0.252830	0.884630
C5301	C530	0.466770	0.260930	0.926330
H1991	H199	0.472870	0.285330	0.941130
C5311	C531	0.476470	0.234730	0.949430
C5321	C532	0.464470	0.197730	0.931430
H2001	H200	0.466370	0.177830	0.948930
C5331	C533	0.448670	0.189930	0.885530
C5341	C534	0.441570	0.216830	0.862230
H2011	H201	0.431470	0.211330	0.831230
C5351	C535	0.439570	0.280730	0.861730
C5361	C536	0.438670	0.150630	0.864230
C5371	C537	0.540070	0.316730	0.076130
H2021	H202	0.538670	0.337530	0.059930
C5381	C538	0.558170	0.324230	0.119330
C5391	C539	0.560270	0.292430	0.142930
H2031	H203	0.572070	0.296830	0.173030
C5401	C540	0.545770	0.257030	0.122530
C5411	C541	0.528070	0.248330	0.078730
H2041	H204	0.519170	0.223030	0.064430
C5421	C542	0.523570	0.278530	0.056230
C5431	C543	0.576070	0.365030	0.138430
C5441	C544	0.550070	0.222130	0.145830
N651	N65	0.249470	0.224230	0.987930
N661	N66	0.271170	0.258330	0.004430
N671	N67	0.494270	0.241230	0.993830
N681	N68	0.506970	0.274530	0.012730
O2571	O257	0.192610	0.109570	0.881130
O2581	O258	0.227150	0.127510	0.814730
O2591	O259	0.366700	0.299160	0.876730
O2601	O260	0.349590	0.263950	0.810200
O2611	O261	0.151630	0.184570	0.111960
O2621	O262	0.168910	0.220540	0.176930
O2631	O263	0.288380	0.354840	0.173230
O2641	O264	0.323250	0.373780	0.107630
O2651	O265	0.441950	0.310300	0.885870
O2661	O266	0.424080	0.271510	0.820830
O2671	O267	0.423290	0.143330	0.823630
O2681	O268	0.445130	0.128490	0.887630
O2691	O269	0.576450	0.391090	0.114030
O2701	O270	0.589410	0.370580	0.180630
O2711	O271	0.562960	0.229420	0.186030
O2721	O272	0.540640	0.193150	0.120230
Zn691	Zn69	0.810720	0.386110	0.213300
Zn701	Zn70	0.854980	0.405320	0.122750
Zn711	Zn71	0.070240	0.636330	0.116910
Zn721	Zn72	0.089880	0.682000	0.206530
C5451	C545	0.913330	0.508470	0.210470
C5461	C546	0.904530	0.516470	0.254370
H2051	H205	0.881130	0.497070	0.270070
C5471	C547	0.929230	0.551970	0.275270
C5481	C548	0.963330	0.580870	0.253570
H2061	H206	0.980530	0.605370	0.269070
C5491	C549	0.972730	0.574070	0.208170
C5501	C550	0.946430	0.536770	0.187070
H2071	H207	0.951730	0.531270	0.156470
C5511	C551	0.886530	0.468970	0.189470
C5521	C552	0.010430	0.603370	0.184970
C5531	C553	0.924330	0.595970	0.381270
C5541	C554	0.889830	0.568070	0.403070
H2081	H208	0.872930	0.543070	0.388570
C5551	C555	0.879530	0.576770	0.447770
C5561	C556	0.904530	0.612770	0.467370
H2091	H209	0.898530	0.618270	0.497670
C5571	C557	0.938930	0.642270	0.444470
C5581	C558	0.948630	0.633070	0.402070
H2101	H210	0.972230	0.652270	0.386470
C5591	C559	0.842430	0.546570	0.469970
C5601	C560	0.965530	0.682770	0.465470
C5611	C561	0.115930	0.586170	0.217970
C5621	C562	0.133430	0.594270	0.259670
H2111	H211	0.139530	0.618670	0.274470
C5631	C563	0.143130	0.568070	0.282770
C5641	C564	0.131130	0.531070	0.264770
H2121	H212	0.133030	0.511170	0.282270
C5651	C565	0.115330	0.523270	0.218870
C5661	C566	0.108230	0.550170	0.195570
H2131	H213	0.098130	0.544670	0.164570
C5671	C567	0.106230	0.614070	0.195070
C5681	C568	0.105330	0.483970	0.197570
C5691	C569	0.206730	0.650070	0.409470
H2141	H214	0.205330	0.670870	0.393270
C5701	C570	0.224830	0.657570	0.452670
C5711	C571	0.226930	0.625770	0.476270
H2151	H215	0.238730	0.630170	0.506370
C5721	C572	0.212430	0.590370	0.455870
C5731	C573	0.194730	0.581670	0.412070
H2161	H216	0.185830	0.556370	0.397770
C5741	C574	0.190230	0.611870	0.389570
C5751	C575	0.242730	0.698370	0.471770
C5761	C576	0.216730	0.555470	0.479170
N691	N69	0.916130	0.557570	0.321270
N701	N70	0.937830	0.591670	0.337770
N711	N71	0.160930	0.574570	0.327170
N721	N72	0.173630	0.607870	0.346070
O2731	O273	0.859270	0.442910	0.214470
O2741	O274	0.893810	0.460850	0.148070
O2751	O275	0.033360	0.632500	0.210070
O2761	O276	0.016250	0.597290	0.143540
O2771	O277	0.818290	0.517910	0.445300
O2781	O278	0.835570	0.553880	0.510270
O2791	O279	0.955040	0.688180	0.506570
O2801	O280	0.989910	0.707120	0.440970
O2811	O281	0.108610	0.643640	0.219210
O2821	O282	0.090740	0.604850	0.154170
O2831	O283	0.089950	0.476670	0.156970
O2841	O284	0.111790	0.461830	0.220970
O2851	O285	0.243110	0.724430	0.447370
O2861	O286	0.256070	0.703920	0.513970
O2871	O287	0.229620	0.562760	0.519370
O2881	O288	0.207300	0.526490	0.453570
