data_DAPWAT_clean_PM
_symmetry_space_group_name_H-M	'P1'
_cell_length_a	27.881000
_cell_length_b	14.252000
_cell_length_c	24.059000
_cell_angle_alpha	90.000000
_cell_angle_beta	111.799000
_cell_angle_gamma	90.000000
_symmetry_Int_Tables_number 1

loop_
_symmetry_equiv_pos_as_xyz
'x,y,z'

loop_
_atom_site_label
_atom_site_type_symbol
_atom_site_fract_x
_atom_site_fract_y
_atom_site_fract_z
Ag11	Ag1	0.253840	0.717010	0.220630
P11	P1	0.249170	0.558830	0.179850
P21	P2	0.245570	0.369460	0.325640
N11	N1	0.338260	0.708400	0.296360
N21	N2	0.419230	0.665900	0.340000
N31	N3	0.167500	0.698900	0.343760
N41	N4	0.199530	0.728200	0.274880
C11	C1	0.262870	0.464400	0.235540
H11	H1	0.260600	0.404600	0.215400
H21	H2	0.298000	0.471300	0.264000
C21	C2	0.226720	0.462900	0.269360
H31	H3	0.191600	0.452400	0.241600
H41	H4	0.227900	0.522900	0.288800
C31	C3	0.298700	0.542200	0.148150
C41	C4	0.334800	0.470900	0.164800
H51	H5	0.332800	0.424400	0.191000
C51	C5	0.373700	0.468800	0.142300
H61	H6	0.398700	0.422000	0.154800
C61	C6	0.376200	0.534500	0.102100
H71	H7	0.401600	0.530600	0.085800
C71	C7	0.341300	0.605100	0.086200
H81	H8	0.343400	0.650700	0.059500
C81	C8	0.302600	0.610400	0.109100
H91	H9	0.279300	0.659900	0.098200
C91	C9	0.189660	0.522600	0.120470
C101	C10	0.145400	0.569500	0.113500
H101	H10	0.146400	0.619400	0.138800
C111	C11	0.098800	0.544400	0.069400
H111	H11	0.068900	0.577900	0.064500
C121	C12	0.097400	0.469300	0.032900
H121	H12	0.066100	0.451100	0.003800
C131	C13	0.140900	0.421800	0.038900
H131	H13	0.139700	0.371400	0.013900
C141	C14	0.187100	0.448500	0.082400
H141	H14	0.217100	0.416100	0.086200
C151	C15	0.200300	0.380300	0.363600
C161	C16	0.148600	0.372700	0.330700
H151	H15	0.137600	0.366000	0.289300
C171	C17	0.112400	0.374600	0.356700
H161	H16	0.077400	0.368700	0.333500
C181	C18	0.128500	0.385200	0.417000
H171	H17	0.104300	0.388000	0.435100
C191	C19	0.180700	0.391800	0.451600
H181	H18	0.191400	0.397600	0.493000
C201	C20	0.216400	0.390000	0.425200
H191	H19	0.251300	0.395100	0.448500
C211	C21	0.305700	0.408700	0.380000
C221	C22	0.342100	0.342600	0.409700
H201	H20	0.334600	0.279400	0.401300
C231	C23	0.389900	0.367900	0.451800
H211	H21	0.414200	0.322400	0.471400
C241	C24	0.400700	0.462600	0.464200
H221	H22	0.432400	0.480200	0.492600
C251	C25	0.366400	0.528100	0.436300
H231	H23	0.374200	0.591200	0.444900
C261	C26	0.318900	0.501800	0.393900
H241	H24	0.295300	0.548300	0.374300
C271	C27	0.375700	0.654500	0.293800
H251	H25	0.371900	0.612900	0.262600
C281	C28	0.359900	0.756500	0.347400
H261	H26	0.342900	0.800900	0.361600
C291	C29	0.409600	0.732100	0.375200
H271	H27	0.432700	0.755700	0.411300
C301	C30	0.467500	0.615900	0.352400
H281	H28	0.463600	0.551800	0.363600
H291	H29	0.494400	0.645300	0.385900
C311	C31	0.483800	0.614900	0.298200
C321	C32	0.492900	0.698300	0.273700
H301	H30	0.489100	0.755100	0.290600
C331	C33	0.492500	0.534800	0.273800
H311	H31	0.488200	0.477700	0.290000
C341	C34	0.207000	0.801600	0.469700
H321	H32	0.178100	0.838000	0.449400
C351	C35	0.251800	0.659100	0.483100
H331	H33	0.253800	0.597200	0.471900
C361	C36	0.208500	0.710900	0.453200
C371	C37	0.165200	0.668900	0.401900
H341	H34	0.167200	0.601000	0.404700
H351	H35	0.132500	0.688200	0.403800
C381	C38	0.210450	0.707100	0.331600
H361	H36	0.243700	0.698900	0.359600
C391	C39	0.126750	0.717700	0.292000
H371	H37	0.091900	0.718000	0.286600
C401	C40	0.146700	0.735600	0.250900
H381	H38	0.127500	0.751000	0.211300
Ag21	Ag2	0.753840	0.217010	0.220630
P31	P3	0.749170	0.058830	0.179850
P41	P4	0.745570	0.869460	0.325640
N51	N5	0.838260	0.208400	0.296360
N61	N6	0.919230	0.165900	0.340000
N71	N7	0.667500	0.198900	0.343760
N81	N8	0.699530	0.228200	0.274880
C411	C41	0.762870	0.964400	0.235540
H391	H39	0.760600	0.904600	0.215400
H401	H40	0.798000	0.971300	0.264000
C421	C42	0.726720	0.962900	0.269360
H411	H41	0.691600	0.952400	0.241600
H421	H42	0.727900	0.022900	0.288800
C431	C43	0.798700	0.042200	0.148150
C441	C44	0.834800	0.970900	0.164800
H431	H43	0.832800	0.924400	0.191000
C451	C45	0.873700	0.968800	0.142300
H441	H44	0.898700	0.922000	0.154800
C461	C46	0.876200	0.034500	0.102100
H451	H45	0.901600	0.030600	0.085800
C471	C47	0.841300	0.105100	0.086200
H461	H46	0.843400	0.150700	0.059500
C481	C48	0.802600	0.110400	0.109100
H471	H47	0.779300	0.159900	0.098200
C491	C49	0.689660	0.022600	0.120470
C501	C50	0.645400	0.069500	0.113500
H481	H48	0.646400	0.119400	0.138800
C511	C51	0.598800	0.044400	0.069400
H491	H49	0.568900	0.077900	0.064500
C521	C52	0.597400	0.969300	0.032900
H501	H50	0.566100	0.951100	0.003800
C531	C53	0.640900	0.921800	0.038900
H511	H51	0.639700	0.871400	0.013900
C541	C54	0.687100	0.948500	0.082400
H521	H52	0.717100	0.916100	0.086200
C551	C55	0.700300	0.880300	0.363600
C561	C56	0.648600	0.872700	0.330700
H531	H53	0.637600	0.866000	0.289300
C571	C57	0.612400	0.874600	0.356700
H541	H54	0.577400	0.868700	0.333500
C581	C58	0.628500	0.885200	0.417000
H551	H55	0.604300	0.888000	0.435100
C591	C59	0.680700	0.891800	0.451600
H561	H56	0.691400	0.897600	0.493000
C601	C60	0.716400	0.890000	0.425200
H571	H57	0.751300	0.895100	0.448500
C611	C61	0.805700	0.908700	0.380000
C621	C62	0.842100	0.842600	0.409700
H581	H58	0.834600	0.779400	0.401300
C631	C63	0.889900	0.867900	0.451800
H591	H59	0.914200	0.822400	0.471400
C641	C64	0.900700	0.962600	0.464200
H601	H60	0.932400	0.980200	0.492600
C651	C65	0.866400	0.028100	0.436300
H611	H61	0.874200	0.091200	0.444900
C661	C66	0.818900	0.001800	0.393900
H621	H62	0.795300	0.048300	0.374300
C671	C67	0.875700	0.154500	0.293800
H631	H63	0.871900	0.112900	0.262600
C681	C68	0.859900	0.256500	0.347400
H641	H64	0.842900	0.300900	0.361600
C691	C69	0.909600	0.232100	0.375200
H651	H65	0.932700	0.255700	0.411300
C701	C70	0.967500	0.115900	0.352400
H661	H66	0.963600	0.051800	0.363600
H671	H67	0.994400	0.145300	0.385900
C711	C71	0.983800	0.114900	0.298200
C721	C72	0.992900	0.198300	0.273700
H681	H68	0.989100	0.255100	0.290600
C731	C73	0.992500	0.034800	0.273800
H691	H69	0.988200	0.977700	0.290000
C741	C74	0.707000	0.301600	0.469700
H701	H70	0.678100	0.338000	0.449400
C751	C75	0.751800	0.159100	0.483100
H711	H71	0.753800	0.097200	0.471900
C761	C76	0.708500	0.210900	0.453200
C771	C77	0.665200	0.168900	0.401900
H721	H72	0.667200	0.101000	0.404700
H731	H73	0.632500	0.188200	0.403800
C781	C78	0.710450	0.207100	0.331600
H741	H74	0.743700	0.198900	0.359600
C791	C79	0.626750	0.217700	0.292000
H751	H75	0.591900	0.218000	0.286600
C801	C80	0.646700	0.235600	0.250900
H761	H76	0.627500	0.251000	0.211300
Ag31	Ag3	0.746150	0.717010	0.279370
P51	P5	0.750830	0.558830	0.320150
P61	P6	0.754430	0.369460	0.174360
N91	N9	0.661740	0.708400	0.203640
N101	N10	0.580770	0.665900	0.160000
N111	N11	0.832500	0.698900	0.156240
N121	N12	0.800470	0.728200	0.225120
C811	C81	0.737130	0.464400	0.264460
H771	H77	0.739400	0.404600	0.284600
H781	H78	0.702000	0.471300	0.236000
C821	C82	0.773280	0.462900	0.230640
H791	H79	0.808400	0.452400	0.258400
H801	H80	0.772100	0.522900	0.211200
C831	C83	0.701300	0.542200	0.351850
C841	C84	0.665200	0.470900	0.335200
H811	H81	0.667200	0.424400	0.309000
C851	C85	0.626300	0.468800	0.357700
H821	H82	0.601300	0.422000	0.345200
C861	C86	0.623800	0.534500	0.397900
H831	H83	0.598400	0.530600	0.414200
C871	C87	0.658700	0.605100	0.413800
H841	H84	0.656600	0.650700	0.440500
C881	C88	0.697400	0.610400	0.390900
H851	H85	0.720700	0.659900	0.401800
C891	C89	0.810340	0.522600	0.379530
C901	C90	0.854600	0.569500	0.386500
H861	H86	0.853600	0.619400	0.361200
C911	C91	0.901200	0.544400	0.430600
H871	H87	0.931100	0.577900	0.435500
C921	C92	0.902600	0.469300	0.467100
H881	H88	0.933900	0.451100	0.496200
C931	C93	0.859100	0.421800	0.461100
H891	H89	0.860300	0.371400	0.486100
C941	C94	0.812900	0.448500	0.417600
H901	H90	0.782900	0.416100	0.413800
C951	C95	0.799700	0.380300	0.136400
C961	C96	0.851400	0.372700	0.169300
H911	H91	0.862400	0.366000	0.210700
C971	C97	0.887600	0.374600	0.143300
H921	H92	0.922600	0.368700	0.166500
C981	C98	0.871500	0.385200	0.083000
H931	H93	0.895700	0.388000	0.064900
C991	C99	0.819300	0.391800	0.048400
H941	H94	0.808600	0.397600	0.007000
C1001	C100	0.783600	0.390000	0.074800
H951	H95	0.748700	0.395100	0.051500
C1011	C101	0.694300	0.408700	0.120000
C1021	C102	0.657900	0.342600	0.090300
H961	H96	0.665400	0.279400	0.098700
C1031	C103	0.610100	0.367900	0.048200
H971	H97	0.585800	0.322400	0.028600
C1041	C104	0.599300	0.462600	0.035800
H981	H98	0.567600	0.480200	0.007400
C1051	C105	0.633600	0.528100	0.063700
H991	H99	0.625800	0.591200	0.055100
C1061	C106	0.681100	0.501800	0.106100
H1001	H100	0.704700	0.548300	0.125700
C1071	C107	0.624300	0.654500	0.206200
H1011	H101	0.628100	0.612900	0.237400
C1081	C108	0.640100	0.756500	0.152600
H1021	H102	0.657100	0.800900	0.138400
C1091	C109	0.590400	0.732100	0.124800
H1031	H103	0.567300	0.755700	0.088700
C1101	C110	0.532500	0.615900	0.147600
H1041	H104	0.536400	0.551800	0.136400
H1051	H105	0.505600	0.645300	0.114100
C1111	C111	0.516200	0.614900	0.201800
C1121	C112	0.507100	0.698300	0.226300
H1061	H106	0.510900	0.755100	0.209400
C1131	C113	0.507500	0.534800	0.226200
H1071	H107	0.511800	0.477700	0.210000
C1141	C114	0.793000	0.801600	0.030300
H1081	H108	0.821900	0.838000	0.050600
C1151	C115	0.748200	0.659100	0.016900
H1091	H109	0.746200	0.597200	0.028100
C1161	C116	0.791500	0.710900	0.046800
C1171	C117	0.834800	0.668900	0.098100
H1101	H110	0.832800	0.601000	0.095300
H1111	H111	0.867500	0.688200	0.096200
C1181	C118	0.789550	0.707100	0.168400
H1121	H112	0.756300	0.698900	0.140400
C1191	C119	0.873250	0.717700	0.208000
H1131	H113	0.908100	0.718000	0.213400
C1201	C120	0.853300	0.735600	0.249100
H1141	H114	0.872500	0.751000	0.288700
Ag41	Ag4	0.246160	0.217010	0.279370
P71	P7	0.250830	0.058830	0.320150
P81	P8	0.254430	0.869460	0.174360
N131	N13	0.161740	0.208400	0.203640
N141	N14	0.080770	0.165900	0.160000
N151	N15	0.332500	0.198900	0.156240
N161	N16	0.300470	0.228200	0.225120
C1211	C121	0.237130	0.964400	0.264460
H1151	H115	0.239400	0.904600	0.284600
H1161	H116	0.202000	0.971300	0.236000
C1221	C122	0.273280	0.962900	0.230640
H1171	H117	0.308400	0.952400	0.258400
H1181	H118	0.272100	0.022900	0.211200
C1231	C123	0.201300	0.042200	0.351850
C1241	C124	0.165200	0.970900	0.335200
H1191	H119	0.167200	0.924400	0.309000
C1251	C125	0.126300	0.968800	0.357700
H1201	H120	0.101300	0.922000	0.345200
C1261	C126	0.123800	0.034500	0.397900
H1211	H121	0.098400	0.030600	0.414200
C1271	C127	0.158700	0.105100	0.413800
H1221	H122	0.156600	0.150700	0.440500
C1281	C128	0.197400	0.110400	0.390900
H1231	H123	0.220700	0.159900	0.401800
C1291	C129	0.310340	0.022600	0.379530
C1301	C130	0.354600	0.069500	0.386500
H1241	H124	0.353600	0.119400	0.361200
C1311	C131	0.401200	0.044400	0.430600
H1251	H125	0.431100	0.077900	0.435500
C1321	C132	0.402600	0.969300	0.467100
H1261	H126	0.433900	0.951100	0.496200
C1331	C133	0.359100	0.921800	0.461100
H1271	H127	0.360300	0.871400	0.486100
C1341	C134	0.312900	0.948500	0.417600
H1281	H128	0.282900	0.916100	0.413800
C1351	C135	0.299700	0.880300	0.136400
C1361	C136	0.351400	0.872700	0.169300
H1291	H129	0.362400	0.866000	0.210700
C1371	C137	0.387600	0.874600	0.143300
H1301	H130	0.422600	0.868700	0.166500
C1381	C138	0.371500	0.885200	0.083000
H1311	H131	0.395700	0.888000	0.064900
C1391	C139	0.319300	0.891800	0.048400
H1321	H132	0.308600	0.897600	0.007000
C1401	C140	0.283600	0.890000	0.074800
H1331	H133	0.248700	0.895100	0.051500
C1411	C141	0.194300	0.908700	0.120000
C1421	C142	0.157900	0.842600	0.090300
H1341	H134	0.165400	0.779400	0.098700
C1431	C143	0.110100	0.867900	0.048200
H1351	H135	0.085800	0.822400	0.028600
C1441	C144	0.099300	0.962600	0.035800
H1361	H136	0.067600	0.980200	0.007400
C1451	C145	0.133600	0.028100	0.063700
H1371	H137	0.125800	0.091200	0.055100
C1461	C146	0.181100	0.001800	0.106100
H1381	H138	0.204700	0.048300	0.125700
C1471	C147	0.124300	0.154500	0.206200
H1391	H139	0.128100	0.112900	0.237400
C1481	C148	0.140100	0.256500	0.152600
H1401	H140	0.157100	0.300900	0.138400
C1491	C149	0.090400	0.232100	0.124800
H1411	H141	0.067300	0.255700	0.088700
C1501	C150	0.032500	0.115900	0.147600
H1421	H142	0.036400	0.051800	0.136400
H1431	H143	0.005600	0.145300	0.114100
C1511	C151	0.016200	0.114900	0.201800
C1521	C152	0.007100	0.198300	0.226300
H1441	H144	0.010900	0.255100	0.209400
C1531	C153	0.007500	0.034800	0.226200
H1451	H145	0.011800	0.977700	0.210000
C1541	C154	0.293000	0.301600	0.030300
H1461	H146	0.321900	0.338000	0.050600
C1551	C155	0.248200	0.159100	0.016900
H1471	H147	0.246200	0.097200	0.028100
C1561	C156	0.291500	0.210900	0.046800
C1571	C157	0.334800	0.168900	0.098100
H1481	H148	0.332800	0.101000	0.095300
H1491	H149	0.367500	0.188200	0.096200
C1581	C158	0.289550	0.207100	0.168400
H1501	H150	0.256300	0.198900	0.140400
C1591	C159	0.373250	0.217700	0.208000
H1511	H151	0.408100	0.218000	0.213400
C1601	C160	0.353300	0.235600	0.249100
H1521	H152	0.372500	0.251000	0.288700
Ag51	Ag5	0.746150	0.282990	0.779370
P91	P9	0.750830	0.441170	0.820150
P101	P10	0.754430	0.630540	0.674360
N171	N17	0.661740	0.291600	0.703640
N181	N18	0.580770	0.334100	0.660000
N191	N19	0.832500	0.301100	0.656240
N201	N20	0.800470	0.271800	0.725120
C1611	C161	0.737130	0.535600	0.764460
H1531	H153	0.739400	0.595400	0.784600
H1541	H154	0.702000	0.528700	0.736000
C1621	C162	0.773280	0.537100	0.730640
H1551	H155	0.808400	0.547600	0.758400
H1561	H156	0.772100	0.477100	0.711200
C1631	C163	0.701300	0.457800	0.851850
C1641	C164	0.665200	0.529100	0.835200
H1571	H157	0.667200	0.575600	0.809000
C1651	C165	0.626300	0.531200	0.857700
H1581	H158	0.601300	0.578000	0.845200
C1661	C166	0.623800	0.465500	0.897900
H1591	H159	0.598400	0.469400	0.914200
C1671	C167	0.658700	0.394900	0.913800
H1601	H160	0.656600	0.349300	0.940500
C1681	C168	0.697400	0.389600	0.890900
H1611	H161	0.720700	0.340100	0.901800
C1691	C169	0.810340	0.477400	0.879530
C1701	C170	0.854600	0.430500	0.886500
H1621	H162	0.853600	0.380600	0.861200
C1711	C171	0.901200	0.455600	0.930600
H1631	H163	0.931100	0.422100	0.935500
C1721	C172	0.902600	0.530700	0.967100
H1641	H164	0.933900	0.548900	0.996200
C1731	C173	0.859100	0.578200	0.961100
H1651	H165	0.860300	0.628600	0.986100
C1741	C174	0.812900	0.551500	0.917600
H1661	H166	0.782900	0.583900	0.913800
C1751	C175	0.799700	0.619700	0.636400
C1761	C176	0.851400	0.627300	0.669300
H1671	H167	0.862400	0.634000	0.710700
C1771	C177	0.887600	0.625400	0.643300
H1681	H168	0.922600	0.631300	0.666500
C1781	C178	0.871500	0.614800	0.583000
H1691	H169	0.895700	0.612000	0.564900
C1791	C179	0.819300	0.608200	0.548400
H1701	H170	0.808600	0.602400	0.507000
C1801	C180	0.783600	0.610000	0.574800
H1711	H171	0.748700	0.604900	0.551500
C1811	C181	0.694300	0.591300	0.620000
C1821	C182	0.657900	0.657400	0.590300
H1721	H172	0.665400	0.720600	0.598700
C1831	C183	0.610100	0.632100	0.548200
H1731	H173	0.585800	0.677600	0.528600
C1841	C184	0.599300	0.537400	0.535800
H1741	H174	0.567600	0.519800	0.507400
C1851	C185	0.633600	0.471900	0.563700
H1751	H175	0.625800	0.408800	0.555100
C1861	C186	0.681100	0.498200	0.606100
H1761	H176	0.704700	0.451700	0.625700
C1871	C187	0.624300	0.345500	0.706200
H1771	H177	0.628100	0.387100	0.737400
C1881	C188	0.640100	0.243500	0.652600
H1781	H178	0.657100	0.199100	0.638400
C1891	C189	0.590400	0.267900	0.624800
H1791	H179	0.567300	0.244300	0.588700
C1901	C190	0.532500	0.384100	0.647600
H1801	H180	0.536400	0.448200	0.636400
H1811	H181	0.505600	0.354700	0.614100
C1911	C191	0.516200	0.385100	0.701800
C1921	C192	0.507100	0.301700	0.726300
H1821	H182	0.510900	0.244900	0.709400
C1931	C193	0.507500	0.465200	0.726200
H1831	H183	0.511800	0.522300	0.710000
C1941	C194	0.793000	0.198400	0.530300
H1841	H184	0.821900	0.162000	0.550600
C1951	C195	0.748200	0.340900	0.516900
H1851	H185	0.746200	0.402800	0.528100
C1961	C196	0.791500	0.289100	0.546800
C1971	C197	0.834800	0.331100	0.598100
H1861	H186	0.832800	0.399000	0.595300
H1871	H187	0.867500	0.311800	0.596200
C1981	C198	0.789550	0.292900	0.668400
H1881	H188	0.756300	0.301100	0.640400
C1991	C199	0.873250	0.282300	0.708000
H1891	H189	0.908100	0.282000	0.713400
C2001	C200	0.853300	0.264400	0.749100
H1901	H190	0.872500	0.249000	0.788700
Ag61	Ag6	0.246160	0.782990	0.779370
P111	P11	0.250830	0.941170	0.820150
P121	P12	0.254430	0.130540	0.674360
N211	N21	0.161740	0.791600	0.703640
N221	N22	0.080770	0.834100	0.660000
N231	N23	0.332500	0.801100	0.656240
N241	N24	0.300470	0.771800	0.725120
C2011	C201	0.237130	0.035600	0.764460
H1911	H191	0.239400	0.095400	0.784600
H1921	H192	0.202000	0.028700	0.736000
C2021	C202	0.273280	0.037100	0.730640
H1931	H193	0.308400	0.047600	0.758400
H1941	H194	0.272100	0.977100	0.711200
C2031	C203	0.201300	0.957800	0.851850
C2041	C204	0.165200	0.029100	0.835200
H1951	H195	0.167200	0.075600	0.809000
C2051	C205	0.126300	0.031200	0.857700
H1961	H196	0.101300	0.078000	0.845200
C2061	C206	0.123800	0.965500	0.897900
H1971	H197	0.098400	0.969400	0.914200
C2071	C207	0.158700	0.894900	0.913800
H1981	H198	0.156600	0.849300	0.940500
C2081	C208	0.197400	0.889600	0.890900
H1991	H199	0.220700	0.840100	0.901800
C2091	C209	0.310340	0.977400	0.879530
C2101	C210	0.354600	0.930500	0.886500
H2001	H200	0.353600	0.880600	0.861200
C2111	C211	0.401200	0.955600	0.930600
H2011	H201	0.431100	0.922100	0.935500
C2121	C212	0.402600	0.030700	0.967100
H2021	H202	0.433900	0.048900	0.996200
C2131	C213	0.359100	0.078200	0.961100
H2031	H203	0.360300	0.128600	0.986100
C2141	C214	0.312900	0.051500	0.917600
H2041	H204	0.282900	0.083900	0.913800
C2151	C215	0.299700	0.119700	0.636400
C2161	C216	0.351400	0.127300	0.669300
H2051	H205	0.362400	0.134000	0.710700
C2171	C217	0.387600	0.125400	0.643300
H2061	H206	0.422600	0.131300	0.666500
C2181	C218	0.371500	0.114800	0.583000
H2071	H207	0.395700	0.112000	0.564900
C2191	C219	0.319300	0.108200	0.548400
H2081	H208	0.308600	0.102400	0.507000
C2201	C220	0.283600	0.110000	0.574800
H2091	H209	0.248700	0.104900	0.551500
C2211	C221	0.194300	0.091300	0.620000
C2221	C222	0.157900	0.157400	0.590300
H2101	H210	0.165400	0.220600	0.598700
C2231	C223	0.110100	0.132100	0.548200
H2111	H211	0.085800	0.177600	0.528600
C2241	C224	0.099300	0.037400	0.535800
H2121	H212	0.067600	0.019800	0.507400
C2251	C225	0.133600	0.971900	0.563700
H2131	H213	0.125800	0.908800	0.555100
C2261	C226	0.181100	0.998200	0.606100
H2141	H214	0.204700	0.951700	0.625700
C2271	C227	0.124300	0.845500	0.706200
H2151	H215	0.128100	0.887100	0.737400
C2281	C228	0.140100	0.743500	0.652600
H2161	H216	0.157100	0.699100	0.638400
C2291	C229	0.090400	0.767900	0.624800
H2171	H217	0.067300	0.744300	0.588700
C2301	C230	0.032500	0.884100	0.647600
H2181	H218	0.036400	0.948200	0.636400
H2191	H219	0.005600	0.854700	0.614100
C2311	C231	0.016200	0.885100	0.701800
C2321	C232	0.007100	0.801700	0.726300
H2201	H220	0.010900	0.744900	0.709400
C2331	C233	0.007500	0.965200	0.726200
H2211	H221	0.011800	0.022300	0.710000
C2341	C234	0.293000	0.698400	0.530300
H2221	H222	0.321900	0.662000	0.550600
C2351	C235	0.248200	0.840900	0.516900
H2231	H223	0.246200	0.902800	0.528100
C2361	C236	0.291500	0.789100	0.546800
C2371	C237	0.334800	0.831100	0.598100
H2241	H224	0.332800	0.899000	0.595300
H2251	H225	0.367500	0.811800	0.596200
C2381	C238	0.289550	0.792900	0.668400
H2261	H226	0.256300	0.801100	0.640400
C2391	C239	0.373250	0.782300	0.708000
H2271	H227	0.408100	0.782000	0.713400
C2401	C240	0.353300	0.764400	0.749100
H2281	H228	0.372500	0.749000	0.788700
Ag71	Ag7	0.253840	0.282990	0.720630
P131	P13	0.249170	0.441170	0.679850
P141	P14	0.245570	0.630540	0.825640
N251	N25	0.338260	0.291600	0.796360
N261	N26	0.419230	0.334100	0.840000
N271	N27	0.167500	0.301100	0.843760
N281	N28	0.199530	0.271800	0.774880
C2411	C241	0.262870	0.535600	0.735540
H2291	H229	0.260600	0.595400	0.715400
H2301	H230	0.298000	0.528700	0.764000
C2421	C242	0.226720	0.537100	0.769360
H2311	H231	0.191600	0.547600	0.741600
H2321	H232	0.227900	0.477100	0.788800
C2431	C243	0.298700	0.457800	0.648150
C2441	C244	0.334800	0.529100	0.664800
H2331	H233	0.332800	0.575600	0.691000
C2451	C245	0.373700	0.531200	0.642300
H2341	H234	0.398700	0.578000	0.654800
C2461	C246	0.376200	0.465500	0.602100
H2351	H235	0.401600	0.469400	0.585800
C2471	C247	0.341300	0.394900	0.586200
H2361	H236	0.343400	0.349300	0.559500
C2481	C248	0.302600	0.389600	0.609100
H2371	H237	0.279300	0.340100	0.598200
C2491	C249	0.189660	0.477400	0.620470
C2501	C250	0.145400	0.430500	0.613500
H2381	H238	0.146400	0.380600	0.638800
C2511	C251	0.098800	0.455600	0.569400
H2391	H239	0.068900	0.422100	0.564500
C2521	C252	0.097400	0.530700	0.532900
H2401	H240	0.066100	0.548900	0.503800
C2531	C253	0.140900	0.578200	0.538900
H2411	H241	0.139700	0.628600	0.513900
C2541	C254	0.187100	0.551500	0.582400
H2421	H242	0.217100	0.583900	0.586200
C2551	C255	0.200300	0.619700	0.863600
C2561	C256	0.148600	0.627300	0.830700
H2431	H243	0.137600	0.634000	0.789300
C2571	C257	0.112400	0.625400	0.856700
H2441	H244	0.077400	0.631300	0.833500
C2581	C258	0.128500	0.614800	0.917000
H2451	H245	0.104300	0.612000	0.935100
C2591	C259	0.180700	0.608200	0.951600
H2461	H246	0.191400	0.602400	0.993000
C2601	C260	0.216400	0.610000	0.925200
H2471	H247	0.251300	0.604900	0.948500
C2611	C261	0.305700	0.591300	0.880000
C2621	C262	0.342100	0.657400	0.909700
H2481	H248	0.334600	0.720600	0.901300
C2631	C263	0.389900	0.632100	0.951800
H2491	H249	0.414200	0.677600	0.971400
C2641	C264	0.400700	0.537400	0.964200
H2501	H250	0.432400	0.519800	0.992600
C2651	C265	0.366400	0.471900	0.936300
H2511	H251	0.374200	0.408800	0.944900
C2661	C266	0.318900	0.498200	0.893900
H2521	H252	0.295300	0.451700	0.874300
C2671	C267	0.375700	0.345500	0.793800
H2531	H253	0.371900	0.387100	0.762600
C2681	C268	0.359900	0.243500	0.847400
H2541	H254	0.342900	0.199100	0.861600
C2691	C269	0.409600	0.267900	0.875200
H2551	H255	0.432700	0.244300	0.911300
C2701	C270	0.467500	0.384100	0.852400
H2561	H256	0.463600	0.448200	0.863600
H2571	H257	0.494400	0.354700	0.885900
C2711	C271	0.483800	0.385100	0.798200
C2721	C272	0.492900	0.301700	0.773700
H2581	H258	0.489100	0.244900	0.790600
C2731	C273	0.492500	0.465200	0.773800
H2591	H259	0.488200	0.522300	0.790000
C2741	C274	0.207000	0.198400	0.969700
H2601	H260	0.178100	0.162000	0.949400
C2751	C275	0.251800	0.340900	0.983100
H2611	H261	0.253800	0.402800	0.971900
C2761	C276	0.208500	0.289100	0.953200
C2771	C277	0.165200	0.331100	0.901900
H2621	H262	0.167200	0.399000	0.904700
H2631	H263	0.132500	0.311800	0.903800
C2781	C278	0.210450	0.292900	0.831600
H2641	H264	0.243700	0.301100	0.859600
C2791	C279	0.126750	0.282300	0.792000
H2651	H265	0.091900	0.282000	0.786600
C2801	C280	0.146700	0.264400	0.750900
H2661	H266	0.127500	0.249000	0.711300
Ag81	Ag8	0.753840	0.782990	0.720630
P151	P15	0.749170	0.941170	0.679850
P161	P16	0.745570	0.130540	0.825640
N291	N29	0.838260	0.791600	0.796360
N301	N30	0.919230	0.834100	0.840000
N311	N31	0.667500	0.801100	0.843760
N321	N32	0.699530	0.771800	0.774880
C2811	C281	0.762870	0.035600	0.735540
H2671	H267	0.760600	0.095400	0.715400
H2681	H268	0.798000	0.028700	0.764000
C2821	C282	0.726720	0.037100	0.769360
H2691	H269	0.691600	0.047600	0.741600
H2701	H270	0.727900	0.977100	0.788800
C2831	C283	0.798700	0.957800	0.648150
C2841	C284	0.834800	0.029100	0.664800
H2711	H271	0.832800	0.075600	0.691000
C2851	C285	0.873700	0.031200	0.642300
H2721	H272	0.898700	0.078000	0.654800
C2861	C286	0.876200	0.965500	0.602100
H2731	H273	0.901600	0.969400	0.585800
C2871	C287	0.841300	0.894900	0.586200
H2741	H274	0.843400	0.849300	0.559500
C2881	C288	0.802600	0.889600	0.609100
H2751	H275	0.779300	0.840100	0.598200
C2891	C289	0.689660	0.977400	0.620470
C2901	C290	0.645400	0.930500	0.613500
H2761	H276	0.646400	0.880600	0.638800
C2911	C291	0.598800	0.955600	0.569400
H2771	H277	0.568900	0.922100	0.564500
C2921	C292	0.597400	0.030700	0.532900
H2781	H278	0.566100	0.048900	0.503800
C2931	C293	0.640900	0.078200	0.538900
H2791	H279	0.639700	0.128600	0.513900
C2941	C294	0.687100	0.051500	0.582400
H2801	H280	0.717100	0.083900	0.586200
C2951	C295	0.700300	0.119700	0.863600
C2961	C296	0.648600	0.127300	0.830700
H2811	H281	0.637600	0.134000	0.789300
C2971	C297	0.612400	0.125400	0.856700
H2821	H282	0.577400	0.131300	0.833500
C2981	C298	0.628500	0.114800	0.917000
H2831	H283	0.604300	0.112000	0.935100
C2991	C299	0.680700	0.108200	0.951600
H2841	H284	0.691400	0.102400	0.993000
C3001	C300	0.716400	0.110000	0.925200
H2851	H285	0.751300	0.104900	0.948500
C3011	C301	0.805700	0.091300	0.880000
C3021	C302	0.842100	0.157400	0.909700
H2861	H286	0.834600	0.220600	0.901300
C3031	C303	0.889900	0.132100	0.951800
H2871	H287	0.914200	0.177600	0.971400
C3041	C304	0.900700	0.037400	0.964200
H2881	H288	0.932400	0.019800	0.992600
C3051	C305	0.866400	0.971900	0.936300
H2891	H289	0.874200	0.908800	0.944900
C3061	C306	0.818900	0.998200	0.893900
H2901	H290	0.795300	0.951700	0.874300
C3071	C307	0.875700	0.845500	0.793800
H2911	H291	0.871900	0.887100	0.762600
C3081	C308	0.859900	0.743500	0.847400
H2921	H292	0.842900	0.699100	0.861600
C3091	C309	0.909600	0.767900	0.875200
H2931	H293	0.932700	0.744300	0.911300
C3101	C310	0.967500	0.884100	0.852400
H2941	H294	0.963600	0.948200	0.863600
H2951	H295	0.994400	0.854700	0.885900
C3111	C311	0.983800	0.885100	0.798200
C3121	C312	0.992900	0.801700	0.773700
H2961	H296	0.989100	0.744900	0.790600
C3131	C313	0.992500	0.965200	0.773800
H2971	H297	0.988200	0.022300	0.790000
C3141	C314	0.707000	0.698400	0.969700
H2981	H298	0.678100	0.662000	0.949400
C3151	C315	0.751800	0.840900	0.983100
H2991	H299	0.753800	0.902800	0.971900
C3161	C316	0.708500	0.789100	0.953200
C3171	C317	0.665200	0.831100	0.901900
H3001	H300	0.667200	0.899000	0.904700
H3011	H301	0.632500	0.811800	0.903800
C3181	C318	0.710450	0.792900	0.831600
H3021	H302	0.743700	0.801100	0.859600
C3191	C319	0.626750	0.782300	0.792000
H3031	H303	0.591900	0.782000	0.786600
C3201	C320	0.646700	0.764400	0.750900
H3041	H304	0.627500	0.749000	0.711300
