data_DAPYAW_clean_PM
_symmetry_space_group_name_H-M	'P1'
_cell_length_a	17.020000
_cell_length_b	19.846600
_cell_length_c	25.072000
_cell_angle_alpha	75.551100
_cell_angle_beta	70.158200
_cell_angle_gamma	64.609300
_symmetry_Int_Tables_number 1

loop_
_symmetry_equiv_pos_as_xyz
'x,y,z'

loop_
_atom_site_label
_atom_site_type_symbol
_atom_site_fract_x
_atom_site_fract_y
_atom_site_fract_z
Cd11	Cd1	0.436600	0.177210	0.547930
Cd21	Cd2	0.340400	0.334750	0.629530
Cd31	Cd3	0.161740	0.322790	0.952070
Cd41	Cd4	0.304680	0.165250	0.870470
Cd51	Cd5	0.563400	0.822790	0.452070
Cd61	Cd6	0.659600	0.665250	0.370470
Cd71	Cd7	0.838260	0.677210	0.047930
Cd81	Cd8	0.695320	0.834750	0.129530
Cd91	Cd9	0.500000	0.000000	0.500000
Cd101	Cd10	0.000000	0.500000	0.000000
H11	H1	0.957400	0.120200	0.467200
H21	H2	0.115200	0.135200	0.306800
H31	H3	0.846800	0.249500	0.340900
H41	H4	0.835900	0.215600	0.517800
H51	H5	0.694600	0.245100	0.583700
H61	H6	0.588700	0.239400	0.465000
H71	H7	0.727400	0.209900	0.400900
H81	H8	0.183400	0.994000	0.352600
H91	H9	0.314100	0.920300	0.380100
H101	H10	0.246600	0.055200	0.495200
H111	H11	0.110400	0.128500	0.472700
H121	H12	0.095300	0.141100	0.217100
H131	H13	0.122400	0.199700	0.124900
H141	H14	0.925100	0.392300	0.173500
H151	H15	0.900200	0.335800	0.267200
H161	H16	0.172900	0.687600	0.845400
H171	H17	0.329900	0.761700	0.706100
H181	H18	0.154100	0.899400	0.821800
H191	H19	0.005500	0.915300	0.873500
H201	H20	0.884900	0.930700	0.954900
H211	H21	0.010500	0.718900	0.020100
H221	H22	0.129200	0.703900	0.938500
H231	H23	0.264400	0.576800	0.823400
H241	H24	0.295200	0.467800	0.788800
H251	H25	0.354600	0.568600	0.629000
H261	H26	0.324100	0.677000	0.662800
H271	H27	0.269700	0.949600	0.786800
H281	H28	0.320400	0.041900	0.731300
H291	H29	0.332200	0.972500	0.591300
H301	H30	0.288600	0.876800	0.646000
H311	H31	0.544800	0.379800	0.032800
H321	H32	0.557200	0.364800	0.193200
H331	H33	0.437200	0.250500	0.159100
H341	H34	0.569300	0.284400	0.982200
H351	H35	0.523400	0.254900	0.916300
H361	H36	0.293100	0.260600	0.035000
H371	H37	0.338200	0.290100	0.099100
H381	H38	0.530000	0.506000	0.147400
H391	H39	0.614500	0.579700	0.119900
H401	H40	0.797000	0.444800	0.004800
H411	H41	0.711600	0.371500	0.027300
H421	H42	0.453500	0.358900	0.282900
H431	H43	0.447000	0.300300	0.375100
H441	H44	0.490900	0.107700	0.326500
H451	H45	0.503200	0.164200	0.232800
H461	H46	0.705900	0.812400	0.654600
H471	H47	0.797700	0.738300	0.793900
H481	H48	0.875300	0.600600	0.678200
H491	H49	0.794300	0.584700	0.626500
H501	H50	0.770500	0.569300	0.545100
H511	H51	0.749500	0.781100	0.479900
H521	H52	0.771600	0.796100	0.561500
H531	H53	0.664600	0.923200	0.676600
H541	H54	0.551800	0.032200	0.711200
H551	H55	0.552200	0.931400	0.871000
H561	H56	0.663900	0.823000	0.837200
H571	H57	0.006100	0.550400	0.713200
H581	H58	0.093600	0.458100	0.768700
H591	H59	0.896000	0.527500	0.908700
H601	H60	0.811400	0.623200	0.854000
H611	H61	0.042600	0.879800	0.532800
H621	H62	0.884800	0.864800	0.693200
H631	H63	0.153200	0.750500	0.659100
H641	H64	0.164100	0.784400	0.482200
H651	H65	0.305400	0.754900	0.416300
H661	H66	0.411300	0.760600	0.535000
H671	H67	0.272600	0.790100	0.599100
H681	H68	0.816600	0.006000	0.647400
H691	H69	0.685900	0.079700	0.619900
H701	H70	0.753400	0.944800	0.504800
H711	H71	0.889600	0.871500	0.527300
H721	H72	0.904700	0.858900	0.782900
H731	H73	0.877600	0.800300	0.875100
H741	H74	0.074900	0.607700	0.826500
H751	H75	0.099800	0.664200	0.732800
H761	H76	0.827100	0.312400	0.154600
H771	H77	0.670100	0.238300	0.293900
H781	H78	0.845900	0.100600	0.178200
H791	H79	0.994500	0.084700	0.126500
H801	H80	0.115100	0.069300	0.045100
H811	H81	0.989500	0.281100	0.979900
H821	H82	0.870800	0.296100	0.061500
H831	H83	0.735600	0.423200	0.176600
H841	H84	0.704800	0.532200	0.211200
H851	H85	0.645400	0.431400	0.371000
H861	H86	0.675900	0.323000	0.337200
H871	H87	0.730300	0.050400	0.213200
H881	H88	0.679600	0.958100	0.268700
H891	H89	0.667800	0.027500	0.408700
H901	H90	0.711400	0.123200	0.354000
H911	H91	0.455200	0.620200	0.967200
H921	H92	0.442800	0.635200	0.806800
H931	H93	0.562800	0.749500	0.840900
H941	H94	0.430700	0.715600	0.017800
H951	H95	0.476600	0.745100	0.083700
H961	H96	0.706900	0.739400	0.965000
H971	H97	0.661800	0.709900	0.900900
H981	H98	0.470000	0.494000	0.852600
H991	H99	0.385500	0.420300	0.880100
H1001	H100	0.203000	0.555200	0.995200
H1011	H101	0.288400	0.628500	0.972700
H1021	H102	0.546500	0.641100	0.717100
H1031	H103	0.553000	0.699700	0.624900
H1041	H104	0.509100	0.892300	0.673500
H1051	H105	0.496800	0.835800	0.767200
H1061	H106	0.294100	0.187600	0.345400
H1071	H107	0.202300	0.261700	0.206100
H1081	H108	0.124700	0.399400	0.321800
H1091	H109	0.205700	0.415300	0.373500
H1101	H110	0.229500	0.430700	0.454900
H1111	H111	0.250500	0.218900	0.520100
H1121	H112	0.228400	0.203900	0.438500
H1131	H113	0.335400	0.076800	0.323400
H1141	H114	0.448200	0.967800	0.288800
H1151	H115	0.447800	0.068600	0.129000
H1161	H116	0.336100	0.177000	0.162800
H1171	H117	0.993900	0.449600	0.286800
H1181	H118	0.906400	0.541900	0.231300
H1191	H119	0.104000	0.472500	0.091300
H1201	H120	0.188600	0.376800	0.146000
C11	C1	0.888200	0.187300	0.410700
C21	C2	0.963700	0.139200	0.428800
C31	C3	0.051000	0.118000	0.390200
C41	C4	0.058600	0.148300	0.332900
C51	C5	0.983700	0.197700	0.313900
C61	C6	0.897600	0.216900	0.353300
C71	C7	0.797800	0.207000	0.452400
C81	C8	0.786500	0.219700	0.507300
C91	C9	0.701200	0.238700	0.546700
C101	C10	0.625900	0.247600	0.530000
C111	C11	0.637800	0.235300	0.475900
C121	C12	0.721500	0.216500	0.437700
C131	C13	0.131700	0.069500	0.409500
C141	C14	0.194900	0.006700	0.381700
C151	C15	0.274400	0.963200	0.397400
C161	C16	0.295000	0.983000	0.438000
C171	C17	0.233400	0.043400	0.466400
C181	C18	0.151400	0.087700	0.453100
C191	C19	0.995200	0.233300	0.253300
C201	C20	0.061900	0.192000	0.209000
C211	C21	0.077400	0.227300	0.153500
C221	C22	0.028600	0.301400	0.139600
C231	C23	0.960400	0.342200	0.182400
C241	C24	0.945100	0.307800	0.238800
C251	C25	0.535600	0.270500	0.572300
C261	C26	0.385000	0.941400	0.451800
C271	C27	0.048000	0.338500	0.078100
C281	C28	0.153000	0.794800	0.843800
C291	C29	0.191200	0.726300	0.823500
C301	C30	0.256500	0.712300	0.771300
C311	C31	0.285400	0.770000	0.740400
C321	C32	0.248800	0.839900	0.759900
C331	C33	0.181600	0.851800	0.810000
C341	C34	0.079100	0.807600	0.898200
C351	C35	0.005900	0.876000	0.902800
C361	C36	0.933700	0.885000	0.951400
C371	C37	0.934610	0.825180	0.995000
C381	C38	0.008700	0.758200	0.990400
C391	C39	0.080090	0.749420	0.941800
C401	C40	0.289500	0.638500	0.749100
C411	C41	0.282400	0.575700	0.784100
C421	C42	0.300800	0.509800	0.763800
C431	C43	0.328200	0.508500	0.704100
C441	C44	0.336200	0.570300	0.668300
C451	C45	0.318100	0.635300	0.688300
C461	C46	0.276300	0.902400	0.724000
C471	C47	0.284200	0.952800	0.747200
C481	C48	0.313200	0.009100	0.714100
C491	C49	0.331600	0.017000	0.654400
C501	C50	0.321100	0.967300	0.630700
C511	C51	0.294600	0.910200	0.663200
C521	C52	0.851000	0.832800	0.043800
C531	C53	0.342200	0.439100	0.680500
C541	C54	0.363700	0.075700	0.618900
C551	C55	0.486200	0.312700	0.089300
C561	C56	0.531700	0.360800	0.071200
C571	C57	0.559200	0.382000	0.109800
C581	C58	0.539800	0.351700	0.167100
C591	C59	0.495300	0.302300	0.186100
C601	C60	0.467800	0.283100	0.146700
C611	C61	0.457200	0.293000	0.047600
C621	C62	0.513500	0.280300	0.992700
C631	C63	0.486600	0.261300	0.953300
C641	C64	0.403500	0.252400	0.970000
C651	C65	0.349000	0.264700	0.024100
C661	C66	0.375700	0.283500	0.062300
C671	C67	0.610700	0.430500	0.090500
C681	C68	0.583300	0.493300	0.118300
C691	C69	0.635000	0.536800	0.102600
C701	C70	0.716000	0.517000	0.062000
C711	C71	0.743200	0.456600	0.033600
C721	C72	0.692200	0.412300	0.046900
C731	C73	0.481800	0.266700	0.246700
C741	C74	0.462900	0.308000	0.291000
C751	C75	0.458200	0.272700	0.346500
C761	C76	0.469600	0.198600	0.360400
C771	C77	0.485000	0.157800	0.317600
C781	C78	0.491700	0.192200	0.261200
C791	C79	0.378400	0.229500	0.927700
C801	C80	0.778200	0.558600	0.048200
C811	C81	0.464600	0.161500	0.421900
C821	C82	0.791600	0.705200	0.656200
C831	C83	0.741000	0.773700	0.676500
C841	C84	0.740100	0.787700	0.728700
C851	C85	0.795800	0.730000	0.759600
C861	C86	0.848600	0.660100	0.740100
C871	C87	0.843400	0.648200	0.690000
C881	C88	0.784900	0.692400	0.601800
C891	C89	0.784700	0.624000	0.597200
C901	C90	0.770100	0.615000	0.548600
C911	C91	0.754790	0.674820	0.505000
C921	C92	0.757300	0.741800	0.509600
C931	C93	0.771310	0.750580	0.558200
C941	C94	0.677100	0.861500	0.750900
C951	C95	0.642200	0.924300	0.715900
C961	C96	0.574400	0.990200	0.736200
C971	C97	0.540800	0.991500	0.795900
C981	C98	0.574800	0.929700	0.831700
C991	C99	0.641700	0.864700	0.811700
C1001	C100	0.902700	0.597600	0.776000
C1011	C101	0.984200	0.547200	0.752800
C1021	C102	0.036400	0.490900	0.785900
C1031	C103	0.003000	0.483000	0.845600
C1041	C104	0.919100	0.532700	0.869300
C1051	C105	0.868000	0.589800	0.836800
C1061	C106	0.727600	0.667200	0.456200
C1071	C107	0.461800	0.060900	0.819500
C1081	C108	0.058300	0.424300	0.881100
C1091	C109	0.111800	0.812700	0.589300
C1101	C110	0.036300	0.860800	0.571200
C1111	C111	0.949000	0.882000	0.609800
C1121	C112	0.941400	0.851700	0.667100
C1131	C113	0.016300	0.802300	0.686100
C1141	C114	0.102400	0.783100	0.646700
C1151	C115	0.202200	0.793000	0.547600
C1161	C116	0.213500	0.780300	0.492700
C1171	C117	0.298800	0.761300	0.453300
C1181	C118	0.374100	0.752400	0.470000
C1191	C119	0.362200	0.764700	0.524100
C1201	C120	0.278500	0.783500	0.562300
C1211	C121	0.868300	0.930500	0.590500
C1221	C122	0.805100	0.993300	0.618300
C1231	C123	0.725600	0.036800	0.602600
C1241	C124	0.705000	0.017000	0.562000
C1251	C125	0.766600	0.956600	0.533600
C1261	C126	0.848600	0.912300	0.546900
C1271	C127	0.004800	0.766700	0.746700
C1281	C128	0.938100	0.808000	0.791000
C1291	C129	0.922600	0.772700	0.846500
C1301	C130	0.971400	0.698600	0.860400
C1311	C131	0.039600	0.657800	0.817600
C1321	C132	0.054900	0.692200	0.761200
C1331	C133	0.464400	0.729500	0.427700
C1341	C134	0.615000	0.058600	0.548200
C1351	C135	0.952000	0.661500	0.921900
C1361	C136	0.847000	0.205200	0.156200
C1371	C137	0.808800	0.273700	0.176500
C1381	C138	0.743500	0.287700	0.228700
C1391	C139	0.714600	0.230000	0.259600
C1401	C140	0.751200	0.160100	0.240100
C1411	C141	0.818400	0.148200	0.190000
C1421	C142	0.920900	0.192400	0.101800
C1431	C143	0.994100	0.124000	0.097200
C1441	C144	0.066300	0.115000	0.048600
C1451	C145	0.065390	0.174820	0.005000
C1461	C146	0.991300	0.241800	0.009600
C1471	C147	0.919910	0.250580	0.058200
C1481	C148	0.710500	0.361500	0.250900
C1491	C149	0.717600	0.424300	0.215900
C1501	C150	0.699200	0.490200	0.236200
C1511	C151	0.671800	0.491500	0.295900
C1521	C152	0.663800	0.429700	0.331700
C1531	C153	0.681900	0.364700	0.311700
C1541	C154	0.723700	0.097600	0.276000
C1551	C155	0.715800	0.047200	0.252800
C1561	C156	0.686800	0.990900	0.285900
C1571	C157	0.668400	0.983000	0.345600
C1581	C158	0.678900	0.032700	0.369300
C1591	C159	0.705400	0.089800	0.336800
C1601	C160	0.149000	0.167200	0.956200
C1611	C161	0.657800	0.560900	0.319500
C1621	C162	0.636300	0.924300	0.381100
C1631	C163	0.513800	0.687300	0.910700
C1641	C164	0.468300	0.639200	0.928800
C1651	C165	0.440800	0.618000	0.890200
C1661	C166	0.460200	0.648300	0.832900
C1671	C167	0.504700	0.697700	0.813900
C1681	C168	0.532200	0.716900	0.853300
C1691	C169	0.542800	0.707000	0.952400
C1701	C170	0.486500	0.719700	0.007300
C1711	C171	0.513400	0.738700	0.046700
C1721	C172	0.596500	0.747600	0.030000
C1731	C173	0.651000	0.735300	0.975900
C1741	C174	0.624300	0.716500	0.937700
C1751	C175	0.389300	0.569500	0.909500
C1761	C176	0.416700	0.506700	0.881700
C1771	C177	0.365000	0.463200	0.897400
C1781	C178	0.284000	0.483000	0.938000
C1791	C179	0.256800	0.543400	0.966400
C1801	C180	0.307800	0.587700	0.953100
C1811	C181	0.518200	0.733300	0.753300
C1821	C182	0.537100	0.692000	0.709000
C1831	C183	0.541800	0.727300	0.653500
C1841	C184	0.530400	0.801400	0.639600
C1851	C185	0.515000	0.842200	0.682400
C1861	C186	0.508300	0.807800	0.738800
C1871	C187	0.621600	0.770500	0.072300
C1881	C188	0.221800	0.441400	0.951800
C1891	C189	0.535400	0.838500	0.578100
C1901	C190	0.208400	0.294800	0.343800
C1911	C191	0.259000	0.226300	0.323500
C1921	C192	0.259900	0.212300	0.271300
C1931	C193	0.204200	0.270000	0.240400
C1941	C194	0.151400	0.339900	0.259900
C1951	C195	0.156600	0.351800	0.310000
C1961	C196	0.215100	0.307600	0.398200
C1971	C197	0.215300	0.376000	0.402800
C1981	C198	0.229900	0.385000	0.451400
C1991	C199	0.245210	0.325180	0.495000
C2001	C200	0.242700	0.258200	0.490400
C2011	C201	0.228690	0.249420	0.441800
C2021	C202	0.322900	0.138500	0.249100
C2031	C203	0.357800	0.075700	0.284100
C2041	C204	0.425600	0.009800	0.263800
C2051	C205	0.459200	0.008500	0.204100
C2061	C206	0.425200	0.070300	0.168300
C2071	C207	0.358300	0.135300	0.188300
C2081	C208	0.097300	0.402400	0.224000
C2091	C209	0.015800	0.452800	0.247200
C2101	C210	0.963600	0.509100	0.214100
C2111	C211	0.997000	0.517000	0.154400
C2121	C212	0.080900	0.467300	0.130700
C2131	C213	0.132000	0.410200	0.163200
C2141	C214	0.272400	0.332800	0.543800
C2151	C215	0.538200	0.939100	0.180500
C2161	C216	0.941700	0.575700	0.118900
O11	O1	0.467790	0.278420	0.558000
O21	O2	0.526500	0.283900	0.619700
O31	O3	0.440940	0.887520	0.422800
O41	O4	0.400520	0.960360	0.490600
O51	O5	0.117490	0.299530	0.044890
O61	O6	0.992510	0.403100	0.067480
O71	O7	0.786410	0.894080	0.051300
O81	O8	0.849950	0.771560	0.077740
O91	O9	0.354000	0.376300	0.712900
O101	O10	0.341700	0.448400	0.629400
O111	O11	0.366000	0.124100	0.641300
O121	O12	0.387390	0.078730	0.564290
O131	O13	0.304210	0.221580	0.942000
O141	O14	0.430100	0.216100	0.880300
O151	O15	0.751260	0.612480	0.077200
O161	O16	0.851480	0.539640	0.009400
O171	O17	0.461910	0.200470	0.455110
O181	O18	0.463090	0.096900	0.432520
O191	O19	0.731790	0.605920	0.448700
O201	O20	0.699250	0.728440	0.422260
O211	O21	0.443200	0.123700	0.787100
O221	O22	0.419500	0.051600	0.870600
O231	O23	0.131400	0.375900	0.858700
O241	O24	0.030410	0.421270	0.935710
O251	O25	0.532210	0.721580	0.442000
O261	O26	0.473500	0.716100	0.380300
O271	O27	0.559060	0.112480	0.577200
O281	O28	0.599480	0.039640	0.509400
O291	O29	0.882510	0.700470	0.955110
O301	O30	0.007490	0.596900	0.932520
O311	O31	0.213590	0.105920	0.948700
O321	O32	0.150050	0.228440	0.922260
O331	O33	0.646000	0.623700	0.287100
O341	O34	0.658300	0.551600	0.370600
O351	O35	0.634000	0.875900	0.358700
O361	O36	0.612610	0.921270	0.435710
O371	O37	0.695790	0.778420	0.058000
O381	O38	0.569900	0.783900	0.119700
O391	O39	0.248740	0.387520	0.922800
O401	O40	0.148520	0.460360	0.990600
O411	O41	0.538090	0.799530	0.544890
O421	O42	0.536910	0.903100	0.567480
O431	O43	0.268210	0.394080	0.551300
O441	O44	0.300750	0.271560	0.577740
O451	O45	0.556800	0.876300	0.212900
O461	O46	0.580500	0.948400	0.129400
O471	O47	0.868600	0.624100	0.141300
O481	O48	0.969590	0.578730	0.064290
