data_DARBUU_clean_PM
_symmetry_space_group_name_H-M	'P1'
_cell_length_a	12.057600
_cell_length_b	17.807300
_cell_length_c	9.785500
_cell_angle_alpha	90.000000
_cell_angle_beta	95.306000
_cell_angle_gamma	90.000000
_symmetry_Int_Tables_number 1

loop_
_symmetry_equiv_pos_as_xyz
'x,y,z'

loop_
_atom_site_label
_atom_site_type_symbol
_atom_site_fract_x
_atom_site_fract_y
_atom_site_fract_z
Cu11	Cu1	0.003290	0.625100	0.623450
Cu21	Cu2	0.394690	0.652850	0.831650
N11	N1	0.978890	0.717310	0.512450
N21	N2	0.998310	0.529230	0.526400
N31	N3	0.238820	0.635160	0.774640
C11	C1	0.954800	0.768510	0.444700
C21	C2	0.001690	0.470770	0.473600
C31	C3	0.145060	0.631470	0.754030
Cu31	Cu3	0.503290	0.125100	0.623450
Cu41	Cu4	0.894690	0.152850	0.831650
N41	N4	0.478890	0.217310	0.512450
N51	N5	0.498310	0.029230	0.526400
N61	N6	0.738820	0.135160	0.774640
C41	C4	0.454800	0.268510	0.444700
C51	C5	0.501690	0.970770	0.473600
C61	C6	0.645060	0.131470	0.754030
Cu51	Cu5	0.996710	0.625100	0.876550
Cu61	Cu6	0.605310	0.652850	0.668350
N71	N7	0.021110	0.717310	0.987550
N81	N8	0.001690	0.529230	0.973600
N91	N9	0.761180	0.635160	0.725360
C71	C7	0.045200	0.768510	0.055300
C81	C8	0.998310	0.470770	0.026400
C91	C9	0.854940	0.631470	0.745970
Cu71	Cu7	0.496710	0.125100	0.876550
Cu81	Cu8	0.105310	0.152850	0.668350
N101	N10	0.521110	0.217310	0.987550
N111	N11	0.501690	0.029230	0.973600
N121	N12	0.261180	0.135160	0.725360
C101	C10	0.545200	0.268510	0.055300
C111	C11	0.498310	0.970770	0.026400
C121	C12	0.354940	0.131470	0.745970
Cu91	Cu9	0.996710	0.374900	0.376550
Cu101	Cu10	0.605310	0.347150	0.168350
N131	N13	0.021110	0.282690	0.487550
N141	N14	0.761180	0.364840	0.225360
C131	C13	0.045200	0.231490	0.555300
C141	C14	0.854940	0.368530	0.245970
Cu111	Cu11	0.496710	0.874900	0.376550
Cu121	Cu12	0.105310	0.847150	0.168350
N151	N15	0.521110	0.782690	0.487550
N161	N16	0.261180	0.864840	0.225360
C151	C15	0.545200	0.731490	0.555300
C161	C16	0.354940	0.868530	0.245970
Cu131	Cu13	0.003290	0.374900	0.123450
Cu141	Cu14	0.394690	0.347150	0.331650
N171	N17	0.978890	0.282690	0.012450
N181	N18	0.238820	0.364840	0.274640
C171	C17	0.954800	0.231490	0.944700
C181	C18	0.145060	0.368530	0.254030
Cu151	Cu15	0.503290	0.874900	0.123450
Cu161	Cu16	0.894690	0.847150	0.331650
N191	N19	0.478890	0.782690	0.012450
N201	N20	0.738820	0.864840	0.274640
C191	C19	0.454800	0.731490	0.944700
C201	C20	0.645060	0.868530	0.254030
Cl11	Cl1	0.500000	0.556480	0.750000
Cl21	Cl2	0.000000	0.056480	0.750000
Cl31	Cl3	0.500000	0.443520	0.250000
Cl41	Cl4	0.000000	0.943520	0.250000
