data_DARJUD_clean_PM
_symmetry_space_group_name_H-M	'P1'
_cell_length_a	8.885000
_cell_length_b	14.231000
_cell_length_c	15.049000
_cell_angle_alpha	90.000000
_cell_angle_beta	94.957000
_cell_angle_gamma	90.000000
_symmetry_Int_Tables_number 1

loop_
_symmetry_equiv_pos_as_xyz
'x,y,z'

loop_
_atom_site_label
_atom_site_type_symbol
_atom_site_fract_x
_atom_site_fract_y
_atom_site_fract_z
Al11	Al1	0.321240	0.940970	0.243640
Al21	Al2	0.878860	0.940290	0.090080
Al31	Al3	0.140670	0.570510	0.115070
Zn11	Zn1	0.924110	0.714200	0.835710
Al41	Al4	0.924110	0.785800	0.335710
O11	O1	0.996300	0.037900	0.122400
O21	O2	0.200300	0.960700	0.509300
P11	P1	0.099250	0.781820	0.162270
O31	O3	0.201300	0.053100	0.021500
O41	O4	0.265400	0.046700	0.185100
P21	P2	0.149550	0.079820	0.112190
O51	O5	0.734200	0.024600	0.300900
P31	P3	0.140320	0.944200	0.412830
O61	O6	0.146000	0.692700	0.117800
O71	O7	0.045700	0.855000	0.408600
P41	P4	0.685610	0.933840	0.253610
O81	O8	0.726500	0.936300	0.158400
O91	O9	0.044200	0.026400	0.377600
O101	O10	0.274500	0.934400	0.358700
O111	O11	0.987000	0.834500	0.099800
O121	O12	0.764700	0.852700	0.303100
O131	O13	0.519100	0.920400	0.251700
O141	O14	0.028200	0.755900	0.246100
O151	O15	0.138600	0.185900	0.115500
O161	O16	0.238900	0.839500	0.182900
Al51	Al5	0.678760	0.440970	0.256360
Al61	Al6	0.121140	0.440290	0.409920
Al71	Al7	0.859330	0.070510	0.384930
Zn21	Zn2	0.075890	0.214200	0.664290
Al81	Al8	0.075890	0.285800	0.164290
O171	O17	0.003700	0.537900	0.377600
O181	O18	0.799700	0.460700	0.990700
P51	P5	0.900750	0.281820	0.337730
O191	O19	0.798700	0.553100	0.478500
O201	O20	0.734600	0.546700	0.314900
P61	P6	0.850450	0.579820	0.387810
O211	O21	0.265800	0.524600	0.199100
P71	P7	0.859680	0.444200	0.087170
O221	O22	0.854000	0.192700	0.382200
O231	O23	0.954300	0.355000	0.091400
P81	P8	0.314390	0.433840	0.246390
O241	O24	0.273500	0.436300	0.341600
O251	O25	0.955800	0.526400	0.122400
O261	O26	0.725500	0.434400	0.141300
O271	O27	0.013000	0.334500	0.400200
O281	O28	0.235300	0.352700	0.196900
O291	O29	0.480900	0.420400	0.248300
O301	O30	0.971800	0.255900	0.253900
O311	O31	0.861400	0.685900	0.384500
O321	O32	0.761100	0.339500	0.317100
Al91	Al9	0.678760	0.059030	0.756360
Al101	Al10	0.121140	0.059710	0.909920
Al111	Al11	0.859330	0.429490	0.884930
O331	O33	0.003700	0.962100	0.877600
O341	O34	0.799700	0.039300	0.490700
P91	P9	0.900750	0.218180	0.837730
O351	O35	0.798700	0.946900	0.978500
O361	O36	0.734600	0.953300	0.814900
P101	P10	0.850450	0.920180	0.887810
O371	O37	0.265800	0.975400	0.699100
P111	P11	0.859680	0.055800	0.587170
O381	O38	0.854000	0.307300	0.882200
O391	O39	0.954300	0.145000	0.591400
P121	P12	0.314390	0.066160	0.746390
O401	O40	0.273500	0.063700	0.841600
O411	O41	0.955800	0.973600	0.622400
O421	O42	0.725500	0.065600	0.641300
O431	O43	0.013000	0.165500	0.900200
O441	O44	0.235300	0.147300	0.696900
O451	O45	0.480900	0.079600	0.748300
O461	O46	0.971800	0.244100	0.753900
O471	O47	0.861400	0.814100	0.884500
O481	O48	0.761100	0.160500	0.817100
Al121	Al12	0.321240	0.559030	0.743640
Al131	Al13	0.878860	0.559710	0.590080
Al141	Al14	0.140670	0.929490	0.615070
O491	O49	0.996300	0.462100	0.622400
O501	O50	0.200300	0.539300	0.009300
P131	P13	0.099250	0.718180	0.662270
O511	O51	0.201300	0.446900	0.521500
O521	O52	0.265400	0.453300	0.685100
P141	P14	0.149550	0.420180	0.612190
O531	O53	0.734200	0.475400	0.800900
P151	P15	0.140320	0.555800	0.912830
O541	O54	0.146000	0.807300	0.617800
O551	O55	0.045700	0.645000	0.908600
P161	P16	0.685610	0.566160	0.753610
O561	O56	0.726500	0.563700	0.658400
O571	O57	0.044200	0.473600	0.877600
O581	O58	0.274500	0.565600	0.858700
O591	O59	0.987000	0.665500	0.599800
O601	O60	0.764700	0.647300	0.803100
O611	O61	0.519100	0.579600	0.751700
O621	O62	0.028200	0.744100	0.746100
O631	O63	0.138600	0.314100	0.615500
O641	O64	0.238900	0.660500	0.682900
