data_DARNOB_charged_PM
_symmetry_space_group_name_H-M	'P1'
_cell_length_a	10.641400
_cell_length_b	12.386800
_cell_length_c	18.843300
_cell_angle_alpha	90.000000
_cell_angle_beta	90.000000
_cell_angle_gamma	90.000000
_symmetry_Int_Tables_number 1

loop_
_symmetry_equiv_pos_as_xyz
'x,y,z'

loop_
_atom_site_label
_atom_site_type_symbol
_atom_site_fract_x
_atom_site_fract_y
_atom_site_fract_z
Pr11	Pr1	0.261700	0.500000	0.000000
Pr21	Pr2	0.738300	0.000000	0.500000
Zn11	Zn1	0.001940	0.662870	0.713420
Zn21	Zn2	0.501390	0.875530	0.803170
Zn31	Zn3	0.001940	0.337130	0.286580
Zn41	Zn4	0.501390	0.124470	0.196830
Zn51	Zn5	0.998060	0.837130	0.213420
Zn61	Zn6	0.498610	0.624470	0.303170
Zn71	Zn7	0.998060	0.162870	0.786580
Zn81	Zn8	0.498610	0.375530	0.696830
H11	H1	0.260100	0.823000	0.692700
H21	H2	0.240500	0.213900	0.675900
H31	H3	0.520200	0.949200	0.958700
H41	H4	0.474200	0.140400	0.796400
H51	H5	0.474800	0.254400	0.902700
H61	H6	0.824400	0.512600	0.625100
H71	H7	0.108500	0.336300	0.573000
H81	H8	0.188700	0.477400	0.648700
H91	H9	0.260100	0.177000	0.307300
H101	H10	0.240500	0.786100	0.324100
H111	H11	0.520200	0.050800	0.041300
H121	H12	0.474200	0.859600	0.203600
H131	H13	0.474800	0.745600	0.097300
H141	H14	0.824400	0.487400	0.374900
H151	H15	0.108500	0.663700	0.427000
H161	H16	0.188700	0.522600	0.351300
H171	H17	0.739900	0.677000	0.192700
H181	H18	0.759500	0.286100	0.175900
H191	H19	0.479800	0.550800	0.458700
H201	H20	0.525800	0.359600	0.296400
H211	H21	0.525200	0.245600	0.402700
H221	H22	0.175600	0.987400	0.125100
H231	H23	0.891500	0.163700	0.073000
H241	H24	0.811300	0.022600	0.148700
H251	H25	0.739900	0.323000	0.807300
H261	H26	0.759500	0.713900	0.824100
H271	H27	0.479800	0.449200	0.541300
H281	H28	0.525800	0.640400	0.703600
H291	H29	0.525200	0.754400	0.597300
H301	H30	0.175600	0.012600	0.874900
H311	H31	0.891500	0.836300	0.927000
H321	H32	0.811300	0.977400	0.851300
C11	C1	0.389300	0.721300	0.903200
C21	C2	0.305900	0.724700	0.839000
C31	C3	0.257200	0.784800	0.735100
C41	C4	0.197200	0.676200	0.818100
C51	C5	0.103700	0.604700	0.851200
C61	C6	0.117500	0.307600	0.887000
C71	C7	0.197900	0.304700	0.823500
C81	C8	0.245000	0.250500	0.718900
C91	C9	0.309500	0.353500	0.803100
C101	C10	0.404900	0.424300	0.838700
C111	C11	0.508800	0.010900	0.931300
C121	C12	0.484000	0.114800	0.842500
C131	C13	0.484000	0.179700	0.901400
C141	C14	0.905000	0.485000	0.620900
C151	C15	0.059000	0.390000	0.593000
C161	C16	0.105000	0.468500	0.635300
C171	C17	0.389300	0.278700	0.096800
C181	C18	0.305900	0.275300	0.161000
C191	C19	0.257200	0.215200	0.264900
C201	C20	0.197200	0.323800	0.181900
C211	C21	0.103700	0.395300	0.148800
C221	C22	0.117500	0.692400	0.113000
C231	C23	0.197900	0.695300	0.176500
C241	C24	0.245000	0.749500	0.281100
C251	C25	0.309500	0.646500	0.196900
C261	C26	0.404900	0.575700	0.161300
C271	C27	0.508800	0.989100	0.068700
C281	C28	0.484000	0.885200	0.157500
C291	C29	0.484000	0.820300	0.098600
C301	C30	0.905000	0.515000	0.379100
C311	C31	0.059000	0.610000	0.407000
C321	C32	0.105000	0.531500	0.364700
C331	C33	0.610700	0.778700	0.403200
C341	C34	0.694100	0.775300	0.339000
C351	C35	0.742800	0.715200	0.235100
C361	C36	0.802800	0.823800	0.318100
C371	C37	0.896300	0.895300	0.351200
C381	C38	0.882500	0.192400	0.387000
C391	C39	0.802100	0.195300	0.323500
C401	C40	0.755000	0.249500	0.218900
C411	C41	0.690500	0.146500	0.303100
C421	C42	0.595100	0.075700	0.338700
C431	C43	0.491200	0.489100	0.431300
C441	C44	0.516000	0.385200	0.342500
C451	C45	0.516000	0.320300	0.401400
C461	C46	0.095000	0.015000	0.120900
C471	C47	0.941000	0.110000	0.093000
C481	C48	0.895000	0.031500	0.135300
C491	C49	0.610700	0.221300	0.596800
C501	C50	0.694100	0.224700	0.661000
C511	C51	0.742800	0.284800	0.764900
C521	C52	0.802800	0.176200	0.681900
C531	C53	0.896300	0.104700	0.648800
C541	C54	0.882500	0.807600	0.613000
C551	C55	0.802100	0.804700	0.676500
C561	C56	0.755000	0.750500	0.781100
C571	C57	0.690500	0.853500	0.696900
C581	C58	0.595100	0.924300	0.661300
C591	C59	0.491200	0.510900	0.568700
C601	C60	0.516000	0.614800	0.657500
C611	C61	0.516000	0.679700	0.598600
C621	C62	0.095000	0.985000	0.879100
C631	C63	0.941000	0.890000	0.907000
C641	C64	0.895000	0.968500	0.864700
N11	N1	0.342900	0.794600	0.786200
N21	N2	0.165800	0.713800	0.751300
N31	N3	0.160600	0.239900	0.769200
N41	N4	0.337900	0.318600	0.735100
N51	N5	0.008300	0.530900	0.654200
N61	N6	0.498200	0.011600	0.858800
N71	N7	0.500400	0.112300	0.957700
N81	N8	0.932000	0.397000	0.582100
N91	N9	0.342900	0.205400	0.213800
N101	N10	0.165800	0.286200	0.248700
N111	N11	0.160600	0.760100	0.230800
N121	N12	0.337900	0.681400	0.264900
N131	N13	0.008300	0.469100	0.345800
N141	N14	0.498200	0.988400	0.141200
N151	N15	0.500400	0.887700	0.042300
N161	N16	0.932000	0.603000	0.417900
N171	N17	0.657100	0.705400	0.286200
N181	N18	0.834200	0.786200	0.251300
N191	N19	0.839400	0.260100	0.269200
N201	N20	0.662100	0.181400	0.235100
N211	N21	0.991700	0.969100	0.154200
N221	N22	0.501800	0.488400	0.358800
N231	N23	0.499600	0.387700	0.457700
N241	N24	0.068000	0.103000	0.082100
N251	N25	0.657100	0.294600	0.713800
N261	N26	0.834200	0.213800	0.748700
N271	N27	0.839400	0.739900	0.730800
N281	N28	0.662100	0.818600	0.764900
N291	N29	0.991700	0.030900	0.845800
N301	N30	0.501800	0.511600	0.641200
N311	N31	0.499600	0.612300	0.542300
N321	N32	0.068000	0.897000	0.917900
O11	O1	0.362700	0.665600	0.954900
O21	O2	0.489500	0.777700	0.899300
O31	O3	0.118300	0.568200	0.911800
O41	O4	0.005900	0.583400	0.814700
O51	O5	0.009500	0.264500	0.879700
O61	O6	0.151700	0.349200	0.943600
O71	O7	0.392800	0.451100	0.901400
O81	O8	0.496800	0.450700	0.800500
O91	O9	0.362700	0.334400	0.045100
O101	O10	0.489500	0.222300	0.100700
O111	O11	0.118300	0.431800	0.088200
O121	O12	0.005900	0.416600	0.185300
O131	O13	0.009500	0.735500	0.120300
O141	O14	0.151700	0.650800	0.056400
O151	O15	0.392800	0.548900	0.098600
O161	O16	0.496800	0.549300	0.199500
O171	O17	0.637300	0.834400	0.454900
O181	O18	0.510500	0.722300	0.399300
O191	O19	0.881700	0.931800	0.411800
O201	O20	0.994100	0.916600	0.314700
O211	O21	0.990500	0.235500	0.379700
O221	O22	0.848300	0.150800	0.443600
O231	O23	0.607200	0.048900	0.401400
O241	O24	0.503200	0.049300	0.300500
O251	O25	0.637300	0.165600	0.545100
O261	O26	0.510500	0.277700	0.600700
O271	O27	0.881700	0.068200	0.588200
O281	O28	0.994100	0.083400	0.685300
O291	O29	0.990500	0.764500	0.620300
O301	O30	0.848300	0.849200	0.556400
O311	O31	0.607200	0.951100	0.598600
O321	O32	0.503200	0.950700	0.699500
