data_DAWDAI_clean_PM
_symmetry_space_group_name_H-M	'P1'
_cell_length_a	9.429800
_cell_length_b	13.318500
_cell_length_c	23.224000
_cell_angle_alpha	94.584000
_cell_angle_beta	90.000000
_cell_angle_gamma	90.000000
_symmetry_Int_Tables_number 1

loop_
_symmetry_equiv_pos_as_xyz
'x,y,z'

loop_
_atom_site_label
_atom_site_type_symbol
_atom_site_fract_x
_atom_site_fract_y
_atom_site_fract_z
Cd11	Cd1	0.347970	0.027460	0.954590
Cd21	Cd2	0.347970	0.472540	0.545410
Cd31	Cd3	0.652030	0.972540	0.045410
Cd41	Cd4	0.652030	0.527460	0.454590
Cd51	Cd5	0.000000	0.500000	0.500000
Cd61	Cd6	0.000000	0.000000	0.000000
H11	H1	0.147100	0.335600	0.723500
H21	H2	0.984000	0.339900	0.797100
H31	H3	0.737700	0.515300	0.712000
H41	H4	0.896400	0.508100	0.636800
H51	H5	0.644200	0.443300	0.792800
H61	H6	0.963400	0.560700	0.836800
H71	H7	0.981700	0.712500	0.892000
H81	H8	0.570400	0.705000	0.924700
H91	H9	0.549400	0.557800	0.868700
H101	H10	0.562300	0.288300	0.811400
H111	H11	0.539900	0.158600	0.871400
H121	H12	0.884100	0.259400	0.958700
H131	H13	0.900900	0.390500	0.900300
H141	H14	0.574700	0.932800	0.861100
H151	H15	0.585500	0.832800	0.776300
H161	H16	0.189600	0.745300	0.803700
H171	H17	0.194000	0.840400	0.889700
H181	H18	0.147100	0.164400	0.776500
H191	H19	0.984000	0.160100	0.702900
H201	H20	0.737700	0.984700	0.788000
H211	H21	0.896400	0.991900	0.863200
H221	H22	0.644200	0.056700	0.707200
H231	H23	0.963400	0.939300	0.663200
H241	H24	0.981700	0.787500	0.608000
H251	H25	0.570400	0.795000	0.575300
H261	H26	0.549400	0.942200	0.631300
H271	H27	0.562300	0.211700	0.688600
H281	H28	0.539900	0.341400	0.628600
H291	H29	0.884100	0.240600	0.541300
H301	H30	0.900900	0.109500	0.599700
H311	H31	0.574700	0.567200	0.638900
H321	H32	0.585500	0.667200	0.723700
H331	H33	0.189600	0.754700	0.696300
H341	H34	0.194000	0.659600	0.610300
H351	H35	0.852900	0.664400	0.276500
H361	H36	0.016000	0.660100	0.202900
H371	H37	0.262300	0.484700	0.288000
H381	H38	0.103600	0.491900	0.363200
H391	H39	0.355800	0.556700	0.207200
H401	H40	0.036600	0.439300	0.163200
H411	H41	0.018300	0.287500	0.108000
H421	H42	0.429600	0.295000	0.075300
H431	H43	0.450600	0.442200	0.131300
H441	H44	0.437700	0.711700	0.188600
H451	H45	0.460100	0.841400	0.128600
H461	H46	0.115900	0.740600	0.041300
H471	H47	0.099100	0.609500	0.099700
H481	H48	0.425300	0.067200	0.138900
H491	H49	0.414500	0.167200	0.223700
H501	H50	0.810400	0.254700	0.196300
H511	H51	0.806000	0.159600	0.110300
H521	H52	0.852900	0.835600	0.223500
H531	H53	0.016000	0.839900	0.297100
H541	H54	0.262300	0.015300	0.212000
H551	H55	0.103600	0.008100	0.136800
H561	H56	0.355800	0.943300	0.292800
H571	H57	0.036600	0.060700	0.336800
H581	H58	0.018300	0.212500	0.392000
H591	H59	0.429600	0.205000	0.424700
H601	H60	0.450600	0.057800	0.368700
H611	H61	0.437700	0.788300	0.311400
H621	H62	0.460100	0.658600	0.371400
H631	H63	0.115900	0.759400	0.458700
H641	H64	0.099100	0.890500	0.400300
H651	H65	0.425300	0.432800	0.361100
H661	H66	0.414500	0.332800	0.276300
H671	H67	0.810400	0.245300	0.303700
H681	H68	0.806000	0.340400	0.389700
C11	C1	0.147000	0.422390	0.625590
C21	C2	0.040400	0.421470	0.673070
C31	C3	0.063800	0.372200	0.720500
C41	C4	0.966000	0.375400	0.765000
C51	C5	0.845200	0.428690	0.762690
C61	C6	0.820700	0.478300	0.714600
C71	C7	0.916000	0.474600	0.669500
C81	C8	0.737400	0.440930	0.811330
C91	C9	0.755200	0.541930	0.846630
C101	C10	0.882800	0.589400	0.854300
C111	C11	0.894100	0.680600	0.888100
C121	C12	0.779400	0.723600	0.915400
C131	C13	0.650700	0.676100	0.907000
C141	C14	0.638100	0.587900	0.873600
C151	C15	0.790800	0.819710	0.953210
C161	C16	0.731200	0.353540	0.850140
C171	C17	0.626200	0.283500	0.841600
C181	C18	0.613400	0.204900	0.877100
C191	C19	0.711300	0.195690	0.921490
C201	C20	0.818000	0.265200	0.929500
C211	C21	0.828200	0.343700	0.894300
C221	C22	0.696300	0.112850	0.960450
C231	C23	0.495900	0.894100	0.849800
C241	C24	0.502400	0.834900	0.797900
C251	C25	0.387600	0.779800	0.778200
C261	C26	0.270000	0.782700	0.814400
C271	C27	0.273100	0.840700	0.865900
C281	C28	0.147000	0.077610	0.874410
C291	C29	0.040400	0.078530	0.826930
C301	C30	0.063800	0.127800	0.779500
C311	C31	0.966000	0.124600	0.735000
C321	C32	0.845200	0.071310	0.737310
C331	C33	0.820700	0.021700	0.785400
C341	C34	0.916000	0.025400	0.830500
C351	C35	0.737400	0.059070	0.688670
C361	C36	0.755200	0.958070	0.653370
C371	C37	0.882800	0.910600	0.645700
C381	C38	0.894100	0.819400	0.611900
C391	C39	0.779400	0.776400	0.584600
C401	C40	0.650700	0.823900	0.593000
C411	C41	0.638100	0.912100	0.626400
C421	C42	0.790800	0.680290	0.546790
C431	C43	0.731200	0.146460	0.649860
C441	C44	0.626200	0.216500	0.658400
C451	C45	0.613400	0.295100	0.622900
C461	C46	0.711300	0.304310	0.578510
C471	C47	0.818000	0.234800	0.570500
C481	C48	0.828200	0.156300	0.605700
C491	C49	0.696300	0.387150	0.539550
C501	C50	0.495900	0.605900	0.650200
C511	C51	0.502400	0.665100	0.702100
C521	C52	0.387600	0.720200	0.721800
C531	C53	0.270000	0.717300	0.685600
C541	C54	0.273100	0.659300	0.634100
C551	C55	0.853000	0.577610	0.374410
C561	C56	0.959600	0.578530	0.326930
C571	C57	0.936200	0.627800	0.279500
C581	C58	0.034000	0.624600	0.235000
C591	C59	0.154800	0.571310	0.237310
C601	C60	0.179300	0.521700	0.285400
C611	C61	0.084000	0.525400	0.330500
C621	C62	0.262600	0.559070	0.188670
C631	C63	0.244800	0.458070	0.153370
C641	C64	0.117200	0.410600	0.145700
C651	C65	0.105900	0.319400	0.111900
C661	C66	0.220600	0.276400	0.084600
C671	C67	0.349300	0.323900	0.093000
C681	C68	0.361900	0.412100	0.126400
C691	C69	0.209200	0.180290	0.046790
C701	C70	0.268800	0.646460	0.149860
C711	C71	0.373800	0.716500	0.158400
C721	C72	0.386600	0.795100	0.122900
C731	C73	0.288700	0.804310	0.078510
C741	C74	0.182000	0.734800	0.070500
C751	C75	0.171800	0.656300	0.105700
C761	C76	0.303700	0.887150	0.039550
C771	C77	0.504100	0.105900	0.150200
C781	C78	0.497600	0.165100	0.202100
C791	C79	0.612400	0.220200	0.221800
C801	C80	0.730000	0.217300	0.185600
C811	C81	0.726900	0.159300	0.134100
C821	C82	0.853000	0.922390	0.125590
C831	C83	0.959600	0.921470	0.173070
C841	C84	0.936200	0.872200	0.220500
C851	C85	0.034000	0.875400	0.265000
C861	C86	0.154800	0.928690	0.262690
C871	C87	0.179300	0.978300	0.214600
C881	C88	0.084000	0.974600	0.169500
C891	C89	0.262600	0.940930	0.311330
C901	C90	0.244800	0.041930	0.346630
C911	C91	0.117200	0.089400	0.354300
C921	C92	0.105900	0.180600	0.388100
C931	C93	0.220600	0.223600	0.415400
C941	C94	0.349300	0.176100	0.407000
C951	C95	0.361900	0.087900	0.373600
C961	C96	0.209200	0.319710	0.453210
C971	C97	0.268800	0.853540	0.350140
C981	C98	0.373800	0.783500	0.341600
C991	C99	0.386600	0.704900	0.377100
C1001	C100	0.288700	0.695690	0.421490
C1011	C101	0.182000	0.765200	0.429500
C1021	C102	0.171800	0.843700	0.394300
C1031	C103	0.303700	0.612850	0.460450
C1041	C104	0.504100	0.394100	0.349800
C1051	C105	0.497600	0.334900	0.297900
C1061	C106	0.612400	0.279800	0.278200
C1071	C107	0.730000	0.282700	0.314400
C1081	C108	0.726900	0.340700	0.365900
N11	N1	0.384900	0.898150	0.883650
N21	N2	0.384900	0.601850	0.616350
N31	N3	0.615100	0.101850	0.116350
N41	N4	0.615100	0.398150	0.383650
O11	O1	0.113400	0.464730	0.580830
O21	O2	0.268100	0.387720	0.631320
O31	O3	0.584400	0.061400	0.959700
O41	O4	0.793200	0.097120	0.995020
O51	O5	0.903800	0.869090	0.951290
O61	O6	0.685400	0.842850	0.983250
O71	O7	0.113400	0.035270	0.919170
O81	O8	0.268100	0.112280	0.868680
O91	O9	0.584400	0.438600	0.540300
O101	O10	0.793200	0.402880	0.504980
O111	O11	0.903800	0.630910	0.548710
O121	O12	0.685400	0.657150	0.516750
O131	O13	0.886600	0.535270	0.419170
O141	O14	0.731900	0.612280	0.368680
O151	O15	0.415600	0.938600	0.040300
O161	O16	0.206800	0.902880	0.004980
O171	O17	0.096200	0.130910	0.048710
O181	O18	0.314600	0.157150	0.016750
O191	O19	0.886600	0.964730	0.080830
O201	O20	0.731900	0.887720	0.131320
O211	O21	0.415600	0.561400	0.459700
O221	O22	0.206800	0.597120	0.495020
O231	O23	0.096200	0.369090	0.451290
O241	O24	0.314600	0.342850	0.483250
