data_DAWVOO_clean_PM
_symmetry_space_group_name_H-M	'P1'
_cell_length_a	14.293800
_cell_length_b	14.856100
_cell_length_c	23.108700
_cell_angle_alpha	92.786700
_cell_angle_beta	91.567900
_cell_angle_gamma	109.889000
_symmetry_Int_Tables_number 1

loop_
_symmetry_equiv_pos_as_xyz
'x,y,z'

loop_
_atom_site_label
_atom_site_type_symbol
_atom_site_fract_x
_atom_site_fract_y
_atom_site_fract_z
Cu11	Cu1	0.145600	0.770300	0.192560
Cu21	Cu2	0.067800	0.427900	0.024550
Cu31	Cu3	0.078800	0.321200	0.660950
Cu41	Cu4	0.136500	0.027900	0.400750
Cu51	Cu5	0.962400	0.203800	0.229810
Cu61	Cu6	0.078700	0.956400	0.538040
Cu71	Cu7	0.128200	0.518900	0.894750
N11	N1	0.043200	0.807300	0.148400
N21	N2	0.118100	0.675900	0.125200
N31	N3	0.093500	0.877300	0.299400
N41	N4	0.142100	0.827500	0.267300
C11	C1	0.557100	0.038200	0.375700
H11	H1	0.614200	0.023000	0.382600
N51	N5	0.268000	0.749900	0.226000
N61	N6	0.985500	0.342500	0.081200
N71	N7	0.367900	0.018000	0.498300
N81	N8	0.947500	0.253600	0.154500
N91	N9	0.298800	0.989200	0.535700
N101	N10	0.072400	0.551400	0.068800
N111	N11	0.218900	0.000700	0.510400
N121	N12	0.140000	0.905100	0.350000
N131	N13	0.054200	0.092300	0.365400
N141	N14	0.051500	0.396900	0.723500
N151	N15	0.854900	0.260900	0.250200
N161	N16	0.006100	0.278500	0.108800
N171	N17	0.010500	0.487800	0.787300
N181	N18	0.926800	0.144000	0.356800
N191	N19	0.220400	0.482300	0.943600
N201	N20	0.988400	0.344000	0.595400
N211	N21	0.106900	0.142600	0.603900
N221	N22	0.018100	0.604300	0.051100
N231	N23	0.074600	0.455300	0.816400
N241	N24	0.910000	0.364900	0.108600
N251	N25	0.235700	0.032400	0.457300
N261	N26	0.994200	0.453700	0.732400
N271	N27	0.078800	0.217600	0.605600
N281	N28	0.204400	0.455600	0.999000
N291	N29	0.134900	0.595800	0.113400
N301	N30	0.166200	0.298400	0.725600
N311	N31	0.066200	0.088200	0.561100
N321	N32	0.004700	0.125700	0.529100
N331	N33	0.220800	0.878800	0.353300
N341	N34	0.367000	0.499400	0.980500
N351	N35	0.986900	0.173800	0.309000
N361	N36	0.316400	0.509100	0.928500
N371	N37	0.974500	0.103600	0.388200
N381	N38	0.438000	0.463000	0.079700
C21	C2	0.801000	0.257000	0.296600
H21	H2	0.815700	0.225500	0.327800
C31	C3	0.751000	0.341000	0.204500
H31	H3	0.729900	0.365400	0.171900
C41	C4	0.728000	0.293000	0.302700
H41	H4	0.694500	0.286900	0.337000
C51	C5	0.703000	0.339000	0.257300
H51	H5	0.655900	0.368900	0.261700
C61	C6	0.330000	0.718000	0.201200
H61	H6	0.313400	0.694100	0.162900
C71	C7	0.415000	0.715000	0.224100
H71	H7	0.451900	0.682400	0.205300
C81	C8	0.446000	0.764000	0.277800
H81	H8	0.510400	0.774400	0.292800
C91	C9	0.383000	0.798000	0.309300
H91	H9	0.400000	0.825700	0.346800
C101	C10	0.425000	0.427000	0.179100
H101	H10	0.458100	0.421700	0.213400
C111	C11	0.338000	0.455000	0.075000
C121	C12	0.474000	0.445000	0.128400
H111	H11	0.539400	0.444600	0.128900
C131	C13	0.322000	0.416000	0.177600
H121	H12	0.283600	0.397800	0.209900
C141	C14	0.278000	0.434000	0.123400
H131	H13	0.212500	0.432100	0.120900
C151	C15	0.828000	0.307000	0.202600
C161	C16	0.290000	0.788000	0.281000
C171	C17	0.922000	0.862000	0.071300
H141	H14	0.883300	0.880700	0.044200
C181	C18	0.953000	0.786000	0.060600
H151	H15	0.931800	0.749100	0.026000
C191	C19	0.014000	0.762000	0.099200
C201	C20	0.011000	0.882000	0.163700
H161	H16	0.028600	0.915600	0.199700
C211	C21	0.949000	0.907000	0.120900
H171	H17	0.927000	0.957700	0.130300
C221	C22	0.161000	0.344000	0.776900
C231	C23	0.216000	0.329000	0.826700
H181	H18	0.212000	0.358100	0.862700
C241	C24	0.220000	0.240000	0.724400
H191	H19	0.219200	0.204600	0.690000
C251	C25	0.276000	0.270000	0.820600
H201	H20	0.313100	0.261800	0.852100
C261	C26	0.277000	0.229000	0.770400
H211	H21	0.317300	0.192000	0.765400
N391	N39	0.490100	0.030800	0.419200
C271	C27	0.923000	0.289000	0.499000
H221	H22	0.917300	0.248200	0.466000
C281	C28	0.889000	0.362000	0.499400
H231	H23	0.855600	0.369000	0.465700
C291	C29	0.968000	0.276000	0.550400
C301	C30	0.958000	0.415000	0.592600
H241	H24	0.974700	0.461500	0.623200
C311	C31	0.898000	0.427000	0.544100
H251	H25	0.869000	0.473900	0.543800
C321	C32	0.404800	0.053600	0.408900
C331	C33	0.386400	0.083800	0.355100
H261	H26	0.329300	0.099000	0.348200
C341	C34	0.453500	0.091100	0.311600
H271	H27	0.441200	0.111300	0.275600
C351	C35	0.538800	0.068300	0.321900
H281	H28	0.583600	0.073300	0.292800
C361	C36	0.047000	0.681000	0.088200
C371	C37	0.218000	0.831000	0.303700
C381	C38	0.331000	0.038000	0.452700
C391	C39	0.300000	0.470000	0.018000
C401	C40	0.017000	0.206000	0.559000
C411	C41	0.891000	0.307000	0.154000
C421	C42	0.099000	0.401000	0.775400
C431	C43	0.058000	0.130000	0.312300
C441	C44	0.230000	0.158600	0.169700
H291	H29	0.266900	0.165100	0.136700
C451	C45	0.140000	0.175100	0.168200
H301	H30	0.116600	0.192700	0.134100
N401	N40	0.084900	0.165500	0.217500
C461	C46	0.119800	0.139300	0.268500
C471	C47	0.209900	0.122800	0.270100
H311	H31	0.233200	0.105200	0.304200
C481	C48	0.265000	0.132400	0.220700
H321	H32	0.325200	0.121400	0.221700
Cu81	Cu8	0.854400	0.229700	0.807440
Cu91	Cu9	0.932200	0.572100	0.975450
Cu101	Cu10	0.921200	0.678800	0.339050
Cu111	Cu11	0.863500	0.972100	0.599250
Cu121	Cu12	0.037600	0.796200	0.770190
Cu131	Cu13	0.921300	0.043600	0.461960
Cu141	Cu14	0.871800	0.481100	0.105250
N411	N41	0.956800	0.192700	0.851600
N421	N42	0.881900	0.324100	0.874800
N431	N43	0.906500	0.122700	0.700600
N441	N44	0.857900	0.172500	0.732700
C491	C49	0.442900	0.961800	0.624300
H331	H33	0.385800	0.977000	0.617400
N451	N45	0.732000	0.250100	0.774000
N461	N46	0.014500	0.657500	0.918800
N471	N47	0.632100	0.982000	0.501700
N481	N48	0.052500	0.746400	0.845500
N491	N49	0.701200	0.010800	0.464300
N501	N50	0.927600	0.448600	0.931200
N511	N51	0.781100	0.999300	0.489600
N521	N52	0.860000	0.094900	0.650000
N531	N53	0.945800	0.907700	0.634600
N541	N54	0.948500	0.603100	0.276500
N551	N55	0.145100	0.739100	0.749800
N561	N56	0.993900	0.721500	0.891200
N571	N57	0.989500	0.512200	0.212700
N581	N58	0.073200	0.856000	0.643200
N591	N59	0.779600	0.517700	0.056400
N601	N60	0.011600	0.656000	0.404600
N611	N61	0.893100	0.857400	0.396100
N621	N62	0.981900	0.395700	0.948900
N631	N63	0.925400	0.544700	0.183600
N641	N64	0.090000	0.635100	0.891400
N651	N65	0.764300	0.967600	0.542700
N661	N66	0.005800	0.546300	0.267600
N671	N67	0.921200	0.782400	0.394400
N681	N68	0.795600	0.544400	0.001000
N691	N69	0.865100	0.404200	0.886600
N701	N70	0.833800	0.701600	0.274400
N711	N71	0.933800	0.911800	0.438900
N721	N72	0.995300	0.874300	0.470900
N731	N73	0.779200	0.121200	0.646700
N741	N74	0.633000	0.500600	0.019500
N751	N75	0.013100	0.826200	0.691000
N761	N76	0.683600	0.490900	0.071500
N771	N77	0.025500	0.896400	0.611800
N781	N78	0.562000	0.537000	0.920300
C501	C50	0.199000	0.743000	0.703400
H341	H34	0.184300	0.774500	0.672200
C511	C51	0.249000	0.659000	0.795500
H351	H35	0.270100	0.634600	0.828100
C521	C52	0.272000	0.707000	0.697300
H361	H36	0.305500	0.713100	0.663000
C531	C53	0.297000	0.661000	0.742700
H371	H37	0.344100	0.631100	0.738300
C541	C54	0.670000	0.282000	0.798800
H381	H38	0.686600	0.305900	0.837100
C551	C55	0.585000	0.285000	0.775900
H391	H39	0.548100	0.317600	0.794700
C561	C56	0.554000	0.236000	0.722200
H401	H40	0.489600	0.225600	0.707200
C571	C57	0.617000	0.202000	0.690700
H411	H41	0.600000	0.174300	0.653200
C581	C58	0.575000	0.573000	0.820900
H421	H42	0.541900	0.578300	0.786600
C591	C59	0.662000	0.545000	0.925000
C601	C60	0.526000	0.555000	0.871600
H431	H43	0.460600	0.555400	0.871100
C611	C61	0.678000	0.584000	0.822400
H441	H44	0.716400	0.602200	0.790100
C621	C62	0.722000	0.566000	0.876600
H451	H45	0.787500	0.567900	0.879100
C631	C63	0.172000	0.693000	0.797400
C641	C64	0.710000	0.212000	0.719000
C651	C65	0.078000	0.138000	0.928700
H461	H46	0.116700	0.119300	0.955800
C661	C66	0.047000	0.214000	0.939400
H471	H47	0.068200	0.250900	0.974000
C671	C67	0.986000	0.238000	0.900800
C681	C68	0.989000	0.118000	0.836300
H481	H48	0.971400	0.084400	0.800300
C691	C69	0.051000	0.093000	0.879100
H491	H49	0.073000	0.042300	0.869700
C701	C70	0.839000	0.656000	0.223100
C711	C71	0.784000	0.671000	0.173300
H501	H50	0.788000	0.641900	0.137300
C721	C72	0.780000	0.760000	0.275600
H511	H51	0.780800	0.795400	0.310000
C731	C73	0.724000	0.730000	0.179400
H521	H52	0.686900	0.738200	0.147900
C741	C74	0.723000	0.771000	0.229600
H531	H53	0.682700	0.808000	0.234600
N791	N79	0.509900	0.969200	0.580800
C751	C75	0.077000	0.711000	0.501000
H541	H54	0.082700	0.751800	0.534000
C761	C76	0.111000	0.638000	0.500600
H551	H55	0.144400	0.631000	0.534300
C771	C77	0.032000	0.724000	0.449600
C781	C78	0.042000	0.585000	0.407400
H561	H56	0.025300	0.538500	0.376800
C791	C79	0.102000	0.573000	0.455900
H571	H57	0.131000	0.526100	0.456200
C801	C80	0.595200	0.946400	0.591100
C811	C81	0.613600	0.916200	0.644900
H581	H58	0.670700	0.901000	0.651800
C821	C82	0.546500	0.908900	0.688400
H591	H59	0.558800	0.888700	0.724400
C831	C83	0.461200	0.931700	0.678100
H601	H60	0.416400	0.926700	0.707200
C841	C84	0.953000	0.319000	0.911800
C851	C85	0.782000	0.169000	0.696300
C861	C86	0.669000	0.962000	0.547300
C871	C87	0.700000	0.530000	0.982000
C881	C88	0.983000	0.794000	0.441000
C891	C89	0.109000	0.693000	0.846000
C901	C90	0.901000	0.599000	0.224600
C911	C91	0.942000	0.870000	0.687700
C921	C92	0.770000	0.841400	0.830300
H611	H61	0.733100	0.834900	0.863300
C931	C93	0.860000	0.824900	0.831800
H621	H62	0.883400	0.807300	0.865900
N801	N80	0.915100	0.834500	0.782500
C941	C94	0.880200	0.860700	0.731500
C951	C95	0.790100	0.877200	0.729900
H631	H63	0.766800	0.894800	0.695800
C961	C96	0.735000	0.867600	0.779300
H641	H64	0.674800	0.878600	0.778300
Cu151	Cu15	0.500000	0.500000	0.000000
Cu161	Cu16	0.500000	0.000000	0.500000
