data_DAWWAB_clean_PM
_symmetry_space_group_name_H-M	'P1'
_cell_length_a	24.001000
_cell_length_b	17.455000
_cell_length_c	11.676000
_cell_angle_alpha	90.000000
_cell_angle_beta	105.096000
_cell_angle_gamma	90.000000
_symmetry_Int_Tables_number 1

loop_
_symmetry_equiv_pos_as_xyz
'x,y,z'

loop_
_atom_site_label
_atom_site_type_symbol
_atom_site_fract_x
_atom_site_fract_y
_atom_site_fract_z
Cl11	Cl1	0.121000	0.320000	0.754300
C11	C1	0.857000	0.540000	0.162000
C21	C2	0.852000	0.488000	0.054000
Cu11	Cu1	0.053300	0.255000	0.611000
Cu21	Cu2	0.892000	0.244000	0.393000
Cu31	Cu3	0.035900	0.408000	0.878000
Cu41	Cu4	0.878900	0.321400	0.834900
Cu51	Cu5	0.032700	0.225200	0.885000
Cu61	Cu6	0.749600	0.572400	0.999000
Cu71	Cu7	0.058600	0.382000	0.612000
Cu81	Cu8	0.890000	0.402000	0.388000
N11	N1	0.809000	0.497000	0.959000
N21	N2	0.887000	0.438000	0.031000
N31	N3	0.812000	0.452000	0.887000
N41	N4	0.860000	0.420000	0.923000
N51	N5	0.810000	0.587000	0.154000
C31	C3	0.904000	0.542000	0.246000
H11	H1	0.934800	0.510100	0.245000
C41	C4	0.908000	0.596000	0.345000
H21	H2	0.940100	0.598000	0.409700
C51	C5	0.862000	0.643000	0.337000
H31	H3	0.861700	0.677300	0.397500
C61	C6	0.816000	0.639000	0.236000
H41	H4	0.786500	0.675900	0.227700
C71	C7	0.234000	0.481000	0.633000
H51	H5	0.246600	0.459800	0.707600
C81	C8	0.268000	0.532000	0.591000
H61	H6	0.304900	0.544600	0.638400
C91	C9	0.249000	0.565000	0.479000
H71	H7	0.272100	0.598600	0.451400
C101	C10	0.194000	0.546000	0.408000
H81	H8	0.181200	0.567900	0.333500
C111	C11	0.159000	0.495000	0.450000
N61	N6	0.179000	0.463000	0.562000
C121	C12	0.088000	0.087000	0.742000
H91	H9	0.053300	0.111500	0.737800
C131	C13	0.134000	0.095000	0.843000
N71	N7	0.186000	0.058000	0.849000
C141	C14	0.193000	0.014000	0.754000
H101	H10	0.227400	0.989400	0.758400
C151	C15	0.147000	0.006000	0.654000
H111	H11	0.151100	0.976300	0.590400
C161	C16	0.095000	0.043000	0.647000
H121	H12	0.064100	0.037400	0.580100
N81	N8	0.809000	0.309000	0.657000
C171	C17	0.752000	0.333000	0.637000
H131	H13	0.738800	0.353100	0.698600
C181	C18	0.715000	0.328000	0.523000
H141	H14	0.677000	0.344300	0.509800
C191	C19	0.735000	0.298000	0.431000
H151	H15	0.710100	0.294900	0.355200
C201	C20	0.792000	0.274000	0.451000
H161	H16	0.805100	0.254300	0.389400
C211	C21	0.829000	0.279000	0.564000
N91	N9	0.198000	0.147000	0.022000
N101	N10	0.195000	0.205000	0.103000
N111	N11	0.139000	0.237000	0.071000
N121	N12	0.107000	0.198000	0.969000
C221	C22	0.144000	0.142000	0.938000
N131	N13	0.975500	0.246000	0.732000
N141	N14	0.920000	0.265000	0.722000
C231	C23	0.892000	0.258000	0.607000
N151	N15	0.930000	0.220000	0.549000
N161	N16	0.978000	0.217000	0.629000
N171	N17	0.064000	0.425000	0.446000
C241	C24	0.101000	0.468000	0.389000
N181	N18	0.077000	0.473000	0.272000
N191	N19	0.022000	0.436000	0.265000
N201	N20	0.983000	0.410000	0.635000
Cl21	Cl2	0.621000	0.820000	0.754300
C251	C25	0.357000	0.040000	0.162000
C261	C26	0.352000	0.988000	0.054000
Cu91	Cu9	0.553300	0.755000	0.611000
Cu101	Cu10	0.392000	0.744000	0.393000
Cu111	Cu11	0.535900	0.908000	0.878000
Cu121	Cu12	0.378900	0.821400	0.834900
Cu131	Cu13	0.532700	0.725200	0.885000
Cu141	Cu14	0.249600	0.072400	0.999000
Cu151	Cu15	0.558600	0.882000	0.612000
Cu161	Cu16	0.390000	0.902000	0.388000
N211	N21	0.309000	0.997000	0.959000
N221	N22	0.387000	0.938000	0.031000
N231	N23	0.312000	0.952000	0.887000
N241	N24	0.360000	0.920000	0.923000
N251	N25	0.310000	0.087000	0.154000
C271	C27	0.404000	0.042000	0.246000
H171	H17	0.434800	0.010100	0.245000
C281	C28	0.408000	0.096000	0.345000
H181	H18	0.440100	0.098000	0.409700
C291	C29	0.362000	0.143000	0.337000
H191	H19	0.361700	0.177300	0.397500
C301	C30	0.316000	0.139000	0.236000
H201	H20	0.286500	0.175900	0.227700
C311	C31	0.734000	0.981000	0.633000
H211	H21	0.746600	0.959800	0.707600
C321	C32	0.768000	0.032000	0.591000
H221	H22	0.804900	0.044600	0.638400
C331	C33	0.749000	0.065000	0.479000
H231	H23	0.772100	0.098600	0.451400
C341	C34	0.694000	0.046000	0.408000
H241	H24	0.681200	0.067900	0.333500
C351	C35	0.659000	0.995000	0.450000
N261	N26	0.679000	0.963000	0.562000
C361	C36	0.588000	0.587000	0.742000
H251	H25	0.553300	0.611500	0.737800
C371	C37	0.634000	0.595000	0.843000
N271	N27	0.686000	0.558000	0.849000
C381	C38	0.693000	0.514000	0.754000
H261	H26	0.727400	0.489400	0.758400
C391	C39	0.647000	0.506000	0.654000
H271	H27	0.651100	0.476300	0.590400
C401	C40	0.595000	0.543000	0.647000
H281	H28	0.564100	0.537400	0.580100
N281	N28	0.309000	0.809000	0.657000
C411	C41	0.252000	0.833000	0.637000
H291	H29	0.238800	0.853100	0.698600
C421	C42	0.215000	0.828000	0.523000
H301	H30	0.177000	0.844300	0.509800
C431	C43	0.235000	0.798000	0.431000
H311	H31	0.210100	0.794900	0.355200
C441	C44	0.292000	0.774000	0.451000
H321	H32	0.305100	0.754300	0.389400
C451	C45	0.329000	0.779000	0.564000
N291	N29	0.698000	0.647000	0.022000
N301	N30	0.695000	0.705000	0.103000
N311	N31	0.639000	0.737000	0.071000
N321	N32	0.607000	0.698000	0.969000
C461	C46	0.644000	0.642000	0.938000
N331	N33	0.475500	0.746000	0.732000
N341	N34	0.420000	0.765000	0.722000
C471	C47	0.392000	0.758000	0.607000
N351	N35	0.430000	0.720000	0.549000
N361	N36	0.478000	0.717000	0.629000
N371	N37	0.564000	0.925000	0.446000
C481	C48	0.601000	0.968000	0.389000
N381	N38	0.577000	0.973000	0.272000
N391	N39	0.522000	0.936000	0.265000
N401	N40	0.483000	0.910000	0.635000
Cl31	Cl3	0.879000	0.320000	0.245700
C491	C49	0.143000	0.540000	0.838000
C501	C50	0.148000	0.488000	0.946000
Cu171	Cu17	0.946700	0.255000	0.389000
Cu181	Cu18	0.108000	0.244000	0.607000
Cu191	Cu19	0.964100	0.408000	0.122000
Cu201	Cu20	0.121100	0.321400	0.165100
Cu211	Cu21	0.967300	0.225200	0.115000
Cu221	Cu22	0.250400	0.572400	0.001000
Cu231	Cu23	0.941400	0.382000	0.388000
Cu241	Cu24	0.110000	0.402000	0.612000
N411	N41	0.191000	0.497000	0.041000
N421	N42	0.113000	0.438000	0.969000
N431	N43	0.188000	0.452000	0.113000
N441	N44	0.140000	0.420000	0.077000
N451	N45	0.190000	0.587000	0.846000
C511	C51	0.096000	0.542000	0.754000
H331	H33	0.065200	0.510100	0.755000
C521	C52	0.092000	0.596000	0.655000
H341	H34	0.059900	0.598000	0.590300
C531	C53	0.138000	0.643000	0.663000
H351	H35	0.138300	0.677300	0.602500
C541	C54	0.184000	0.639000	0.764000
H361	H36	0.213500	0.675900	0.772300
C551	C55	0.766000	0.481000	0.367000
H371	H37	0.753400	0.459800	0.292400
C561	C56	0.732000	0.532000	0.409000
H381	H38	0.695100	0.544600	0.361600
C571	C57	0.751000	0.565000	0.521000
H391	H39	0.727900	0.598600	0.548600
C581	C58	0.806000	0.546000	0.592000
H401	H40	0.818800	0.567900	0.666500
C591	C59	0.841000	0.495000	0.550000
N461	N46	0.821000	0.463000	0.438000
C601	C60	0.912000	0.087000	0.258000
H411	H41	0.946700	0.111500	0.262200
C611	C61	0.866000	0.095000	0.157000
N471	N47	0.814000	0.058000	0.151000
C621	C62	0.807000	0.014000	0.246000
H421	H42	0.772600	0.989400	0.241600
C631	C63	0.853000	0.006000	0.346000
H431	H43	0.848900	0.976300	0.409600
C641	C64	0.905000	0.043000	0.353000
H441	H44	0.935900	0.037400	0.419900
N481	N48	0.191000	0.309000	0.343000
C651	C65	0.248000	0.333000	0.363000
H451	H45	0.261200	0.353100	0.301400
C661	C66	0.285000	0.328000	0.477000
H461	H46	0.323000	0.344300	0.490200
C671	C67	0.265000	0.298000	0.569000
H471	H47	0.289900	0.294900	0.644800
C681	C68	0.208000	0.274000	0.549000
H481	H48	0.194900	0.254300	0.610600
C691	C69	0.171000	0.279000	0.436000
N491	N49	0.802000	0.147000	0.978000
N501	N50	0.805000	0.205000	0.897000
N511	N51	0.861000	0.237000	0.929000
N521	N52	0.893000	0.198000	0.031000
C701	C70	0.856000	0.142000	0.062000
N531	N53	0.024500	0.246000	0.268000
N541	N54	0.080000	0.265000	0.278000
C711	C71	0.108000	0.258000	0.393000
N551	N55	0.070000	0.220000	0.451000
N561	N56	0.022000	0.217000	0.371000
N571	N57	0.936000	0.425000	0.554000
C721	C72	0.899000	0.468000	0.611000
N581	N58	0.923000	0.473000	0.728000
N591	N59	0.978000	0.436000	0.735000
N601	N60	0.017000	0.410000	0.365000
Cl41	Cl4	0.379000	0.820000	0.245700
C731	C73	0.643000	0.040000	0.838000
C741	C74	0.648000	0.988000	0.946000
Cu251	Cu25	0.446700	0.755000	0.389000
Cu261	Cu26	0.608000	0.744000	0.607000
Cu271	Cu27	0.464100	0.908000	0.122000
Cu281	Cu28	0.621100	0.821400	0.165100
Cu291	Cu29	0.467300	0.725200	0.115000
Cu301	Cu30	0.750400	0.072400	0.001000
Cu311	Cu31	0.441400	0.882000	0.388000
Cu321	Cu32	0.610000	0.902000	0.612000
N611	N61	0.691000	0.997000	0.041000
N621	N62	0.613000	0.938000	0.969000
N631	N63	0.688000	0.952000	0.113000
N641	N64	0.640000	0.920000	0.077000
N651	N65	0.690000	0.087000	0.846000
C751	C75	0.596000	0.042000	0.754000
H491	H49	0.565200	0.010100	0.755000
C761	C76	0.592000	0.096000	0.655000
H501	H50	0.559900	0.098000	0.590300
C771	C77	0.638000	0.143000	0.663000
H511	H51	0.638300	0.177300	0.602500
C781	C78	0.684000	0.139000	0.764000
H521	H52	0.713500	0.175900	0.772300
C791	C79	0.266000	0.981000	0.367000
H531	H53	0.253400	0.959800	0.292400
C801	C80	0.232000	0.032000	0.409000
H541	H54	0.195100	0.044600	0.361600
C811	C81	0.251000	0.065000	0.521000
H551	H55	0.227900	0.098600	0.548600
C821	C82	0.306000	0.046000	0.592000
H561	H56	0.318800	0.067900	0.666500
C831	C83	0.341000	0.995000	0.550000
N661	N66	0.321000	0.963000	0.438000
C841	C84	0.412000	0.587000	0.258000
H571	H57	0.446700	0.611500	0.262200
C851	C85	0.366000	0.595000	0.157000
N671	N67	0.314000	0.558000	0.151000
C861	C86	0.307000	0.514000	0.246000
H581	H58	0.272600	0.489400	0.241600
C871	C87	0.353000	0.506000	0.346000
H591	H59	0.348900	0.476300	0.409600
C881	C88	0.405000	0.543000	0.353000
H601	H60	0.435900	0.537400	0.419900
N681	N68	0.691000	0.809000	0.343000
C891	C89	0.748000	0.833000	0.363000
H611	H61	0.761200	0.853100	0.301400
C901	C90	0.785000	0.828000	0.477000
H621	H62	0.823000	0.844300	0.490200
C911	C91	0.765000	0.798000	0.569000
H631	H63	0.789900	0.794900	0.644800
C921	C92	0.708000	0.774000	0.549000
H641	H64	0.694900	0.754300	0.610600
C931	C93	0.671000	0.779000	0.436000
N691	N69	0.302000	0.647000	0.978000
N701	N70	0.305000	0.705000	0.897000
N711	N71	0.361000	0.737000	0.929000
N721	N72	0.393000	0.698000	0.031000
C941	C94	0.356000	0.642000	0.062000
N731	N73	0.524500	0.746000	0.268000
N741	N74	0.580000	0.765000	0.278000
C951	C95	0.608000	0.758000	0.393000
N751	N75	0.570000	0.720000	0.451000
N761	N76	0.522000	0.717000	0.371000
N771	N77	0.436000	0.925000	0.554000
C961	C96	0.399000	0.968000	0.611000
N781	N78	0.423000	0.973000	0.728000
N791	N79	0.478000	0.936000	0.735000
N801	N80	0.517000	0.910000	0.365000
Cl51	Cl5	0.000000	0.325000	0.000000
Cl61	Cl6	0.500000	0.825000	0.000000
