data_DAWWIJ_clean_PM
_symmetry_space_group_name_H-M	'P1'
_cell_length_a	12.170000
_cell_length_b	13.601000
_cell_length_c	17.400000
_cell_angle_alpha	90.000000
_cell_angle_beta	90.000000
_cell_angle_gamma	90.000000
_symmetry_Int_Tables_number 1

loop_
_symmetry_equiv_pos_as_xyz
'x,y,z'

loop_
_atom_site_label
_atom_site_type_symbol
_atom_site_fract_x
_atom_site_fract_y
_atom_site_fract_z
Mn11	Mn1	0.212660	0.754970	0.212020
Mn21	Mn2	0.287340	0.245030	0.712020
Mn31	Mn3	0.787340	0.254970	0.287980
Mn41	Mn4	0.712660	0.745030	0.787980
Mn51	Mn5	0.787340	0.245030	0.787980
Mn61	Mn6	0.712660	0.754970	0.287980
Mn71	Mn7	0.212660	0.745030	0.712020
Mn81	Mn8	0.287340	0.254970	0.212020
Mn91	Mn9	0.500000	0.500000	0.500000
Mn101	Mn10	0.000000	0.500000	0.000000
Mn111	Mn11	0.500000	0.000000	0.000000
Mn121	Mn12	0.000000	0.000000	0.500000
H11	H1	0.011700	0.594700	0.276400
H21	H2	0.323800	0.560000	0.302200
H31	H3	0.199600	0.348600	0.392900
H41	H4	0.248200	0.429500	0.447800
H51	H5	0.488300	0.405300	0.776400
H61	H6	0.176200	0.440000	0.802200
H71	H7	0.300400	0.651400	0.892900
H81	H8	0.251800	0.570500	0.947800
H91	H9	0.988300	0.094700	0.223600
H101	H10	0.676200	0.060000	0.197800
H111	H11	0.800400	0.848600	0.107100
H121	H12	0.751800	0.929500	0.052200
H131	H13	0.511700	0.905300	0.723600
H141	H14	0.823800	0.940000	0.697800
H151	H15	0.699600	0.151400	0.607100
H161	H16	0.748200	0.070500	0.552200
H171	H17	0.988300	0.405300	0.723600
H181	H18	0.676200	0.440000	0.697800
H191	H19	0.800400	0.651400	0.607100
H201	H20	0.751800	0.570500	0.552200
H211	H21	0.511700	0.594700	0.223600
H221	H22	0.823800	0.560000	0.197800
H231	H23	0.699600	0.348600	0.107100
H241	H24	0.748200	0.429500	0.052200
H251	H25	0.011700	0.905300	0.776400
H261	H26	0.323800	0.940000	0.802200
H271	H27	0.199600	0.151400	0.892900
H281	H28	0.248200	0.070500	0.947800
H291	H29	0.488300	0.094700	0.276400
H301	H30	0.176200	0.060000	0.302200
H311	H31	0.300400	0.848600	0.392900
H321	H32	0.251800	0.929500	0.447800
C11	C1	0.079200	0.569600	0.292000
C21	C2	0.248000	0.552300	0.305200
C31	C3	0.245100	0.407100	0.394900
C41	C4	0.358400	0.383700	0.366930
C51	C5	0.491100	0.330300	0.296120
C61	C6	0.535600	0.274600	0.229600
C71	C7	0.535200	0.385400	0.356120
C81	C8	0.647600	0.419300	0.377200
C91	C9	0.420800	0.430400	0.792000
C101	C10	0.252000	0.447700	0.805200
C111	C11	0.254900	0.592900	0.894900
C121	C12	0.141600	0.616300	0.866930
C131	C13	0.008900	0.669700	0.796120
C141	C14	0.964400	0.725400	0.729600
C151	C15	0.964800	0.614600	0.856120
C161	C16	0.852400	0.580700	0.877200
C171	C17	0.920800	0.069600	0.208000
C181	C18	0.752000	0.052300	0.194800
C191	C19	0.754900	0.907100	0.105100
C201	C20	0.641600	0.883700	0.133070
C211	C21	0.508900	0.830300	0.203880
C221	C22	0.464400	0.774600	0.270400
C231	C23	0.464800	0.885400	0.143880
C241	C24	0.352400	0.919300	0.122800
C251	C25	0.579200	0.930400	0.708000
C261	C26	0.748000	0.947700	0.694800
C271	C27	0.745100	0.092900	0.605100
C281	C28	0.858400	0.116300	0.633070
C291	C29	0.991100	0.169700	0.703880
C301	C30	0.035600	0.225400	0.770400
C311	C31	0.035200	0.114600	0.643880
C321	C32	0.147600	0.080700	0.622800
C331	C33	0.920800	0.430400	0.708000
C341	C34	0.752000	0.447700	0.694800
C351	C35	0.754900	0.592900	0.605100
C361	C36	0.641600	0.616300	0.633070
C371	C37	0.508900	0.669700	0.703880
C381	C38	0.464400	0.725400	0.770400
C391	C39	0.464800	0.614600	0.643880
C401	C40	0.352400	0.580700	0.622800
C411	C41	0.579200	0.569600	0.208000
C421	C42	0.748000	0.552300	0.194800
C431	C43	0.745100	0.407100	0.105100
C441	C44	0.858400	0.383700	0.133070
C451	C45	0.991100	0.330300	0.203880
C461	C46	0.035600	0.274600	0.270400
C471	C47	0.035200	0.385400	0.143880
C481	C48	0.147600	0.419300	0.122800
C491	C49	0.079200	0.930400	0.792000
C501	C50	0.248000	0.947700	0.805200
C511	C51	0.245100	0.092900	0.894900
C521	C52	0.358400	0.116300	0.866930
C531	C53	0.491100	0.169700	0.796120
C541	C54	0.535600	0.225400	0.729600
C551	C55	0.535200	0.114600	0.856120
C561	C56	0.647600	0.080700	0.877200
C571	C57	0.420800	0.069600	0.292000
C581	C58	0.252000	0.052300	0.305200
C591	C59	0.254900	0.907100	0.394900
C601	C60	0.141600	0.883700	0.366930
C611	C61	0.008900	0.830300	0.296120
C621	C62	0.964400	0.774600	0.229600
C631	C63	0.964800	0.885400	0.356120
C641	C64	0.852400	0.919300	0.377200
N11	N1	0.197700	0.483900	0.346240
N21	N2	0.088200	0.493800	0.338000
N31	N3	0.175900	0.608200	0.269100
N41	N4	0.378300	0.331100	0.303570
N51	N5	0.449300	0.418800	0.399920
N61	N6	0.302300	0.516100	0.846240
N71	N7	0.411800	0.506200	0.838000
N81	N8	0.324100	0.391800	0.769100
N91	N9	0.121700	0.668900	0.803570
N101	N10	0.050700	0.581200	0.899920
N111	N11	0.802300	0.983900	0.153760
N121	N12	0.911800	0.993800	0.162000
N131	N13	0.824100	0.108200	0.230900
N141	N14	0.621700	0.831100	0.196430
N151	N15	0.550700	0.918800	0.100080
N161	N16	0.697700	0.016100	0.653760
N171	N17	0.588200	0.006200	0.662000
N181	N18	0.675900	0.891800	0.730900
N191	N19	0.878300	0.168900	0.696430
N201	N20	0.949300	0.081200	0.600080
N211	N21	0.802300	0.516100	0.653760
N221	N22	0.911800	0.506200	0.662000
N231	N23	0.824100	0.391800	0.730900
N241	N24	0.621700	0.668900	0.696430
N251	N25	0.550700	0.581200	0.600080
N261	N26	0.697700	0.483900	0.153760
N271	N27	0.588200	0.493800	0.162000
N281	N28	0.675900	0.608200	0.230900
N291	N29	0.878300	0.331100	0.196430
N301	N30	0.949300	0.418800	0.100080
N311	N31	0.197700	0.016100	0.846240
N321	N32	0.088200	0.006200	0.838000
N331	N33	0.175900	0.891800	0.769100
N341	N34	0.378300	0.168900	0.803570
N351	N35	0.449300	0.081200	0.899920
N361	N36	0.302300	0.983900	0.346240
N371	N37	0.411800	0.993800	0.338000
N381	N38	0.324100	0.108200	0.269100
N391	N39	0.121700	0.831100	0.303570
N401	N40	0.050700	0.918800	0.399920
O11	O1	0.466300	0.248890	0.179130
O21	O2	0.635400	0.251830	0.226240
O31	O3	0.651600	0.484730	0.429440
O41	O4	0.732200	0.386400	0.345520
O51	O5	0.033700	0.751110	0.679130
O61	O6	0.864600	0.748170	0.726240
O71	O7	0.848400	0.515270	0.929440
O81	O8	0.767800	0.613600	0.845520
O91	O9	0.533700	0.748890	0.320870
O101	O10	0.364600	0.751830	0.273760
O111	O11	0.348400	0.984730	0.070560
O121	O12	0.267800	0.886400	0.154480
O131	O13	0.966300	0.251110	0.820870
O141	O14	0.135400	0.248170	0.773760
O151	O15	0.151600	0.015270	0.570560
O161	O16	0.232200	0.113600	0.654480
O171	O17	0.533700	0.751110	0.820870
O181	O18	0.364600	0.748170	0.773760
O191	O19	0.348400	0.515270	0.570560
O201	O20	0.267800	0.613600	0.654480
O211	O21	0.966300	0.248890	0.320870
O221	O22	0.135400	0.251830	0.273760
O231	O23	0.151600	0.484730	0.070560
O241	O24	0.232200	0.386400	0.154480
O251	O25	0.466300	0.251110	0.679130
O261	O26	0.635400	0.248170	0.726240
O271	O27	0.651600	0.015270	0.929440
O281	O28	0.732200	0.113600	0.845520
O291	O29	0.033700	0.748890	0.179130
O301	O30	0.864600	0.751830	0.226240
O311	O31	0.848400	0.984730	0.429440
O321	O32	0.767800	0.886400	0.345520
