data_DEBGIA_clean_PM
_symmetry_space_group_name_H-M	'P1'
_cell_length_a	10.101000
_cell_length_b	15.679000
_cell_length_c	19.160000
_cell_angle_alpha	96.410000
_cell_angle_beta	90.000000
_cell_angle_gamma	90.000000
_symmetry_Int_Tables_number 1

loop_
_symmetry_equiv_pos_as_xyz
'x,y,z'

loop_
_atom_site_label
_atom_site_type_symbol
_atom_site_fract_x
_atom_site_fract_y
_atom_site_fract_z
Zn11	Zn1	0.770830	0.827800	0.292730
Zn21	Zn2	0.302650	0.929740	0.473410
Zn31	Zn3	0.270830	0.672200	0.207270
Zn41	Zn4	0.802650	0.570260	0.026590
Zn51	Zn5	0.229170	0.172200	0.707270
Zn61	Zn6	0.697350	0.070260	0.526590
Zn71	Zn7	0.729170	0.327800	0.792730
Zn81	Zn8	0.197350	0.429740	0.973410
H11	H1	0.359000	0.483500	0.167800
H21	H2	0.385100	0.359000	0.216000
H31	H3	0.265100	0.490500	0.408700
H41	H4	0.249200	0.616000	0.359900
H51	H5	0.341400	0.355100	0.758500
H61	H6	0.404000	0.477700	0.707400
H71	H7	0.249300	0.362600	0.509200
H81	H8	0.211800	0.243100	0.558900
H91	H9	0.376800	0.124200	0.503800
H101	H10	0.398500	0.242400	0.449900
H111	H11	0.188900	0.117200	0.276300
H121	H12	0.181000	0.996100	0.332500
H131	H13	0.290900	0.860400	0.617400
H141	H14	0.322400	0.737600	0.669300
H151	H15	0.401000	0.613600	0.474500
H161	H16	0.379200	0.737000	0.426000
H171	H17	0.859000	0.016500	0.332200
H181	H18	0.885100	0.141000	0.284000
H191	H19	0.765100	0.009500	0.091300
H201	H20	0.749200	0.884000	0.140100
H211	H21	0.841400	0.144900	0.741500
H221	H22	0.904000	0.022300	0.792600
H231	H23	0.749300	0.137400	0.990800
H241	H24	0.711800	0.256900	0.941100
H251	H25	0.876800	0.375800	0.996200
H261	H26	0.898500	0.257600	0.050100
H271	H27	0.688900	0.382800	0.223700
H281	H28	0.681000	0.503900	0.167500
H291	H29	0.790900	0.639600	0.882600
H301	H30	0.822400	0.762400	0.830700
H311	H31	0.901000	0.886400	0.025500
H321	H32	0.879200	0.763000	0.074000
H331	H33	0.641000	0.516500	0.832200
H341	H34	0.614900	0.641000	0.784000
H351	H35	0.734900	0.509500	0.591300
H361	H36	0.750800	0.384000	0.640100
H371	H37	0.658600	0.644900	0.241500
H381	H38	0.596000	0.522300	0.292600
H391	H39	0.750700	0.637400	0.490800
H401	H40	0.788200	0.756900	0.441100
H411	H41	0.623200	0.875800	0.496200
H421	H42	0.601500	0.757600	0.550100
H431	H43	0.811100	0.882800	0.723700
H441	H44	0.819000	0.003900	0.667500
H451	H45	0.709100	0.139600	0.382600
H461	H46	0.677600	0.262400	0.330700
H471	H47	0.599000	0.386400	0.525500
H481	H48	0.620800	0.263000	0.574000
H491	H49	0.141000	0.983500	0.667800
H501	H50	0.114900	0.859000	0.716000
H511	H51	0.234900	0.990500	0.908700
H521	H52	0.250800	0.116000	0.859900
H531	H53	0.158600	0.855100	0.258500
H541	H54	0.096000	0.977700	0.207400
H551	H55	0.250700	0.862600	0.009200
H561	H56	0.288200	0.743100	0.058900
H571	H57	0.123200	0.624200	0.003800
H581	H58	0.101500	0.742400	0.949900
H591	H59	0.311100	0.617200	0.776300
H601	H60	0.319000	0.496100	0.832500
H611	H61	0.209100	0.360400	0.117400
H621	H62	0.177600	0.237600	0.169300
H631	H63	0.099000	0.113600	0.974500
H641	H64	0.120800	0.237000	0.926000
C11	C1	0.345300	0.487300	0.222300
C21	C2	0.353700	0.410000	0.250900
C31	C3	0.323900	0.410400	0.321500
C41	C4	0.293100	0.487200	0.362300
C51	C5	0.284800	0.561200	0.329200
C61	C6	0.334600	0.355600	0.701300
C71	C7	0.359700	0.432100	0.674900
C81	C8	0.330100	0.437600	0.604800
C91	C9	0.282400	0.366800	0.563000
C101	C10	0.257800	0.292200	0.593300
C111	C11	0.330700	0.119200	0.455100
C121	C12	0.339200	0.194000	0.423500
C131	C13	0.286700	0.194000	0.356700
C141	C14	0.227900	0.120300	0.323900
C151	C15	0.224100	0.048300	0.359600
C161	C16	0.323400	0.809200	0.589600
C171	C17	0.337600	0.734300	0.621500
C181	C18	0.358500	0.658500	0.578700
C191	C19	0.373000	0.659700	0.506800
C201	C20	0.357400	0.737000	0.479500
C211	C21	0.845300	0.012700	0.277700
C221	C22	0.853700	0.090000	0.249100
C231	C23	0.823900	0.089600	0.178500
C241	C24	0.793100	0.012800	0.137700
C251	C25	0.784800	0.938800	0.170800
C261	C26	0.834600	0.144400	0.798700
C271	C27	0.859700	0.067900	0.825100
C281	C28	0.830100	0.062400	0.895200
C291	C29	0.782400	0.133200	0.937000
C301	C30	0.757800	0.207800	0.906700
C311	C31	0.830700	0.380800	0.044900
C321	C32	0.839200	0.306000	0.076500
C331	C33	0.786700	0.306000	0.143300
C341	C34	0.727900	0.379700	0.176100
C351	C35	0.724100	0.451700	0.140400
C361	C36	0.823400	0.690800	0.910400
C371	C37	0.837600	0.765700	0.878500
C381	C38	0.858500	0.841500	0.921300
C391	C39	0.873000	0.840300	0.993200
C401	C40	0.857400	0.763000	0.020500
C411	C41	0.654700	0.512700	0.777700
C421	C42	0.646300	0.590000	0.749100
C431	C43	0.676100	0.589600	0.678500
C441	C44	0.706900	0.512800	0.637700
C451	C45	0.715200	0.438800	0.670800
C461	C46	0.665400	0.644400	0.298700
C471	C47	0.640300	0.567900	0.325100
C481	C48	0.669900	0.562400	0.395200
C491	C49	0.717600	0.633200	0.437000
C501	C50	0.742200	0.707800	0.406700
C511	C51	0.669300	0.880800	0.544900
C521	C52	0.660800	0.806000	0.576500
C531	C53	0.713300	0.806000	0.643300
C541	C54	0.772100	0.879700	0.676100
C551	C55	0.775900	0.951700	0.640400
C561	C56	0.676600	0.190800	0.410400
C571	C57	0.662400	0.265700	0.378500
C581	C58	0.641500	0.341500	0.421300
C591	C59	0.627000	0.340300	0.493200
C601	C60	0.642600	0.263000	0.520500
C611	C61	0.154700	0.987300	0.722300
C621	C62	0.146300	0.910000	0.750900
C631	C63	0.176100	0.910400	0.821500
C641	C64	0.206900	0.987200	0.862300
C651	C65	0.215200	0.061200	0.829200
C661	C66	0.165400	0.855600	0.201300
C671	C67	0.140300	0.932100	0.174900
C681	C68	0.169900	0.937600	0.104800
C691	C69	0.217600	0.866800	0.063000
C701	C70	0.242200	0.792200	0.093300
C711	C71	0.169300	0.619200	0.955100
C721	C72	0.160800	0.694000	0.923500
C731	C73	0.213300	0.694000	0.856700
C741	C74	0.272100	0.620300	0.823900
C751	C75	0.275900	0.548300	0.859600
C761	C76	0.176600	0.309200	0.089600
C771	C77	0.162400	0.234300	0.121500
C781	C78	0.141500	0.158500	0.078700
C791	C79	0.127000	0.159700	0.006800
C801	C80	0.142600	0.237000	0.979500
S11	S1	0.563590	0.951030	0.384350
S21	S2	0.063590	0.548970	0.115650
S31	S3	0.436410	0.048970	0.615650
S41	S4	0.936410	0.451030	0.884350
N11	N1	0.310500	0.561100	0.260600
N21	N2	0.320300	0.334900	0.358000
N31	N3	0.282200	0.286900	0.662100
N41	N4	0.343200	0.514900	0.570900
N51	N5	0.273900	0.047100	0.423900
N61	N6	0.290600	0.268100	0.318600
N71	N7	0.329800	0.810300	0.520200
N81	N8	0.358500	0.581200	0.613100
N91	N9	0.810500	0.938900	0.239400
N101	N10	0.820300	0.165100	0.142000
N111	N11	0.782200	0.213100	0.837900
N121	N12	0.843200	0.985100	0.929100
N131	N13	0.773900	0.452900	0.076100
N141	N14	0.790600	0.231900	0.181400
N151	N15	0.829800	0.689700	0.979800
N161	N16	0.858500	0.918800	0.886900
N171	N17	0.689500	0.438900	0.739400
N181	N18	0.679700	0.665100	0.642000
N191	N19	0.717800	0.713100	0.337900
N201	N20	0.656800	0.485100	0.429100
N211	N21	0.726100	0.952900	0.576100
N221	N22	0.709400	0.731900	0.681400
N231	N23	0.670200	0.189700	0.479800
N241	N24	0.641500	0.418800	0.386900
N251	N25	0.189500	0.061100	0.760600
N261	N26	0.179700	0.834900	0.858000
N271	N27	0.217800	0.786900	0.162100
N281	N28	0.156800	0.014900	0.070900
N291	N29	0.226100	0.547100	0.923900
N301	N30	0.209400	0.768100	0.818600
N311	N31	0.170200	0.310300	0.020200
N321	N32	0.141500	0.081200	0.113100
O11	O1	0.688900	0.901000	0.377500
O21	O2	0.457800	0.893400	0.405200
O31	O3	0.580500	0.022000	0.440500
O41	O4	0.529600	0.983000	0.317800
O51	O5	0.188900	0.599000	0.122500
O61	O6	0.957800	0.606600	0.094800
O71	O7	0.080500	0.478000	0.059500
O81	O8	0.029600	0.517000	0.182200
O91	O9	0.311100	0.099000	0.622500
O101	O10	0.542200	0.106600	0.594800
O111	O11	0.419500	0.978000	0.559500
O121	O12	0.470400	0.017000	0.682200
O131	O13	0.811100	0.401000	0.877500
O141	O14	0.042200	0.393400	0.905200
O151	O15	0.919500	0.522000	0.940500
O161	O16	0.970400	0.483000	0.817800
