data_DEFRIR_clean_PM
_symmetry_space_group_name_H-M	'P1'
_cell_length_a	10.538200
_cell_length_b	17.668000
_cell_length_c	20.005000
_cell_angle_alpha	90.000000
_cell_angle_beta	90.000000
_cell_angle_gamma	91.205000
_symmetry_Int_Tables_number 1

loop_
_symmetry_equiv_pos_as_xyz
'x,y,z'

loop_
_atom_site_label
_atom_site_type_symbol
_atom_site_fract_x
_atom_site_fract_y
_atom_site_fract_z
Gd11	Gd1	0.177900	0.500130	0.265570
Gd21	Gd2	0.253830	0.991950	0.518100
Gd31	Gd3	0.322100	0.499870	0.765570
Gd41	Gd4	0.246170	0.008050	0.018100
Gd51	Gd5	0.822100	0.499870	0.734430
Gd61	Gd6	0.746170	0.008050	0.481900
Gd71	Gd7	0.677900	0.500130	0.234430
Gd81	Gd8	0.753830	0.991950	0.981900
H11	H1	0.132500	0.687200	0.327900
H21	H2	0.167300	0.798300	0.389300
H31	H3	0.789000	0.827600	0.401900
H41	H4	0.753000	0.714900	0.342800
H51	H5	0.639700	0.301500	0.326100
H61	H6	0.271600	0.321900	0.379400
H71	H7	0.286200	0.214800	0.446700
H81	H8	0.656500	0.196000	0.395900
H91	H9	0.367500	0.312800	0.827900
H101	H10	0.332700	0.201700	0.889300
H111	H11	0.711000	0.172400	0.901900
H121	H12	0.747000	0.285100	0.842800
H131	H13	0.860300	0.698500	0.826100
H141	H14	0.228400	0.678100	0.879400
H151	H15	0.213800	0.785200	0.946700
H161	H16	0.843500	0.804000	0.895900
H171	H17	0.867500	0.312800	0.672100
H181	H18	0.832700	0.201700	0.610700
H191	H19	0.211000	0.172400	0.598100
H201	H20	0.247000	0.285100	0.657200
H211	H21	0.360300	0.698500	0.673900
H221	H22	0.728400	0.678100	0.620600
H231	H23	0.713800	0.785200	0.553300
H241	H24	0.343500	0.804000	0.604100
H251	H25	0.632500	0.687200	0.172100
H261	H26	0.667300	0.798300	0.110700
H271	H27	0.289000	0.827600	0.098100
H281	H28	0.253000	0.714900	0.157200
H291	H29	0.139700	0.301500	0.173900
H301	H30	0.771600	0.321900	0.120600
H311	H31	0.786200	0.214800	0.053300
H321	H32	0.156500	0.196000	0.104100
C11	C1	0.916200	0.615400	0.295300
C21	C2	0.939300	0.689800	0.330500
C31	C3	0.062400	0.715100	0.343700
C41	C4	0.083100	0.781200	0.380100
C51	C5	0.980600	0.822600	0.403200
C61	C6	0.859000	0.798400	0.387900
C71	C7	0.837300	0.731700	0.352200
C81	C8	0.005800	0.893100	0.444000
C91	C9	0.440500	0.386100	0.296400
C101	C10	0.567600	0.283600	0.350300
C111	C11	0.349100	0.295500	0.381500
C121	C12	0.479300	0.123400	0.468500
C131	C13	0.358300	0.232200	0.422100
C141	C14	0.452800	0.320700	0.343900
C151	C15	0.577800	0.220800	0.391700
C161	C16	0.471000	0.194300	0.427300
C171	C17	0.583800	0.384600	0.795300
C181	C18	0.560700	0.310200	0.830500
C191	C19	0.437600	0.284900	0.843700
C201	C20	0.416900	0.218800	0.880100
C211	C21	0.519400	0.177400	0.903200
C221	C22	0.641000	0.201600	0.887900
C231	C23	0.662700	0.268300	0.852200
C241	C24	0.494200	0.106900	0.944000
C251	C25	0.059500	0.613900	0.796400
C261	C26	0.932400	0.716400	0.850300
C271	C27	0.150900	0.704500	0.881500
C281	C28	0.020700	0.876600	0.968500
C291	C29	0.141700	0.767800	0.922100
C301	C30	0.047200	0.679300	0.843900
C311	C31	0.922200	0.779200	0.891700
C321	C32	0.029000	0.805700	0.927300
C331	C33	0.083800	0.384600	0.704700
C341	C34	0.060700	0.310200	0.669500
C351	C35	0.937600	0.284900	0.656300
C361	C36	0.916900	0.218800	0.619900
C371	C37	0.019400	0.177400	0.596800
C381	C38	0.141000	0.201600	0.612100
C391	C39	0.162700	0.268300	0.647800
C401	C40	0.994200	0.106900	0.556000
C411	C41	0.559500	0.613900	0.703600
C421	C42	0.432400	0.716400	0.649700
C431	C43	0.650900	0.704500	0.618500
C441	C44	0.520700	0.876600	0.531500
C451	C45	0.641700	0.767800	0.577900
C461	C46	0.547200	0.679300	0.656100
C471	C47	0.422200	0.779200	0.608300
C481	C48	0.529000	0.805700	0.572700
C491	C49	0.416200	0.615400	0.204700
C501	C50	0.439300	0.689800	0.169500
C511	C51	0.562400	0.715100	0.156300
C521	C52	0.583100	0.781200	0.119900
C531	C53	0.480600	0.822600	0.096800
C541	C54	0.359000	0.798400	0.112100
C551	C55	0.337300	0.731700	0.147800
C561	C56	0.505800	0.893100	0.056000
C571	C57	0.940500	0.386100	0.203600
C581	C58	0.067600	0.283600	0.149700
C591	C59	0.849100	0.295500	0.118500
C601	C60	0.979300	0.123400	0.031500
C611	C61	0.858300	0.232200	0.077900
C621	C62	0.952800	0.320700	0.156100
C631	C63	0.077800	0.220800	0.108300
C641	C64	0.971000	0.194300	0.072700
N11	N1	0.187400	0.475400	0.120800
N21	N2	0.262100	0.024900	0.374900
N31	N3	0.312600	0.524600	0.620800
N41	N4	0.237900	0.975100	0.874900
N51	N5	0.812600	0.524600	0.879200
N61	N6	0.737900	0.975100	0.625100
N71	N7	0.687400	0.475400	0.379200
N81	N8	0.762100	0.024900	0.125100
O11	O1	0.010600	0.580010	0.275340
O21	O2	0.102900	0.515700	0.145580
O31	O3	0.258700	0.441130	0.161610
O41	O4	0.533600	0.400360	0.257810
O51	O5	0.339300	0.421020	0.297150
O61	O6	0.803300	0.593810	0.288630
O71	O7	0.115300	0.903160	0.466990
O81	O8	0.178500	0.051800	0.411810
O91	O9	0.337000	0.978000	0.401520
O101	O10	0.380300	0.100020	0.496610
O111	O11	0.584100	0.091380	0.471170
O121	O12	0.915800	0.936440	0.452710
O131	O13	0.203100	0.469900	0.060100
O141	O14	0.270500	0.041700	0.316300
O151	O15	0.489400	0.419990	0.775340
O161	O16	0.397100	0.484300	0.645580
O171	O17	0.241300	0.558870	0.661610
O181	O18	0.966400	0.599640	0.757810
O191	O19	0.160700	0.578980	0.797150
O201	O20	0.696700	0.406190	0.788630
O211	O21	0.384700	0.096840	0.966990
O221	O22	0.321500	0.948200	0.911810
O231	O23	0.163000	0.022000	0.901520
O241	O24	0.119700	0.899980	0.996610
O251	O25	0.915900	0.908620	0.971170
O261	O26	0.584200	0.063560	0.952710
O271	O27	0.296900	0.530100	0.560100
O281	O28	0.229500	0.958300	0.816300
O291	O29	0.989400	0.419990	0.724660
O301	O30	0.897100	0.484300	0.854420
O311	O31	0.741300	0.558870	0.838390
O321	O32	0.466400	0.599640	0.742190
O331	O33	0.660700	0.578980	0.702850
O341	O34	0.196700	0.406190	0.711370
O351	O35	0.884700	0.096840	0.533010
O361	O36	0.821500	0.948200	0.588190
O371	O37	0.663000	0.022000	0.598480
O381	O38	0.619700	0.899980	0.503390
O391	O39	0.415900	0.908620	0.528830
O401	O40	0.084200	0.063560	0.547290
O411	O41	0.796900	0.530100	0.939900
O421	O42	0.729500	0.958300	0.683700
O431	O43	0.510600	0.580010	0.224660
O441	O44	0.602900	0.515700	0.354420
O451	O45	0.758700	0.441130	0.338390
O461	O46	0.033600	0.400360	0.242190
O471	O47	0.839300	0.421020	0.202850
O481	O48	0.303300	0.593810	0.211370
O491	O49	0.615300	0.903160	0.033010
O501	O50	0.678500	0.051800	0.088190
O511	O51	0.837000	0.978000	0.098480
O521	O52	0.880300	0.100020	0.003390
O531	O53	0.084100	0.091380	0.028830
O541	O54	0.415800	0.936440	0.047290
O551	O55	0.703100	0.469900	0.439900
O561	O56	0.770500	0.041700	0.183700
