data_DEHFUR_clean_PM
_symmetry_space_group_name_H-M	'P1'
_cell_length_a	11.441000
_cell_length_b	11.441000
_cell_length_c	46.830000
_cell_angle_alpha	90.000000
_cell_angle_beta	90.000000
_cell_angle_gamma	120.000000
_symmetry_Int_Tables_number 1

loop_
_symmetry_equiv_pos_as_xyz
'x,y,z'

loop_
_atom_site_label
_atom_site_type_symbol
_atom_site_fract_x
_atom_site_fract_y
_atom_site_fract_z
Zn11	Zn1	0.981400	0.995600	0.000000
Zn21	Zn2	0.323200	0.674700	0.912900
P11	P1	0.979400	0.994400	0.051900
P21	P2	0.319200	0.661500	0.964200
C11	C1	0.149500	0.080900	0.068300
C21	C2	0.245900	0.040900	0.054400
C31	C3	0.379500	0.109800	0.070300
O11	O1	0.469500	0.228200	0.061800
O21	O2	0.401200	0.050400	0.090600
C41	C4	0.899200	0.825900	0.069300
C51	C5	0.768400	0.722100	0.053100
C61	C6	0.704500	0.588300	0.067900
O31	O3	0.728100	0.497200	0.059000
O41	O4	0.632000	0.570800	0.089200
C71	C7	0.890600	0.075400	0.068200
C81	C8	0.940400	0.216500	0.054800
C91	C9	0.861300	0.280000	0.068300
O51	O5	0.734400	0.225800	0.064200
O61	O6	0.925500	0.384900	0.082900
C101	C10	0.275600	0.498000	0.980000
C111	C11	0.132800	0.387800	0.974900
C121	C12	0.100100	0.255600	0.988100
O71	O7	0.988700	0.151300	0.980200
O81	O8	0.173700	0.248000	0.005600
C131	C13	0.201600	0.698500	0.983000
C141	C14	0.231100	0.845100	0.977500
C151	C15	0.129500	0.873200	0.991200
O91	O9	0.130900	0.979000	0.982400
O101	O10	0.041500	0.791300	0.007900
C161	C16	0.475400	0.776500	0.981500
C171	C17	0.586300	0.745800	0.974100
C181	C18	0.721300	0.846500	0.988400
O111	O11	0.826400	0.847100	0.979800
O121	O12	0.725100	0.922700	0.007600
Zn31	Zn3	0.004400	0.985800	0.333330
Zn41	Zn4	0.325300	0.648500	0.246230
P31	P3	0.005600	0.985000	0.385230
P41	P4	0.338500	0.657700	0.297530
C191	C19	0.919100	0.068600	0.401630
C201	C20	0.959100	0.205000	0.387730
C211	C21	0.890200	0.269700	0.403630
O131	O13	0.771800	0.241300	0.395130
O141	O14	0.949600	0.350800	0.423930
C221	C22	0.174100	0.073300	0.402630
C231	C23	0.277900	0.046300	0.386430
C241	C24	0.411700	0.116200	0.401230
O151	O15	0.502800	0.230900	0.392330
O161	O16	0.429200	0.061200	0.422530
C251	C25	0.924600	0.815200	0.401530
C261	C26	0.783500	0.723900	0.388130
C271	C27	0.720000	0.581300	0.401630
O171	O17	0.774200	0.508600	0.397530
O181	O18	0.615100	0.540600	0.416230
C281	C28	0.502000	0.777600	0.313330
C291	C29	0.612200	0.745000	0.308230
C301	C30	0.744400	0.844500	0.321430
O191	O19	0.848700	0.837400	0.313530
O201	O20	0.752000	0.925700	0.338930
C311	C31	0.301500	0.503100	0.316330
C321	C32	0.154900	0.386000	0.310830
C331	C33	0.126800	0.256300	0.324530
O211	O21	0.021000	0.151900	0.315730
O221	O22	0.208700	0.250200	0.341230
C341	C34	0.223500	0.698900	0.314830
C351	C35	0.254200	0.840500	0.307430
C361	C36	0.153500	0.874800	0.321730
O231	O23	0.152900	0.979300	0.313130
O241	O24	0.077300	0.802400	0.340930
Zn51	Zn5	0.014200	0.018600	0.666670
Zn61	Zn6	0.351500	0.676800	0.579570
P51	P5	0.015000	0.020600	0.718570
P61	P6	0.342300	0.680800	0.630870
C371	C37	0.931400	0.850500	0.734970
C381	C38	0.795000	0.754100	0.721070
C391	C39	0.730300	0.620500	0.736970
O251	O25	0.758700	0.530500	0.728470
O261	O26	0.649200	0.598800	0.757270
C401	C40	0.926700	0.100800	0.735970
C411	C41	0.953700	0.231600	0.719770
C421	C42	0.883800	0.295500	0.734570
O271	O27	0.769100	0.271900	0.725670
O281	O28	0.938800	0.368000	0.755870
C431	C43	0.184800	0.109400	0.734870
C441	C44	0.276100	0.059600	0.721470
C451	C45	0.418700	0.138700	0.734970
O291	O29	0.491400	0.265600	0.730870
O301	O30	0.459400	0.074500	0.749570
C461	C46	0.222400	0.724400	0.646670
C471	C47	0.255000	0.867200	0.641570
C481	C48	0.155500	0.899900	0.654770
O311	O31	0.162600	0.011300	0.646870
O321	O32	0.074300	0.826300	0.672270
C491	C49	0.496900	0.798400	0.649670
C501	C50	0.614000	0.768900	0.644170
C511	C51	0.743700	0.870500	0.657870
O331	O33	0.848100	0.869100	0.649070
O341	O34	0.749800	0.958500	0.674570
C521	C52	0.301100	0.524600	0.648170
C531	C53	0.159500	0.413700	0.640770
C541	C54	0.125200	0.278700	0.655070
O351	O35	0.020700	0.173600	0.646470
O361	O36	0.197600	0.274900	0.674270
Zn71	Zn7	0.018600	0.004400	0.500000
Zn81	Zn8	0.676800	0.325300	0.412900
P71	P7	0.020600	0.005600	0.551900
P81	P8	0.680800	0.338500	0.464200
C551	C55	0.850500	0.919100	0.568300
C561	C56	0.754100	0.959100	0.554400
C571	C57	0.620500	0.890200	0.570300
O371	O37	0.530500	0.771800	0.561800
O381	O38	0.598800	0.949600	0.590600
C581	C58	0.100800	0.174100	0.569300
C591	C59	0.231600	0.277900	0.553100
C601	C60	0.295500	0.411700	0.567900
O391	O39	0.271900	0.502800	0.559000
O401	O40	0.368000	0.429200	0.589200
C611	C61	0.109400	0.924600	0.568200
C621	C62	0.059600	0.783500	0.554800
C631	C63	0.138700	0.720000	0.568300
O411	O41	0.265600	0.774200	0.564200
O421	O42	0.074500	0.615100	0.582900
C641	C64	0.724400	0.502000	0.480000
C651	C65	0.867200	0.612200	0.474900
C661	C66	0.899900	0.744400	0.488100
O431	O43	0.011300	0.848700	0.480200
O441	O44	0.826300	0.752000	0.505600
C671	C67	0.798400	0.301500	0.483000
C681	C68	0.768900	0.154900	0.477500
C691	C69	0.870500	0.126800	0.491200
O451	O45	0.869100	0.021000	0.482400
O461	O46	0.958500	0.208700	0.507900
C701	C70	0.524600	0.223500	0.481500
C711	C71	0.413700	0.254200	0.474100
C721	C72	0.278700	0.153500	0.488400
O471	O47	0.173600	0.152900	0.479800
O481	O48	0.274900	0.077300	0.507600
Zn91	Zn9	0.995600	0.014200	0.833330
Zn101	Zn10	0.674700	0.351500	0.746230
P91	P9	0.994400	0.015000	0.885230
P101	P10	0.661500	0.342300	0.797530
C731	C73	0.080900	0.931400	0.901630
C741	C74	0.040900	0.795000	0.887730
C751	C75	0.109800	0.730300	0.903630
O491	O49	0.228200	0.758700	0.895130
O501	O50	0.050400	0.649200	0.923930
C761	C76	0.825900	0.926700	0.902630
C771	C77	0.722100	0.953700	0.886430
C781	C78	0.588300	0.883800	0.901230
O511	O51	0.497200	0.769100	0.892330
O521	O52	0.570800	0.938800	0.922530
C791	C79	0.075400	0.184800	0.901530
C801	C80	0.216500	0.276100	0.888130
C811	C81	0.280000	0.418700	0.901630
O531	O53	0.225800	0.491400	0.897530
O541	O54	0.384900	0.459400	0.916230
C821	C82	0.498000	0.222400	0.813330
C831	C83	0.387800	0.255000	0.808230
C841	C84	0.255600	0.155500	0.821430
O551	O55	0.151300	0.162600	0.813530
O561	O56	0.248000	0.074300	0.838930
C851	C85	0.698500	0.496900	0.816330
C861	C86	0.845100	0.614000	0.810830
C871	C87	0.873200	0.743700	0.824530
O571	O57	0.979000	0.848100	0.815730
O581	O58	0.791300	0.749800	0.841230
C881	C88	0.776500	0.301100	0.814830
C891	C89	0.745800	0.159500	0.807430
C901	C90	0.846500	0.125200	0.821730
O591	O59	0.847100	0.020700	0.813130
O601	O60	0.922700	0.197600	0.840930
Zn111	Zn11	0.985800	0.981400	0.166670
Zn121	Zn12	0.648500	0.323200	0.079570
P111	P11	0.985000	0.979400	0.218570
P121	P12	0.657700	0.319200	0.130870
C911	C91	0.068600	0.149500	0.234970
C921	C92	0.205000	0.245900	0.221070
C931	C93	0.269700	0.379500	0.236970
O611	O61	0.241300	0.469500	0.228470
O621	O62	0.350800	0.401200	0.257270
C941	C94	0.073300	0.899200	0.235970
C951	C95	0.046300	0.768400	0.219770
C961	C96	0.116200	0.704500	0.234570
O631	O63	0.230900	0.728100	0.225670
O641	O64	0.061200	0.632000	0.255870
C971	C97	0.815200	0.890600	0.234870
C981	C98	0.723900	0.940400	0.221470
C991	C99	0.581300	0.861300	0.234970
O651	O65	0.508600	0.734400	0.230870
O661	O66	0.540600	0.925500	0.249570
C1001	C100	0.777600	0.275600	0.146670
C1011	C101	0.745000	0.132800	0.141570
C1021	C102	0.844500	0.100100	0.154770
O671	O67	0.837400	0.988700	0.146870
O681	O68	0.925700	0.173700	0.172270
C1031	C103	0.503100	0.201600	0.149670
C1041	C104	0.386000	0.231100	0.144170
C1051	C105	0.256300	0.129500	0.157870
O691	O69	0.151900	0.130900	0.149070
O701	O70	0.250200	0.041500	0.174570
C1061	C106	0.698900	0.475400	0.148170
C1071	C107	0.840500	0.586300	0.140770
C1081	C108	0.874800	0.721300	0.155070
O711	O71	0.979300	0.826400	0.146470
O721	O72	0.802400	0.725100	0.174270
