data_DEJRUH_clean_PM
_symmetry_space_group_name_H-M	'P1'
_cell_length_a	8.378000
_cell_length_b	14.958900
_cell_length_c	17.572000
_cell_angle_alpha	90.000000
_cell_angle_beta	90.000000
_cell_angle_gamma	98.347500
_symmetry_Int_Tables_number 1

loop_
_symmetry_equiv_pos_as_xyz
'x,y,z'

loop_
_atom_site_label
_atom_site_type_symbol
_atom_site_fract_x
_atom_site_fract_y
_atom_site_fract_z
Co11	Co1	0.630130	0.275240	0.078160
Co21	Co2	0.869870	0.224760	0.578160
Co31	Co3	0.369870	0.724760	0.921840
Co41	Co4	0.130130	0.775240	0.421840
B11	B1	0.341100	0.149500	0.364100
B21	B2	0.158900	0.350500	0.864100
B31	B3	0.658900	0.850500	0.635900
B41	B4	0.841100	0.649500	0.135900
H11	H1	0.141100	0.229000	0.258100
H21	H2	0.619000	0.053800	0.340300
H31	H3	0.046000	0.080000	0.297000
H41	H4	0.254000	0.268000	0.129000
H51	H5	0.127000	0.116000	0.484000
H61	H6	0.303000	0.343000	0.380000
H71	H7	0.937000	0.920000	0.320000
H81	H8	0.852000	0.086000	0.428000
H91	H9	0.101000	0.377000	0.479000
H101	H10	0.590000	0.182000	0.248000
H111	H11	0.503000	0.234000	0.492000
H121	H12	0.354000	0.971000	0.424000
H131	H13	0.358900	0.271000	0.758100
H141	H14	0.881000	0.446200	0.840300
H151	H15	0.454000	0.420000	0.797000
H161	H16	0.246000	0.232000	0.629000
H171	H17	0.373000	0.384000	0.984000
H181	H18	0.197000	0.157000	0.880000
H191	H19	0.563000	0.580000	0.820000
H201	H20	0.648000	0.414000	0.928000
H211	H21	0.399000	0.123000	0.979000
H221	H22	0.910000	0.318000	0.748000
H231	H23	0.997000	0.266000	0.992000
H241	H24	0.146000	0.529000	0.924000
H251	H25	0.858900	0.771000	0.741900
H261	H26	0.381000	0.946200	0.659700
H271	H27	0.954000	0.920000	0.703000
H281	H28	0.746000	0.732000	0.871000
H291	H29	0.873000	0.884000	0.516000
H301	H30	0.697000	0.657000	0.620000
H311	H31	0.063000	0.080000	0.680000
H321	H32	0.148000	0.914000	0.572000
H331	H33	0.899000	0.623000	0.521000
H341	H34	0.410000	0.818000	0.752000
H351	H35	0.497000	0.766000	0.508000
H361	H36	0.646000	0.029000	0.576000
H371	H37	0.641100	0.729000	0.241900
H381	H38	0.119000	0.553800	0.159700
H391	H39	0.546000	0.580000	0.203000
H401	H40	0.754000	0.768000	0.371000
H411	H41	0.627000	0.616000	0.016000
H421	H42	0.803000	0.843000	0.120000
H431	H43	0.437000	0.420000	0.180000
H441	H44	0.352000	0.586000	0.072000
H451	H45	0.601000	0.877000	0.021000
H461	H46	0.090000	0.682000	0.252000
H471	H47	0.003000	0.734000	0.008000
H481	H48	0.854000	0.471000	0.076000
C11	C1	0.239600	0.299500	0.412700
C21	C2	0.245100	0.224100	0.241800
C31	C3	0.306800	0.246400	0.171900
C41	C4	0.494300	0.198400	0.237000
C51	C5	0.138400	0.175900	0.469800
C61	C6	0.566500	0.191700	0.465600
C71	C7	0.094600	0.034000	0.321100
C81	C8	0.033700	0.947000	0.337600
C91	C9	0.747100	0.111200	0.431200
C101	C10	0.623800	0.093100	0.381600
C111	C11	0.132800	0.318100	0.467100
C121	C12	0.261700	0.976600	0.394200
C131	C13	0.260400	0.200500	0.912700
C141	C14	0.254900	0.275900	0.741800
C151	C15	0.193200	0.253600	0.671900
C161	C16	0.005700	0.301600	0.737000
C171	C17	0.361600	0.324100	0.969800
C181	C18	0.933500	0.308300	0.965600
C191	C19	0.405400	0.466000	0.821100
C201	C20	0.466300	0.553000	0.837600
C211	C21	0.752900	0.388800	0.931200
C221	C22	0.876200	0.406900	0.881600
C231	C23	0.367200	0.181900	0.967100
C241	C24	0.238300	0.523400	0.894200
C251	C25	0.760400	0.700500	0.587300
C261	C26	0.754900	0.775900	0.758200
C271	C27	0.693200	0.753600	0.828100
C281	C28	0.505700	0.801600	0.763000
C291	C29	0.861600	0.824100	0.530200
C301	C30	0.433500	0.808300	0.534400
C311	C31	0.905400	0.966000	0.678900
C321	C32	0.966300	0.053000	0.662400
C331	C33	0.252900	0.888800	0.568800
C341	C34	0.376200	0.906900	0.618400
C351	C35	0.867200	0.681900	0.532900
C361	C36	0.738300	0.023400	0.605800
C371	C37	0.739600	0.799500	0.087300
C381	C38	0.745100	0.724100	0.258200
C391	C39	0.806800	0.746400	0.328100
C401	C40	0.994300	0.698400	0.263000
C411	C41	0.638400	0.675900	0.030200
C421	C42	0.066500	0.691700	0.034400
C431	C43	0.594600	0.534000	0.178900
C441	C44	0.533700	0.447000	0.162400
C451	C45	0.247100	0.611200	0.068800
C461	C46	0.123800	0.593100	0.118400
C471	C47	0.632800	0.818100	0.032900
C481	C48	0.761700	0.476600	0.105800
N11	N1	0.242100	0.207500	0.414000
N21	N2	0.505300	0.144100	0.403300
N31	N3	0.242200	0.053700	0.357800
N41	N4	0.465700	0.229800	0.168700
N51	N5	0.364700	0.192700	0.284700
N61	N6	0.713300	0.174300	0.484100
N71	N7	0.068800	0.238900	0.502900
N81	N8	0.139300	0.910100	0.383200
N91	N9	0.257900	0.292500	0.914000
N101	N10	0.994700	0.355900	0.903300
N111	N11	0.257800	0.446300	0.857800
N121	N12	0.034300	0.270200	0.668700
N131	N13	0.135300	0.307300	0.784700
N141	N14	0.786700	0.325700	0.984100
N151	N15	0.431200	0.261100	0.002900
N161	N16	0.360700	0.589900	0.883200
N171	N17	0.757900	0.792500	0.586000
N181	N18	0.494700	0.855900	0.596700
N191	N19	0.757800	0.946300	0.642200
N201	N20	0.534300	0.770200	0.831300
N211	N21	0.635300	0.807300	0.715300
N221	N22	0.286700	0.825700	0.515900
N231	N23	0.931200	0.761100	0.497100
N241	N24	0.860700	0.089900	0.616800
N251	N25	0.742100	0.707500	0.086000
N261	N26	0.005300	0.644100	0.096700
N271	N27	0.742200	0.553700	0.142200
N281	N28	0.965700	0.729800	0.331300
N291	N29	0.864700	0.692700	0.215300
N301	N30	0.213300	0.674300	0.015900
N311	N31	0.568800	0.738900	0.997100
N321	N32	0.639300	0.410100	0.116800
