data_DELGEI_manual_PM
_symmetry_space_group_name_H-M	'P1'
_cell_length_a	16.381600
_cell_length_b	16.381600
_cell_length_c	16.381600
_cell_angle_alpha	90.892500
_cell_angle_beta	90.892500
_cell_angle_gamma	90.892500
_symmetry_Int_Tables_number 1

loop_
_symmetry_equiv_pos_as_xyz
'x,y,z'

loop_
_atom_site_label
_atom_site_type_symbol
_atom_site_fract_x
_atom_site_fract_y
_atom_site_fract_z
Cd11	Cd1	0.500000	0.500000	0.000000
Cd21	Cd2	0.000000	0.500000	0.500000
Cd31	Cd3	0.500000	0.000000	0.500000
H11	H1	0.429160	0.330900	0.945180
H21	H2	0.425020	0.188650	0.991730
H31	H3	0.577850	0.260810	0.198190
H41	H4	0.573050	0.402910	0.150900
H51	H5	0.397580	0.996720	0.109900
H61	H6	0.945180	0.429160	0.330900
H71	H7	0.991730	0.425020	0.188650
H81	H8	0.198190	0.577850	0.260810
H91	H9	0.150900	0.573050	0.402910
H101	H10	0.109900	0.397580	0.996720
H111	H11	0.330900	0.945180	0.429160
H121	H12	0.188650	0.991730	0.425020
H131	H13	0.260810	0.198190	0.577850
H141	H14	0.402910	0.150900	0.573050
H151	H15	0.996720	0.109900	0.397580
H161	H16	0.672860	0.441970	0.062460
H171	H17	0.813040	0.435600	0.015420
H181	H18	0.737390	0.552190	0.792700
H191	H19	0.595720	0.547270	0.840970
H201	H20	0.003480	0.395740	0.888680
H211	H21	0.441970	0.062460	0.672860
H221	H22	0.435600	0.015420	0.813040
H231	H23	0.552190	0.792700	0.737390
H241	H24	0.547270	0.840960	0.595720
H251	H25	0.395740	0.888680	0.003480
H261	H26	0.062460	0.672860	0.441970
H271	H27	0.015420	0.813040	0.435600
H281	H28	0.792700	0.737390	0.552190
H291	H29	0.840960	0.595720	0.547270
H301	H30	0.888680	0.003480	0.395740
H311	H31	0.570840	0.669100	0.054820
H321	H32	0.574980	0.811350	0.008270
H331	H33	0.422150	0.739190	0.801810
H341	H34	0.426950	0.597090	0.849100
H351	H35	0.602410	0.003280	0.890100
H361	H36	0.054820	0.570840	0.669100
H371	H37	0.008270	0.574980	0.811350
H381	H38	0.801810	0.422150	0.739190
H391	H39	0.849100	0.426950	0.597090
H401	H40	0.890100	0.602420	0.003280
H411	H41	0.669100	0.054820	0.570840
H421	H42	0.811350	0.008270	0.574980
H431	H43	0.739190	0.801810	0.422150
H441	H44	0.597090	0.849100	0.426950
H451	H45	0.003280	0.890100	0.602410
H461	H46	0.327140	0.558030	0.937540
H471	H47	0.186960	0.564400	0.984580
H481	H48	0.262610	0.447810	0.207300
H491	H49	0.404280	0.452730	0.159040
H501	H50	0.996520	0.604260	0.111320
H511	H51	0.558030	0.937540	0.327140
H521	H52	0.564400	0.984580	0.186960
H531	H53	0.447810	0.207300	0.262610
H541	H54	0.452730	0.159040	0.404280
H551	H55	0.604260	0.111320	0.996520
H561	H56	0.937540	0.327140	0.558030
H571	H57	0.984580	0.186960	0.564400
H581	H58	0.207300	0.262610	0.447810
H591	H59	0.159040	0.404280	0.452730
H601	H60	0.111320	0.996520	0.604260
C11	C1	0.461570	0.315100	0.000610
C21	C2	0.459320	0.233870	0.027520
C31	C3	0.501090	0.211490	0.099700
C41	C4	0.543600	0.274180	0.143140
C51	C5	0.542650	0.355210	0.115010
C61	C6	0.442610	0.998560	0.062260
C71	C7	0.000620	0.461570	0.315100
C81	C8	0.027520	0.459320	0.233870
C91	C9	0.099700	0.501090	0.211490
C101	C10	0.143140	0.543600	0.274180
C111	C11	0.115010	0.542650	0.355210
C121	C12	0.062270	0.442620	0.998560
C131	C13	0.315100	0.000610	0.461570
C141	C14	0.233870	0.027520	0.459320
C151	C15	0.211490	0.099700	0.501090
C161	C16	0.274180	0.143140	0.543600
C171	C17	0.355210	0.115010	0.542650
C181	C18	0.998560	0.062270	0.442610
C191	C19	0.686250	0.463610	0.002350
C201	C20	0.767270	0.461270	0.975450
C211	C21	0.788950	0.493260	0.899060
C221	C22	0.724960	0.524810	0.850950
C231	C23	0.643750	0.522980	0.879020
C241	C24	0.001630	0.441650	0.936840
C251	C25	0.463610	0.002350	0.686250
C261	C26	0.461260	0.975440	0.767270
C271	C27	0.493260	0.899060	0.788940
C281	C28	0.524810	0.850950	0.724960
C291	C29	0.522970	0.879020	0.643750
C301	C30	0.441650	0.936840	0.001630
C311	C31	0.002350	0.686250	0.463610
C321	C32	0.975440	0.767270	0.461260
C331	C33	0.899050	0.788940	0.493260
C341	C34	0.850950	0.724960	0.524810
C351	C35	0.879020	0.643750	0.522980
C361	C36	0.936840	0.001630	0.441650
C371	C37	0.538430	0.684900	0.999390
C381	C38	0.540680	0.766130	0.972480
C391	C39	0.498910	0.788510	0.900300
C401	C40	0.456400	0.725820	0.856860
C411	C41	0.457350	0.644790	0.884990
C421	C42	0.557380	0.001440	0.937730
C431	C43	0.999390	0.538430	0.684900
C441	C44	0.972480	0.540680	0.766130
C451	C45	0.900300	0.498910	0.788510
C461	C46	0.856860	0.456400	0.725820
C471	C47	0.884990	0.457350	0.644790
C481	C48	0.937740	0.557380	0.001440
C491	C49	0.684900	0.999390	0.538430
C501	C50	0.766130	0.972480	0.540680
C511	C51	0.788510	0.900300	0.498910
C521	C52	0.725820	0.856860	0.456400
C531	C53	0.644790	0.884990	0.457350
C541	C54	0.001440	0.937740	0.557380
C551	C55	0.313750	0.536390	0.997650
C561	C56	0.232730	0.538730	0.024560
C571	C57	0.211060	0.506740	0.100950
C581	C58	0.275040	0.475190	0.149050
C591	C59	0.356250	0.477020	0.120980
C601	C60	0.998370	0.558350	0.063160
C611	C61	0.536380	0.997650	0.313750
C621	C62	0.538730	0.024550	0.232730
C631	C63	0.506740	0.100940	0.211060
C641	C64	0.475190	0.149050	0.275040
C651	C65	0.477020	0.120980	0.356250
C661	C66	0.558350	0.063160	0.998370
C671	C67	0.997650	0.313750	0.536390
C681	C68	0.024550	0.232730	0.538730
C691	C69	0.100940	0.211060	0.506740
C701	C70	0.149050	0.275040	0.475190
C711	C71	0.120980	0.356250	0.477020
C721	C72	0.063160	0.998370	0.558350
C731	C73	0.501100	0.062450	0.061540
C741	C74	0.061540	0.501100	0.062450
C751	C75	0.062450	0.061540	0.501100
C761	C76	0.938460	0.498900	0.937550
C771	C77	0.498900	0.937550	0.938460
C781	C78	0.937550	0.938460	0.498900
N11	N1	0.503510	0.374400	0.043690
N21	N2	0.043690	0.503510	0.374400
N31	N3	0.374400	0.043690	0.503510
N41	N4	0.625340	0.493570	0.954340
N51	N5	0.493570	0.954330	0.625340
N61	N6	0.954330	0.625340	0.493570
N71	N7	0.496490	0.625600	0.956310
N81	N8	0.956310	0.496490	0.625600
N91	N9	0.625600	0.956310	0.496490
N101	N10	0.374660	0.506430	0.045670
N111	N11	0.506430	0.045660	0.374660
N121	N12	0.045660	0.374660	0.506430
N131	N13	0.502920	0.125850	0.125100
N141	N14	0.125100	0.502920	0.125860
N151	N15	0.125850	0.125100	0.502920
N161	N16	0.874900	0.497080	0.874150
N171	N17	0.497080	0.874150	0.874900
N181	N18	0.874150	0.874900	0.497080
