data_DEPXOM_clean_PM
_symmetry_space_group_name_H-M	'P1'
_cell_length_a	11.797000
_cell_length_b	17.876000
_cell_length_c	18.848000
_cell_angle_alpha	116.350000
_cell_angle_beta	90.000000
_cell_angle_gamma	90.000000
_symmetry_Int_Tables_number 1

loop_
_symmetry_equiv_pos_as_xyz
'x,y,z'

loop_
_atom_site_label
_atom_site_type_symbol
_atom_site_fract_x
_atom_site_fract_y
_atom_site_fract_z
Mn11	Mn1	0.420800	0.785450	0.524000
Mn21	Mn2	0.175110	0.666680	0.376720
Mn31	Mn3	0.552310	0.787500	0.699290
Mn41	Mn4	0.920800	0.214550	0.976000
Mn51	Mn5	0.675110	0.333320	0.123280
Mn61	Mn6	0.052310	0.212500	0.800710
Mn71	Mn7	0.579200	0.214550	0.476000
Mn81	Mn8	0.824890	0.333320	0.623280
Mn91	Mn9	0.447690	0.212500	0.300710
Mn101	Mn10	0.079200	0.785450	0.024000
Mn111	Mn11	0.324890	0.666680	0.876720
Mn121	Mn12	0.947690	0.787500	0.199290
H11	H1	0.343300	0.672400	0.615900
H21	H2	0.451900	0.467000	0.631000
H31	H3	0.317900	0.448600	0.428000
H41	H4	0.208100	0.999600	0.741400
H51	H5	0.102600	0.972800	0.930900
H61	H6	0.305900	0.800600	0.770900
H71	H7	0.843300	0.327600	0.884100
H81	H8	0.951900	0.533000	0.869000
H91	H9	0.817900	0.551400	0.072000
H101	H10	0.708100	0.000400	0.758600
H111	H11	0.602600	0.027200	0.569100
H121	H12	0.805900	0.199400	0.729100
H131	H13	0.656700	0.327600	0.384100
H141	H14	0.548100	0.533000	0.369000
H151	H15	0.682100	0.551400	0.572000
H161	H16	0.791900	0.000400	0.258600
H171	H17	0.897400	0.027200	0.069100
H181	H18	0.694100	0.199400	0.229100
H191	H19	0.156700	0.672400	0.115900
H201	H20	0.048100	0.467000	0.131000
H211	H21	0.182100	0.448600	0.928000
H221	H22	0.291900	0.999600	0.241400
H231	H23	0.397400	0.972800	0.430900
H241	H24	0.194100	0.800600	0.270900
C11	C1	0.274300	0.606900	0.466000
C21	C2	0.322100	0.566800	0.514600
C31	C3	0.353800	0.614900	0.592900
C41	C4	0.400900	0.578000	0.637400
C51	C5	0.433100	0.631800	0.723100
C61	C6	0.419700	0.492100	0.601900
C71	C7	0.390400	0.443500	0.522800
C81	C8	0.421700	0.351600	0.479500
C91	C9	0.340000	0.481100	0.480100
C101	C10	0.316300	0.857100	0.662100
C111	C11	0.262200	0.893300	0.742100
C121	C12	0.207600	0.969500	0.770900
C131	C13	0.151900	0.001600	0.843400
C141	C14	0.102300	0.087700	0.874200
C151	C15	0.145800	0.954200	0.885000
C161	C16	0.203700	0.879300	0.858200
C171	C17	0.206000	0.827700	0.903600
C181	C18	0.264100	0.849600	0.787700
C191	C19	0.774300	0.393100	0.034000
C201	C20	0.822100	0.433200	0.985400
C211	C21	0.853800	0.385100	0.907100
C221	C22	0.900900	0.422000	0.862600
C231	C23	0.933100	0.368200	0.776900
C241	C24	0.919700	0.507900	0.898100
C251	C25	0.890400	0.556500	0.977200
C261	C26	0.921700	0.648400	0.020500
C271	C27	0.840000	0.518900	0.019900
C281	C28	0.816300	0.142900	0.837900
C291	C29	0.762200	0.106700	0.757900
C301	C30	0.707600	0.030500	0.729100
C311	C31	0.651900	0.998400	0.656600
C321	C32	0.602300	0.912300	0.625800
C331	C33	0.645800	0.045800	0.615000
C341	C34	0.703700	0.120700	0.641800
C351	C35	0.706000	0.172300	0.596400
C361	C36	0.764100	0.150400	0.712300
C371	C37	0.725700	0.393100	0.534000
C381	C38	0.677900	0.433200	0.485400
C391	C39	0.646200	0.385100	0.407100
C401	C40	0.599100	0.422000	0.362600
C411	C41	0.566900	0.368200	0.276900
C421	C42	0.580300	0.507900	0.398100
C431	C43	0.609600	0.556500	0.477200
C441	C44	0.578300	0.648400	0.520500
C451	C45	0.660000	0.518900	0.519900
C461	C46	0.683700	0.142900	0.337900
C471	C47	0.737800	0.106700	0.257900
C481	C48	0.792400	0.030500	0.229100
C491	C49	0.848100	0.998400	0.156600
C501	C50	0.897700	0.912300	0.125800
C511	C51	0.854200	0.045800	0.115000
C521	C52	0.796300	0.120700	0.141800
C531	C53	0.794000	0.172300	0.096400
C541	C54	0.735900	0.150400	0.212300
C551	C55	0.225700	0.606900	0.966000
C561	C56	0.177900	0.566800	0.014600
C571	C57	0.146200	0.614900	0.092900
C581	C58	0.099100	0.578000	0.137400
C591	C59	0.066900	0.631800	0.223100
C601	C60	0.080300	0.492100	0.101900
C611	C61	0.109600	0.443500	0.022800
C621	C62	0.078300	0.351600	0.979500
C631	C63	0.160000	0.481100	0.980100
C641	C64	0.183700	0.857100	0.162100
C651	C65	0.237800	0.893300	0.242100
C661	C66	0.292400	0.969500	0.270900
C671	C67	0.348100	0.001600	0.343400
C681	C68	0.397700	0.087700	0.374200
C691	C69	0.354200	0.954200	0.385000
C701	C70	0.296300	0.879300	0.358200
C711	C71	0.294000	0.827700	0.403600
C721	C72	0.235900	0.849600	0.287700
O11	O1	0.283100	0.685150	0.490140
O21	O2	0.225700	0.561530	0.401270
O31	O3	0.469700	0.703910	0.741930
O41	O4	0.418200	0.600510	0.770790
O51	O5	0.468800	0.319160	0.519430
O61	O6	0.400500	0.316550	0.407190
O71	O7	0.397900	0.805040	0.648520
O81	O8	0.281100	0.875350	0.609640
O91	O9	0.128500	0.127550	0.835910
O101	O10	0.041100	0.113510	0.934750
O111	O11	0.116500	0.825300	0.938060
O121	O12	0.297800	0.791820	0.902970
O131	O13	0.783100	0.314850	0.009860
O141	O14	0.725700	0.438470	0.098730
O151	O15	0.969700	0.296090	0.758070
O161	O16	0.918200	0.399490	0.729210
O171	O17	0.968800	0.680840	0.980570
O181	O18	0.900500	0.683450	0.092810
O191	O19	0.897900	0.194960	0.851480
O201	O20	0.781100	0.124650	0.890360
O211	O21	0.628500	0.872450	0.664090
O221	O22	0.541100	0.886490	0.565250
O231	O23	0.616500	0.174700	0.561940
O241	O24	0.797800	0.208180	0.597030
O251	O25	0.716900	0.314850	0.509860
O261	O26	0.774300	0.438470	0.598730
O271	O27	0.530300	0.296090	0.258070
O281	O28	0.581800	0.399490	0.229210
O291	O29	0.531200	0.680840	0.480570
O301	O30	0.599500	0.683450	0.592810
O311	O31	0.602100	0.194960	0.351480
O321	O32	0.718900	0.124650	0.390360
O331	O33	0.871500	0.872450	0.164090
O341	O34	0.958900	0.886490	0.065250
O351	O35	0.883500	0.174700	0.061940
O361	O36	0.702200	0.208180	0.097030
O371	O37	0.216900	0.685150	0.990140
O381	O38	0.274300	0.561530	0.901270
O391	O39	0.030300	0.703910	0.241930
O401	O40	0.081800	0.600510	0.270790
O411	O41	0.031200	0.319160	0.019430
O421	O42	0.099500	0.316550	0.907190
O431	O43	0.102100	0.805040	0.148520
O441	O44	0.218900	0.875350	0.109640
O451	O45	0.371500	0.127550	0.335910
O461	O46	0.458900	0.113510	0.434750
O471	O47	0.383500	0.825300	0.438060
O481	O48	0.202200	0.791820	0.402970
