data_DEQVIF_clean_PM
_symmetry_space_group_name_H-M	'P1'
_cell_length_a	9.871000
_cell_length_b	11.507000
_cell_length_c	23.254000
_cell_angle_alpha	90.000000
_cell_angle_beta	90.000000
_cell_angle_gamma	96.418000
_symmetry_Int_Tables_number 1

loop_
_symmetry_equiv_pos_as_xyz
'x,y,z'

loop_
_atom_site_label
_atom_site_type_symbol
_atom_site_fract_x
_atom_site_fract_y
_atom_site_fract_z
Mn11	Mn1	0.749550	0.500020	0.232930
Mn21	Mn2	0.750450	0.499980	0.732930
Mn31	Mn3	0.250450	0.499980	0.767070
Mn41	Mn4	0.249550	0.500020	0.267070
H11	H1	0.893300	0.381700	0.348700
H21	H2	0.887000	0.389300	0.447900
H31	H3	0.605400	0.614200	0.441600
H41	H4	0.620300	0.614000	0.342200
H51	H5	0.938200	0.460000	0.534300
H61	H6	0.929900	0.459500	0.632600
H71	H7	0.551900	0.555600	0.629400
H81	H8	0.561300	0.556300	0.529400
H91	H9	0.239800	0.006800	0.353700
H101	H10	0.085500	0.886500	0.201300
H111	H11	0.262600	0.001900	0.154100
H121	H12	0.410600	0.132100	0.204800
H131	H13	0.589300	0.261300	0.320500
H141	H14	0.571500	0.189100	0.263700
H151	H15	0.898500	0.756500	0.310900
H161	H16	0.928200	0.824400	0.253500
H171	H17	0.606700	0.618300	0.848700
H181	H18	0.613000	0.610700	0.947900
H191	H19	0.894600	0.385800	0.941600
H201	H20	0.879700	0.386000	0.842200
H211	H21	0.561800	0.540000	0.034300
H221	H22	0.570100	0.540500	0.132600
H231	H23	0.948100	0.444400	0.129400
H241	H24	0.938700	0.443700	0.029400
H251	H25	0.260200	0.993200	0.853700
H261	H26	0.414500	0.113500	0.701300
H271	H27	0.237400	0.998100	0.654100
H281	H28	0.089400	0.867900	0.704800
H291	H29	0.910700	0.738700	0.820500
H301	H30	0.928500	0.810900	0.763700
H311	H31	0.601500	0.243500	0.810900
H321	H32	0.571800	0.175600	0.753500
H331	H33	0.106700	0.618300	0.651300
H341	H34	0.113000	0.610700	0.552100
H351	H35	0.394600	0.385800	0.558400
H361	H36	0.379700	0.386000	0.657800
H371	H37	0.061800	0.540000	0.465700
H381	H38	0.070100	0.540500	0.367400
H391	H39	0.448100	0.444400	0.370600
H401	H40	0.438700	0.443700	0.470600
H411	H41	0.760200	0.993200	0.646300
H421	H42	0.914500	0.113500	0.798700
H431	H43	0.737400	0.998100	0.845900
H441	H44	0.589400	0.867900	0.795200
H451	H45	0.410700	0.738700	0.679500
H461	H46	0.428500	0.810900	0.736300
H471	H47	0.101500	0.243500	0.689100
H481	H48	0.071800	0.175600	0.746500
H491	H49	0.393300	0.381700	0.151300
H501	H50	0.387000	0.389300	0.052100
H511	H51	0.105400	0.614200	0.058400
H521	H52	0.120300	0.614000	0.157800
H531	H53	0.438200	0.460000	0.965700
H541	H54	0.429900	0.459500	0.867400
H551	H55	0.051900	0.555600	0.870600
H561	H56	0.061300	0.556300	0.970600
H571	H57	0.739800	0.006800	0.146300
H581	H58	0.585500	0.886500	0.298700
H591	H59	0.762600	0.001900	0.345900
H601	H60	0.910600	0.132100	0.295200
H611	H61	0.089300	0.261300	0.179500
H621	H62	0.071500	0.189100	0.236300
H631	H63	0.398500	0.756500	0.189100
H641	H64	0.428200	0.824400	0.246500
C11	C1	0.837700	0.429900	0.367350
C21	C2	0.832600	0.434600	0.426750
C31	C3	0.749100	0.504800	0.456350
C41	C4	0.665900	0.569700	0.423480
C51	C5	0.673500	0.567700	0.363340
C61	C6	0.754600	0.512300	0.520340
C71	C7	0.860800	0.480800	0.552720
C81	C8	0.855400	0.479200	0.611680
C91	C9	0.629100	0.536700	0.610170
C101	C10	0.636400	0.538000	0.550340
C111	C11	0.344300	0.080100	0.284300
C121	C12	0.243100	0.006600	0.313740
C131	C13	0.150300	0.935500	0.283010
C141	C14	0.151200	0.933500	0.221970
C151	C15	0.255500	0.005400	0.193970
C161	C16	0.347000	0.080700	0.224220
C171	C17	0.523000	0.230900	0.291900
C181	C18	0.475600	0.330100	0.262990
C191	C19	0.970100	0.783000	0.283870
C201	C20	0.019400	0.676700	0.257640
C211	C21	0.662300	0.570100	0.867350
C221	C22	0.667400	0.565400	0.926750
C231	C23	0.750900	0.495200	0.956350
C241	C24	0.834100	0.430300	0.923480
C251	C25	0.826500	0.432300	0.863340
C261	C26	0.745400	0.487700	0.020340
C271	C27	0.639200	0.519200	0.052720
C281	C28	0.644600	0.520800	0.111680
C291	C29	0.870900	0.463300	0.110170
C301	C30	0.863600	0.462000	0.050340
C311	C31	0.155700	0.919900	0.784300
C321	C32	0.256900	0.993400	0.813740
C331	C33	0.349700	0.064500	0.783010
C341	C34	0.348800	0.066500	0.721970
C351	C35	0.244500	0.994600	0.693970
C361	C36	0.153000	0.919300	0.724220
C371	C37	0.977000	0.769100	0.791900
C381	C38	0.024400	0.669900	0.762990
C391	C39	0.529900	0.217000	0.783870
C401	C40	0.480600	0.323300	0.757640
C411	C41	0.162300	0.570100	0.632650
C421	C42	0.167400	0.565400	0.573250
C431	C43	0.250900	0.495200	0.543650
C441	C44	0.334100	0.430300	0.576520
C451	C45	0.326500	0.432300	0.636660
C461	C46	0.245400	0.487700	0.479660
C471	C47	0.139200	0.519200	0.447280
C481	C48	0.144600	0.520800	0.388320
C491	C49	0.370900	0.463300	0.389830
C501	C50	0.363600	0.462000	0.449660
C511	C51	0.655700	0.919900	0.715700
C521	C52	0.756900	0.993400	0.686260
C531	C53	0.849700	0.064500	0.716990
C541	C54	0.848800	0.066500	0.778030
C551	C55	0.744500	0.994600	0.806030
C561	C56	0.653000	0.919300	0.775780
C571	C57	0.477000	0.769100	0.708100
C581	C58	0.524400	0.669900	0.737010
C591	C59	0.029900	0.217000	0.716130
C601	C60	0.980600	0.323300	0.742360
C611	C61	0.337700	0.429900	0.132650
C621	C62	0.332600	0.434600	0.073250
C631	C63	0.249100	0.504800	0.043650
C641	C64	0.165900	0.569700	0.076520
C651	C65	0.173500	0.567700	0.136660
C661	C66	0.254600	0.512300	0.979660
C671	C67	0.360800	0.480800	0.947280
C681	C68	0.355400	0.479200	0.888320
C691	C69	0.129100	0.536700	0.889830
C701	C70	0.136400	0.538000	0.949660
C711	C71	0.844300	0.080100	0.215700
C721	C72	0.743100	0.006600	0.186260
C731	C73	0.650300	0.935500	0.216990
C741	C74	0.651200	0.933500	0.278030
C751	C75	0.755500	0.005400	0.306030
C761	C76	0.847000	0.080700	0.275780
C771	C77	0.023000	0.230900	0.208100
C781	C78	0.975600	0.330100	0.237010
C791	C79	0.470100	0.783000	0.216130
C801	C80	0.519400	0.676700	0.242360
N11	N1	0.754500	0.501400	0.335510
N21	N2	0.742000	0.506010	0.639990
N31	N3	0.745500	0.498600	0.835510
N41	N4	0.758000	0.493990	0.139990
N51	N5	0.245500	0.498600	0.664490
N61	N6	0.258000	0.493990	0.360010
N71	N7	0.254500	0.501400	0.164490
N81	N8	0.242000	0.506010	0.860010
O11	O1	0.430870	0.150010	0.318950
O21	O2	0.555870	0.384410	0.230350
O31	O3	0.347480	0.343040	0.265320
O41	O4	0.059900	0.862060	0.311630
O51	O5	0.126990	0.651310	0.275990
O61	O6	0.936700	0.607160	0.227090
O71	O7	0.069130	0.849990	0.818950
O81	O8	0.944130	0.615590	0.730350
O91	O9	0.152520	0.656960	0.765320
O101	O10	0.440100	0.137940	0.811630
O111	O11	0.373010	0.348690	0.775990
O121	O12	0.563300	0.392840	0.727090
O131	O13	0.569130	0.849990	0.681050
O141	O14	0.444130	0.615590	0.769650
O151	O15	0.652520	0.656960	0.734680
O161	O16	0.940100	0.137940	0.688370
O171	O17	0.873010	0.348690	0.724010
O181	O18	0.063300	0.392840	0.772910
O191	O19	0.930870	0.150010	0.181050
O201	O20	0.055870	0.384410	0.269650
O211	O21	0.847480	0.343040	0.234680
O221	O22	0.559900	0.862060	0.188370
O231	O23	0.626990	0.651310	0.224010
O241	O24	0.436700	0.607160	0.272910
