data_DEYJIC_clean_PM
_symmetry_space_group_name_H-M	'P1'
_cell_length_a	7.708600
_cell_length_b	11.400700
_cell_length_c	13.499000
_cell_angle_alpha	96.395000
_cell_angle_beta	105.619000
_cell_angle_gamma	99.339000
_symmetry_Int_Tables_number 1

loop_
_symmetry_equiv_pos_as_xyz
'x,y,z'

loop_
_atom_site_label
_atom_site_type_symbol
_atom_site_fract_x
_atom_site_fract_y
_atom_site_fract_z
V11	V1	0.857070	0.677110	0.974660
V21	V2	0.794020	0.420400	0.859220
V31	V3	0.142930	0.322890	0.025340
V41	V4	0.205980	0.579600	0.140780
Ni11	Ni1	0.500000	0.500000	0.000000
Ni21	Ni2	0.000000	0.000000	0.000000
H11	H1	0.091400	0.867200	0.822900
H21	H2	0.095600	0.877800	0.654700
H31	H3	0.870200	0.171400	0.667600
H41	H4	0.863300	0.147700	0.833800
H51	H5	0.957300	0.111700	0.511100
H61	H6	0.651500	0.654500	0.217800
H71	H7	0.820500	0.645300	0.384100
H81	H8	0.915900	0.327400	0.274700
H91	H9	0.735500	0.342000	0.112500
H101	H10	0.061400	0.406100	0.457400
H111	H11	0.908600	0.132800	0.177100
H121	H12	0.904400	0.122200	0.345300
H131	H13	0.129800	0.828600	0.332400
H141	H14	0.136700	0.852300	0.166200
H151	H15	0.042700	0.888300	0.488900
H161	H16	0.348500	0.345500	0.782200
H171	H17	0.179500	0.354700	0.615900
H181	H18	0.084100	0.672600	0.725300
H191	H19	0.264500	0.658000	0.887500
H201	H20	0.938600	0.593900	0.542600
C11	C1	0.045700	0.928560	0.790820
C21	C2	0.049400	0.934480	0.689630
C31	C3	0.982800	0.026810	0.640430
C41	C4	0.914400	0.108150	0.697050
C51	C5	0.912800	0.094170	0.797730
C61	C6	0.983000	0.040530	0.533580
C71	C7	0.702300	0.586930	0.229920
C81	C8	0.805300	0.582420	0.330370
C91	C9	0.886400	0.482970	0.350760
C101	C10	0.860700	0.393670	0.265710
C111	C11	0.752800	0.403550	0.167660
C121	C12	0.994600	0.467270	0.454710
C131	C13	0.954300	0.071440	0.209180
C141	C14	0.950600	0.065520	0.310370
C151	C15	0.017200	0.973190	0.359570
C161	C16	0.085600	0.891850	0.302950
C171	C17	0.087200	0.905830	0.202270
C181	C18	0.017000	0.959470	0.466420
C191	C19	0.297700	0.413070	0.770080
C201	C20	0.194700	0.417580	0.669630
C211	C21	0.113600	0.517030	0.649240
C221	C22	0.139300	0.606330	0.734290
C231	C23	0.247200	0.596450	0.832340
C241	C24	0.005400	0.532730	0.545290
N11	N1	0.979400	0.006870	0.844950
N21	N2	0.672360	0.497930	0.149060
N31	N3	0.020600	0.993130	0.155050
N41	N4	0.327640	0.502070	0.850940
O11	O1	0.652990	0.404360	0.932450
O21	O2	0.646920	0.664580	0.989100
O31	O3	0.999590	0.631700	0.084180
O41	O4	0.940850	0.816690	0.967000
O51	O5	0.847510	0.580340	0.857780
O61	O6	0.347010	0.595640	0.067550
O71	O7	0.353080	0.335420	0.010900
O81	O8	0.000410	0.368300	0.915820
O91	O9	0.059150	0.183310	0.033000
O101	O10	0.152490	0.419660	0.142220
