data_DEYJOI_clean_PM
_symmetry_space_group_name_H-M	'P1'
_cell_length_a	7.774500
_cell_length_b	11.463500
_cell_length_c	13.537700
_cell_angle_alpha	96.803000
_cell_angle_beta	105.710000
_cell_angle_gamma	99.225000
_symmetry_Int_Tables_number 1

loop_
_symmetry_equiv_pos_as_xyz
'x,y,z'

loop_
_atom_site_label
_atom_site_type_symbol
_atom_site_fract_x
_atom_site_fract_y
_atom_site_fract_z
V11	V1	0.857570	0.676610	0.974770
V21	V2	0.794450	0.419530	0.860440
V31	V3	0.142430	0.323390	0.025230
V41	V4	0.205550	0.580470	0.139560
Co11	Co1	0.500000	0.500000	0.000000
Co21	Co2	0.000000	0.000000	0.000000
H11	H1	0.078100	0.863900	0.818400
H21	H2	0.082000	0.873600	0.651300
H31	H3	0.872900	0.170700	0.667600
H41	H4	0.868700	0.148800	0.833500
H51	H5	0.949200	0.107700	0.510500
H61	H6	0.663300	0.655700	0.217300
H71	H7	0.819500	0.642000	0.386600
H81	H8	0.913600	0.327500	0.273400
H91	H9	0.730800	0.341000	0.113600
H101	H10	0.059100	0.405700	0.457300
H111	H11	0.921900	0.136100	0.181600
H121	H12	0.918000	0.126400	0.348700
H131	H13	0.127100	0.829300	0.332400
H141	H14	0.131300	0.851200	0.166500
H151	H15	0.050800	0.892300	0.489500
H161	H16	0.336700	0.344300	0.782700
H171	H17	0.180500	0.358000	0.613400
H181	H18	0.086400	0.672500	0.726600
H191	H19	0.269200	0.659000	0.886400
H201	H20	0.940900	0.594300	0.542700
C11	C1	0.036100	0.926220	0.787350
C21	C2	0.039300	0.931570	0.686900
C31	C3	0.978100	0.024510	0.638820
C41	C4	0.914700	0.106960	0.696230
C51	C5	0.914200	0.093750	0.796640
C61	C6	0.979800	0.038200	0.533050
C71	C7	0.709100	0.587070	0.230020
C81	C8	0.807400	0.580700	0.332200
C91	C9	0.886800	0.481600	0.351400
C101	C10	0.859100	0.393700	0.265500
C111	C11	0.751500	0.403600	0.168500
C121	C12	0.993700	0.467000	0.454660
C131	C13	0.963900	0.073780	0.212650
C141	C14	0.960700	0.068430	0.313100
C151	C15	0.021900	0.975490	0.361180
C161	C16	0.085300	0.893040	0.303770
C171	C17	0.085800	0.906250	0.203360
C181	C18	0.020200	0.961800	0.466950
C191	C19	0.290900	0.412930	0.769980
C201	C20	0.192600	0.419300	0.667800
C211	C21	0.113200	0.518400	0.648600
C221	C22	0.140900	0.606300	0.734500
C231	C23	0.248500	0.596400	0.831500
C241	C24	0.006300	0.533000	0.545340
N11	N1	0.975600	0.006100	0.842590
N21	N2	0.676100	0.497650	0.149540
N31	N3	0.024400	0.993900	0.157410
N41	N4	0.323900	0.502350	0.850460
O11	O1	0.654090	0.403660	0.932610
O21	O2	0.650560	0.663480	0.989790
O31	O3	0.001540	0.632580	0.083050
O41	O4	0.938050	0.815640	0.966820
O51	O5	0.847350	0.578480	0.858800
O61	O6	0.345910	0.596340	0.067390
O71	O7	0.349440	0.336520	0.010210
O81	O8	0.998460	0.367420	0.916950
O91	O9	0.061950	0.184360	0.033180
O101	O10	0.152650	0.421520	0.141200
