data_DEYXIQ_clean_PM
_symmetry_space_group_name_H-M	'P1'
_cell_length_a	7.903000
_cell_length_b	10.537900
_cell_length_c	32.858000
_cell_angle_alpha	90.000000
_cell_angle_beta	90.000000
_cell_angle_gamma	99.607000
_symmetry_Int_Tables_number 1

loop_
_symmetry_equiv_pos_as_xyz
'x,y,z'

loop_
_atom_site_label
_atom_site_type_symbol
_atom_site_fract_x
_atom_site_fract_y
_atom_site_fract_z
Co11	Co1	0.053260	0.480490	0.250180
Co21	Co2	0.446740	0.519510	0.750180
Co31	Co3	0.946740	0.519510	0.749820
Co41	Co4	0.553260	0.480490	0.249820
Co51	Co5	0.500000	0.500000	0.500000
Co61	Co6	0.000000	0.500000	0.000000
Co71	Co7	0.000000	0.500000	0.500000
Co81	Co8	0.500000	0.500000	0.000000
H11	H1	0.913800	0.069900	0.238400
H21	H2	0.743500	0.870000	0.238900
H31	H3	0.638900	0.916400	0.510500
H41	H4	0.803700	0.118800	0.510000
H51	H5	0.828500	0.545300	0.205900
H61	H6	0.773700	0.410600	0.208700
H71	H7	0.231500	0.437600	0.456900
H81	H8	0.280800	0.572800	0.457000
H91	H9	0.586200	0.930100	0.738400
H101	H10	0.756500	0.130000	0.738900
H111	H11	0.861100	0.083600	0.010500
H121	H12	0.696300	0.881200	0.010000
H131	H13	0.671500	0.454700	0.705900
H141	H14	0.726300	0.589400	0.708700
H151	H15	0.268500	0.562400	0.956900
H161	H16	0.219200	0.427200	0.957000
H171	H17	0.086200	0.930100	0.761600
H181	H18	0.256500	0.130000	0.761100
H191	H19	0.361100	0.083600	0.489500
H201	H20	0.196300	0.881200	0.490000
H211	H21	0.171500	0.454700	0.794100
H221	H22	0.226300	0.589400	0.791300
H231	H23	0.768500	0.562400	0.543100
H241	H24	0.719200	0.427200	0.543000
H251	H25	0.413800	0.069900	0.261600
H261	H26	0.243500	0.870000	0.261100
H271	H27	0.138900	0.916400	0.989500
H281	H28	0.303700	0.118800	0.990000
H291	H29	0.328500	0.545300	0.294100
H301	H30	0.273700	0.410600	0.291300
H311	H31	0.731500	0.437600	0.043100
H321	H32	0.780800	0.572800	0.043000
C11	C1	0.907600	0.102800	0.298940
C21	C2	0.870400	0.034300	0.262910
C31	C3	0.769400	0.913800	0.263330
C41	C4	0.705800	0.857000	0.299710
C51	C5	0.746700	0.923300	0.336280
C61	C6	0.701400	0.858600	0.375670
C71	C7	0.718700	0.936300	0.413660
C81	C8	0.651500	0.881500	0.450180
C91	C9	0.683800	0.951700	0.486030
C101	C10	0.782100	0.073700	0.485700
C111	C11	0.848600	0.129100	0.449570
C121	C12	0.814300	0.061400	0.413130
C131	C13	0.870700	0.125000	0.373840
C141	C14	0.844400	0.048000	0.335770
C151	C15	0.019600	0.233900	0.296000
C161	C16	0.590700	0.727000	0.297420
C171	C17	0.541200	0.750300	0.453190
C181	C18	0.964200	0.258200	0.452910
C191	C19	0.592400	0.897200	0.798940
C201	C20	0.629600	0.965700	0.762910
C211	C21	0.730600	0.086200	0.763330
C221	C22	0.794200	0.143000	0.799710
C231	C23	0.753300	0.076700	0.836280
C241	C24	0.798600	0.141400	0.875670
C251	C25	0.781300	0.063700	0.913660
C261	C26	0.848500	0.118500	0.950180
C271	C27	0.816200	0.048300	0.986030
C281	C28	0.717900	0.926300	0.985700
C291	C29	0.651400	0.870900	0.949570
C301	C30	0.685700	0.938600	0.913130
C311	C31	0.629300	0.875000	0.873840
C321	C32	0.655600	0.952000	0.835770
C331	C33	0.480400	0.766100	0.796000
C341	C34	0.909300	0.273000	0.797420
C351	C35	0.958800	0.249700	0.953190
C361	C36	0.535800	0.741800	0.952910
C371	C37	0.092400	0.897200	0.701060
C381	C38	0.129600	0.965700	0.737090
C391	C39	0.230600	0.086200	0.736670
C401	C40	0.294200	0.143000	0.700290
C411	C41	0.253300	0.076700	0.663720
C421	C42	0.298600	0.141400	0.624330
C431	C43	0.281300	0.063700	0.586340
C441	C44	0.348500	0.118500	0.549820
C451	C45	0.316200	0.048300	0.513970
C461	C46	0.217900	0.926300	0.514300
C471	C47	0.151400	0.870900	0.550430
C481	C48	0.185700	0.938600	0.586870
C491	C49	0.129300	0.875000	0.626160
C501	C50	0.155600	0.952000	0.664230
C511	C51	0.980400	0.766100	0.704000
C521	C52	0.409300	0.273000	0.702580
C531	C53	0.458800	0.249700	0.546810
C541	C54	0.035800	0.741800	0.547090
C551	C55	0.407600	0.102800	0.201060
C561	C56	0.370400	0.034300	0.237090
C571	C57	0.269400	0.913800	0.236670
C581	C58	0.205800	0.857000	0.200290
C591	C59	0.246700	0.923300	0.163720
C601	C60	0.201400	0.858600	0.124330
C611	C61	0.218700	0.936300	0.086340
C621	C62	0.151500	0.881500	0.049820
C631	C63	0.183800	0.951700	0.013970
C641	C64	0.282100	0.073700	0.014300
C651	C65	0.348600	0.129100	0.050430
C661	C66	0.314300	0.061400	0.086870
C671	C67	0.370700	0.125000	0.126160
C681	C68	0.344400	0.048000	0.164230
C691	C69	0.519600	0.233900	0.204000
C701	C70	0.090700	0.727000	0.202580
C711	C71	0.041200	0.750300	0.046810
C721	C72	0.464200	0.258200	0.047090
O11	O1	0.660000	0.741600	0.377710
O21	O2	0.928800	0.239100	0.372540
O31	O3	0.944000	0.322400	0.281960
O41	O4	0.173800	0.246400	0.304510
O51	O5	0.662600	0.637900	0.282550
O61	O6	0.437200	0.715200	0.306660
O71	O7	0.390800	0.734600	0.440590
O81	O8	0.611100	0.666100	0.471790
O91	O9	0.119900	0.265800	0.448470
O101	O10	0.890500	0.351800	0.464050
O111	O11	0.803700	0.480800	0.221580
O121	O12	0.252400	0.505400	0.471350
O131	O13	0.840000	0.258400	0.877710
O141	O14	0.571200	0.760900	0.872540
O151	O15	0.556000	0.677600	0.781960
O161	O16	0.326200	0.753600	0.804510
O171	O17	0.837400	0.362100	0.782550
O181	O18	0.062800	0.284800	0.806660
O191	O19	0.109200	0.265400	0.940590
O201	O20	0.888900	0.333900	0.971790
O211	O21	0.380100	0.734200	0.948470
O221	O22	0.609500	0.648200	0.964050
O231	O23	0.696300	0.519200	0.721580
O241	O24	0.247600	0.494600	0.971350
O251	O25	0.340000	0.258400	0.622290
O261	O26	0.071200	0.760900	0.627460
O271	O27	0.056000	0.677600	0.718040
O281	O28	0.826200	0.753600	0.695490
O291	O29	0.337400	0.362100	0.717450
O301	O30	0.562800	0.284800	0.693340
O311	O31	0.609200	0.265400	0.559410
O321	O32	0.388900	0.333900	0.528210
O331	O33	0.880100	0.734200	0.551530
O341	O34	0.109500	0.648200	0.535950
O351	O35	0.196300	0.519200	0.778420
O361	O36	0.747600	0.494600	0.528650
O371	O37	0.160000	0.741600	0.122290
O381	O38	0.428800	0.239100	0.127460
O391	O39	0.444000	0.322400	0.218040
O401	O40	0.673800	0.246400	0.195490
O411	O41	0.162600	0.637900	0.217450
O421	O42	0.937200	0.715200	0.193340
O431	O43	0.890800	0.734600	0.059410
O441	O44	0.111100	0.666100	0.028210
O451	O45	0.619900	0.265800	0.051530
O461	O46	0.390500	0.351800	0.035950
O471	O47	0.303700	0.480800	0.278420
O481	O48	0.752400	0.505400	0.028650
