data_DIBXAP_clean_PM
_symmetry_space_group_name_H-M	'P1'
_cell_length_a	10.639000
_cell_length_b	10.698200
_cell_length_c	11.937500
_cell_angle_alpha	70.078000
_cell_angle_beta	77.610000
_cell_angle_gamma	60.799700
_symmetry_Int_Tables_number 1

loop_
_symmetry_equiv_pos_as_xyz
'x,y,z'

loop_
_atom_site_label
_atom_site_type_symbol
_atom_site_fract_x
_atom_site_fract_y
_atom_site_fract_z
Ho11	Ho1	0.548760	0.998080	0.160830
Ho21	Ho2	0.451240	0.001920	0.839170
Cu11	Cu1	0.000000	0.000000	0.000000
Cu21	Cu2	0.000000	0.000000	0.500000
H11	H1	0.009600	0.273000	0.514000
H21	H2	0.912200	0.524700	0.428300
H31	H3	0.686800	0.479900	0.231000
H41	H4	0.783400	0.230700	0.327800
H51	H5	0.997100	0.721300	0.178700
H61	H6	0.131800	0.466100	0.220700
H71	H7	0.394200	0.529700	0.935600
H81	H8	0.253400	0.777900	0.900200
H91	H9	0.990400	0.727000	0.486000
H101	H10	0.087800	0.475300	0.571700
H111	H11	0.313200	0.520100	0.769000
H121	H12	0.216600	0.769300	0.672200
H131	H13	0.002900	0.278700	0.821300
H141	H14	0.868200	0.533900	0.779300
H151	H15	0.605800	0.470300	0.064400
H161	H16	0.746600	0.222100	0.099800
C11	C1	0.177500	0.978000	0.281900
C21	C2	0.171700	0.988700	0.164300
C31	C3	0.284400	0.964800	0.357100
C41	C4	0.264900	0.002800	0.053900
C51	C5	0.942900	0.315400	0.456400
C61	C6	0.886100	0.466600	0.404700
C71	C7	0.789900	0.530600	0.317300
C81	C8	0.752300	0.440200	0.289000
C91	C9	0.811800	0.290200	0.347000
C101	C10	0.720800	0.696900	0.255800
C111	C11	0.077900	0.681500	0.129300
C121	C12	0.158300	0.528100	0.155200
C131	C13	0.279400	0.468200	0.081400
C141	C14	0.313300	0.565900	0.986100
C151	C15	0.229000	0.714400	0.965800
C161	C16	0.370800	0.303200	0.107100
C171	C17	0.822500	0.022000	0.718100
C181	C18	0.828300	0.011300	0.835700
C191	C19	0.715600	0.035200	0.642900
C201	C20	0.735100	0.997200	0.946100
C211	C21	0.057100	0.684600	0.543600
C221	C22	0.113900	0.533400	0.595300
C231	C23	0.210100	0.469400	0.682700
C241	C24	0.247700	0.559800	0.711000
C251	C25	0.188200	0.709800	0.653000
C261	C26	0.279200	0.303100	0.744200
C271	C27	0.922100	0.318500	0.870700
C281	C28	0.841700	0.471900	0.844800
C291	C29	0.720600	0.531800	0.918600
C301	C30	0.686700	0.434100	0.013900
C311	C31	0.771000	0.285600	0.034200
C321	C32	0.629200	0.696800	0.892900
N11	N1	0.053900	0.976500	0.337000
N21	N2	0.975500	0.981100	0.261900
N31	N3	0.047300	0.989700	0.156000
N41	N4	0.907900	0.226500	0.428900
N51	N5	0.112100	0.774700	0.035600
N61	N6	0.946100	0.023500	0.663000
N71	N7	0.024500	0.018900	0.738100
N81	N8	0.952700	0.010300	0.844000
N91	N9	0.092100	0.773500	0.571100
N101	N10	0.887900	0.225300	0.964400
O11	O1	0.235100	0.992100	0.454500
O21	O2	0.413700	0.923000	0.317300
O31	O3	0.382100	0.004800	0.056600
O41	O4	0.223400	0.014600	0.958200
O51	O5	0.738200	0.783200	0.292600
O61	O6	0.649400	0.741200	0.168100
O71	O7	0.487000	0.253400	0.046100
O81	O8	0.333100	0.217600	0.191600
O91	O9	0.764900	0.007900	0.545500
O101	O10	0.586300	0.077000	0.682700
O111	O11	0.617900	0.995200	0.943400
O121	O12	0.776600	0.985400	0.041800
O131	O13	0.261800	0.216800	0.707400
O141	O14	0.350600	0.258800	0.831900
O151	O15	0.513000	0.746600	0.953900
O161	O16	0.666900	0.782400	0.808400
