data_DIBXAO_clean_PM
_symmetry_space_group_name_H-M	'P1'
_cell_length_a	14.053000
_cell_length_b	14.053000
_cell_length_c	29.781000
_cell_angle_alpha	90.000000
_cell_angle_beta	90.000000
_cell_angle_gamma	90.000000
_symmetry_Int_Tables_number 1

loop_
_symmetry_equiv_pos_as_xyz
'x,y,z'

loop_
_atom_site_label
_atom_site_type_symbol
_atom_site_fract_x
_atom_site_fract_y
_atom_site_fract_z
Co11	Co1	0.429150	0.162480	0.088230
O11	O1	0.423500	0.309200	0.092510
N11	N1	0.422300	0.154400	0.017890
C11	C1	0.399800	0.145400	0.981510
N21	N2	0.383200	0.131100	0.939120
N31	N3	0.278900	0.141000	0.090020
C21	C2	0.295100	0.138600	0.925200
C31	C3	0.358700	0.360200	0.063400
Co21	Co2	0.929150	0.662480	0.588230
O21	O2	0.923500	0.809200	0.592510
N41	N4	0.922300	0.654400	0.517890
C41	C4	0.899800	0.645400	0.481510
N51	N5	0.883200	0.631100	0.439120
N61	N6	0.778900	0.641000	0.590020
C51	C5	0.795100	0.638600	0.425200
C61	C6	0.858700	0.860200	0.563400
Co31	Co3	0.070850	0.837520	0.588230
O31	O3	0.076500	0.690800	0.592510
N71	N7	0.077700	0.845600	0.517890
C71	C7	0.100200	0.854600	0.481510
N81	N8	0.116800	0.868900	0.439120
N91	N9	0.221100	0.859000	0.590020
C81	C8	0.204900	0.861400	0.425200
C91	C9	0.141300	0.639800	0.563400
Co41	Co4	0.570850	0.337520	0.088230
O41	O4	0.576500	0.190800	0.092510
N101	N10	0.577700	0.345600	0.017890
C101	C10	0.600200	0.354600	0.981510
N111	N11	0.616800	0.368900	0.939120
N121	N12	0.721100	0.359000	0.090020
C111	C11	0.704900	0.361400	0.925200
C121	C12	0.641300	0.139800	0.063400
Co51	Co5	0.070850	0.162480	0.911770
O51	O5	0.076500	0.309200	0.907490
N131	N13	0.077700	0.154400	0.982110
C131	C13	0.100200	0.145400	0.018490
N141	N14	0.116800	0.131100	0.060880
N151	N15	0.221100	0.141000	0.909980
C141	C14	0.204900	0.138600	0.074800
C151	C15	0.141300	0.360200	0.936600
Co61	Co6	0.570850	0.662480	0.411770
O61	O6	0.576500	0.809200	0.407490
N161	N16	0.577700	0.654400	0.482110
C161	C16	0.600200	0.645400	0.518490
N171	N17	0.616800	0.631100	0.560880
N181	N18	0.721100	0.641000	0.409980
C171	C17	0.704900	0.638600	0.574800
C181	C18	0.641300	0.860200	0.436600
Co71	Co7	0.429150	0.837520	0.411770
O71	O7	0.423500	0.690800	0.407490
N191	N19	0.422300	0.845600	0.482110
C191	C19	0.399800	0.854600	0.518490
N201	N20	0.383200	0.868900	0.560880
N211	N21	0.278900	0.859000	0.409980
C201	C20	0.295100	0.861400	0.574800
C211	C21	0.358700	0.639800	0.436600
Co81	Co8	0.929150	0.337520	0.911770
O81	O8	0.923500	0.190800	0.907490
N221	N22	0.922300	0.345600	0.982110
C221	C22	0.899800	0.354600	0.018490
N231	N23	0.883200	0.368900	0.060880
N241	N24	0.778900	0.359000	0.909980
C231	C23	0.795100	0.361400	0.074800
C241	C24	0.858700	0.139800	0.936600
Co91	Co9	0.912480	0.820850	0.661770
O91	O9	0.059200	0.826500	0.657490
N251	N25	0.904400	0.827700	0.732110
C251	C25	0.895400	0.850200	0.768490
N261	N26	0.881100	0.866800	0.810880
N271	N27	0.891000	0.971100	0.659980
C261	C26	0.888600	0.954900	0.824800
C271	C27	0.110200	0.891300	0.686600
Co101	Co10	0.412480	0.320850	0.161770
O101	O10	0.559200	0.326500	0.157490
N281	N28	0.404400	0.327700	0.232110
C281	C28	0.395400	0.350200	0.268490
N291	N29	0.381100	0.366800	0.310880
N301	N30	0.391000	0.471100	0.159980
C291	C29	0.388600	0.454900	0.324800
C301	C30	0.610200	0.391300	0.186600
Co111	Co11	0.587520	0.179150	0.161770
O111	O11	0.440800	0.173500	0.157490
N311	N31	0.595600	0.172300	0.232110
C311	C31	0.604600	0.149800	0.268490
N321	N32	0.618900	0.133200	0.310880
N331	N33	0.609000	0.028900	0.159980
C321	C32	0.611400	0.045100	0.324800
C331	C33	0.389800	0.108700	0.186600
Co121	Co12	0.087520	0.679150	0.661770
O121	O12	0.940800	0.673500	0.657490
N341	N34	0.095600	0.672300	0.732110
C341	C34	0.104600	0.649800	0.768490
N351	N35	0.118900	0.633200	0.810880
N361	N36	0.109000	0.528900	0.659980
C351	C35	0.111400	0.545100	0.824800
C361	C36	0.889800	0.608700	0.686600
Co131	Co13	0.587520	0.820850	0.338230
O131	O13	0.440800	0.826500	0.342510
N371	N37	0.595600	0.827700	0.267890
C371	C37	0.604600	0.850200	0.231510
N381	N38	0.618900	0.866800	0.189120
N391	N39	0.609000	0.971100	0.340020
C381	C38	0.611400	0.954900	0.175200
C391	C39	0.389800	0.891300	0.313400
Co141	Co14	0.087520	0.320850	0.838230
O141	O14	0.940800	0.326500	0.842510
N401	N40	0.095600	0.327700	0.767890
C401	C40	0.104600	0.350200	0.731510
N411	N41	0.118900	0.366800	0.689120
N421	N42	0.109000	0.471100	0.840020
C411	C41	0.111400	0.454900	0.675200
C421	C42	0.889800	0.391300	0.813400
Co151	Co15	0.912480	0.179150	0.838230
O151	O15	0.059200	0.173500	0.842510
N431	N43	0.904400	0.172300	0.767890
C431	C43	0.895400	0.149800	0.731510
N441	N44	0.881100	0.133200	0.689120
N451	N45	0.891000	0.028900	0.840020
C441	C44	0.888600	0.045100	0.675200
C451	C45	0.110200	0.108700	0.813400
Co161	Co16	0.412480	0.679150	0.338230
O161	O16	0.559200	0.673500	0.342510
N461	N46	0.404400	0.672300	0.267890
C461	C46	0.395400	0.649800	0.231510
N471	N47	0.381100	0.633200	0.189120
N481	N48	0.391000	0.528900	0.340020
C471	C47	0.388600	0.545100	0.175200
C481	C48	0.610200	0.608700	0.313400
Co171	Co17	0.087520	0.179150	0.338230
O171	O17	0.940800	0.173500	0.342510
N491	N49	0.095600	0.172300	0.267890
C491	C49	0.104600	0.149800	0.231510
N501	N50	0.118900	0.133200	0.189120
N511	N51	0.109000	0.028900	0.340020
C501	C50	0.111400	0.045100	0.175200
C511	C51	0.889800	0.108700	0.313400
Co181	Co18	0.587520	0.679150	0.838230
O181	O18	0.440800	0.673500	0.842510
N521	N52	0.595600	0.672300	0.767890
C521	C52	0.604600	0.649800	0.731510
N531	N53	0.618900	0.633200	0.689120
N541	N54	0.609000	0.528900	0.840020
C531	C53	0.611400	0.545100	0.675200
C541	C54	0.389800	0.608700	0.813400
Co191	Co19	0.412480	0.820850	0.838230
O191	O19	0.559200	0.826500	0.842510
N551	N55	0.404400	0.827700	0.767890
C551	C55	0.395400	0.850200	0.731510
N561	N56	0.381100	0.866800	0.689120
N571	N57	0.391000	0.971100	0.840020
C561	C56	0.388600	0.954900	0.675200
C571	C57	0.610200	0.891300	0.813400
Co201	Co20	0.912480	0.320850	0.338230
O201	O20	0.059200	0.326500	0.342510
N581	N58	0.904400	0.327700	0.267890
C581	C58	0.895400	0.350200	0.231510
N591	N59	0.881100	0.366800	0.189120
N601	N60	0.891000	0.471100	0.340020
C591	C59	0.888600	0.454900	0.175200
C601	C60	0.110200	0.391300	0.313400
Co211	Co21	0.412480	0.179150	0.661770
O211	O21	0.559200	0.173500	0.657490
N611	N61	0.404400	0.172300	0.732110
C611	C61	0.395400	0.149800	0.768490
N621	N62	0.381100	0.133200	0.810880
N631	N63	0.391000	0.028900	0.659980
C621	C62	0.388600	0.045100	0.824800
C631	C63	0.610200	0.108700	0.686600
Co221	Co22	0.912480	0.679150	0.161770
O221	O22	0.059200	0.673500	0.157490
N641	N64	0.904400	0.672300	0.232110
C641	C64	0.895400	0.649800	0.268490
N651	N65	0.881100	0.633200	0.310880
N661	N66	0.891000	0.528900	0.159980
C651	C65	0.888600	0.545100	0.324800
C661	C66	0.110200	0.608700	0.186600
Co231	Co23	0.087520	0.820850	0.161770
O231	O23	0.940800	0.826500	0.157490
N671	N67	0.095600	0.827700	0.232110
C671	C67	0.104600	0.850200	0.268490
N681	N68	0.118900	0.866800	0.310880
N691	N69	0.109000	0.971100	0.159980
C681	C68	0.111400	0.954900	0.324800
C691	C69	0.889800	0.891300	0.186600
Co241	Co24	0.587520	0.320850	0.661770
O241	O24	0.440800	0.326500	0.657490
N701	N70	0.595600	0.327700	0.732110
C701	C70	0.604600	0.350200	0.768490
N711	N71	0.618900	0.366800	0.810880
N721	N72	0.609000	0.471100	0.659980
C711	C71	0.611400	0.454900	0.824800
C721	C72	0.389800	0.391300	0.686600
Co251	Co25	0.570850	0.837520	0.911770
O251	O25	0.576500	0.690800	0.907490
N731	N73	0.577700	0.845600	0.982110
C731	C73	0.600200	0.854600	0.018490
N741	N74	0.616800	0.868900	0.060880
N751	N75	0.721100	0.859000	0.909980
C741	C74	0.704900	0.861400	0.074800
C751	C75	0.641300	0.639800	0.936600
Co261	Co26	0.070850	0.337520	0.411770
O261	O26	0.076500	0.190800	0.407490
N761	N76	0.077700	0.345600	0.482110
C761	C76	0.100200	0.354600	0.518490
N771	N77	0.116800	0.368900	0.560880
N781	N78	0.221100	0.359000	0.409980
C771	C77	0.204900	0.361400	0.574800
C781	C78	0.141300	0.139800	0.436600
Co271	Co27	0.929150	0.162480	0.411770
O271	O27	0.923500	0.309200	0.407490
N791	N79	0.922300	0.154400	0.482110
C791	C79	0.899800	0.145400	0.518490
N801	N80	0.883200	0.131100	0.560880
N811	N81	0.778900	0.141000	0.409980
C801	C80	0.795100	0.138600	0.574800
C811	C81	0.858700	0.360200	0.436600
Co281	Co28	0.429150	0.662480	0.911770
O281	O28	0.423500	0.809200	0.907490
N821	N82	0.422300	0.654400	0.982110
C821	C82	0.399800	0.645400	0.018490
N831	N83	0.383200	0.631100	0.060880
N841	N84	0.278900	0.641000	0.909980
C831	C83	0.295100	0.638600	0.074800
C841	C84	0.358700	0.860200	0.936600
Co291	Co29	0.929150	0.837520	0.088230
O291	O29	0.923500	0.690800	0.092510
N851	N85	0.922300	0.845600	0.017890
C851	C85	0.899800	0.854600	0.981510
N861	N86	0.883200	0.868900	0.939120
N871	N87	0.778900	0.859000	0.090020
C861	C86	0.795100	0.861400	0.925200
C871	C87	0.858700	0.639800	0.063400
Co301	Co30	0.429150	0.337520	0.588230
O301	O30	0.423500	0.190800	0.592510
N881	N88	0.422300	0.345600	0.517890
C881	C88	0.399800	0.354600	0.481510
N891	N89	0.383200	0.368900	0.439120
N901	N90	0.278900	0.359000	0.590020
C891	C89	0.295100	0.361400	0.425200
C901	C90	0.358700	0.139800	0.563400
Co311	Co31	0.570850	0.162480	0.588230
O311	O31	0.576500	0.309200	0.592510
N911	N91	0.577700	0.154400	0.517890
C911	C91	0.600200	0.145400	0.481510
N921	N92	0.616800	0.131100	0.439120
N931	N93	0.721100	0.141000	0.590020
C921	C92	0.704900	0.138600	0.425200
C931	C93	0.641300	0.360200	0.563400
Co321	Co32	0.070850	0.662480	0.088230
O321	O32	0.076500	0.809200	0.092510
N941	N94	0.077700	0.654400	0.017890
C941	C94	0.100200	0.645400	0.981510
N951	N95	0.116800	0.631100	0.939120
N961	N96	0.221100	0.641000	0.090020
C951	C95	0.204900	0.638600	0.925200
C961	C96	0.141300	0.860200	0.063400
