data_DIDBEZ_clean_PM
_symmetry_space_group_name_H-M	'P1'
_cell_length_a	12.731500
_cell_length_b	22.614000
_cell_length_c	22.614000
_cell_angle_alpha	90.000000
_cell_angle_beta	90.000000
_cell_angle_gamma	90.000000
_symmetry_Int_Tables_number 1

loop_
_symmetry_equiv_pos_as_xyz
'x,y,z'

loop_
_atom_site_label
_atom_site_type_symbol
_atom_site_fract_x
_atom_site_fract_y
_atom_site_fract_z
Co11	Co1	0.252490	0.738270	0.256240
Co21	Co2	0.252490	0.261730	0.743760
Co31	Co3	0.747510	0.761730	0.756240
Co41	Co4	0.747510	0.238270	0.243760
H11	H1	0.762400	0.353000	0.314100
H21	H2	0.665400	0.436100	0.332200
H31	H3	0.438800	0.375000	0.225600
H41	H4	0.539900	0.290900	0.210400
H51	H5	0.609800	0.524700	0.303000
H61	H6	0.519600	0.614500	0.302100
H71	H7	0.247900	0.526700	0.272900
H81	H8	0.340100	0.439200	0.273300
H91	H9	0.690600	0.738900	0.886100
H101	H10	0.777600	0.735500	0.975900
H111	H11	0.052200	0.722000	0.887600
H121	H12	0.957800	0.732000	0.800400
H131	H13	0.880100	0.775900	0.047100
H141	H14	0.976900	0.776400	0.133500
H151	H15	0.195900	0.672400	0.058600
H161	H16	0.101800	0.675300	0.970800
H171	H17	0.762400	0.647000	0.685900
H181	H18	0.665400	0.563900	0.667800
H191	H19	0.438800	0.625000	0.774400
H201	H20	0.539900	0.709100	0.789600
H211	H21	0.609800	0.475300	0.697000
H221	H22	0.519600	0.385500	0.697900
H231	H23	0.247900	0.473300	0.727100
H241	H24	0.340100	0.560800	0.726700
H251	H25	0.690600	0.261100	0.113900
H261	H26	0.777600	0.264500	0.024100
H271	H27	0.052200	0.278000	0.112400
H281	H28	0.957800	0.268000	0.199600
H291	H29	0.880100	0.224100	0.952900
H301	H30	0.976900	0.223600	0.866500
H311	H31	0.195900	0.327600	0.941400
H321	H32	0.101800	0.324700	0.029200
H331	H33	0.237600	0.147000	0.814100
H341	H34	0.334600	0.063900	0.832200
H351	H35	0.561200	0.125000	0.725600
H361	H36	0.460100	0.209100	0.710400
H371	H37	0.390200	0.975300	0.803000
H381	H38	0.480400	0.885500	0.802100
H391	H39	0.752100	0.973300	0.772900
H401	H40	0.659900	0.060800	0.773300
H411	H41	0.309400	0.761100	0.386100
H421	H42	0.222400	0.764500	0.475900
H431	H43	0.947800	0.778000	0.387600
H441	H44	0.042200	0.768000	0.300400
H451	H45	0.119900	0.724100	0.547100
H461	H46	0.023100	0.723600	0.633500
H471	H47	0.804100	0.827600	0.558600
H481	H48	0.898200	0.824700	0.470800
H491	H49	0.237600	0.853000	0.185900
H501	H50	0.334600	0.936100	0.167800
H511	H51	0.561200	0.875000	0.274400
H521	H52	0.460100	0.790900	0.289600
H531	H53	0.390200	0.024700	0.197000
H541	H54	0.480400	0.114500	0.197900
H551	H55	0.752100	0.026700	0.227100
H561	H56	0.659900	0.939200	0.226700
H571	H57	0.309400	0.238900	0.613900
H581	H58	0.222400	0.235500	0.524100
H591	H59	0.947800	0.222000	0.612400
H601	H60	0.042200	0.232000	0.699600
H611	H61	0.119900	0.275900	0.452900
H621	H62	0.023100	0.276400	0.366500
H631	H63	0.804100	0.172400	0.441400
H641	H64	0.898200	0.175300	0.529200
C11	C1	0.695900	0.357500	0.295500
C21	C2	0.639100	0.407100	0.305600
C31	C3	0.543700	0.416500	0.278100
C41	C4	0.506000	0.371700	0.243600
C51	C5	0.566700	0.321400	0.235000
C61	C6	0.483300	0.473200	0.284900
C71	C7	0.536400	0.525300	0.295700
C81	C8	0.482300	0.578600	0.295900
C91	C9	0.377700	0.580100	0.287300
C101	C10	0.321800	0.526700	0.278500
C111	C11	0.377200	0.475300	0.278300
C121	C12	0.319900	0.638500	0.281400
C131	C13	0.765200	0.737400	0.886600
C141	C14	0.817100	0.733700	0.940300
C151	C15	0.922700	0.727500	0.943200
C161	C16	0.978100	0.726600	0.888600
C171	C17	0.920700	0.732600	0.836800
C181	C18	0.982600	0.725300	0.000100
C191	C19	0.945100	0.755400	0.049100
C201	C20	0.002300	0.755400	0.100100
C211	C21	0.096200	0.725400	0.104000
C221	C22	0.132500	0.694400	0.056200
C231	C23	0.075600	0.695700	0.004400
C241	C24	0.161200	0.728500	0.158500
C251	C25	0.695900	0.642500	0.704500
C261	C26	0.639100	0.592900	0.694400
C271	C27	0.543700	0.583500	0.721900
C281	C28	0.506000	0.628300	0.756400
C291	C29	0.566700	0.678600	0.765000
C301	C30	0.483300	0.526800	0.715100
C311	C31	0.536400	0.474700	0.704300
C321	C32	0.482300	0.421400	0.704100
C331	C33	0.377700	0.419900	0.712700
C341	C34	0.321800	0.473300	0.721500
C351	C35	0.377200	0.524700	0.721700
C361	C36	0.319900	0.361500	0.718600
C371	C37	0.765200	0.262600	0.113400
C381	C38	0.817100	0.266300	0.059700
C391	C39	0.922700	0.272500	0.056800
C401	C40	0.978100	0.273400	0.111400
C411	C41	0.920700	0.267400	0.163200
C421	C42	0.982600	0.274700	0.999900
C431	C43	0.945100	0.244600	0.950900
C441	C44	0.002300	0.244600	0.899900
C451	C45	0.096200	0.274600	0.896000
C461	C46	0.132500	0.305600	0.943800
C471	C47	0.075600	0.304300	0.995600
C481	C48	0.161200	0.271500	0.841500
C491	C49	0.304100	0.142500	0.795500
C501	C50	0.360900	0.092900	0.805600
C511	C51	0.456300	0.083500	0.778100
C521	C52	0.494000	0.128300	0.743600
C531	C53	0.433300	0.178600	0.735000
C541	C54	0.516700	0.026800	0.784900
C551	C55	0.463600	0.974700	0.795700
C561	C56	0.517700	0.921400	0.795900
C571	C57	0.622300	0.919900	0.787300
C581	C58	0.678200	0.973300	0.778500
C591	C59	0.622800	0.024700	0.778300
C601	C60	0.680100	0.861500	0.781400
C611	C61	0.234800	0.762600	0.386600
C621	C62	0.182900	0.766300	0.440300
C631	C63	0.077300	0.772500	0.443200
C641	C64	0.021900	0.773400	0.388600
C651	C65	0.079300	0.767400	0.336800
C661	C66	0.017400	0.774700	0.500100
C671	C67	0.054900	0.744600	0.549100
C681	C68	0.997700	0.744600	0.600100
C691	C69	0.903800	0.774600	0.604000
C701	C70	0.867500	0.805600	0.556200
C711	C71	0.924400	0.804300	0.504400
C721	C72	0.838800	0.771500	0.658500
C731	C73	0.304100	0.857500	0.204500
C741	C74	0.360900	0.907100	0.194400
C751	C75	0.456300	0.916500	0.221900
C761	C76	0.494000	0.871700	0.256400
C771	C77	0.433300	0.821400	0.265000
C781	C78	0.516700	0.973200	0.215100
C791	C79	0.463600	0.025300	0.204300
C801	C80	0.517700	0.078600	0.204100
C811	C81	0.622300	0.080100	0.212700
C821	C82	0.678200	0.026700	0.221500
C831	C83	0.622800	0.975300	0.221700
C841	C84	0.680100	0.138500	0.218600
C851	C85	0.234800	0.237400	0.613400
C861	C86	0.182900	0.233700	0.559700
C871	C87	0.077300	0.227500	0.556800
C881	C88	0.021900	0.226600	0.611400
C891	C89	0.079300	0.232600	0.663200
C901	C90	0.017400	0.225300	0.499900
C911	C91	0.054900	0.255400	0.450900
C921	C92	0.997700	0.255400	0.399900
C931	C93	0.903800	0.225400	0.396000
C941	C94	0.867500	0.194400	0.443800
C951	C95	0.924400	0.195700	0.495600
C961	C96	0.838800	0.228500	0.341500
N11	N1	0.659700	0.314100	0.259300
N21	N2	0.818200	0.739000	0.835100
N31	N3	0.659700	0.685900	0.740700
N41	N4	0.818200	0.261000	0.164900
N51	N5	0.340300	0.185900	0.759300
N61	N6	0.181800	0.761000	0.335100
N71	N7	0.340300	0.814100	0.240700
N81	N8	0.181800	0.239000	0.664900
O11	O1	0.374100	0.685700	0.281900
O21	O2	0.221800	0.640100	0.275600
O31	O3	0.253400	0.710300	0.159900
O41	O4	0.121600	0.754500	0.204400
O51	O5	0.374100	0.314300	0.718100
O61	O6	0.221800	0.359900	0.724400
O71	O7	0.253400	0.289700	0.840100
O81	O8	0.121600	0.245500	0.795600
O91	O9	0.625900	0.814300	0.781900
O101	O10	0.778200	0.859900	0.775600
O111	O11	0.746600	0.789700	0.659900
O121	O12	0.878400	0.745500	0.704400
O131	O13	0.625900	0.185700	0.218100
O141	O14	0.778200	0.140100	0.224400
O151	O15	0.746600	0.210300	0.340100
O161	O16	0.878400	0.254500	0.295600
Co51	Co5	0.252490	0.243760	0.238270
Co61	Co6	0.252490	0.756240	0.761730
Co71	Co7	0.747510	0.256240	0.738270
Co81	Co8	0.747510	0.743760	0.261730
H651	H65	0.762400	0.185900	0.853000
H661	H66	0.665400	0.167800	0.936100
H671	H67	0.438800	0.274400	0.875000
H681	H68	0.539900	0.289600	0.790900
H691	H69	0.609800	0.197000	0.024700
H701	H70	0.519600	0.197900	0.114500
H711	H71	0.247900	0.227100	0.026700
H721	H72	0.340100	0.226700	0.939200
H731	H73	0.690600	0.613900	0.238900
H741	H74	0.777600	0.524100	0.235500
H751	H75	0.052200	0.612400	0.222000
H761	H76	0.957800	0.699600	0.232000
H771	H77	0.880100	0.452900	0.275900
H781	H78	0.976900	0.366500	0.276400
H791	H79	0.195900	0.441400	0.172400
H801	H80	0.101800	0.529200	0.175300
H811	H81	0.762400	0.814100	0.147000
H821	H82	0.665400	0.832200	0.063900
H831	H83	0.438800	0.725600	0.125000
H841	H84	0.539900	0.710400	0.209100
H851	H85	0.609800	0.803000	0.975300
H861	H86	0.519600	0.802100	0.885500
H871	H87	0.247900	0.772900	0.973300
H881	H88	0.340100	0.773300	0.060800
H891	H89	0.690600	0.386100	0.761100
H901	H90	0.777600	0.475900	0.764500
H911	H91	0.052200	0.387600	0.778000
H921	H92	0.957800	0.300400	0.768000
H931	H93	0.880100	0.547100	0.724100
H941	H94	0.976900	0.633500	0.723600
H951	H95	0.195900	0.558600	0.827600
H961	H96	0.101800	0.470800	0.824700
H971	H97	0.237600	0.314100	0.353000
H981	H98	0.334600	0.332200	0.436100
H991	H99	0.561200	0.225600	0.375000
H1001	H100	0.460100	0.210400	0.290900
H1011	H101	0.390200	0.303000	0.524700
H1021	H102	0.480400	0.302100	0.614500
H1031	H103	0.752100	0.272900	0.526700
H1041	H104	0.659900	0.273300	0.439200
H1051	H105	0.309400	0.886100	0.738900
H1061	H106	0.222400	0.975900	0.735500
H1071	H107	0.947800	0.887600	0.722000
H1081	H108	0.042200	0.800400	0.732000
H1091	H109	0.119900	0.047100	0.775900
H1101	H110	0.023100	0.133500	0.776400
H1111	H111	0.804100	0.058600	0.672400
H1121	H112	0.898200	0.970800	0.675300
H1131	H113	0.237600	0.685900	0.647000
H1141	H114	0.334600	0.667800	0.563900
H1151	H115	0.561200	0.774400	0.625000
H1161	H116	0.460100	0.789600	0.709100
H1171	H117	0.390200	0.697000	0.475300
H1181	H118	0.480400	0.697900	0.385500
H1191	H119	0.752100	0.727100	0.473300
H1201	H120	0.659900	0.726700	0.560800
H1211	H121	0.309400	0.113900	0.261100
H1221	H122	0.222400	0.024100	0.264500
H1231	H123	0.947800	0.112400	0.278000
H1241	H124	0.042200	0.199600	0.268000
H1251	H125	0.119900	0.952900	0.224100
H1261	H126	0.023100	0.866500	0.223600
H1271	H127	0.804100	0.941400	0.327600
H1281	H128	0.898200	0.029200	0.324700
C971	C97	0.695900	0.204500	0.857500
C981	C98	0.639100	0.194400	0.907100
C991	C99	0.543700	0.221900	0.916500
C1001	C100	0.506000	0.256400	0.871700
C1011	C101	0.566700	0.265000	0.821400
C1021	C102	0.483300	0.215100	0.973200
C1031	C103	0.536400	0.204300	0.025300
C1041	C104	0.482300	0.204100	0.078600
C1051	C105	0.377700	0.212700	0.080100
C1061	C106	0.321800	0.221500	0.026700
C1071	C107	0.377200	0.221700	0.975300
C1081	C108	0.319900	0.218600	0.138500
C1091	C109	0.765200	0.613400	0.237400
C1101	C110	0.817100	0.559700	0.233700
C1111	C111	0.922700	0.556800	0.227500
C1121	C112	0.978100	0.611400	0.226600
C1131	C113	0.920700	0.663200	0.232600
C1141	C114	0.982600	0.499900	0.225300
C1151	C115	0.945100	0.450900	0.255400
C1161	C116	0.002300	0.399900	0.255400
C1171	C117	0.096200	0.396000	0.225400
C1181	C118	0.132500	0.443800	0.194400
C1191	C119	0.075600	0.495600	0.195700
C1201	C120	0.161200	0.341500	0.228500
C1211	C121	0.695900	0.795500	0.142500
C1221	C122	0.639100	0.805600	0.092900
C1231	C123	0.543700	0.778100	0.083500
C1241	C124	0.506000	0.743600	0.128300
C1251	C125	0.566700	0.735000	0.178600
C1261	C126	0.483300	0.784900	0.026800
C1271	C127	0.536400	0.795700	0.974700
C1281	C128	0.482300	0.795900	0.921400
C1291	C129	0.377700	0.787300	0.919900
C1301	C130	0.321800	0.778500	0.973300
C1311	C131	0.377200	0.778300	0.024700
C1321	C132	0.319900	0.781400	0.861500
C1331	C133	0.765200	0.386600	0.762600
C1341	C134	0.817100	0.440300	0.766300
C1351	C135	0.922700	0.443200	0.772500
C1361	C136	0.978100	0.388600	0.773400
C1371	C137	0.920700	0.336800	0.767400
C1381	C138	0.982600	0.500100	0.774700
C1391	C139	0.945100	0.549100	0.744600
C1401	C140	0.002300	0.600100	0.744600
C1411	C141	0.096200	0.604000	0.774600
C1421	C142	0.132500	0.556200	0.805600
C1431	C143	0.075600	0.504400	0.804300
C1441	C144	0.161200	0.658500	0.771500
C1451	C145	0.304100	0.295500	0.357500
C1461	C146	0.360900	0.305600	0.407100
C1471	C147	0.456300	0.278100	0.416500
C1481	C148	0.494000	0.243600	0.371700
C1491	C149	0.433300	0.235000	0.321400
C1501	C150	0.516700	0.284900	0.473200
C1511	C151	0.463600	0.295700	0.525300
C1521	C152	0.517700	0.295900	0.578600
C1531	C153	0.622300	0.287300	0.580100
C1541	C154	0.678200	0.278500	0.526700
C1551	C155	0.622800	0.278300	0.475300
C1561	C156	0.680100	0.281400	0.638500
C1571	C157	0.234800	0.886600	0.737400
C1581	C158	0.182900	0.940300	0.733700
C1591	C159	0.077300	0.943200	0.727500
C1601	C160	0.021900	0.888600	0.726600
C1611	C161	0.079300	0.836800	0.732600
C1621	C162	0.017400	0.000100	0.725300
C1631	C163	0.054900	0.049100	0.755400
C1641	C164	0.997700	0.100100	0.755400
C1651	C165	0.903800	0.104000	0.725400
C1661	C166	0.867500	0.056200	0.694400
C1671	C167	0.924400	0.004400	0.695700
C1681	C168	0.838800	0.158500	0.728500
C1691	C169	0.304100	0.704500	0.642500
C1701	C170	0.360900	0.694400	0.592900
C1711	C171	0.456300	0.721900	0.583500
C1721	C172	0.494000	0.756400	0.628300
C1731	C173	0.433300	0.765000	0.678600
C1741	C174	0.516700	0.715100	0.526800
C1751	C175	0.463600	0.704300	0.474700
C1761	C176	0.517700	0.704100	0.421400
C1771	C177	0.622300	0.712700	0.419900
C1781	C178	0.678200	0.721500	0.473300
C1791	C179	0.622800	0.721700	0.524700
C1801	C180	0.680100	0.718600	0.361500
C1811	C181	0.234800	0.113400	0.262600
C1821	C182	0.182900	0.059700	0.266300
C1831	C183	0.077300	0.056800	0.272500
C1841	C184	0.021900	0.111400	0.273400
C1851	C185	0.079300	0.163200	0.267400
C1861	C186	0.017400	0.999900	0.274700
C1871	C187	0.054900	0.950900	0.244600
C1881	C188	0.997700	0.899900	0.244600
C1891	C189	0.903800	0.896000	0.274600
C1901	C190	0.867500	0.943800	0.305600
C1911	C191	0.924400	0.995600	0.304300
C1921	C192	0.838800	0.841500	0.271500
N91	N9	0.659700	0.240700	0.814100
N101	N10	0.818200	0.664900	0.239000
N111	N11	0.659700	0.759300	0.185900
N121	N12	0.818200	0.335100	0.761000
N131	N13	0.340300	0.259300	0.314100
N141	N14	0.181800	0.835100	0.739000
N151	N15	0.340300	0.740700	0.685900
N161	N16	0.181800	0.164900	0.261000
O171	O17	0.374100	0.218100	0.185700
O181	O18	0.221800	0.224400	0.140100
O191	O19	0.253400	0.340100	0.210300
O201	O20	0.121600	0.295600	0.254500
O211	O21	0.374100	0.781900	0.814300
O221	O22	0.221800	0.775600	0.859900
O231	O23	0.253400	0.659900	0.789700
O241	O24	0.121600	0.704400	0.745500
O251	O25	0.625900	0.281900	0.685700
O261	O26	0.778200	0.275600	0.640100
O271	O27	0.746600	0.159900	0.710300
O281	O28	0.878400	0.204400	0.754500
O291	O29	0.625900	0.718100	0.314300
O301	O30	0.778200	0.724400	0.359900
O311	O31	0.746600	0.840100	0.289700
O321	O32	0.878400	0.795600	0.245500
