data_DIDDOK_clean_PM
_symmetry_space_group_name_H-M	'P1'
_cell_length_a	16.249300
_cell_length_b	16.249300
_cell_length_c	22.990000
_cell_angle_alpha	73.121600
_cell_angle_beta	73.121600
_cell_angle_gamma	66.294600
_symmetry_Int_Tables_number 1

loop_
_symmetry_equiv_pos_as_xyz
'x,y,z'

loop_
_atom_site_label
_atom_site_type_symbol
_atom_site_fract_x
_atom_site_fract_y
_atom_site_fract_z
Zn11	Zn1	0.993810	0.596570	0.487280
Zn21	Zn2	0.403430	0.006190	0.012720
Zn31	Zn3	0.006190	0.403430	0.512720
Zn41	Zn4	0.596570	0.993810	0.987280
H11	H1	0.223800	0.540800	0.569300
H21	H2	0.338900	0.504300	0.620800
H31	H3	0.370900	0.235500	0.648600
H41	H4	0.247600	0.276600	0.598500
H51	H5	0.586000	0.253600	0.700800
H61	H6	0.608500	0.158500	0.799300
H71	H7	0.338900	0.200300	0.848400
H81	H8	0.317400	0.301200	0.752800
H91	H9	0.080100	0.731900	0.408000
H101	H10	0.100300	0.860500	0.407700
H111	H11	0.908100	0.884700	0.561300
H121	H12	0.888400	0.753800	0.554400
H131	H13	0.036700	0.011100	0.441200
H141	H14	0.459200	0.776200	0.930700
H151	H15	0.495700	0.661100	0.879200
H161	H16	0.764500	0.629100	0.851400
H171	H17	0.723400	0.752400	0.901500
H181	H18	0.746400	0.414000	0.799200
H191	H19	0.841500	0.391500	0.700700
H201	H20	0.799700	0.661100	0.651600
H211	H21	0.698800	0.682600	0.747200
H221	H22	0.268100	0.919900	0.092000
H231	H23	0.139500	0.899700	0.092300
H241	H24	0.115300	0.091900	0.938700
H251	H25	0.246200	0.111600	0.945600
H261	H26	0.988900	0.963300	0.058800
H271	H27	0.776200	0.459200	0.430700
H281	H28	0.661100	0.495700	0.379200
H291	H29	0.629100	0.764500	0.351400
H301	H30	0.752400	0.723400	0.401500
H311	H31	0.414000	0.746400	0.299200
H321	H32	0.391500	0.841500	0.200700
H331	H33	0.661100	0.799700	0.151600
H341	H34	0.682600	0.698800	0.247200
H351	H35	0.919900	0.268100	0.592000
H361	H36	0.899700	0.139500	0.592300
H371	H37	0.091900	0.115300	0.438700
H381	H38	0.111600	0.246200	0.445600
H391	H39	0.963300	0.988900	0.558800
H401	H40	0.540800	0.223800	0.069300
H411	H41	0.504300	0.338900	0.120800
H421	H42	0.235500	0.370900	0.148600
H431	H43	0.276600	0.247600	0.098500
H441	H44	0.253600	0.586000	0.200800
H451	H45	0.158500	0.608500	0.299300
H461	H46	0.200300	0.338900	0.348400
H471	H47	0.301200	0.317400	0.252800
H481	H48	0.731900	0.080100	0.908000
H491	H49	0.860500	0.100300	0.907700
H501	H50	0.884700	0.908100	0.061300
H511	H51	0.753800	0.888400	0.054400
H521	H52	0.011100	0.036700	0.941200
C11	C1	0.142900	0.440300	0.549700
C21	C2	0.222600	0.412200	0.578300
C31	C3	0.253500	0.478100	0.586000
C41	C4	0.322500	0.457300	0.615600
C51	C5	0.368200	0.366800	0.637600
C61	C6	0.340300	0.298100	0.632200
C71	C7	0.266500	0.322700	0.602100
C81	C8	0.450300	0.284100	0.718400
C91	C9	0.535100	0.243500	0.731100
C101	C10	0.549100	0.185900	0.789600
C111	C11	0.475800	0.170600	0.831300
C121	C12	0.389800	0.211600	0.818700
C131	C13	0.377300	0.270500	0.761500
C141	C14	0.489500	0.104700	0.893100
C151	C15	0.045700	0.761900	0.441900
C161	C16	0.056300	0.840100	0.439600
C171	C17	0.003300	0.889900	0.483600
C181	C18	0.944400	0.854000	0.528100
C191	C19	0.936000	0.773000	0.526100
C201	C20	0.010900	0.982100	0.480400
C211	C21	0.559700	0.857100	0.950300
C221	C22	0.587800	0.777400	0.921700
C231	C23	0.521900	0.746500	0.914000
C241	C24	0.542700	0.677500	0.884400
C251	C25	0.633200	0.631800	0.862400
C261	C26	0.701900	0.659700	0.867800
C271	C27	0.677300	0.733500	0.897900
C281	C28	0.715900	0.549700	0.781600
C291	C29	0.756500	0.464900	0.768900
C301	C30	0.814100	0.450900	0.710400
C311	C31	0.829400	0.524200	0.668700
C321	C32	0.788400	0.610200	0.681300
C331	C33	0.729500	0.622700	0.738500
C341	C34	0.895300	0.510500	0.606900
C351	C35	0.238100	0.954300	0.058100
C361	C36	0.159900	0.943700	0.060400
C371	C37	0.110100	0.996700	0.016400
C381	C38	0.146000	0.055600	0.971900
C391	C39	0.227000	0.064000	0.973900
C401	C40	0.017900	0.989100	0.019600
C411	C41	0.857100	0.559700	0.450300
C421	C42	0.777400	0.587800	0.421700
C431	C43	0.746500	0.521900	0.414000
C441	C44	0.677500	0.542700	0.384400
C451	C45	0.631800	0.633200	0.362400
C461	C46	0.659700	0.701900	0.367800
C471	C47	0.733500	0.677300	0.397900
C481	C48	0.549700	0.715900	0.281600
C491	C49	0.464900	0.756500	0.268900
C501	C50	0.450900	0.814100	0.210400
C511	C51	0.524200	0.829400	0.168700
C521	C52	0.610200	0.788400	0.181300
C531	C53	0.622700	0.729500	0.238500
C541	C54	0.510500	0.895300	0.106900
C551	C55	0.954300	0.238100	0.558100
C561	C56	0.943700	0.159900	0.560400
C571	C57	0.996700	0.110100	0.516400
C581	C58	0.055600	0.146000	0.471900
C591	C59	0.064000	0.227000	0.473900
C601	C60	0.989100	0.017900	0.519600
C611	C61	0.440300	0.142900	0.049700
C621	C62	0.412200	0.222600	0.078300
C631	C63	0.478100	0.253500	0.086000
C641	C64	0.457300	0.322500	0.115600
C651	C65	0.366800	0.368200	0.137600
C661	C66	0.298100	0.340300	0.132200
C671	C67	0.322700	0.266500	0.102100
C681	C68	0.284100	0.450300	0.218400
C691	C69	0.243500	0.535100	0.231100
C701	C70	0.185900	0.549100	0.289600
C711	C71	0.170600	0.475800	0.331300
C721	C72	0.211600	0.389800	0.318700
C731	C73	0.270500	0.377300	0.261500
C741	C74	0.104700	0.489500	0.393100
C751	C75	0.761900	0.045700	0.941900
C761	C76	0.840100	0.056300	0.939600
C771	C77	0.889900	0.003300	0.983600
C781	C78	0.854000	0.944400	0.028100
C791	C79	0.773000	0.936000	0.026100
C801	C80	0.982100	0.010900	0.980400
N11	N1	0.994100	0.721700	0.484700
N21	N2	0.278300	0.005900	0.015300
N31	N3	0.005900	0.278300	0.515300
N41	N4	0.721700	0.994100	0.984700
O11	O1	0.105100	0.523300	0.528700
O21	O2	0.116200	0.377800	0.548900
O31	O3	0.442500	0.345300	0.662000
O41	O4	0.568200	0.075200	0.906200
O51	O5	0.421400	0.086800	0.927600
O61	O6	0.476700	0.894900	0.971300
O71	O7	0.622200	0.883800	0.951100
O81	O8	0.654700	0.557500	0.838000
O91	O9	0.924800	0.431800	0.593800
O101	O10	0.913200	0.578600	0.572400
O111	O11	0.894900	0.476700	0.471300
O121	O12	0.883800	0.622200	0.451100
O131	O13	0.557500	0.654700	0.338000
O141	O14	0.431800	0.924800	0.093800
O151	O15	0.578600	0.913200	0.072400
O161	O16	0.523300	0.105100	0.028700
O171	O17	0.377800	0.116200	0.048900
O181	O18	0.345300	0.442500	0.162000
O191	O19	0.075200	0.568200	0.406200
O201	O20	0.086800	0.421400	0.427600
