data_DIKJUD_clean_PM
_symmetry_space_group_name_H-M	'P1'
_cell_length_a	21.296000
_cell_length_b	9.382000
_cell_length_c	18.803000
_cell_angle_alpha	90.000000
_cell_angle_beta	90.000000
_cell_angle_gamma	90.000000
_symmetry_Int_Tables_number 1

loop_
_symmetry_equiv_pos_as_xyz
'x,y,z'

loop_
_atom_site_label
_atom_site_type_symbol
_atom_site_fract_x
_atom_site_fract_y
_atom_site_fract_z
Cu11	Cu1	0.887910	0.018830	0.882000
O11	O1	0.903200	0.496000	0.021300
N11	N1	0.951000	0.867000	0.915200
C11	C1	0.976700	0.678700	0.994600
C21	C2	0.933800	0.766000	0.961100
H11	H1	0.891300	0.753800	0.970900
C31	C3	0.013300	0.881600	0.901100
H21	H2	0.025900	0.951200	0.868900
C41	C4	0.057100	0.799900	0.931700
H31	H3	0.099000	0.812400	0.919600
C51	C5	0.040900	0.697900	0.980700
H41	H4	0.071300	0.643600	0.003700
C61	C6	0.952800	0.558300	0.037400
O21	O2	0.924700	0.450100	0.300600
N21	N2	0.050600	0.821400	0.400300
C71	C7	0.990600	0.625300	0.354600
C81	C8	0.037200	0.721500	0.349600
H51	H5	0.062100	0.719800	0.309000
C91	C9	0.013400	0.816500	0.457700
H61	H6	0.021000	0.882700	0.493500
C101	C10	0.965800	0.723200	0.468100
H71	H7	0.943200	0.722300	0.510400
C111	C11	0.952200	0.632300	0.415300
H81	H8	0.917200	0.573500	0.418800
C121	C12	0.975600	0.511900	0.300300
N31	N3	0.983600	0.520700	0.097000
H91	H9	0.016700	0.567100	0.109000
N41	N4	0.018800	0.481200	0.252700
H101	H10	0.053400	0.528600	0.252700
C131	C13	0.962000	0.402700	0.142100
H111	H11	0.954800	0.319300	0.112800
H121	H12	0.922500	0.428600	0.164300
C141	C14	0.009700	0.367100	0.199200
H131	H13	0.996300	0.281000	0.223400
H141	H14	0.049700	0.347200	0.176600
O31	O3	0.671600	0.462100	0.969500
N51	N5	0.820500	0.167100	0.859500
C151	C15	0.748900	0.338900	0.902700
C161	C16	0.803200	0.262200	0.909100
H151	H15	0.828800	0.276300	0.948600
C171	C17	0.782200	0.147300	0.802100
H161	H16	0.793200	0.079000	0.768500
C181	C18	0.728300	0.223700	0.792100
H171	H17	0.704600	0.213300	0.750900
C191	C19	0.710200	0.316900	0.845200
H181	H18	0.672000	0.364500	0.842000
C201	C20	0.728200	0.433600	0.961300
O41	O4	0.667500	0.522200	0.228800
N61	N6	0.679400	0.867200	0.369100
C211	C21	0.726000	0.684000	0.299000
C221	C22	0.675700	0.767300	0.317700
H191	H19	0.637800	0.754400	0.294100
C231	C23	0.733900	0.877000	0.406800
H201	H20	0.736900	0.941800	0.444000
C241	C24	0.784500	0.792400	0.390400
H211	H21	0.821200	0.801500	0.416800
C251	C25	0.782300	0.695200	0.336400
H221	H22	0.816900	0.639000	0.325100
C261	C26	0.717200	0.585100	0.237200
N71	N7	0.773000	0.493900	0.003300
H231	H23	0.811700	0.482800	0.991300
N81	N8	0.767800	0.566300	0.195900
H241	H24	0.801800	0.608900	0.208500
C271	C27	0.759800	0.575200	0.066600
H251	H25	0.787200	0.657700	0.068800
H261	H26	0.716700	0.608500	0.065700
C281	C28	0.770400	0.480700	0.131900
H271	H27	0.811000	0.434400	0.128500
H281	H28	0.738400	0.407200	0.133800
Cu21	Cu2	0.112090	0.981170	0.382000
O51	O5	0.096800	0.504000	0.521300
N91	N9	0.049000	0.133000	0.415200
C291	C29	0.023300	0.321300	0.494600
C301	C30	0.066200	0.234000	0.461100
H291	H29	0.108700	0.246200	0.470900
C311	C31	0.986700	0.118400	0.401100
H301	H30	0.974100	0.048800	0.368900
C321	C32	0.942900	0.200100	0.431700
H311	H31	0.901000	0.187600	0.419600
C331	C33	0.959100	0.302100	0.480700
H321	H32	0.928700	0.356400	0.503700
C341	C34	0.047200	0.441700	0.537400
O61	O6	0.075300	0.549900	0.800600
N101	N10	0.949400	0.178600	0.900300
C351	C35	0.009400	0.374700	0.854600
C361	C36	0.962800	0.278500	0.849600
H331	H33	0.937900	0.280200	0.809000
C371	C37	0.986600	0.183500	0.957700
H341	H34	0.979000	0.117300	0.993500
C381	C38	0.034200	0.276800	0.968100
H351	H35	0.056800	0.277700	0.010400
C391	C39	0.047800	0.367700	0.915300
H361	H36	0.082800	0.426500	0.918800
C401	C40	0.024400	0.488100	0.800300
N111	N11	0.016400	0.479300	0.597000
H371	H37	0.983300	0.432900	0.609000
N121	N12	0.981200	0.518800	0.752700
H381	H38	0.946600	0.471400	0.752700
C411	C41	0.038000	0.597300	0.642100
H391	H39	0.045200	0.680700	0.612800
H401	H40	0.077500	0.571400	0.664300
C421	C42	0.990300	0.632900	0.699200
H411	H41	0.003700	0.719000	0.723400
H421	H42	0.950300	0.652800	0.676600
O71	O7	0.328400	0.537900	0.469500
N131	N13	0.179500	0.832900	0.359500
C431	C43	0.251100	0.661100	0.402700
C441	C44	0.196800	0.737800	0.409100
H431	H43	0.171200	0.723700	0.448600
C451	C45	0.217800	0.852700	0.302100
H441	H44	0.206800	0.921000	0.268500
C461	C46	0.271700	0.776300	0.292100
H451	H45	0.295400	0.786700	0.250900
C471	C47	0.289800	0.683100	0.345200
H461	H46	0.328000	0.635500	0.342000
C481	C48	0.271800	0.566400	0.461300
O81	O8	0.332500	0.477800	0.728800
N141	N14	0.320600	0.132800	0.869100
C491	C49	0.274000	0.316000	0.799000
C501	C50	0.324300	0.232700	0.817700
H471	H47	0.362200	0.245600	0.794100
C511	C51	0.266100	0.123000	0.906800
H481	H48	0.263100	0.058200	0.944000
C521	C52	0.215500	0.207600	0.890400
H491	H49	0.178800	0.198500	0.916800
C531	C53	0.217700	0.304800	0.836400
H501	H50	0.183100	0.361000	0.825100
C541	C54	0.282800	0.414900	0.737200
N151	N15	0.227000	0.506100	0.503300
H511	H51	0.188300	0.517200	0.491300
N161	N16	0.232200	0.433700	0.695900
H521	H52	0.198200	0.391100	0.708500
C551	C55	0.240200	0.424800	0.566600
H531	H53	0.212800	0.342300	0.568800
H541	H54	0.283300	0.391500	0.565700
C561	C56	0.229600	0.519300	0.631900
H551	H55	0.189000	0.565600	0.628500
H561	H56	0.261600	0.592800	0.633800
Cu31	Cu3	0.387910	0.981170	0.882000
O91	O9	0.403200	0.504000	0.021300
N171	N17	0.451000	0.133000	0.915200
C571	C57	0.476700	0.321300	0.994600
C581	C58	0.433800	0.234000	0.961100
H571	H57	0.391300	0.246200	0.970900
C591	C59	0.513300	0.118400	0.901100
H581	H58	0.525900	0.048800	0.868900
C601	C60	0.557100	0.200100	0.931700
H591	H59	0.599000	0.187600	0.919600
C611	C61	0.540900	0.302100	0.980700
H601	H60	0.571300	0.356400	0.003700
C621	C62	0.452800	0.441700	0.037400
O101	O10	0.424700	0.549900	0.300600
N181	N18	0.550600	0.178600	0.400300
C631	C63	0.490600	0.374700	0.354600
C641	C64	0.537200	0.278500	0.349600
H611	H61	0.562100	0.280200	0.309000
C651	C65	0.513400	0.183500	0.457700
H621	H62	0.521000	0.117300	0.493500
C661	C66	0.465800	0.276800	0.468100
H631	H63	0.443200	0.277700	0.510400
C671	C67	0.452200	0.367700	0.415300
H641	H64	0.417200	0.426500	0.418800
C681	C68	0.475600	0.488100	0.300300
N191	N19	0.483600	0.479300	0.097000
H651	H65	0.516700	0.432900	0.109000
N201	N20	0.518800	0.518800	0.252700
H661	H66	0.553400	0.471400	0.252700
C691	C69	0.462000	0.597300	0.142100
H671	H67	0.454800	0.680700	0.112800
H681	H68	0.422500	0.571400	0.164300
C701	C70	0.509700	0.632900	0.199200
H691	H69	0.496300	0.719000	0.223400
H701	H70	0.549700	0.652800	0.176600
O111	O11	0.171600	0.537900	0.969500
N211	N21	0.320500	0.832900	0.859500
C711	C71	0.248900	0.661100	0.902700
C721	C72	0.303200	0.737800	0.909100
H711	H71	0.328800	0.723700	0.948600
C731	C73	0.282200	0.852700	0.802100
H721	H72	0.293200	0.921000	0.768500
C741	C74	0.228300	0.776300	0.792100
H731	H73	0.204600	0.786700	0.750900
C751	C75	0.210200	0.683100	0.845200
H741	H74	0.172000	0.635500	0.842000
C761	C76	0.228200	0.566400	0.961300
O121	O12	0.167500	0.477800	0.228800
N221	N22	0.179400	0.132800	0.369100
C771	C77	0.226000	0.316000	0.299000
C781	C78	0.175700	0.232700	0.317700
H751	H75	0.137800	0.245600	0.294100
C791	C79	0.233900	0.123000	0.406800
H761	H76	0.236900	0.058200	0.444000
C801	C80	0.284500	0.207600	0.390400
H771	H77	0.321200	0.198500	0.416800
C811	C81	0.282300	0.304800	0.336400
H781	H78	0.316900	0.361000	0.325100
C821	C82	0.217200	0.414900	0.237200
N231	N23	0.273000	0.506100	0.003300
H791	H79	0.311700	0.517200	0.991300
N241	N24	0.267800	0.433700	0.195900
H801	H80	0.301800	0.391100	0.208500
C831	C83	0.259800	0.424800	0.066600
H811	H81	0.287200	0.342300	0.068800
H821	H82	0.216700	0.391500	0.065700
C841	C84	0.270400	0.519300	0.131900
H831	H83	0.311000	0.565600	0.128500
H841	H84	0.238400	0.592800	0.133800
Cu41	Cu4	0.612090	0.018830	0.382000
O131	O13	0.596800	0.496000	0.521300
N251	N25	0.549000	0.867000	0.415200
C851	C85	0.523300	0.678700	0.494600
C861	C86	0.566200	0.766000	0.461100
H851	H85	0.608700	0.753800	0.470900
C871	C87	0.486700	0.881600	0.401100
H861	H86	0.474100	0.951200	0.368900
C881	C88	0.442900	0.799900	0.431700
H871	H87	0.401000	0.812400	0.419600
C891	C89	0.459100	0.697900	0.480700
H881	H88	0.428700	0.643600	0.503700
C901	C90	0.547200	0.558300	0.537400
O141	O14	0.575300	0.450100	0.800600
N261	N26	0.449400	0.821400	0.900300
C911	C91	0.509400	0.625300	0.854600
C921	C92	0.462800	0.721500	0.849600
H891	H89	0.437900	0.719800	0.809000
C931	C93	0.486600	0.816500	0.957700
H901	H90	0.479000	0.882700	0.993500
C941	C94	0.534200	0.723200	0.968100
H911	H91	0.556800	0.722300	0.010400
C951	C95	0.547800	0.632300	0.915300
H921	H92	0.582800	0.573500	0.918800
C961	C96	0.524400	0.511900	0.800300
N271	N27	0.516400	0.520700	0.597000
H931	H93	0.483300	0.567100	0.609000
N281	N28	0.481200	0.481200	0.752700
H941	H94	0.446600	0.528600	0.752700
C971	C97	0.538000	0.402700	0.642100
H951	H95	0.545200	0.319300	0.612800
H961	H96	0.577500	0.428600	0.664300
C981	C98	0.490300	0.367100	0.699200
H971	H97	0.503700	0.281000	0.723400
H981	H98	0.450300	0.347200	0.676600
O151	O15	0.828400	0.462100	0.469500
N291	N29	0.679500	0.167100	0.359500
C991	C99	0.751100	0.338900	0.402700
C1001	C100	0.696800	0.262200	0.409100
H991	H99	0.671200	0.276300	0.448600
C1011	C101	0.717800	0.147300	0.302100
H1001	H100	0.706800	0.079000	0.268500
C1021	C102	0.771700	0.223700	0.292100
H1011	H101	0.795400	0.213300	0.250900
C1031	C103	0.789800	0.316900	0.345200
H1021	H102	0.828000	0.364500	0.342000
C1041	C104	0.771800	0.433600	0.461300
O161	O16	0.832500	0.522200	0.728800
N301	N30	0.820600	0.867200	0.869100
C1051	C105	0.774000	0.684000	0.799000
C1061	C106	0.824300	0.767300	0.817700
H1031	H103	0.862200	0.754400	0.794100
C1071	C107	0.766100	0.877000	0.906800
H1041	H104	0.763100	0.941800	0.944000
C1081	C108	0.715500	0.792400	0.890400
H1051	H105	0.678800	0.801500	0.916800
C1091	C109	0.717700	0.695200	0.836400
H1061	H106	0.683100	0.639000	0.825100
C1101	C110	0.782800	0.585100	0.737200
N311	N31	0.727000	0.493900	0.503300
H1071	H107	0.688300	0.482800	0.491300
N321	N32	0.732200	0.566300	0.695900
H1081	H108	0.698200	0.608900	0.708500
C1111	C111	0.740200	0.575200	0.566600
H1091	H109	0.712800	0.657700	0.568800
H1101	H110	0.783300	0.608500	0.565700
C1121	C112	0.729600	0.480700	0.631900
H1111	H111	0.689000	0.434400	0.628500
H1121	H112	0.761600	0.407200	0.633800
