data_DIKPOD_clean_PM
_symmetry_space_group_name_H-M	'P1'
_cell_length_a	7.051000
_cell_length_b	14.598100
_cell_length_c	10.621400
_cell_angle_alpha	90.000000
_cell_angle_beta	108.046000
_cell_angle_gamma	90.000000
_symmetry_Int_Tables_number 1

loop_
_symmetry_equiv_pos_as_xyz
'x,y,z'

loop_
_atom_site_label
_atom_site_type_symbol
_atom_site_fract_x
_atom_site_fract_y
_atom_site_fract_z
La11	La1	0.724350	0.611460	0.498740
O11	O1	0.394200	0.557910	0.543200
O21	O2	0.086300	0.592130	0.536000
O31	O3	0.520900	0.724870	0.588300
O41	O4	0.914900	0.851920	0.804800
O51	O5	0.906900	0.719600	0.696100
C11	C1	0.261900	0.613900	0.550600
C21	C2	0.316300	0.713100	0.574000
H11	H1	0.236400	0.749400	0.499900
H21	H2	0.289100	0.734000	0.653400
C31	C3	0.606700	0.804800	0.661300
H31	H3	0.543800	0.817100	0.728900
H41	H4	0.584900	0.857200	0.602500
C41	C4	0.826500	0.789900	0.724900
La21	La2	0.775650	0.111460	0.001260
O61	O6	0.105800	0.057910	0.956800
O71	O7	0.413700	0.092130	0.964000
O81	O8	0.979100	0.224870	0.911700
O91	O9	0.585100	0.351920	0.695200
O101	O10	0.593100	0.219600	0.803900
C51	C5	0.238100	0.113900	0.949400
C61	C6	0.183700	0.213100	0.926000
H51	H5	0.263600	0.249400	0.000100
H61	H6	0.210900	0.234000	0.846600
C71	C7	0.893300	0.304800	0.838700
H71	H7	0.956200	0.317100	0.771100
H81	H8	0.915100	0.357200	0.897500
C81	C8	0.673500	0.289900	0.775100
La31	La3	0.275650	0.388540	0.501260
O111	O11	0.605800	0.442090	0.456800
O121	O12	0.913700	0.407870	0.464000
O131	O13	0.479100	0.275130	0.411700
O141	O14	0.085100	0.148080	0.195200
O151	O15	0.093100	0.280400	0.303900
C91	C9	0.738100	0.386100	0.449400
C101	C10	0.683700	0.286900	0.426000
H91	H9	0.763600	0.250600	0.500100
H101	H10	0.710900	0.266000	0.346600
C111	C11	0.393300	0.195200	0.338700
H111	H11	0.456200	0.182900	0.271100
H121	H12	0.415100	0.142800	0.397500
C121	C12	0.173500	0.210100	0.275100
La41	La4	0.224350	0.888530	0.998740
O161	O16	0.894200	0.942090	0.043200
O171	O17	0.586300	0.907870	0.036000
O181	O18	0.020900	0.775130	0.088300
O191	O19	0.414900	0.648080	0.304800
O201	O20	0.406900	0.780400	0.196100
C131	C13	0.761900	0.886100	0.050600
C141	C14	0.816300	0.786900	0.074000
H131	H13	0.736400	0.750600	0.999900
H141	H14	0.789100	0.766000	0.153400
C151	C15	0.106700	0.695200	0.161300
H151	H15	0.043800	0.682900	0.228900
H161	H16	0.084900	0.642800	0.102500
C161	C16	0.326500	0.710100	0.224900
