data_DIMKER_clean_PM
_symmetry_space_group_name_H-M	'P1'
_cell_length_a	9.223600
_cell_length_b	13.042100
_cell_length_c	18.638900
_cell_angle_alpha	72.103500
_cell_angle_beta	75.674600
_cell_angle_gamma	69.291800
_symmetry_Int_Tables_number 1

loop_
_symmetry_equiv_pos_as_xyz
'x,y,z'

loop_
_atom_site_label
_atom_site_type_symbol
_atom_site_fract_x
_atom_site_fract_y
_atom_site_fract_z
Gd11	Gd1	0.262550	0.589140	0.493080
Gd21	Gd2	0.655230	0.089140	0.993080
Gd31	Gd3	0.737450	0.410860	0.506920
Gd41	Gd4	0.344770	0.910860	0.006920
Zn11	Zn1	0.726430	0.410540	0.166100
Zn21	Zn2	0.273570	0.589460	0.833900
Zn31	Zn3	0.303070	0.089460	0.333900
Zn41	Zn4	0.696930	0.910540	0.666100
H11	H1	0.385800	0.897900	0.582700
H21	H2	0.133600	0.397900	0.082700
H31	H3	0.136700	0.449100	0.147900
H41	H4	0.733700	0.050900	0.352100
H51	H5	0.863300	0.550900	0.852100
H61	H6	0.266300	0.949100	0.647900
H71	H7	0.363400	0.418400	0.306400
H81	H8	0.501100	0.336900	0.350900
H91	H9	0.911800	0.918400	0.806400
H101	H10	0.655800	0.693000	0.634400
H111	H11	0.983200	0.807000	0.865600
H121	H12	0.230300	0.993800	0.564000
H131	H13	0.811100	0.836900	0.850900
H141	H14	0.211900	0.493800	0.064000
H151	H15	0.788100	0.506200	0.936000
H161	H16	0.344200	0.307000	0.365600
H171	H17	0.016800	0.193000	0.134400
H181	H18	0.769700	0.006200	0.436000
H191	H19	0.866400	0.602100	0.917300
H201	H20	0.498900	0.663100	0.649100
H211	H21	0.614200	0.102100	0.417300
H221	H22	0.636600	0.581600	0.693600
H231	H23	0.188900	0.163100	0.149100
H241	H24	0.088200	0.081600	0.193600
C11	C1	0.026200	0.220500	0.233300
C21	C2	0.116400	0.658400	0.700600
C31	C3	0.393100	0.052500	0.580300
C41	C4	0.727400	0.240700	0.091700
C51	C5	0.914800	0.840900	0.827700
C61	C6	0.973800	0.779500	0.766700
C71	C7	0.583400	0.659100	0.672300
C81	C8	0.611700	0.232200	0.162000
C91	C9	0.127800	0.465600	0.095000
C101	C10	0.383100	0.345100	0.520100
C111	C11	0.616900	0.654900	0.479900
C121	C12	0.248300	0.154900	0.979900
C131	C13	0.688400	0.034400	0.405000
C141	C14	0.475400	0.841600	0.799400
C151	C15	0.283800	0.861400	0.417000
C161	C16	0.005900	0.267800	0.338000
C171	C17	0.272600	0.759300	0.908300
C181	C18	0.805900	0.720500	0.041700
C191	C19	0.716200	0.138600	0.583000
C201	C20	0.437800	0.361400	0.917000
C211	C21	0.994100	0.732200	0.662000
C221	C22	0.524600	0.158400	0.200600
C231	C23	0.751700	0.845100	0.020100
C241	C24	0.431900	0.220500	0.541700
C251	C25	0.388300	0.767800	0.838000
C261	C26	0.606900	0.947500	0.419700
C271	C27	0.940200	0.740700	0.591700
C281	C28	0.270100	0.362800	0.927000
C291	C29	0.883600	0.341600	0.299400
C301	C30	0.562200	0.638600	0.083000
C311	C31	0.311600	0.965600	0.595000
C321	C32	0.974100	0.552500	0.080300
C331	C33	0.729900	0.637200	0.073000
C341	C34	0.502500	0.060500	0.184900
C351	C35	0.085200	0.159100	0.172300
C361	C36	0.568100	0.779500	0.458300
C371	C37	0.025900	0.447500	0.919700
C381	C38	0.440100	0.862800	0.427000
C391	C39	0.252100	0.560500	0.684900
C401	C40	0.497500	0.939500	0.815100
C411	C41	0.520000	0.720500	0.733300
C421	C42	0.194100	0.279500	0.958300
C431	C43	0.559900	0.137200	0.573000
C441	C44	0.416600	0.340900	0.327700
C451	C45	0.480000	0.279500	0.266700
C461	C46	0.872200	0.534400	0.905000
C471	C47	0.747900	0.439500	0.315100
C481	C48	0.059800	0.259300	0.408300
N11	N1	0.557400	0.810600	0.734000
N21	N2	0.532100	0.034700	0.597100
N31	N3	0.442600	0.189400	0.266000
N41	N4	0.102000	0.689400	0.766000
N51	N5	0.904500	0.807800	0.704600
N61	N6	0.898000	0.310600	0.234000
N71	N7	0.416900	0.692200	0.795400
N81	N8	0.672200	0.837500	0.451500
N91	N9	0.836100	0.534700	0.097100
N101	N10	0.467900	0.965300	0.402900
N111	N11	0.163900	0.465300	0.902900
N121	N12	0.095500	0.192200	0.295400
N131	N13	0.327800	0.162500	0.548500
N141	N14	0.961200	0.662500	0.048500
N151	N15	0.038800	0.337500	0.951500
N161	N16	0.583100	0.307800	0.204600
O11	O1	0.211800	0.680000	0.925000
O21	O2	0.284400	0.535200	0.621000
O31	O3	0.758400	0.603600	0.484600
O41	O4	0.333600	0.505500	0.737300
O51	O5	0.385570	0.101160	0.994900
O61	O6	0.794800	0.051300	0.622100
O71	O7	0.715600	0.464800	0.379000
O81	O8	0.535500	0.275400	0.949400
O91	O9	0.423600	0.005500	0.237300
O101	O10	0.788200	0.320000	0.075000
O111	O11	0.986900	0.330200	0.448000
O121	O12	0.765100	0.169800	0.052000
O131	O13	0.531800	0.551300	0.122100
O141	O14	0.559400	0.035200	0.121000
O151	O15	0.614430	0.898840	0.005100
O161	O16	0.518370	0.601160	0.494900
O171	O17	0.666400	0.494500	0.262700
O181	O18	0.205200	0.948700	0.377900
O191	O19	0.013100	0.669800	0.552000
O201	O20	0.153400	0.103600	0.984600
O211	O21	0.816800	0.820000	0.575000
O221	O22	0.576400	0.994500	0.762700
O231	O23	0.241600	0.396400	0.515400
O241	O24	0.846600	0.896400	0.015400
O251	O25	0.760300	0.224600	0.550600
O261	O26	0.239700	0.775400	0.449400
O271	O27	0.183200	0.180000	0.425000
O281	O28	0.468200	0.448700	0.877900
O291	O29	0.234900	0.830200	0.948000
O301	O30	0.440600	0.964800	0.879000
O311	O31	0.464500	0.724600	0.050600
O321	O32	0.481630	0.398840	0.505100
