data_DINNIZ_clean_PM
_symmetry_space_group_name_H-M	'P1'
_cell_length_a	13.606000
_cell_length_b	14.368000
_cell_length_c	23.159500
_cell_angle_alpha	91.717300
_cell_angle_beta	90.000000
_cell_angle_gamma	90.000000
_symmetry_Int_Tables_number 1

loop_
_symmetry_equiv_pos_as_xyz
'x,y,z'

loop_
_atom_site_label
_atom_site_type_symbol
_atom_site_fract_x
_atom_site_fract_y
_atom_site_fract_z
Mn11	Mn1	0.501570	0.030480	0.245530
Mn21	Mn2	0.485940	0.847810	0.633450
Mn31	Mn3	0.998430	0.530480	0.745530
Mn41	Mn4	0.781330	0.470620	0.338010
Mn51	Mn5	0.252830	0.735170	0.610420
Mn61	Mn6	0.752830	0.764830	0.889580
Mn71	Mn7	0.498430	0.969520	0.754470
Mn81	Mn8	0.514060	0.152190	0.366550
Mn91	Mn9	0.985940	0.652190	0.866550
Mn101	Mn10	0.247170	0.235170	0.110420
Mn111	Mn11	0.001570	0.469520	0.254470
Mn121	Mn12	0.218670	0.529380	0.661990
Mn131	Mn13	0.281330	0.029380	0.161990
Mn141	Mn14	0.747170	0.264830	0.389580
Mn151	Mn15	0.014060	0.347810	0.133450
Mn161	Mn16	0.718670	0.970620	0.838010
H11	H1	0.017400	0.322300	0.591200
H21	H2	0.216700	0.734700	0.838900
H31	H3	0.728900	0.855700	0.626000
H41	H4	0.906300	0.538200	0.985900
H51	H5	0.187200	0.320800	0.940700
H61	H6	0.271900	0.456600	0.954000
H71	H7	0.076400	0.625700	0.478800
H81	H8	0.271100	0.144300	0.374000
H91	H9	0.265000	0.454800	0.470300
H101	H10	0.283300	0.234700	0.338900
H111	H11	0.821500	0.490200	0.066100
H121	H12	0.716700	0.765300	0.661100
H131	H13	0.710500	0.447200	0.554100
H141	H14	0.886500	0.069300	0.144200
H151	H15	0.950900	0.580100	0.430100
H161	H16	0.953100	0.007000	0.845300
H171	H17	0.783300	0.265300	0.161100
H181	H18	0.607100	0.021900	0.036700
H191	H19	0.879800	0.884500	0.676900
H201	H20	0.765600	0.509800	0.731300
H211	H21	0.234400	0.490200	0.268700
H221	H22	0.777700	0.602500	0.698000
H231	H23	0.678500	0.990200	0.566100
H241	H24	0.312800	0.820800	0.440700
H251	H25	0.611200	0.475200	0.676700
H261	H26	0.468600	0.853400	0.428900
H271	H27	0.789500	0.947200	0.054100
H281	H28	0.812300	0.481200	0.968000
H291	H29	0.574700	0.196200	0.626500
H301	H30	0.844800	0.502400	0.596000
H311	H31	0.531400	0.146600	0.571100
H321	H32	0.155200	0.497600	0.404000
H331	H33	0.032500	0.756400	0.579400
H341	H34	0.379800	0.615500	0.823100
H351	H35	0.532500	0.743600	0.920600
H361	H36	0.366600	0.780000	0.892100
H371	H37	0.735000	0.545200	0.529700
H381	H38	0.031400	0.353400	0.928900
H391	H39	0.892900	0.521900	0.536700
H401	H40	0.967500	0.243600	0.420600
H411	H41	0.631200	0.285400	0.203000
H421	H42	0.046900	0.993000	0.154700
H431	H43	0.385300	0.680800	0.915900
H441	H44	0.133400	0.280000	0.392100
H451	H45	0.784500	0.627100	0.114700
H461	H46	0.366000	0.151900	0.923800
H471	H47	0.228900	0.644300	0.874000
H481	H48	0.608600	0.561600	0.765400
H491	H49	0.955800	0.969100	0.781400
H501	H50	0.687200	0.179200	0.559300
H511	H51	0.222300	0.397500	0.302000
H521	H52	0.771900	0.043400	0.546000
H531	H53	0.044200	0.030900	0.218600
H541	H54	0.289500	0.552800	0.445900
H551	H55	0.284500	0.872900	0.385300
H561	H56	0.722300	0.102500	0.198000
H571	H57	0.734400	0.009800	0.231300
H581	H58	0.866000	0.348100	0.576200
H591	H59	0.379500	0.347000	0.269200
H601	H60	0.549100	0.080100	0.930100
H611	H61	0.765000	0.045200	0.029700
H621	H62	0.215500	0.372900	0.885300
H631	H63	0.613500	0.569300	0.644200
H641	H64	0.386500	0.430700	0.355800
H651	H65	0.467500	0.256400	0.079400
H661	H66	0.391400	0.438400	0.234600
H671	H67	0.049100	0.419900	0.569900
H681	H68	0.344800	0.997600	0.904000
H691	H69	0.312300	0.018800	0.532000
H701	H70	0.114700	0.180800	0.415900
H711	H71	0.321500	0.009800	0.433900
H721	H72	0.482600	0.822300	0.091200
H731	H73	0.888800	0.975200	0.176700
H741	H74	0.620500	0.653000	0.730800
H751	H75	0.108600	0.938400	0.734600
H761	H76	0.187700	0.518800	0.032000
H771	H77	0.113500	0.930700	0.855800
H781	H78	0.634000	0.848100	0.076200
H791	H79	0.388800	0.524800	0.323300
H801	H80	0.968600	0.646600	0.071100
H811	H81	0.461400	0.317500	0.136200
H821	H82	0.517400	0.177700	0.908800
H831	H83	0.423600	0.125700	0.978800
H841	H84	0.120500	0.847000	0.769200
H851	H85	0.368800	0.714600	0.797000
H861	H86	0.235000	0.954800	0.970300
H871	H87	0.891400	0.061600	0.265400
H881	H88	0.111200	0.024800	0.823300
H891	H89	0.093700	0.461800	0.014100
H901	H90	0.210500	0.052800	0.945900
H911	H91	0.131200	0.214600	0.297000
H921	H92	0.879500	0.153000	0.230800
H931	H93	0.982600	0.677700	0.408800
H941	H94	0.546900	0.507000	0.345300
H951	H95	0.885300	0.819200	0.584100
H961	H96	0.453100	0.493000	0.654700
H971	H97	0.450900	0.919900	0.069900
H981	H98	0.614700	0.319200	0.084100
H991	H99	0.134000	0.651900	0.423800
H1001	H100	0.038600	0.817500	0.636200
H1011	H101	0.576400	0.874300	0.021200
H1021	H102	0.455800	0.530900	0.718600
H1031	H103	0.107100	0.478100	0.463300
H1041	H104	0.425300	0.803800	0.373500
H1051	H105	0.620200	0.384500	0.176900
H1061	H106	0.392900	0.978100	0.963300
H1071	H107	0.868800	0.785400	0.703000
H1081	H108	0.265600	0.990200	0.768700
H1091	H109	0.961400	0.182500	0.363800
H1101	H110	0.687700	0.981200	0.468000
H1111	H111	0.178500	0.509800	0.933900
H1121	H112	0.120200	0.115500	0.323100
H1131	H113	0.866600	0.720000	0.607900
H1141	H114	0.277700	0.897500	0.802000
H1151	H115	0.925300	0.696200	0.126500
H1161	H116	0.923600	0.374300	0.521200
H1171	H117	0.728100	0.543400	0.046000
H1181	H118	0.406300	0.961800	0.514100
H1191	H119	0.812800	0.679200	0.059300
H1201	H120	0.538600	0.682500	0.863800
H1211	H121	0.074700	0.303800	0.873500
H1221	H122	0.715500	0.127100	0.614700
H1231	H123	0.771100	0.355700	0.126000
H1241	H124	0.655200	0.002400	0.096000
H1251	H125	0.633400	0.220000	0.107900
H1261	H126	0.228100	0.956600	0.454000
H1271	H127	0.593700	0.038200	0.485900
H1281	H128	0.544200	0.469100	0.281400
C11	C1	0.601200	0.279200	0.116100
C21	C2	0.750400	0.075600	0.232200
C31	C3	0.977600	0.956900	0.820300
C41	C4	0.742300	0.828400	0.663000
C51	C5	0.245000	0.560600	0.530300
C61	C6	0.491900	0.262700	0.118700
C71	C7	0.590500	0.894500	0.060600
C81	C8	0.704900	0.121500	0.285200
C91	C9	0.398800	0.720800	0.883900
C101	C10	0.041500	0.679500	0.650900
C111	C11	0.998900	0.387500	0.591200
C121	C12	0.255000	0.060600	0.030300
C131	C13	0.257700	0.171600	0.337000
C141	C14	0.835000	0.539200	0.986000
C151	C15	0.335000	0.960800	0.514000
C161	C16	0.477600	0.543100	0.679700
C171	C17	0.999000	0.575500	0.347100
C181	C18	0.136400	0.912800	0.769200
C191	C19	0.256600	0.019100	0.969400
C201	C20	0.328100	0.875000	0.418400
C211	C21	0.068600	0.132000	0.161500
C221	C22	0.352500	0.022300	0.943200
C231	C23	0.250400	0.424400	0.267800
C241	C24	0.501100	0.887500	0.091200
C251	C25	0.700700	0.045400	0.546800
C261	C26	0.646900	0.322600	0.170000
C271	C27	0.536600	0.061000	0.639900
C281	C28	0.647500	0.977700	0.056800
C291	C29	0.799300	0.545400	0.046800
C301	C30	0.147500	0.522300	0.443200
C311	C31	0.755000	0.439400	0.469700
C321	C32	0.499000	0.924500	0.152900
C331	C33	0.568600	0.368000	0.338500
C341	C34	0.200500	0.379700	0.049300
C351	C35	0.685000	0.882200	0.708200
C361	C36	0.409800	0.460300	0.321300
C371	C37	0.931400	0.868000	0.838500
C381	C38	0.090500	0.605500	0.439400
C391	C39	0.101200	0.220800	0.383900
C401	C40	0.757700	0.328400	0.163000
C411	C41	0.185000	0.617800	0.791800
C421	C42	0.522400	0.456900	0.320300
C431	C43	0.498900	0.112500	0.908800
C441	C44	0.815000	0.382200	0.208200
C451	C45	0.075600	0.361200	0.896600
C461	C46	0.243400	0.519100	0.469400
C471	C47	0.165000	0.460800	0.014000
C481	C48	0.242300	0.671600	0.837000
C491	C49	0.924400	0.638800	0.103400
C501	C50	0.363600	0.412800	0.269200
C511	C51	0.008100	0.762700	0.618700
C521	C52	0.909500	0.394500	0.560600
C531	C53	0.541500	0.820500	0.849100
C541	C54	0.200700	0.454600	0.953200
C551	C55	0.315000	0.117800	0.291800
C561	C56	0.409500	0.105500	0.939400
C571	C57	0.863600	0.087200	0.230800
C581	C58	0.295100	0.878500	0.714800
C591	C59	0.743400	0.980900	0.030600
C601	C60	0.424400	0.861200	0.396600
C611	C61	0.249600	0.924400	0.767800
C621	C62	0.022400	0.043100	0.179700
C631	C63	0.001100	0.612500	0.408800
C641	C64	0.590200	0.539700	0.678700
C651	C65	0.090200	0.960300	0.821300
C661	C66	0.575600	0.138800	0.603400
C671	C67	0.299300	0.954600	0.453200
C681	C68	0.036600	0.439000	0.860100
C691	C69	0.665000	0.039200	0.486000
C701	C70	0.991900	0.237300	0.381300
C711	C71	0.299500	0.879700	0.549300
C721	C72	0.671900	0.125000	0.581600
C731	C73	0.001000	0.424500	0.652900
C741	C74	0.501000	0.075500	0.847100
C751	C75	0.431400	0.632000	0.661500
C761	C76	0.756600	0.480900	0.530600
C771	C77	0.898800	0.779200	0.616100
C781	C78	0.963400	0.561000	0.139900
C791	C79	0.463400	0.939000	0.360100
C801	C80	0.146900	0.177400	0.330000
C811	C81	0.958500	0.320500	0.349100
C821	C82	0.853100	0.822600	0.670000
C831	C83	0.852500	0.477700	0.556800
C841	C84	0.171900	0.375000	0.918400
C851	C85	0.636400	0.587200	0.730800
C861	C86	0.749600	0.575600	0.732200
C871	C87	0.700500	0.120300	0.450700
C881	C88	0.508100	0.737300	0.881300
C891	C89	0.799500	0.620300	0.950700
C901	C90	0.909800	0.039700	0.178700
C911	C91	0.745000	0.939400	0.969700
C921	C92	0.204900	0.378500	0.214800
C931	C93	0.458500	0.179500	0.150900
C941	C94	0.828100	0.625000	0.081600
C951	C95	0.795100	0.621500	0.785200
C961	C96	0.353100	0.677400	0.830000
O11	O1	0.509700	0.988500	0.612100
O21	O2	0.385500	0.898300	0.704900
O31	O3	0.885500	0.601700	0.795100
O41	O4	0.917800	0.545400	0.326700
O51	O5	0.635300	0.168700	0.426100
O61	O6	0.518600	0.135500	0.179800
O71	O7	0.770300	0.493600	0.429300
O81	O8	0.245600	0.825000	0.684500
O91	O9	0.982700	0.797000	0.845900
O101	O10	0.866800	0.341800	0.353700
O111	O11	0.582200	0.045400	0.826700
O121	O12	0.160500	0.131100	0.153700
O131	O13	0.289500	0.357700	0.053900
O141	O14	0.964200	0.573500	0.193100
O151	O15	0.482700	0.703000	0.654100
O161	O16	0.481400	0.864500	0.820200
O171	O17	0.535800	0.073500	0.693100
O181	O18	0.925300	0.430200	0.682900
O191	O19	0.273000	0.067800	0.254000
O201	O20	0.574700	0.930200	0.182900
O211	O21	0.710500	0.642300	0.946100
O221	O22	0.729700	0.993600	0.929300
O231	O23	0.017300	0.203000	0.154100
O241	O24	0.614500	0.101700	0.295100
O251	O25	0.727000	0.932200	0.746000
O261	O26	0.417800	0.954600	0.173300
O271	O27	0.839500	0.868900	0.846300
O281	O28	0.745600	0.675000	0.815500
O291	O29	0.464200	0.926500	0.306900
O301	O30	0.135300	0.331300	0.073900
O311	O31	0.239600	0.145400	0.036000
O321	O32	0.408700	0.125000	0.294900
O331	O33	0.133200	0.658200	0.646300
O341	O34	0.754400	0.175000	0.315500
O351	O35	0.091300	0.625000	0.794900
O361	O36	0.254400	0.325000	0.184500
O371	O37	0.229700	0.506400	0.570700
O381	O38	0.789500	0.142300	0.446100
O391	O39	0.990300	0.488500	0.112100
O401	O40	0.981400	0.635500	0.679800
O411	O41	0.366800	0.158200	0.146300
O421	O42	0.082200	0.454600	0.673300
O431	O43	0.760400	0.854600	0.964000
O441	O44	0.074700	0.569800	0.317100
O451	O45	0.425300	0.069800	0.817100
O461	O46	0.270300	0.006400	0.070700
O471	O47	0.739600	0.354600	0.464000
O481	O48	0.114500	0.398300	0.204900
O491	O49	0.591300	0.875000	0.705100
O501	O50	0.864700	0.668700	0.926100
O511	O51	0.490300	0.011500	0.387900
O521	O52	0.660500	0.368900	0.346300
O531	O53	0.018600	0.364500	0.320200
O541	O54	0.633200	0.841800	0.853700
O551	O55	0.517300	0.297000	0.345900
O561	O56	0.009700	0.511500	0.887900
O571	O57	0.260400	0.645400	0.536000
O581	O58	0.364700	0.831300	0.573900
O591	O59	0.908700	0.375000	0.205100
O601	O60	0.035800	0.426500	0.806900
O611	O61	0.339500	0.631100	0.653700
O621	O62	0.773000	0.432200	0.246000
O631	O63	0.227000	0.567800	0.754000
O641	O64	0.210500	0.857700	0.553900
