data_DIRPIF_clean_PM
_symmetry_space_group_name_H-M	'P1'
_cell_length_a	16.158000
_cell_length_b	18.171000
_cell_length_c	18.955000
_cell_angle_alpha	99.190000
_cell_angle_beta	106.280000
_cell_angle_gamma	116.340000
_symmetry_Int_Tables_number 1

loop_
_symmetry_equiv_pos_as_xyz
'x,y,z'

loop_
_atom_site_label
_atom_site_type_symbol
_atom_site_fract_x
_atom_site_fract_y
_atom_site_fract_z
O11	O1	0.315200	0.861590	0.108030
O21	O2	0.118000	0.854300	0.100800
O31	O3	0.192200	0.771440	0.993980
O41	O4	0.948700	0.866000	0.936380
O51	O5	0.159700	0.797790	0.188200
O61	O6	0.359100	0.004700	0.232800
O71	O7	0.037000	0.805400	0.911720
O81	O8	0.357800	0.816800	0.266390
O91	O9	0.149300	0.011200	0.045200
O101	O10	0.506200	0.926800	0.288100
O111	O11	0.255000	0.976700	0.019900
C11	C1	0.964700	0.820800	0.892300
C21	C2	0.269600	0.790800	0.051200
O121	O12	0.327700	0.979700	0.333600
C31	C3	0.363000	0.028900	0.298800
C41	C4	0.229000	0.031300	0.034600
Zn11	Zn1	0.304310	0.878730	0.212820
Zn21	Zn2	0.153440	0.862120	0.010360
N11	N1	0.558400	0.539000	0.142700
C51	C5	0.685800	0.622900	0.099900
H11	H1	0.639500	0.631200	0.065500
C61	C6	0.404000	0.761300	0.108700
H21	H2	0.442900	0.819000	0.141200
C71	C7	0.958200	0.695300	0.165200
H31	H3	0.005400	0.687800	0.199400
C81	C8	0.444000	0.721400	0.314600
H41	H4	0.374700	0.693000	0.287600
C91	C9	0.383100	0.618000	0.066400
C101	C10	0.855500	0.649200	0.156700
C111	C11	0.786600	0.663700	0.105400
C121	C12	0.655700	0.572300	0.143400
C131	C13	0.423000	0.562400	0.075900
H51	H5	0.385000	0.504700	0.043500
C141	C14	0.511300	0.306300	0.412100
C151	C15	0.442000	0.705500	0.116400
C161	C16	0.539800	0.735600	0.173700
H61	H6	0.579900	0.793500	0.205700
C171	C17	0.289500	0.590200	0.008800
H71	H7	0.251500	0.533400	0.974400
N21	N2	0.627600	0.545500	0.444200
C181	C18	0.515600	0.592200	0.131600
C191	C19	0.819400	0.718700	0.062900
H81	H8	0.773200	0.726400	0.027700
C201	C20	0.557400	0.398400	0.448700
H91	H9	0.568600	0.420000	0.500500
C211	C21	0.494600	0.449400	0.126600
C221	C22	0.987600	0.749600	0.124400
C231	C23	0.689300	0.647400	0.571900
H101	H10	0.640500	0.661200	0.552100
C241	C24	0.095900	0.802900	0.137500
C251	C25	0.414400	0.423600	0.153100
H111	H11	0.407000	0.465800	0.180700
C261	C26	0.494100	0.274100	0.334700
C271	C27	0.455300	0.856100	0.293300
C281	C28	0.897500	0.712500	0.761200
H121	H12	0.945400	0.698200	0.782000
C291	C29	0.757900	0.691500	0.651100
C301	C30	0.584400	0.453700	0.408800
C311	C31	0.916300	0.760900	0.071700
H131	H13	0.936400	0.797500	0.043100
C321	C32	0.821200	0.592500	0.197300
H141	H14	0.865600	0.580200	0.228900
C331	C33	0.431300	0.585600	0.332900
H151	H15	0.361900	0.555900	0.305300
C341	C34	0.359400	0.275200	0.098900
C351	C35	0.476000	0.245900	0.451100
H161	H16	0.485100	0.266500	0.502500
C361	C36	0.350400	0.340100	0.138700
H171	H17	0.298300	0.325000	0.155800
C371	C37	0.894500	0.775400	0.806800
C381	C38	0.252400	0.644700	0.001700
H181	H18	0.189800	0.624700	0.963000
C391	C39	0.507700	0.387500	0.088700
H191	H19	0.560300	0.404200	0.072100
C401	C40	0.442100	0.298200	0.074400
C411	C41	0.693000	0.586200	0.525000
C421	C42	0.756700	0.757600	0.700200
H201	H20	0.709200	0.772900	0.680800
C431	C43	0.829000	0.667600	0.681800
C441	C44	0.309700	0.731700	0.053500
C451	C45	0.574000	0.680700	0.181600
H211	H21	0.636700	0.700800	0.220200
C461	C46	0.444700	0.181400	0.298700
H221	H22	0.434800	0.159600	0.247300
C471	C47	0.290100	0.187300	0.082700
H231	H23	0.234900	0.171700	0.096000
C481	C48	0.499900	0.807100	0.326300
C491	C49	0.725000	0.554800	0.192000
H241	H24	0.704200	0.517500	0.219900
C501	C50	0.428900	0.158200	0.414900
H251	H25	0.407900	0.120300	0.442400
C511	C51	0.411900	0.124800	0.337100
C521	C52	0.304000	0.124600	0.047400
C531	C53	0.824900	0.799900	0.776200
H261	H26	0.824800	0.844900	0.807400
C541	C54	0.568300	0.422200	0.329800
H271	H27	0.587200	0.460600	0.302400
C551	C55	0.475100	0.541800	0.363400
H281	H28	0.435700	0.483000	0.356300
C561	C56	0.637500	0.672300	0.413000
H291	H29	0.707100	0.700800	0.438200
C571	C57	0.829900	0.601800	0.630700
H301	H30	0.876900	0.585800	0.649600
C581	C58	0.594300	0.719500	0.383500
C591	C59	0.525100	0.335300	0.294500
H311	H31	0.515300	0.315000	0.242900
C601	C60	0.581800	0.587000	0.406400
C611	C61	0.764600	0.562200	0.555500
H321	H32	0.766300	0.518900	0.523600
C621	C62	0.487700	0.673000	0.342000
C631	C63	0.652200	0.807700	0.394900
H331	H33	0.721900	0.836400	0.420300
C641	C64	0.381200	0.145000	0.024100
H341	H34	0.388200	0.100500	0.000000
C651	C65	0.606900	0.853200	0.368600
H351	H35	0.645400	0.912700	0.378400
C661	C66	0.450600	0.231100	0.035400
H361	H36	0.501500	0.243800	0.017300
O131	O13	0.684800	0.138410	0.891970
O141	O14	0.882000	0.145700	0.899200
O151	O15	0.807800	0.228560	0.006020
O161	O16	0.051300	0.134000	0.063620
O171	O17	0.840300	0.202210	0.811800
O181	O18	0.640900	0.995300	0.767200
O191	O19	0.963000	0.194600	0.088280
O201	O20	0.642200	0.183200	0.733610
O211	O21	0.850700	0.988800	0.954800
O221	O22	0.493800	0.073200	0.711900
O231	O23	0.745000	0.023300	0.980100
C671	C67	0.035300	0.179200	0.107700
C681	C68	0.730400	0.209200	0.948800
O241	O24	0.672300	0.020300	0.666400
C691	C69	0.637000	0.971100	0.701200
C701	C70	0.771000	0.968700	0.965400
Zn31	Zn3	0.695690	0.121270	0.787180
Zn41	Zn4	0.846560	0.137880	0.989640
N31	N3	0.441600	0.461000	0.857300
C711	C71	0.314200	0.377100	0.900100
H371	H37	0.360500	0.368800	0.934500
C721	C72	0.596000	0.238700	0.891300
H381	H38	0.557100	0.181000	0.858800
C731	C73	0.041800	0.304700	0.834800
H391	H39	0.994600	0.312200	0.800600
C741	C74	0.556000	0.278600	0.685400
H401	H40	0.625300	0.307000	0.712400
C751	C75	0.616900	0.382000	0.933600
C761	C76	0.144500	0.350800	0.843300
C771	C77	0.213400	0.336300	0.894600
C781	C78	0.344300	0.427700	0.856600
C791	C79	0.577000	0.437600	0.924100
H411	H41	0.615000	0.495300	0.956500
C801	C80	0.488700	0.693700	0.587900
C811	C81	0.558000	0.294500	0.883600
C821	C82	0.460200	0.264400	0.826300
H421	H42	0.420100	0.206500	0.794300
C831	C83	0.710500	0.409800	0.991200
H431	H43	0.748500	0.466600	0.025600
N41	N4	0.372400	0.454500	0.555800
C841	C84	0.484400	0.407800	0.868400
C851	C85	0.180600	0.281300	0.937100
H441	H44	0.226800	0.273600	0.972300
C861	C86	0.442600	0.601600	0.551300
H451	H45	0.431400	0.580000	0.499500
C871	C87	0.505400	0.550600	0.873400
C881	C88	0.012400	0.250400	0.875600
C891	C89	0.310700	0.352600	0.428100
H461	H46	0.359500	0.338800	0.447900
C901	C90	0.904100	0.197100	0.862500
C911	C91	0.585600	0.576400	0.846900
H471	H47	0.593000	0.534200	0.819300
C921	C92	0.505900	0.725900	0.665300
C931	C93	0.544700	0.143900	0.706700
C941	C94	0.102500	0.287500	0.238800
H481	H48	0.054600	0.301800	0.218000
C951	C95	0.242100	0.308500	0.348900
C961	C96	0.415600	0.546300	0.591200
C971	C97	0.083700	0.239100	0.928300
H491	H49	0.063600	0.202500	0.956900
C981	C98	0.178800	0.407500	0.802700
H501	H50	0.134400	0.419800	0.771100
C991	C99	0.568700	0.414400	0.667100
H511	H51	0.638100	0.444100	0.694700
C1001	C100	0.640600	0.724800	0.901100
C1011	C101	0.524000	0.754100	0.548900
H521	H52	0.514900	0.733500	0.497500
C1021	C102	0.649600	0.659900	0.861300
H531	H53	0.701700	0.675000	0.844200
C1031	C103	0.105500	0.224600	0.193200
C1041	C104	0.747600	0.355300	0.998300
H541	H54	0.810200	0.375300	0.037000
C1051	C105	0.492300	0.612500	0.911300
H551	H55	0.439700	0.595800	0.927900
C1061	C106	0.557900	0.701800	0.925600
C1071	C107	0.307000	0.413800	0.475000
C1081	C108	0.243300	0.242400	0.299800
H561	H56	0.290800	0.227100	0.319200
C1091	C109	0.171000	0.332400	0.318200
C1101	C110	0.690300	0.268300	0.946500
C1111	C111	0.426000	0.319300	0.818400
H571	H57	0.363300	0.299200	0.779800
C1121	C112	0.555300	0.818600	0.701300
H581	H58	0.565200	0.840400	0.752700
C1131	C113	0.709900	0.812700	0.917300
H591	H59	0.765100	0.828300	0.904000
C1141	C114	0.500100	0.192900	0.673700
C1151	C115	0.275000	0.445200	0.808000
H601	H60	0.295800	0.482500	0.780100
C1161	C116	0.571100	0.841800	0.585100
H611	H61	0.592100	0.879700	0.557600
C1171	C117	0.588100	0.875200	0.662900
C1181	C118	0.696000	0.875400	0.952600
C1191	C119	0.175100	0.200100	0.223800
H621	H62	0.175200	0.155100	0.192600
C1201	C120	0.431700	0.577800	0.670200
H631	H63	0.412800	0.539400	0.697600
C1211	C121	0.524900	0.458200	0.636600
H641	H64	0.564300	0.517000	0.643700
C1221	C122	0.362500	0.327700	0.587000
H651	H65	0.292900	0.299200	0.561800
C1231	C123	0.170100	0.398200	0.369300
H661	H66	0.123100	0.414200	0.350400
C1241	C124	0.405700	0.280500	0.616500
C1251	C125	0.474900	0.664700	0.705500
H671	H67	0.484700	0.685000	0.757100
C1261	C126	0.418200	0.413000	0.593600
C1271	C127	0.235400	0.437800	0.444500
H681	H68	0.233700	0.481100	0.476400
C1281	C128	0.512300	0.327000	0.658000
C1291	C129	0.347800	0.192300	0.605100
H691	H69	0.278100	0.163600	0.579700
C1301	C130	0.618800	0.855000	0.975900
H701	H70	0.611800	0.899500	0.000000
C1311	C131	0.393100	0.146800	0.631400
H711	H71	0.354600	0.087300	0.621600
C1321	C132	0.549400	0.768900	0.964600
H721	H72	0.498500	0.756200	0.982700
