data_DITSIK_clean_PM
_symmetry_space_group_name_H-M	'P1'
_cell_length_a	10.224000
_cell_length_b	11.217200
_cell_length_c	11.330200
_cell_angle_alpha	69.059000
_cell_angle_beta	76.930000
_cell_angle_gamma	88.666000
_symmetry_Int_Tables_number 1

loop_
_symmetry_equiv_pos_as_xyz
'x,y,z'

loop_
_atom_site_label
_atom_site_type_symbol
_atom_site_fract_x
_atom_site_fract_y
_atom_site_fract_z
Cd11	Cd1	0.116560	0.364800	0.474510
Cd21	Cd2	0.661010	0.940910	0.896640
Cd31	Cd3	0.725360	0.204000	0.287450
N11	N1	0.296300	0.394070	0.551440
N21	N2	0.196300	0.100160	0.966800
O11	O1	0.088720	0.539620	0.566370
O21	O2	0.166800	0.618310	0.694310
O31	O3	0.521500	0.215970	0.408380
O41	O4	0.312900	0.262930	0.393420
O51	O5	0.566760	0.347960	0.781310
H11	H1	0.524200	0.323700	0.857200
O61	O6	0.437860	0.009520	0.902430
O71	O7	0.374140	0.965960	0.745000
O81	O8	0.930600	0.206430	0.156120
O91	O9	0.125900	0.132500	0.194810
O101	O10	0.984830	0.256560	0.682750
C11	C1	0.285800	0.456100	0.634700
C21	C2	0.373300	0.444200	0.712500
H21	H2	0.360500	0.487500	0.770100
C31	C3	0.483700	0.366100	0.705500
C41	C4	0.498600	0.309900	0.610700
H31	H3	0.572600	0.262700	0.596700
C51	C5	0.403600	0.325000	0.539000
C61	C6	0.171500	0.543600	0.632600
C71	C7	0.413900	0.262400	0.439300
C81	C8	0.230700	0.082900	0.852200
C91	C9	0.159300	0.127300	0.757900
H41	H4	0.185200	0.109900	0.681800
C101	C10	0.046700	0.199200	0.776100
C111	C11	0.005000	0.205100	0.901600
H51	H5	0.925400	0.242400	0.923300
C121	C12	0.081300	0.156000	0.991700
C131	C13	0.357000	0.013700	0.831900
C141	C14	0.043200	0.165200	0.124000
Cd41	Cd4	0.883440	0.635200	0.525490
Cd51	Cd5	0.338990	0.059090	0.103360
Cd61	Cd6	0.274640	0.796000	0.712550
N31	N3	0.703700	0.605930	0.448560
N41	N4	0.803700	0.899840	0.033200
O111	O11	0.911280	0.460380	0.433630
O121	O12	0.833200	0.381690	0.305690
O131	O13	0.478500	0.784030	0.591620
O141	O14	0.687100	0.737070	0.606580
O151	O15	0.433240	0.652040	0.218690
H61	H6	0.475800	0.676300	0.142800
O161	O16	0.562140	0.990480	0.097570
O171	O17	0.625860	0.034040	0.255000
O181	O18	0.069400	0.793570	0.843880
O191	O19	0.874100	0.867500	0.805190
O201	O20	0.015170	0.743440	0.317250
C151	C15	0.714200	0.543900	0.365300
C161	C16	0.626700	0.555800	0.287500
H71	H7	0.639500	0.512500	0.229900
C171	C17	0.516300	0.633900	0.294500
C181	C18	0.501400	0.690100	0.389300
H81	H8	0.427400	0.737300	0.403300
C191	C19	0.596400	0.675000	0.461000
C201	C20	0.828500	0.456400	0.367400
C211	C21	0.586100	0.737600	0.560700
C221	C22	0.769300	0.917100	0.147800
C231	C23	0.840700	0.872700	0.242100
H91	H9	0.814800	0.890100	0.318200
C241	C24	0.953300	0.800800	0.223900
C251	C25	0.995000	0.794900	0.098400
H101	H10	0.074600	0.757600	0.076700
C261	C26	0.918700	0.844000	0.008300
C271	C27	0.643000	0.986300	0.168100
C281	C28	0.956800	0.834800	0.876000
