data_DITYAH_clean_PM
_symmetry_space_group_name_H-M	'P1'
_cell_length_a	10.296900
_cell_length_b	15.751200
_cell_length_c	18.771200
_cell_angle_alpha	90.000000
_cell_angle_beta	90.000000
_cell_angle_gamma	90.000000
_symmetry_Int_Tables_number 1

loop_
_symmetry_equiv_pos_as_xyz
'x,y,z'

loop_
_atom_site_label
_atom_site_type_symbol
_atom_site_fract_x
_atom_site_fract_y
_atom_site_fract_z
Co11	Co1	0.739670	0.859810	0.997100
Co21	Co2	0.260330	0.140190	0.497100
Co31	Co3	0.760330	0.359810	0.997100
Co41	Co4	0.239670	0.640190	0.497100
H11	H1	0.681800	0.818900	0.154100
H21	H2	0.739000	0.730700	0.247500
H31	H3	0.977300	0.605100	0.112500
H41	H4	0.912100	0.695800	0.022600
H51	H5	0.966100	0.639700	0.285100
H61	H6	0.976600	0.560600	0.232200
H71	H7	0.846700	0.536700	0.339900
H81	H8	0.738900	0.597500	0.305500
H91	H9	0.825100	0.440700	0.243600
H101	H10	0.722300	0.502300	0.206200
H111	H11	0.570600	0.476100	0.298800
H121	H12	0.610900	0.389200	0.260700
H131	H13	0.767600	0.368600	0.357900
H141	H14	0.697800	0.446100	0.397600
H151	H15	0.434800	0.422400	0.404000
H161	H16	0.286600	0.326800	0.448600
H171	H17	0.541600	0.141600	0.439000
H181	H18	0.697100	0.231400	0.393400
H191	H19	0.779900	0.897500	0.839300
H201	H20	0.751100	0.999000	0.752300
H211	H21	0.530700	0.132700	0.890900
H221	H22	0.572700	0.029500	0.975600
H231	H23	0.546500	0.180300	0.764600
H241	H24	0.625600	0.123300	0.708700
H251	H25	0.733500	0.246500	0.804800
H261	H26	0.825100	0.177200	0.768100
H271	H27	0.772000	0.230900	0.654900
H281	H28	0.838300	0.302000	0.703300
H291	H29	0.630400	0.364000	0.723800
H301	H30	0.566000	0.293700	0.673300
H311	H31	0.756100	0.414500	0.626000
H321	H32	0.692100	0.344300	0.575700
H331	H33	0.682700	0.551400	0.592300
H341	H34	0.522900	0.641300	0.553000
H351	H35	0.266300	0.456800	0.553400
H361	H36	0.418400	0.361500	0.593900
H371	H37	0.318200	0.181100	0.654100
H381	H38	0.261000	0.269300	0.747500
H391	H39	0.022700	0.394900	0.612500
H401	H40	0.087900	0.304200	0.522600
H411	H41	0.033900	0.360300	0.785100
H421	H42	0.023400	0.439400	0.732200
H431	H43	0.153300	0.463300	0.839900
H441	H44	0.261100	0.402500	0.805500
H451	H45	0.174900	0.559300	0.743600
H461	H46	0.277700	0.497700	0.706200
H471	H47	0.429400	0.523900	0.798800
H481	H48	0.389100	0.610800	0.760700
H491	H49	0.232400	0.631400	0.857900
H501	H50	0.302200	0.553900	0.897600
H511	H51	0.565200	0.577600	0.904000
H521	H52	0.713400	0.673200	0.948600
H531	H53	0.458400	0.858400	0.939000
H541	H54	0.302900	0.768600	0.893400
H551	H55	0.220100	0.102500	0.339300
H561	H56	0.248900	0.001000	0.252300
H571	H57	0.469300	0.867300	0.390900
H581	H58	0.427300	0.970500	0.475600
H591	H59	0.453500	0.819700	0.264600
H601	H60	0.374400	0.876700	0.208700
H611	H61	0.266500	0.753500	0.304800
H621	H62	0.174900	0.822800	0.268100
H631	H63	0.228000	0.769100	0.154900
H641	H64	0.161700	0.698000	0.203300
H651	H65	0.369600	0.636000	0.223800
H661	H66	0.434000	0.706300	0.173300
H671	H67	0.243900	0.585500	0.126000
H681	H68	0.307900	0.655700	0.075700
H691	H69	0.317300	0.448600	0.092300
H701	H70	0.477100	0.358700	0.053000
H711	H71	0.733700	0.543200	0.053400
H721	H72	0.581600	0.638500	0.093900
H731	H73	0.818200	0.318900	0.154100
H741	H74	0.761000	0.230700	0.247500
H751	H75	0.522700	0.105100	0.112500
H761	H76	0.587900	0.195800	0.022600
H771	H77	0.533900	0.139700	0.285100
H781	H78	0.523400	0.060600	0.232200
H791	H79	0.653300	0.036700	0.339900
H801	H80	0.761100	0.097500	0.305500
H811	H81	0.674900	0.940700	0.243600
H821	H82	0.777700	0.002300	0.206200
H831	H83	0.929400	0.976100	0.298800
H841	H84	0.889100	0.889200	0.260700
H851	H85	0.732400	0.868600	0.357900
H861	H86	0.802200	0.946100	0.397600
H871	H87	0.065200	0.922400	0.404000
H881	H88	0.213400	0.826800	0.448600
H891	H89	0.958400	0.641600	0.439000
H901	H90	0.802900	0.731400	0.393400
H911	H91	0.720100	0.397500	0.839300
H921	H92	0.748900	0.499000	0.752300
H931	H93	0.969300	0.632700	0.890900
H941	H94	0.927300	0.529500	0.975600
H951	H95	0.953500	0.680300	0.764600
H961	H96	0.874400	0.623300	0.708700
H971	H97	0.766500	0.746500	0.804800
H981	H98	0.674900	0.677200	0.768100
H991	H99	0.728000	0.730900	0.654900
H1001	H100	0.661700	0.802000	0.703300
H1011	H101	0.869600	0.864000	0.723800
H1021	H102	0.934000	0.793700	0.673300
H1031	H103	0.743900	0.914500	0.626000
H1041	H104	0.807900	0.844300	0.575700
H1051	H105	0.817300	0.051400	0.592300
H1061	H106	0.977100	0.141300	0.553000
H1071	H107	0.233700	0.956800	0.553400
H1081	H108	0.081600	0.861500	0.593900
H1091	H109	0.181800	0.681100	0.654100
H1101	H110	0.239000	0.769300	0.747500
H1111	H111	0.477300	0.894900	0.612500
H1121	H112	0.412100	0.804200	0.522600
H1131	H113	0.466100	0.860300	0.785100
H1141	H114	0.476600	0.939400	0.732200
H1151	H115	0.346700	0.963300	0.839900
H1161	H116	0.238900	0.902500	0.805500
H1171	H117	0.325100	0.059300	0.743600
H1181	H118	0.222300	0.997700	0.706200
H1191	H119	0.070600	0.023900	0.798800
H1201	H120	0.110900	0.110800	0.760700
H1211	H121	0.267600	0.131400	0.857900
H1221	H122	0.197800	0.053900	0.897600
H1231	H123	0.934800	0.077600	0.904000
H1241	H124	0.786600	0.173200	0.948600
H1251	H125	0.041600	0.358400	0.939000
H1261	H126	0.197100	0.268600	0.893400
H1271	H127	0.279900	0.602500	0.339300
H1281	H128	0.251100	0.501000	0.252300
H1291	H129	0.030700	0.367300	0.390900
H1301	H130	0.072700	0.470500	0.475600
H1311	H131	0.046500	0.319700	0.264600
H1321	H132	0.125600	0.376700	0.208700
H1331	H133	0.233500	0.253500	0.304800
H1341	H134	0.325100	0.322800	0.268100
H1351	H135	0.272000	0.269100	0.154900
H1361	H136	0.338300	0.198000	0.203300
H1371	H137	0.130400	0.136000	0.223800
H1381	H138	0.066000	0.206300	0.173300
H1391	H139	0.256100	0.085500	0.126000
H1401	H140	0.192100	0.155700	0.075700
H1411	H141	0.182700	0.948600	0.092300
H1421	H142	0.022900	0.858700	0.053000
H1431	H143	0.766300	0.043200	0.053400
H1441	H144	0.918400	0.138500	0.093900
C11	C1	0.742690	0.774800	0.145500
C21	C2	0.777140	0.722660	0.201860
C31	C3	0.868130	0.658210	0.191310
C41	C4	0.916650	0.648920	0.122650
C51	C5	0.876830	0.703360	0.068970
C61	C6	0.916090	0.603520	0.251830
C71	C7	0.809810	0.557170	0.294350
C81	C8	0.754360	0.481800	0.252840
C91	C9	0.643110	0.435760	0.291410
C101	C10	0.683990	0.398940	0.363530
C111	C11	0.584680	0.338710	0.393670
C121	C12	0.459530	0.364820	0.410700
C131	C13	0.371360	0.307190	0.437350
C141	C14	0.519510	0.199510	0.431660
C151	C15	0.613360	0.252800	0.404580
C161	C16	0.731300	0.946990	0.850540
C171	C17	0.713500	0.007050	0.798030
C181	C18	0.640680	0.079440	0.811950
C191	C19	0.585040	0.085930	0.879400
C201	C20	0.609850	0.023410	0.929590
C211	C21	0.628400	0.148790	0.756920
C221	C22	0.744350	0.210500	0.761950
C231	C23	0.758810	0.267410	0.697180
C241	C24	0.645790	0.327190	0.681940
C251	C25	0.675300	0.382210	0.616720
C261	C26	0.570660	0.443940	0.596170
C271	C27	0.597720	0.530010	0.584040
C281	C28	0.501790	0.583260	0.560310
C291	C29	0.352720	0.476140	0.560690
C301	C30	0.443240	0.418580	0.584900
C311	C31	0.257310	0.225200	0.645500
C321	C32	0.222860	0.277340	0.701860
C331	C33	0.131870	0.341790	0.691310
C341	C34	0.083350	0.351080	0.622650
C351	C35	0.123170	0.296640	0.568970
C361	C36	0.083910	0.396480	0.751830
C371	C37	0.190190	0.442830	0.794350
C381	C38	0.245640	0.518200	0.752840
C391	C39	0.356890	0.564240	0.791410
C401	C40	0.316010	0.601060	0.863530
C411	C41	0.415320	0.661290	0.893670
C421	C42	0.540470	0.635180	0.910700
C431	C43	0.628640	0.692810	0.937350
C441	C44	0.480490	0.800490	0.931660
C451	C45	0.386640	0.747200	0.904580
C461	C46	0.268700	0.053010	0.350540
C471	C47	0.286500	0.992950	0.298030
C481	C48	0.359320	0.920560	0.311950
C491	C49	0.414960	0.914070	0.379400
C501	C50	0.390150	0.976590	0.429590
C511	C51	0.371600	0.851210	0.256920
C521	C52	0.255650	0.789500	0.261950
C531	C53	0.241190	0.732590	0.197180
C541	C54	0.354210	0.672810	0.181940
C551	C55	0.324700	0.617790	0.116720
C561	C56	0.429340	0.556060	0.096170
C571	C57	0.402280	0.469990	0.084040
C581	C58	0.498210	0.416740	0.060310
C591	C59	0.647280	0.523860	0.060690
C601	C60	0.556760	0.581420	0.084900
C611	C61	0.757310	0.274800	0.145500
C621	C62	0.722860	0.222660	0.201860
C631	C63	0.631870	0.158210	0.191310
C641	C64	0.583350	0.148920	0.122650
C651	C65	0.623170	0.203360	0.068970
C661	C66	0.583910	0.103520	0.251830
C671	C67	0.690190	0.057170	0.294350
C681	C68	0.745640	0.981800	0.252840
C691	C69	0.856890	0.935760	0.291410
C701	C70	0.816010	0.898940	0.363530
C711	C71	0.915320	0.838710	0.393670
C721	C72	0.040470	0.864820	0.410700
C731	C73	0.128640	0.807190	0.437350
C741	C74	0.980490	0.699510	0.431660
C751	C75	0.886640	0.752800	0.404580
C761	C76	0.768700	0.446990	0.850540
C771	C77	0.786500	0.507050	0.798030
C781	C78	0.859320	0.579440	0.811950
C791	C79	0.914960	0.585930	0.879400
C801	C80	0.890150	0.523410	0.929590
C811	C81	0.871600	0.648790	0.756920
C821	C82	0.755650	0.710500	0.761950
C831	C83	0.741190	0.767410	0.697180
C841	C84	0.854210	0.827190	0.681940
C851	C85	0.824700	0.882210	0.616720
C861	C86	0.929340	0.943940	0.596170
C871	C87	0.902280	0.030010	0.584040
C881	C88	0.998210	0.083260	0.560310
C891	C89	0.147280	0.976140	0.560690
C901	C90	0.056760	0.918580	0.584900
C911	C91	0.242690	0.725200	0.645500
C921	C92	0.277140	0.777340	0.701860
C931	C93	0.368130	0.841790	0.691310
C941	C94	0.416650	0.851080	0.622650
C951	C95	0.376830	0.796640	0.568970
C961	C96	0.416090	0.896480	0.751830
C971	C97	0.309810	0.942830	0.794350
C981	C98	0.254360	0.018200	0.752840
C991	C99	0.143110	0.064240	0.791410
C1001	C100	0.183990	0.101060	0.863530
C1011	C101	0.084680	0.161290	0.893670
C1021	C102	0.959530	0.135180	0.910700
C1031	C103	0.871360	0.192810	0.937350
C1041	C104	0.019510	0.300490	0.931660
C1051	C105	0.113360	0.247200	0.904580
C1061	C106	0.231300	0.553010	0.350540
C1071	C107	0.213500	0.492950	0.298030
C1081	C108	0.140680	0.420560	0.311950
C1091	C109	0.085040	0.414070	0.379400
C1101	C110	0.109850	0.476590	0.429590
C1111	C111	0.128400	0.351210	0.256920
C1121	C112	0.244350	0.289500	0.261950
C1131	C113	0.258810	0.232590	0.197180
C1141	C114	0.145790	0.172810	0.181940
C1151	C115	0.175300	0.117790	0.116720
C1161	C116	0.070660	0.056060	0.096170
C1171	C117	0.097720	0.969990	0.084040
C1181	C118	0.001790	0.916740	0.060310
C1191	C119	0.852720	0.023860	0.060690
C1201	C120	0.943240	0.081420	0.084900
N11	N1	0.790760	0.766400	0.079200
N21	N2	0.398720	0.224530	0.448360
N31	N3	0.683580	0.954700	0.916740
N41	N4	0.379140	0.557990	0.546690
N51	N5	0.209240	0.233600	0.579200
N61	N6	0.601280	0.775470	0.948360
N71	N7	0.316420	0.045300	0.416740
N81	N8	0.620860	0.442010	0.046690
N91	N9	0.709240	0.266400	0.079200
N101	N10	0.101280	0.724530	0.448360
N111	N11	0.816420	0.454700	0.916740
N121	N12	0.120860	0.057990	0.546690
N131	N13	0.290760	0.733600	0.579200
N141	N14	0.898720	0.275470	0.948360
N151	N15	0.183580	0.545300	0.416740
N161	N16	0.879140	0.942010	0.046690
