data_DITYOW_clean_PM
_symmetry_space_group_name_H-M	'P1'
_cell_length_a	24.074000
_cell_length_b	24.074000
_cell_length_c	5.102100
_cell_angle_alpha	90.000000
_cell_angle_beta	90.000000
_cell_angle_gamma	90.000000
_symmetry_Int_Tables_number 1

loop_
_symmetry_equiv_pos_as_xyz
'x,y,z'

loop_
_atom_site_label
_atom_site_type_symbol
_atom_site_fract_x
_atom_site_fract_y
_atom_site_fract_z
C11	C1	0.567370	0.911590	0.877600
O11	O1	0.518840	0.930150	0.818700
N11	N1	0.640820	0.839770	0.776200
C21	C2	0.587200	0.864710	0.689400
H11	H1	0.559100	0.835900	0.681700
H21	H2	0.591600	0.879800	0.514400
N21	N2	0.690110	0.854360	0.665600
O21	O2	0.597180	0.927960	0.057100
N31	N3	0.729080	0.828830	0.794000
N41	N4	0.706370	0.797480	0.993500
C31	C3	0.651230	0.805520	0.976000
H31	H3	0.624600	0.789800	0.085400
C41	C4	0.067370	0.411590	0.377600
O31	O3	0.018840	0.430150	0.318700
N51	N5	0.140820	0.339770	0.276200
C51	C5	0.087200	0.364710	0.189400
H41	H4	0.059100	0.335900	0.181700
H51	H5	0.091600	0.379800	0.014400
N61	N6	0.190110	0.354360	0.165600
O41	O4	0.097180	0.427960	0.557100
N71	N7	0.229080	0.328830	0.294000
N81	N8	0.206370	0.297480	0.493500
C61	C6	0.151230	0.305520	0.476000
H61	H6	0.124600	0.289800	0.585400
C71	C7	0.932630	0.088410	0.377600
O51	O5	0.981160	0.069850	0.318700
N91	N9	0.859180	0.160230	0.276200
C81	C8	0.912800	0.135290	0.189400
H71	H7	0.940900	0.164100	0.181700
H81	H8	0.908400	0.120200	0.014400
N101	N10	0.809890	0.145640	0.165600
O61	O6	0.902820	0.072040	0.557100
N111	N11	0.770920	0.171170	0.294000
N121	N12	0.793630	0.202520	0.493500
C91	C9	0.848770	0.194480	0.476000
H91	H9	0.875400	0.210200	0.585400
C101	C10	0.432630	0.588410	0.877600
O71	O7	0.481160	0.569850	0.818700
N131	N13	0.359180	0.660230	0.776200
C111	C11	0.412800	0.635290	0.689400
H101	H10	0.440900	0.664100	0.681700
H111	H11	0.408400	0.620200	0.514400
N141	N14	0.309890	0.645640	0.665600
O81	O8	0.402820	0.572040	0.057100
N151	N15	0.270920	0.671170	0.794000
N161	N16	0.293630	0.702520	0.993500
C121	C12	0.348770	0.694480	0.976000
H121	H12	0.375400	0.710200	0.085400
C131	C13	0.838410	0.817370	0.127600
O91	O9	0.819850	0.768840	0.068700
N171	N17	0.910230	0.890820	0.026200
C141	C14	0.885290	0.837200	0.939400
H131	H13	0.914100	0.809100	0.931700
H141	H14	0.870200	0.841600	0.764400
N181	N18	0.895640	0.940110	0.915600
O101	O10	0.822040	0.847180	0.307100
N191	N19	0.921170	0.979080	0.044000
N201	N20	0.952520	0.956370	0.243500
C151	C15	0.944480	0.901230	0.226000
H151	H15	0.960200	0.874600	0.335400
C161	C16	0.338410	0.317370	0.627600
O111	O11	0.319850	0.268840	0.568700
N211	N21	0.410230	0.390820	0.526200
C171	C17	0.385290	0.337200	0.439400
H161	H16	0.414100	0.309100	0.431700
H171	H17	0.370200	0.341600	0.264400
N221	N22	0.395640	0.440110	0.415600
O121	O12	0.322040	0.347180	0.807100
N231	N23	0.421170	0.479080	0.544000
N241	N24	0.452520	0.456370	0.743500
C181	C18	0.444480	0.401230	0.726000
H181	H18	0.460200	0.374600	0.835400
C191	C19	0.661590	0.182630	0.627600
O131	O13	0.680150	0.231160	0.568700
N251	N25	0.589770	0.109180	0.526200
C201	C20	0.614710	0.162800	0.439400
H191	H19	0.585900	0.190900	0.431700
H201	H20	0.629800	0.158400	0.264400
N261	N26	0.604360	0.059890	0.415600
O141	O14	0.677960	0.152820	0.807100
N271	N27	0.578830	0.020920	0.544000
N281	N28	0.547480	0.043630	0.743500
C211	C21	0.555520	0.098770	0.726000
H211	H21	0.539800	0.125400	0.835400
C221	C22	0.161590	0.682630	0.127600
O151	O15	0.180150	0.731160	0.068700
N291	N29	0.089770	0.609180	0.026200
C231	C23	0.114710	0.662800	0.939400
H221	H22	0.085900	0.690900	0.931700
H231	H23	0.129800	0.658400	0.764400
N301	N30	0.104360	0.559890	0.915600
O161	O16	0.177960	0.652820	0.307100
N311	N31	0.078830	0.520920	0.044000
N321	N32	0.047480	0.543630	0.243500
C241	C24	0.055520	0.598770	0.226000
H241	H24	0.039800	0.625400	0.335400
C251	C25	0.432630	0.088410	0.122400
O171	O17	0.481160	0.069850	0.181300
N331	N33	0.359180	0.160230	0.223800
C261	C26	0.412800	0.135290	0.310600
H251	H25	0.440900	0.164100	0.318300
H261	H26	0.408400	0.120200	0.485600
N341	N34	0.309890	0.145640	0.334400
O181	O18	0.402820	0.072040	0.942900
N351	N35	0.270920	0.171170	0.206000
N361	N36	0.293630	0.202520	0.006500
C271	C27	0.348770	0.194480	0.024000
H271	H27	0.375400	0.210200	0.914600
C281	C28	0.932630	0.588410	0.622400
O191	O19	0.981160	0.569850	0.681300
N371	N37	0.859180	0.660230	0.723800
C291	C29	0.912800	0.635290	0.810600
H281	H28	0.940900	0.664100	0.818300
H291	H29	0.908400	0.620200	0.985600
N381	N38	0.809890	0.645640	0.834400
O201	O20	0.902820	0.572040	0.442900
N391	N39	0.770920	0.671170	0.706000
N401	N40	0.793630	0.702520	0.506500
C301	C30	0.848770	0.694480	0.524000
H301	H30	0.875400	0.710200	0.414600
C311	C31	0.067370	0.911590	0.622400
O211	O21	0.018840	0.930150	0.681300
N411	N41	0.140820	0.839770	0.723800
C321	C32	0.087200	0.864710	0.810600
H311	H31	0.059100	0.835900	0.818300
H321	H32	0.091600	0.879800	0.985600
N421	N42	0.190110	0.854360	0.834400
O221	O22	0.097180	0.927960	0.442900
N431	N43	0.229080	0.828830	0.706000
N441	N44	0.206370	0.797480	0.506500
C331	C33	0.151230	0.805520	0.524000
H331	H33	0.124600	0.789800	0.414600
C341	C34	0.567370	0.411590	0.122400
O231	O23	0.518840	0.430150	0.181300
N451	N45	0.640820	0.339770	0.223800
C351	C35	0.587200	0.364710	0.310600
H341	H34	0.559100	0.335900	0.318300
H351	H35	0.591600	0.379800	0.485600
N461	N46	0.690110	0.354360	0.334400
O241	O24	0.597180	0.427960	0.942900
N471	N47	0.729080	0.328830	0.206000
N481	N48	0.706370	0.297480	0.006500
C361	C36	0.651230	0.305520	0.024000
H361	H36	0.624600	0.289800	0.914600
C371	C37	0.161590	0.182630	0.872400
O251	O25	0.180150	0.231160	0.931300
N491	N49	0.089770	0.109180	0.973800
C381	C38	0.114710	0.162800	0.060600
H371	H37	0.085900	0.190900	0.068300
H381	H38	0.129800	0.158400	0.235600
N501	N50	0.104360	0.059890	0.084400
O261	O26	0.177960	0.152820	0.692900
N511	N51	0.078830	0.020920	0.956000
N521	N52	0.047480	0.043630	0.756500
C391	C39	0.055520	0.098770	0.774000
H391	H39	0.039800	0.125400	0.664600
C401	C40	0.661590	0.682630	0.372400
O271	O27	0.680150	0.731160	0.431300
N531	N53	0.589770	0.609180	0.473800
C411	C41	0.614710	0.662800	0.560600
H401	H40	0.585900	0.690900	0.568300
H411	H41	0.629800	0.658400	0.735600
N541	N54	0.604360	0.559890	0.584400
O281	O28	0.677960	0.652820	0.192900
N551	N55	0.578830	0.520920	0.456000
N561	N56	0.547480	0.543630	0.256500
C421	C42	0.555520	0.598770	0.274000
H421	H42	0.539800	0.625400	0.164600
C431	C43	0.338410	0.817370	0.372400
O291	O29	0.319850	0.768840	0.431300
N571	N57	0.410230	0.890820	0.473800
C441	C44	0.385290	0.837200	0.560600
H431	H43	0.414100	0.809100	0.568300
H441	H44	0.370200	0.841600	0.735600
N581	N58	0.395640	0.940110	0.584400
O301	O30	0.322040	0.847180	0.192900
N591	N59	0.421170	0.979080	0.456000
N601	N60	0.452520	0.956370	0.256500
C451	C45	0.444480	0.901230	0.274000
H451	H45	0.460200	0.874600	0.164600
C461	C46	0.838410	0.317370	0.872400
O311	O31	0.819850	0.268840	0.931300
N611	N61	0.910230	0.390820	0.973800
C471	C47	0.885290	0.337200	0.060600
H461	H46	0.914100	0.309100	0.068300
H471	H47	0.870200	0.341600	0.235600
N621	N62	0.895640	0.440110	0.084400
O321	O32	0.822040	0.347180	0.692900
N631	N63	0.921170	0.479080	0.956000
N641	N64	0.952520	0.456370	0.756500
C481	C48	0.944480	0.401230	0.774000
H481	H48	0.960200	0.374600	0.664600
Cu11	Cu1	0.500000	0.000000	0.000000
Cu21	Cu2	0.000000	0.500000	0.500000
Cu31	Cu3	0.000000	0.000000	0.500000
Cu41	Cu4	0.500000	0.500000	0.000000
Cu51	Cu5	0.750000	0.750000	0.250000
Cu61	Cu6	0.750000	0.250000	0.750000
Cu71	Cu7	0.250000	0.250000	0.750000
Cu81	Cu8	0.250000	0.750000	0.250000
