data_DIVGIA_clean_PM
_symmetry_space_group_name_H-M	'P1'
_cell_length_a	12.838700
_cell_length_b	12.838700
_cell_length_c	64.382400
_cell_angle_alpha	90.000000
_cell_angle_beta	90.000000
_cell_angle_gamma	120.000000
_symmetry_Int_Tables_number 1

loop_
_symmetry_equiv_pos_as_xyz
'x,y,z'

loop_
_atom_site_label
_atom_site_type_symbol
_atom_site_fract_x
_atom_site_fract_y
_atom_site_fract_z
Ag11	Ag1	0.969840	0.652180	0.078180
Ag21	Ag2	0.624730	0.508630	0.164280
Si11	Si1	0.978700	0.119400	0.096750
Si21	Si2	0.426500	0.653500	0.075940
Si31	Si3	0.519500	0.192300	0.072180
N11	N1	0.983100	0.482300	0.084500
N21	N2	0.893300	0.919300	0.032450
N31	N3	0.793800	0.654000	0.079450
N41	N4	0.227600	0.550300	0.140340
N51	N5	0.149800	0.830700	0.076970
N61	N6	0.592200	0.419400	0.133310
N71	N7	0.584600	0.661300	0.164390
C11	C1	0.986500	0.415300	0.068680
H11	H1	0.991000	0.442700	0.055100
C21	C2	0.983500	0.308000	0.071820
H21	H2	0.983800	0.264200	0.060300
C31	C3	0.980200	0.264100	0.090960
C41	C4	0.979400	0.335800	0.107850
H31	H3	0.977900	0.311400	0.121500
C51	C5	0.981000	0.441500	0.103570
H41	H4	0.980500	0.487400	0.114700
C61	C6	0.118500	0.142300	0.109950
H51	H5	0.149900	0.095800	0.103300
H61	H6	0.180300	0.226600	0.110100
C71	C7	0.072600	0.096400	0.131800
H71	H7	0.117700	0.060500	0.137300
H81	H8	0.089800	0.164800	0.140500
C81	C8	0.950300	0.012500	0.133500
H91	H9	0.924000	0.015500	0.147500
H101	H10	0.938900	0.932600	0.131400
C91	C9	0.872300	0.031500	0.118380
H111	H11	0.838600	0.076700	0.124700
H121	H12	0.807300	0.955300	0.113400
C101	C10	0.943200	0.031600	0.071620
C111	C11	0.830000	0.980100	0.062230
H131	H13	0.767800	0.983700	0.069000
C121	C12	0.809400	0.925700	0.043700
H141	H14	0.731800	0.890200	0.038400
C131	C13	0.001200	0.964900	0.041060
H151	H15	0.061100	0.958400	0.034100
C141	C14	0.027900	0.023800	0.060750
H161	H16	0.105400	0.057100	0.066100
C151	C15	0.750300	0.685400	0.095880
H171	H17	0.796800	0.711600	0.107900
C161	C16	0.641400	0.680700	0.095850
H181	H18	0.614500	0.699700	0.107900
C171	C17	0.571700	0.648400	0.078350
C181	C18	0.616900	0.616900	0.061460
H191	H19	0.573000	0.593300	0.049200
C191	C19	0.724400	0.619900	0.062470
H201	H20	0.750800	0.597200	0.050800
C201	C20	0.457600	0.803400	0.065720
H211	H21	0.414200	0.834100	0.073600
H221	H22	0.542900	0.861800	0.066100
C211	C21	0.411000	0.773100	0.043200
H231	H23	0.393900	0.833600	0.037800
H241	H24	0.471000	0.770800	0.034300
C221	C22	0.299200	0.653200	0.043500
H251	H25	0.272200	0.627100	0.029400
H261	H26	0.236100	0.658700	0.050800
C231	C23	0.324400	0.563000	0.054200
H271	H27	0.363800	0.534000	0.044900
H281	H28	0.251000	0.495100	0.059400
C241	C24	0.351500	0.616100	0.101940
C251	C25	0.303900	0.679900	0.111200
H291	H29	0.312100	0.747900	0.104600
C261	C26	0.243900	0.646000	0.130170
H301	H30	0.214300	0.692700	0.135800
C271	C27	0.273300	0.485100	0.131810
H311	H31	0.263100	0.417200	0.138800
C281	C28	0.333700	0.515400	0.113370
H321	H32	0.363900	0.468100	0.108200
C291	C29	0.207400	0.890700	0.093810
H331	H33	0.173900	0.858700	0.106700
C301	C30	0.314900	0.998800	0.093290
H341	H34	0.351700	0.037500	0.105600
C311	C31	0.367300	0.049200	0.074440
C321	C32	0.305200	0.986700	0.056590
H351	H35	0.334900	0.017700	0.043500
C331	C33	0.199800	0.878700	0.058660
H361	H36	0.161300	0.836900	0.046700
C341	C34	0.641700	0.154500	0.069100
H371	H37	0.712200	0.208700	0.077100
H381	H38	0.614600	0.072500	0.073400
C351	C35	0.667000	0.169000	0.047400
H391	H39	0.606600	0.098600	0.040100
H401	H40	0.744700	0.175900	0.044900
C361	C36	0.544900	0.268700	0.046880
H411	H41	0.480000	0.221300	0.037300
H421	H42	0.552800	0.347500	0.048400
C371	C37	0.667700	0.279000	0.039400
H431	H43	0.672600	0.281800	0.024300
H441	H44	0.735800	0.351200	0.044900
C381	C38	0.545400	0.286600	0.095860
C391	C39	0.659800	0.365200	0.102290
H451	H45	0.724900	0.375000	0.094400
C401	C40	0.679700	0.430600	0.120520
H461	H46	0.758700	0.485800	0.124100
C411	C41	0.482300	0.344000	0.126920
H471	H47	0.418800	0.333200	0.135300
C421	C42	0.454700	0.279700	0.108610
H481	H48	0.374700	0.231400	0.104800
C431	C43	0.662200	0.765100	0.156160
H491	H49	0.731100	0.771300	0.150200
C441	C44	0.649500	0.867000	0.155620
H501	H50	0.705500	0.935600	0.148600
C451	C45	0.552800	0.865400	0.165680
C461	C46	0.473200	0.756600	0.174610
H511	H51	0.406100	0.748700	0.181500
C471	C47	0.490800	0.658200	0.173530
H521	H52	0.433400	0.586300	0.179600
C481	C48	0.441900	0.007200	0.144900
H531	H53	0.491000	0.071100	0.135200
H541	H54	0.400800	0.931500	0.137400
C491	C49	0.353300	0.032900	0.156060
H551	H55	0.281300	0.005200	0.147700
H561	H56	0.388700	0.118800	0.158200
Ag31	Ag3	0.347820	0.317660	0.744850
Ag41	Ag4	0.491370	0.116100	0.830950
Si41	Si4	0.880600	0.859300	0.763420
Si51	Si5	0.346500	0.773000	0.742610
Si61	Si6	0.807700	0.327200	0.738850
N81	N8	0.517700	0.500800	0.751170
N91	N9	0.080700	0.974000	0.699120
N101	N10	0.346000	0.139800	0.746120
N111	N11	0.449700	0.677300	0.807010
N121	N12	0.169300	0.319100	0.743640
N131	N13	0.580600	0.172800	0.799980
N141	N14	0.338700	0.923300	0.831060
C501	C50	0.584700	0.571200	0.735350
H571	H57	0.557300	0.548300	0.721770
C511	C51	0.692000	0.675500	0.738490
H581	H58	0.735800	0.719600	0.726970
C521	C52	0.735900	0.716100	0.757630
C531	C53	0.664200	0.643600	0.774520
H591	H59	0.688600	0.666500	0.788170
C541	C54	0.558500	0.539500	0.770240
H601	H60	0.512600	0.493100	0.781370
C551	C55	0.857700	0.976200	0.776620
H611	H61	0.904200	0.054100	0.769970
H621	H62	0.773400	0.953700	0.776770
C561	C56	0.903600	0.976200	0.798470
H631	H63	0.939500	0.057200	0.803970
H641	H64	0.835200	0.925000	0.807170
C571	C57	0.987500	0.937800	0.800170
H651	H65	0.984500	0.908500	0.814170
H661	H66	0.067400	0.006300	0.798070
C581	C58	0.968500	0.840800	0.785050
H671	H67	0.923300	0.761900	0.791370
H681	H68	0.044700	0.852000	0.780070
C591	C59	0.968400	0.911600	0.738290
C601	C60	0.019900	0.849900	0.728900
H691	H69	0.016300	0.784100	0.735670
C611	C61	0.074300	0.883700	0.710370
H701	H70	0.109800	0.841600	0.705070
C621	C62	0.035100	0.036300	0.707730
H711	H71	0.041600	0.102700	0.700770
C631	C63	0.976200	0.004100	0.727420
H721	H72	0.942900	0.048300	0.732770
C641	C64	0.314600	0.064900	0.762550
H731	H73	0.288400	0.085200	0.774570
C651	C65	0.319300	0.960700	0.762520
H741	H74	0.300300	0.914800	0.774570
C661	C66	0.351600	0.923300	0.745020
C671	C67	0.383100	0.000000	0.728130
H751	H75	0.406700	0.979700	0.715870
C681	C68	0.380100	0.104500	0.729140
H761	H76	0.402800	0.153600	0.717470
C691	C69	0.196600	0.654200	0.732390
H771	H77	0.165900	0.580100	0.740270
H781	H78	0.138200	0.681100	0.732770
C701	C70	0.226900	0.637900	0.709870
H791	H79	0.166400	0.560300	0.704470
H801	H80	0.229200	0.700200	0.700970
C711	C71	0.346800	0.646000	0.710170
H811	H81	0.372900	0.645100	0.696070
H821	H82	0.341300	0.577400	0.717470
C721	C72	0.437000	0.761400	0.720870
H831	H83	0.466000	0.829800	0.711570
H841	H84	0.504900	0.755900	0.726070
C731	C73	0.383900	0.735400	0.768610
C741	C74	0.320100	0.624000	0.777870
H851	H85	0.252100	0.564200	0.771270
C751	C75	0.354000	0.597900	0.796840
H861	H86	0.307300	0.521600	0.802470
C761	C76	0.514900	0.788200	0.798480
H871	H87	0.582800	0.845900	0.805470
C771	C77	0.484600	0.818300	0.780040
H881	H88	0.531900	0.895800	0.774870
C781	C78	0.109300	0.316700	0.760480
H891	H89	0.141300	0.315200	0.773370
C791	C79	0.001200	0.316100	0.759960
H901	H90	0.962500	0.314200	0.772270
C801	C80	0.950800	0.318100	0.741110
C811	C81	0.013300	0.318500	0.723260
H911	H91	0.982300	0.317200	0.710170
C821	C82	0.121300	0.321100	0.725330
H921	H92	0.163100	0.324400	0.713370
C831	C83	0.845500	0.487200	0.735770
H931	H93	0.791300	0.503500	0.743770
H941	H94	0.927500	0.542100	0.740070
C841	C84	0.831000	0.498000	0.714070
H951	H95	0.901400	0.508000	0.706770
H961	H96	0.824100	0.568800	0.711570
C851	C85	0.731300	0.276200	0.713550
H971	H97	0.778700	0.258700	0.703970
H981	H98	0.652500	0.205300	0.715070
C861	C86	0.721000	0.388700	0.706070
H991	H99	0.718200	0.390800	0.690970
H1001	H100	0.648800	0.384600	0.711570
C871	C87	0.713400	0.258800	0.762530
C881	C88	0.634800	0.294600	0.768960
H1011	H101	0.625000	0.349900	0.761070
C891	C89	0.569400	0.249100	0.787190
H1021	H102	0.514200	0.272900	0.790770
C901	C90	0.656000	0.138300	0.793590
H1031	H103	0.666800	0.085600	0.801970
C911	C91	0.720300	0.175000	0.775280
H1041	H104	0.768600	0.143300	0.771470
C921	C92	0.234900	0.897100	0.822830
H1051	H105	0.228700	0.959800	0.816870
C931	C93	0.133000	0.782500	0.822290
H1061	H106	0.064400	0.769900	0.815270
C941	C94	0.134600	0.687400	0.832350
C951	C95	0.243400	0.716600	0.841280
H1071	H107	0.251300	0.657400	0.848170
C961	C96	0.341800	0.832600	0.840200
H1081	H108	0.413700	0.847100	0.846270
C971	C97	0.992800	0.434700	0.811570
H1091	H109	0.928900	0.419900	0.801870
H1101	H110	0.068500	0.469300	0.804070
C981	C98	0.967100	0.320400	0.822730
H1111	H111	0.994800	0.276100	0.814370
H1121	H112	0.881200	0.269900	0.824870
Ag51	Ag5	0.682340	0.030160	0.411510
Ag61	Ag6	0.883900	0.375270	0.497610
Si71	Si7	0.140700	0.021300	0.430080
Si81	Si8	0.227000	0.573500	0.409270
Si91	Si9	0.672800	0.480500	0.405510
N151	N15	0.499200	0.016900	0.417830
N161	N16	0.026000	0.106700	0.365780
N171	N17	0.860200	0.206200	0.412780
N181	N18	0.322700	0.772400	0.473670
N191	N19	0.680900	0.850200	0.410300
N201	N20	0.827200	0.407800	0.466640
N211	N21	0.076700	0.415400	0.497720
C991	C99	0.428800	0.013500	0.402010
H1131	H113	0.451700	0.009000	0.388430
C1001	C100	0.324500	0.016500	0.405150
H1141	H114	0.280400	0.016200	0.393630
C1011	C101	0.283900	0.019800	0.424290
C1021	C102	0.356400	0.020600	0.441180
H1151	H115	0.333500	0.022100	0.454830
C1031	C103	0.460500	0.019000	0.436900
H1161	H116	0.506900	0.019500	0.448030
C1041	C104	0.023800	0.881500	0.443280
H1171	H117	0.945900	0.850100	0.436630
H1181	H118	0.046300	0.819700	0.443430
C1051	C105	0.023800	0.927400	0.465130
H1191	H119	0.942800	0.882300	0.470630
H1201	H120	0.075000	0.910200	0.473830
C1061	C106	0.062200	0.049700	0.466830
H1211	H121	0.091500	0.076000	0.480830
H1221	H122	0.993700	0.061100	0.464730
C1071	C107	0.159200	0.127700	0.451710
H1231	H123	0.238100	0.161400	0.458030
H1241	H124	0.148000	0.192700	0.446730
C1081	C108	0.088400	0.056800	0.404950
C1091	C109	0.150100	0.170000	0.395560
H1251	H125	0.215900	0.232200	0.402330
C1101	C110	0.116300	0.190600	0.377030
H1261	H126	0.158400	0.268200	0.371730
C1111	C111	0.963700	0.998800	0.374390
H1271	H127	0.897300	0.938900	0.367430
C1121	C112	0.995900	0.972100	0.394080
H1281	H128	0.951700	0.894600	0.399430
C1131	C113	0.935100	0.249700	0.429210
H1291	H129	0.914800	0.203200	0.441230
C1141	C114	0.039300	0.358600	0.429180
H1301	H130	0.085200	0.385500	0.441230
C1151	C115	0.076700	0.428300	0.411680
C1161	C116	0.000000	0.383100	0.394790
H1311	H131	0.020300	0.427000	0.382530
C1171	C117	0.895500	0.275600	0.395800
H1321	H132	0.846400	0.249200	0.384130
C1181	C118	0.345800	0.542400	0.399050
H1331	H133	0.419900	0.585800	0.406930
H1341	H134	0.318900	0.457100	0.399430
C1191	C119	0.362100	0.589000	0.376530
H1351	H135	0.439700	0.606100	0.371130
H1361	H136	0.299800	0.529000	0.367630
C1201	C120	0.354000	0.700800	0.376830
H1371	H137	0.354900	0.727800	0.362730
H1381	H138	0.422600	0.763900	0.384130
C1211	C121	0.238600	0.675600	0.387530
H1391	H139	0.170200	0.636200	0.378230
H1401	H140	0.244100	0.749000	0.392730
C1221	C122	0.264600	0.648500	0.435270
C1231	C123	0.376000	0.696100	0.444530
H1411	H141	0.435800	0.687900	0.437930
C1241	C124	0.402100	0.756100	0.463500
H1421	H142	0.478400	0.785700	0.469130
C1251	C125	0.211800	0.726700	0.465140
H1431	H143	0.154100	0.736900	0.472130
C1261	C126	0.181700	0.666300	0.446700
H1441	H144	0.104200	0.636100	0.441530
C1271	C127	0.683300	0.792600	0.427140
H1451	H145	0.684800	0.826100	0.440030
C1281	C128	0.683900	0.685100	0.426620
H1461	H146	0.685800	0.648300	0.438930
C1291	C129	0.681900	0.632700	0.407770
C1301	C130	0.681500	0.694800	0.389920
H1471	H147	0.682800	0.665100	0.376830
C1311	C131	0.678900	0.800200	0.391990
H1481	H148	0.675600	0.838700	0.380030
C1321	C132	0.512800	0.358300	0.402430
H1491	H149	0.496500	0.287800	0.410430
H1501	H150	0.457900	0.385400	0.406730
C1331	C133	0.502000	0.333000	0.380730
H1511	H151	0.492000	0.393400	0.373430
H1521	H152	0.431200	0.255300	0.378230
C1341	C134	0.723800	0.455100	0.380210
H1531	H153	0.741300	0.520000	0.370630
H1541	H154	0.794700	0.447200	0.381730
C1351	C135	0.611300	0.332300	0.372730
H1551	H155	0.609200	0.327400	0.357630
H1561	H156	0.615400	0.264200	0.378230
C1361	C136	0.741200	0.454600	0.429190
C1371	C137	0.705400	0.340200	0.435620
H1571	H157	0.650100	0.275100	0.427730
C1381	C138	0.750900	0.320300	0.453850
H1581	H158	0.727100	0.241300	0.457430
C1391	C139	0.861700	0.517700	0.460250
H1591	H159	0.914400	0.581200	0.468630
C1401	C140	0.825000	0.545300	0.441940
H1601	H160	0.856700	0.625300	0.438130
C1411	C141	0.102900	0.337800	0.489490
H1611	H161	0.040200	0.268900	0.483530
C1421	C142	0.217500	0.350500	0.488950
H1621	H162	0.230100	0.294500	0.481930
C1431	C143	0.312600	0.447200	0.499010
C1441	C144	0.283400	0.526800	0.507940
H1631	H163	0.342600	0.593900	0.514830
C1451	C145	0.167400	0.509200	0.506860
H1641	H164	0.152900	0.566600	0.512930
C1461	C146	0.565300	0.558100	0.478230
H1651	H165	0.580100	0.509000	0.468530
H1661	H166	0.530700	0.599200	0.470730
C1471	C147	0.679600	0.646700	0.489390
H1671	H167	0.723900	0.718700	0.481030
H1681	H168	0.730100	0.611300	0.491530
Ag71	Ag7	0.652180	0.969840	0.921820
Ag81	Ag8	0.508630	0.624730	0.835720
Si101	Si10	0.119400	0.978700	0.903250
Si111	Si11	0.653500	0.426500	0.924060
Si121	Si12	0.192300	0.519500	0.927820
N221	N22	0.482300	0.983100	0.915500
N231	N23	0.919300	0.893300	0.967550
N241	N24	0.654000	0.793800	0.920550
N251	N25	0.550300	0.227600	0.859660
N261	N26	0.830700	0.149800	0.923030
N271	N27	0.419400	0.592200	0.866690
N281	N28	0.661300	0.584600	0.835610
C1481	C148	0.415300	0.986500	0.931320
H1691	H169	0.442700	0.991000	0.944900
C1491	C149	0.308000	0.983500	0.928180
H1701	H170	0.264200	0.983800	0.939700
C1501	C150	0.264100	0.980200	0.909040
C1511	C151	0.335800	0.979400	0.892150
H1711	H171	0.311400	0.977900	0.878500
C1521	C152	0.441500	0.981000	0.896430
H1721	H172	0.487400	0.980500	0.885300
C1531	C153	0.142300	0.118500	0.890050
H1731	H173	0.095800	0.149900	0.896700
H1741	H174	0.226600	0.180300	0.889900
C1541	C154	0.096400	0.072600	0.868200
H1751	H175	0.060500	0.117700	0.862700
H1761	H176	0.164800	0.089800	0.859500
C1551	C155	0.012500	0.950300	0.866500
H1771	H177	0.015500	0.924000	0.852500
H1781	H178	0.932600	0.938900	0.868600
C1561	C156	0.031500	0.872300	0.881620
H1791	H179	0.076700	0.838600	0.875300
H1801	H180	0.955300	0.807300	0.886600
C1571	C157	0.031600	0.943200	0.928380
C1581	C158	0.980100	0.830000	0.937770
H1811	H181	0.983700	0.767800	0.931000
C1591	C159	0.925700	0.809400	0.956300
H1821	H182	0.890200	0.731800	0.961600
C1601	C160	0.964900	0.001200	0.958940
H1831	H183	0.958400	0.061100	0.965900
C1611	C161	0.023800	0.027900	0.939250
H1841	H184	0.057100	0.105400	0.933900
C1621	C162	0.685400	0.750300	0.904120
H1851	H185	0.711600	0.796800	0.892100
C1631	C163	0.680700	0.641400	0.904150
H1861	H186	0.699700	0.614500	0.892100
C1641	C164	0.648400	0.571700	0.921650
C1651	C165	0.616900	0.616900	0.938540
H1871	H187	0.593300	0.573000	0.950800
C1661	C166	0.619900	0.724400	0.937530
H1881	H188	0.597200	0.750800	0.949200
C1671	C167	0.803400	0.457600	0.934280
H1891	H189	0.834100	0.414200	0.926400
H1901	H190	0.861800	0.542900	0.933900
C1681	C168	0.773100	0.411000	0.956800
H1911	H191	0.833600	0.393900	0.962200
H1921	H192	0.770800	0.471000	0.965700
C1691	C169	0.653200	0.299200	0.956500
H1931	H193	0.627100	0.272200	0.970600
H1941	H194	0.658700	0.236100	0.949200
C1701	C170	0.563000	0.324400	0.945800
H1951	H195	0.534000	0.363800	0.955100
H1961	H196	0.495100	0.251000	0.940600
C1711	C171	0.616100	0.351500	0.898060
C1721	C172	0.679900	0.303900	0.888800
H1971	H197	0.747900	0.312100	0.895400
C1731	C173	0.646000	0.243900	0.869830
H1981	H198	0.692700	0.214300	0.864200
C1741	C174	0.485100	0.273300	0.868190
H1991	H199	0.417200	0.263100	0.861200
C1751	C175	0.515400	0.333700	0.886630
H2001	H200	0.468100	0.363900	0.891800
C1761	C176	0.890700	0.207400	0.906190
H2011	H201	0.858700	0.173900	0.893300
C1771	C177	0.998800	0.314900	0.906710
H2021	H202	0.037500	0.351700	0.894400
C1781	C178	0.049200	0.367300	0.925560
C1791	C179	0.986700	0.305200	0.943410
H2031	H203	0.017700	0.334900	0.956500
C1801	C180	0.878700	0.199800	0.941340
H2041	H204	0.836900	0.161300	0.953300
C1811	C181	0.154500	0.641700	0.930900
H2051	H205	0.208700	0.712200	0.922900
H2061	H206	0.072500	0.614600	0.926600
C1821	C182	0.169000	0.667000	0.952600
H2071	H207	0.098600	0.606600	0.959900
H2081	H208	0.175900	0.744700	0.955100
C1831	C183	0.268700	0.544900	0.953120
H2091	H209	0.221300	0.480000	0.962700
H2101	H210	0.347500	0.552800	0.951600
C1841	C184	0.279000	0.667700	0.960600
H2111	H211	0.281800	0.672600	0.975700
H2121	H212	0.351200	0.735800	0.955100
C1851	C185	0.286600	0.545400	0.904140
C1861	C186	0.365200	0.659800	0.897710
H2131	H213	0.375000	0.724900	0.905600
C1871	C187	0.430600	0.679700	0.879480
H2141	H214	0.485800	0.758700	0.875900
C1881	C188	0.344000	0.482300	0.873080
H2151	H215	0.333200	0.418800	0.864700
C1891	C189	0.279700	0.454700	0.891390
H2161	H216	0.231400	0.374700	0.895200
C1901	C190	0.765100	0.662200	0.843840
H2171	H217	0.771300	0.731100	0.849800
C1911	C191	0.867000	0.649500	0.844380
H2181	H218	0.935600	0.705500	0.851400
C1921	C192	0.865400	0.552800	0.834320
C1931	C193	0.756600	0.473200	0.825390
H2191	H219	0.748700	0.406100	0.818500
C1941	C194	0.658200	0.490800	0.826470
H2201	H220	0.586300	0.433400	0.820400
C1951	C195	0.007200	0.441900	0.855100
H2211	H221	0.071100	0.491000	0.864800
H2221	H222	0.931500	0.400800	0.862600
C1961	C196	0.032900	0.353300	0.843940
H2231	H223	0.005200	0.281300	0.852300
H2241	H224	0.118800	0.388700	0.841800
Ag91	Ag9	0.317660	0.347820	0.255150
Ag101	Ag10	0.116100	0.491370	0.169050
Si131	Si13	0.859300	0.880600	0.236580
Si141	Si14	0.773000	0.346500	0.257390
Si151	Si15	0.327200	0.807700	0.261150
N291	N29	0.500800	0.517700	0.248830
N301	N30	0.974000	0.080700	0.300880
N311	N31	0.139800	0.346000	0.253880
N321	N32	0.677300	0.449700	0.192990
N331	N33	0.319100	0.169300	0.256360
N341	N34	0.172800	0.580600	0.200020
N351	N35	0.923300	0.338700	0.168940
C1971	C197	0.571200	0.584700	0.264650
H2251	H225	0.548300	0.557300	0.278230
C1981	C198	0.675500	0.692000	0.261510
H2261	H226	0.719600	0.735800	0.273030
C1991	C199	0.716100	0.735900	0.242370
C2001	C200	0.643600	0.664200	0.225480
H2271	H227	0.666500	0.688600	0.211830
C2011	C201	0.539500	0.558500	0.229760
H2281	H228	0.493100	0.512600	0.218630
C2021	C202	0.976200	0.857700	0.223380
H2291	H229	0.054100	0.904200	0.230030
H2301	H230	0.953700	0.773400	0.223230
C2031	C203	0.976200	0.903600	0.201530
H2311	H231	0.057200	0.939500	0.196030
H2321	H232	0.925000	0.835200	0.192830
C2041	C204	0.937800	0.987500	0.199830
H2331	H233	0.908500	0.984500	0.185830
H2341	H234	0.006300	0.067400	0.201930
C2051	C205	0.840800	0.968500	0.214950
H2351	H235	0.761900	0.923300	0.208630
H2361	H236	0.852000	0.044700	0.219930
C2061	C206	0.911600	0.968400	0.261710
C2071	C207	0.849900	0.019900	0.271100
H2371	H237	0.784100	0.016300	0.264330
C2081	C208	0.883700	0.074300	0.289630
H2381	H238	0.841600	0.109800	0.294930
C2091	C209	0.036300	0.035100	0.292270
H2391	H239	0.102700	0.041600	0.299230
C2101	C210	0.004100	0.976200	0.272580
H2401	H240	0.048300	0.942900	0.267230
C2111	C211	0.064900	0.314600	0.237450
H2411	H241	0.085200	0.288400	0.225430
C2121	C212	0.960700	0.319300	0.237480
H2421	H242	0.914800	0.300300	0.225430
C2131	C213	0.923300	0.351600	0.254980
C2141	C214	0.000000	0.383100	0.271870
H2431	H243	0.979700	0.406700	0.284130
C2151	C215	0.104500	0.380100	0.270860
H2441	H244	0.153600	0.402800	0.282530
C2161	C216	0.654200	0.196600	0.267610
H2451	H245	0.580100	0.165900	0.259730
H2461	H246	0.681100	0.138200	0.267230
C2171	C217	0.637900	0.226900	0.290130
H2471	H247	0.560300	0.166400	0.295530
H2481	H248	0.700200	0.229200	0.299030
C2181	C218	0.646000	0.346800	0.289830
H2491	H249	0.645100	0.372900	0.303930
H2501	H250	0.577400	0.341300	0.282530
C2191	C219	0.761400	0.437000	0.279130
H2511	H251	0.829800	0.466000	0.288430
H2521	H252	0.755900	0.504900	0.273930
C2201	C220	0.735400	0.383900	0.231390
C2211	C221	0.624000	0.320100	0.222130
H2531	H253	0.564200	0.252100	0.228730
C2221	C222	0.597900	0.354000	0.203160
H2541	H254	0.521600	0.307300	0.197530
C2231	C223	0.788200	0.514900	0.201520
H2551	H255	0.845900	0.582800	0.194530
C2241	C224	0.818300	0.484600	0.219960
H2561	H256	0.895800	0.531900	0.225130
C2251	C225	0.316700	0.109300	0.239520
H2571	H257	0.315200	0.141300	0.226630
C2261	C226	0.316100	0.001200	0.240040
H2581	H258	0.314200	0.962500	0.227730
C2271	C227	0.318100	0.950800	0.258890
C2281	C228	0.318500	0.013300	0.276740
H2591	H259	0.317200	0.982300	0.289830
C2291	C229	0.321100	0.121300	0.274670
H2601	H260	0.324400	0.163100	0.286630
C2301	C230	0.487200	0.845500	0.264230
H2611	H261	0.503500	0.791300	0.256230
H2621	H262	0.542100	0.927500	0.259930
C2311	C231	0.498000	0.831000	0.285930
H2631	H263	0.508000	0.901400	0.293230
H2641	H264	0.568800	0.824100	0.288430
C2321	C232	0.276200	0.731300	0.286450
H2651	H265	0.258700	0.778700	0.296030
H2661	H266	0.205300	0.652500	0.284930
C2331	C233	0.388700	0.721000	0.293930
H2671	H267	0.390800	0.718200	0.309030
H2681	H268	0.384600	0.648800	0.288430
C2341	C234	0.258800	0.713400	0.237470
C2351	C235	0.294600	0.634800	0.231040
H2691	H269	0.349900	0.625000	0.238930
C2361	C236	0.249100	0.569400	0.212810
H2701	H270	0.272900	0.514200	0.209230
C2371	C237	0.138300	0.656000	0.206410
H2711	H271	0.085600	0.666800	0.198030
C2381	C238	0.175000	0.720300	0.224720
H2721	H272	0.143300	0.768600	0.228530
C2391	C239	0.897100	0.234900	0.177170
H2731	H273	0.959800	0.228700	0.183130
C2401	C240	0.782500	0.133000	0.177710
H2741	H274	0.769900	0.064400	0.184730
C2411	C241	0.687400	0.134600	0.167650
C2421	C242	0.716600	0.243400	0.158720
H2751	H275	0.657400	0.251300	0.151830
C2431	C243	0.832600	0.341800	0.159800
H2761	H276	0.847100	0.413700	0.153730
C2441	C244	0.434700	0.992800	0.188430
H2771	H277	0.419900	0.928900	0.198130
H2781	H278	0.469300	0.068500	0.195930
C2451	C245	0.320400	0.967100	0.177270
H2791	H279	0.276100	0.994800	0.185630
H2801	H280	0.269900	0.881200	0.175130
Ag111	Ag11	0.030160	0.682340	0.588490
Ag121	Ag12	0.375270	0.883900	0.502390
Si161	Si16	0.021300	0.140700	0.569920
Si171	Si17	0.573500	0.227000	0.590730
Si181	Si18	0.480500	0.672800	0.594490
N361	N36	0.016900	0.499200	0.582170
N371	N37	0.106700	0.026000	0.634220
N381	N38	0.206200	0.860200	0.587220
N391	N39	0.772400	0.322700	0.526330
N401	N40	0.850200	0.680900	0.589700
N411	N41	0.407800	0.827200	0.533360
N421	N42	0.415400	0.076700	0.502280
C2461	C246	0.013500	0.428800	0.597990
H2811	H281	0.009000	0.451700	0.611570
C2471	C247	0.016500	0.324500	0.594850
H2821	H282	0.016200	0.280400	0.606370
C2481	C248	0.019800	0.283900	0.575710
C2491	C249	0.020600	0.356400	0.558820
H2831	H283	0.022100	0.333500	0.545170
C2501	C250	0.019000	0.460500	0.563100
H2841	H284	0.019500	0.506900	0.551970
C2511	C251	0.881500	0.023800	0.556720
H2851	H285	0.850100	0.945900	0.563370
H2861	H286	0.819700	0.046300	0.556570
C2521	C252	0.927400	0.023800	0.534870
H2871	H287	0.882300	0.942800	0.529370
H2881	H288	0.910200	0.075000	0.526170
C2531	C253	0.049700	0.062200	0.533170
H2891	H289	0.076000	0.091500	0.519170
H2901	H290	0.061100	0.993700	0.535270
C2541	C254	0.127700	0.159200	0.548290
H2911	H291	0.161400	0.238100	0.541970
H2921	H292	0.192700	0.148000	0.553270
C2551	C255	0.056800	0.088400	0.595050
C2561	C256	0.170000	0.150100	0.604440
H2931	H293	0.232200	0.215900	0.597670
C2571	C257	0.190600	0.116300	0.622970
H2941	H294	0.268200	0.158400	0.628270
C2581	C258	0.998800	0.963700	0.625610
H2951	H295	0.938900	0.897300	0.632570
C2591	C259	0.972100	0.995900	0.605920
H2961	H296	0.894600	0.951700	0.600570
C2601	C260	0.249700	0.935100	0.570790
H2971	H297	0.203200	0.914800	0.558770
C2611	C261	0.358600	0.039300	0.570820
H2981	H298	0.385500	0.085200	0.558770
C2621	C262	0.428300	0.076700	0.588320
C2631	C263	0.383100	0.000000	0.605210
H2991	H299	0.427000	0.020300	0.617470
C2641	C264	0.275600	0.895500	0.604200
H3001	H300	0.249200	0.846400	0.615870
C2651	C265	0.542400	0.345800	0.600950
H3011	H301	0.585800	0.419900	0.593070
H3021	H302	0.457100	0.318900	0.600570
C2661	C266	0.589000	0.362100	0.623470
H3031	H303	0.606100	0.439700	0.628870
H3041	H304	0.529000	0.299800	0.632370
C2671	C267	0.700800	0.354000	0.623170
H3051	H305	0.727800	0.354900	0.637270
H3061	H306	0.763900	0.422600	0.615870
C2681	C268	0.675600	0.238600	0.612470
H3071	H307	0.636200	0.170200	0.621770
H3081	H308	0.749000	0.244100	0.607270
C2691	C269	0.648500	0.264600	0.564730
C2701	C270	0.696100	0.376000	0.555470
H3091	H309	0.687900	0.435800	0.562070
C2711	C271	0.756100	0.402100	0.536500
H3101	H310	0.785700	0.478400	0.530870
C2721	C272	0.726700	0.211800	0.534860
H3111	H311	0.736900	0.154100	0.527870
C2731	C273	0.666300	0.181700	0.553300
H3121	H312	0.636100	0.104200	0.558470
C2741	C274	0.792600	0.683300	0.572860
H3131	H313	0.826100	0.684800	0.559970
C2751	C275	0.685100	0.683900	0.573380
H3141	H314	0.648300	0.685800	0.561070
C2761	C276	0.632700	0.681900	0.592230
C2771	C277	0.694800	0.681500	0.610080
H3151	H315	0.665100	0.682800	0.623170
C2781	C278	0.800200	0.678900	0.608010
H3161	H316	0.838700	0.675600	0.619970
C2791	C279	0.358300	0.512800	0.597570
H3171	H317	0.287800	0.496500	0.589570
H3181	H318	0.385400	0.457900	0.593270
C2801	C280	0.333000	0.502000	0.619270
H3191	H319	0.393400	0.492000	0.626570
H3201	H320	0.255300	0.431200	0.621770
C2811	C281	0.455100	0.723800	0.619790
H3211	H321	0.520000	0.741300	0.629370
H3221	H322	0.447200	0.794700	0.618270
C2821	C282	0.332300	0.611300	0.627270
H3231	H323	0.327400	0.609200	0.642370
H3241	H324	0.264200	0.615400	0.621770
C2831	C283	0.454600	0.741200	0.570810
C2841	C284	0.340200	0.705400	0.564380
H3251	H325	0.275100	0.650100	0.572270
C2851	C285	0.320300	0.750900	0.546150
H3261	H326	0.241300	0.727100	0.542570
C2861	C286	0.517700	0.861700	0.539750
H3271	H327	0.581200	0.914400	0.531370
C2871	C287	0.545300	0.825000	0.558060
H3281	H328	0.625300	0.856700	0.561870
C2881	C288	0.337800	0.102900	0.510510
H3291	H329	0.268900	0.040200	0.516470
C2891	C289	0.350500	0.217500	0.511050
H3301	H330	0.294500	0.230100	0.518070
C2901	C290	0.447200	0.312600	0.500990
C2911	C291	0.526800	0.283400	0.492060
H3311	H331	0.593900	0.342600	0.485170
C2921	C292	0.509200	0.167400	0.493140
H3321	H332	0.566600	0.152900	0.487070
C2931	C293	0.558100	0.565300	0.521770
H3331	H333	0.509000	0.580100	0.531470
H3341	H334	0.599200	0.530700	0.529270
C2941	C294	0.646700	0.679600	0.510610
H3351	H335	0.718700	0.723900	0.518970
H3361	H336	0.611300	0.730100	0.508470
Ag131	Ag13	0.875590	0.875590	0.000000
Ag141	Ag14	0.124410	0.000000	0.666670
Ag151	Ag15	0.000000	0.124410	0.333330
Si191	Si19	0.534400	0.000000	0.166670
Si201	Si20	0.000000	0.534400	0.833330
Si211	Si21	0.465600	0.465600	0.500000
