data_DIVPUU_clean_PM
_symmetry_space_group_name_H-M	'P1'
_cell_length_a	10.816100
_cell_length_b	10.816100
_cell_length_c	9.748200
_cell_angle_alpha	90.000000
_cell_angle_beta	90.000000
_cell_angle_gamma	120.000000
_symmetry_Int_Tables_number 1

loop_
_symmetry_equiv_pos_as_xyz
'x,y,z'

loop_
_atom_site_label
_atom_site_type_symbol
_atom_site_fract_x
_atom_site_fract_y
_atom_site_fract_z
N11	N1	0.567200	0.639200	0.200300
N21	N2	0.542500	0.812100	0.326300
C11	C1	0.616800	0.607700	0.313800
H11	H1	0.643000	0.537900	0.308600
C21	C2	0.630100	0.674800	0.436900
C31	C3	0.592500	0.778700	0.438100
H21	H2	0.602100	0.827800	0.519400
C41	C4	0.533200	0.739900	0.212800
H31	H3	0.499400	0.762700	0.134600
N31	N3	0.360800	0.928000	0.533630
N41	N4	0.187900	0.730400	0.659630
C51	C5	0.392300	0.009100	0.647130
H41	H4	0.462100	0.105100	0.641930
C61	C6	0.325200	0.955300	0.770230
C71	C7	0.221300	0.813800	0.771430
H51	H5	0.172200	0.774300	0.852730
C81	C8	0.260100	0.793300	0.546130
H61	H6	0.237300	0.736700	0.467930
N51	N5	0.072000	0.432800	0.866970
N61	N6	0.269600	0.457500	0.992970
C91	C9	0.990900	0.383200	0.980470
H71	H7	0.894900	0.357000	0.975270
C101	C10	0.044700	0.369900	0.103570
C111	C11	0.186200	0.407500	0.104770
H81	H8	0.225700	0.397900	0.186070
C121	C12	0.206700	0.466800	0.879470
H91	H9	0.263300	0.500600	0.801270
N71	N7	0.639200	0.567200	0.799700
N81	N8	0.812100	0.542500	0.673700
C131	C13	0.607700	0.616800	0.686200
H101	H10	0.537900	0.643000	0.691400
C141	C14	0.674800	0.630100	0.563100
C151	C15	0.778700	0.592500	0.561900
H111	H11	0.827800	0.602100	0.480600
C161	C16	0.739900	0.533200	0.787200
H121	H12	0.762700	0.499400	0.865400
N91	N9	0.928000	0.360800	0.466370
N101	N10	0.730400	0.187900	0.340370
C171	C17	0.009100	0.392300	0.352870
H131	H13	0.105100	0.462100	0.358070
C181	C18	0.955300	0.325200	0.229770
C191	C19	0.813800	0.221300	0.228570
H141	H14	0.774300	0.172200	0.147270
C201	C20	0.793300	0.260100	0.453870
H151	H15	0.736700	0.237300	0.532070
N111	N11	0.432800	0.072000	0.133030
N121	N12	0.457500	0.269600	0.007030
C211	C21	0.383200	0.990900	0.019530
H161	H16	0.357000	0.894900	0.024730
C221	C22	0.369900	0.044700	0.896430
C231	C23	0.407500	0.186200	0.895230
H171	H17	0.397900	0.225700	0.813930
C241	C24	0.466800	0.206700	0.120530
H181	H18	0.500600	0.263300	0.198730
Ag11	Ag1	0.515020	0.515020	0.000000
Ag21	Ag2	0.484980	0.000000	0.333330
Ag31	Ag3	0.000000	0.484980	0.666670
