data_DIWMON_clean_PM
_symmetry_space_group_name_H-M	'P1'
_cell_length_a	27.306200
_cell_length_b	19.434700
_cell_length_c	31.177000
_cell_angle_alpha	90.000000
_cell_angle_beta	90.000000
_cell_angle_gamma	90.000000
_symmetry_Int_Tables_number 1

loop_
_symmetry_equiv_pos_as_xyz
'x,y,z'

loop_
_atom_site_label
_atom_site_type_symbol
_atom_site_fract_x
_atom_site_fract_y
_atom_site_fract_z
Sr11	Sr1	0.211530	0.420020	0.173920
Sr21	Sr2	0.290880	0.265720	0.198690
Sr31	Sr3	0.228050	0.099550	0.149480
C11	C1	0.324700	0.242400	0.434810
C21	C2	0.371600	0.250800	0.419100
C31	C3	0.380300	0.255500	0.375880
H11	H1	0.413000	0.261100	0.366100
C41	C4	0.343100	0.252400	0.346160
C51	C5	0.295700	0.246500	0.361100
H21	H2	0.269200	0.245600	0.341400
C61	C6	0.286600	0.241700	0.404300
H31	H3	0.253700	0.237900	0.414000
O11	O1	0.411260	0.255700	0.445870
H41	H4	0.414700	0.218600	0.459400
C71	C7	0.353600	0.257800	0.298770
O21	O2	0.397000	0.267580	0.287390
O31	O3	0.318340	0.251700	0.273500
C81	C8	0.312500	0.235200	0.481830
C91	C9	0.329100	0.280000	0.513230
C101	C10	0.312700	0.275300	0.554770
H51	H5	0.323500	0.307700	0.575500
C111	C11	0.280300	0.223200	0.566690
C121	C12	0.265000	0.176400	0.536000
H61	H6	0.244100	0.139600	0.544000
C131	C13	0.279900	0.183000	0.494300
H71	H7	0.267900	0.151700	0.473400
O41	O4	0.362010	0.330100	0.501470
H81	H8	0.368800	0.354600	0.522900
C141	C14	0.260300	0.222500	0.611110
O51	O5	0.258830	0.277640	0.631490
O61	O6	0.244990	0.166790	0.627140
C151	C15	0.429910	0.504900	0.301330
C161	C16	0.418600	0.437000	0.289040
C171	C17	0.379240	0.422500	0.262780
H91	H9	0.373400	0.376400	0.254100
C181	C18	0.347860	0.474600	0.248840
C191	C19	0.357600	0.541800	0.261820
H101	H10	0.336200	0.577800	0.253200
C201	C20	0.397600	0.556700	0.287060
H111	H11	0.403600	0.603100	0.295100
O71	O7	0.448620	0.385700	0.303450
H121	H12	0.436900	0.347400	0.296500
C211	C21	0.304900	0.458000	0.221140
O81	O8	0.295040	0.395420	0.213090
O91	O9	0.279610	0.507010	0.206330
C221	C22	0.474030	0.522800	0.327330
C231	C23	0.469470	0.564000	0.364130
C241	C24	0.511790	0.584700	0.386530
H131	H13	0.508300	0.612400	0.411500
C251	C25	0.558130	0.565900	0.373210
C261	C26	0.562610	0.525500	0.336690
H141	H14	0.594100	0.512600	0.326700
C271	C27	0.520800	0.503800	0.314670
H151	H15	0.524500	0.475100	0.290200
O101	O10	0.423900	0.583600	0.378450
H161	H16	0.402300	0.567700	0.362000
C281	C28	0.602680	0.590900	0.397780
O111	O11	0.643230	0.593640	0.378680
O121	O12	0.595150	0.608800	0.435980
C291	C29	0.475300	0.067200	0.240000
C301	C30	0.443800	0.120600	0.249900
C311	C31	0.398400	0.127100	0.229100
H171	H17	0.377400	0.164500	0.235900
C321	C32	0.384120	0.079300	0.198800
C331	C33	0.415000	0.024700	0.187900
H181	H18	0.405600	0.992000	0.166800
C341	C34	0.460500	0.019400	0.209000
H191	H19	0.481700	0.982400	0.201900
O131	O13	0.458150	0.164600	0.281500
H201	H20	0.440500	0.200000	0.281000
C351	C35	0.334360	0.086900	0.178570
O141	O14	0.310380	0.141670	0.185980
O151	O15	0.317080	0.038660	0.156830
C361	C36	0.027000	0.251700	0.244300
C371	C37	0.057800	0.306700	0.254400
C381	C38	0.106600	0.304800	0.243400
H211	H21	0.126400	0.344100	0.248800
C391	C39	0.127900	0.246900	0.224490
C401	C40	0.096970	0.191800	0.214700
H221	H22	0.110100	0.151800	0.201400
C411	C41	0.047000	0.194800	0.224230
H231	H23	0.026400	0.157200	0.216800
O161	O16	0.040000	0.363800	0.275600
H241	H24	0.024700	0.388800	0.258300
C421	C42	0.181800	0.244500	0.215030
O171	O17	0.202820	0.302670	0.212040
O181	O18	0.202870	0.188690	0.211610
O191	O19	0.225210	0.978090	0.114960
C431	C43	0.187300	0.946800	0.106270
H251	H25	0.172800	0.919900	0.128300
N11	N1	0.165020	0.947800	0.068430
C441	C44	0.184900	0.989000	0.033700
H261	H26	0.158800	0.017300	0.021300
H271	H27	0.198400	0.958700	0.011600
H281	H28	0.210800	0.018900	0.044800
C451	C45	0.118100	0.910400	0.061400
H291	H29	0.111500	0.880400	0.086100
H301	H30	0.120600	0.882400	0.035400
H311	H31	0.091400	0.943600	0.058300
Sr41	Sr4	0.288470	0.079980	0.673920
Sr51	Sr5	0.209120	0.234280	0.698690
Sr61	Sr6	0.271950	0.400450	0.649480
C461	C46	0.175300	0.257600	0.934810
C471	C47	0.128400	0.249200	0.919100
C481	C48	0.119700	0.244500	0.875880
H321	H32	0.087000	0.238900	0.866100
C491	C49	0.156900	0.247600	0.846160
C501	C50	0.204300	0.253500	0.861100
H331	H33	0.230800	0.254400	0.841400
C511	C51	0.213400	0.258300	0.904300
H341	H34	0.246300	0.262100	0.914000
O201	O20	0.088740	0.244300	0.945870
H351	H35	0.085300	0.281400	0.959400
C521	C52	0.146400	0.242200	0.798770
O211	O21	0.103000	0.232420	0.787390
O221	O22	0.181660	0.248300	0.773500
C531	C53	0.187500	0.264800	0.981830
C541	C54	0.170900	0.220000	0.013230
C551	C55	0.187300	0.224700	0.054770
H361	H36	0.176500	0.192300	0.075500
C561	C56	0.219700	0.276800	0.066690
C571	C57	0.235000	0.323600	0.036000
H371	H37	0.255900	0.360400	0.044000
C581	C58	0.220100	0.317000	0.994300
H381	H38	0.232100	0.348300	0.973400
O231	O23	0.137990	0.169900	0.001470
H391	H39	0.131200	0.145400	0.022900
C591	C59	0.239700	0.277500	0.111110
O241	O24	0.241170	0.222360	0.131490
O251	O25	0.255010	0.333210	0.127140
C601	C60	0.070090	0.995100	0.801330
C611	C61	0.081400	0.063000	0.789040
C621	C62	0.120760	0.077500	0.762780
H401	H40	0.126600	0.123600	0.754100
C631	C63	0.152140	0.025400	0.748840
C641	C64	0.142400	0.958200	0.761820
H411	H41	0.163800	0.922200	0.753200
C651	C65	0.102400	0.943300	0.787060
H421	H42	0.096400	0.896900	0.795100
O261	O26	0.051380	0.114300	0.803450
H431	H43	0.063100	0.152600	0.796500
C661	C66	0.195100	0.042000	0.721140
O271	O27	0.204960	0.104580	0.713090
O281	O28	0.220390	0.992990	0.706330
C671	C67	0.025970	0.977200	0.827330
C681	C68	0.030530	0.936000	0.864130
C691	C69	0.988210	0.915300	0.886530
H441	H44	0.991700	0.887600	0.911500
C701	C70	0.941870	0.934100	0.873210
C711	C71	0.937390	0.974500	0.836690
H451	H45	0.905900	0.987400	0.826700
C721	C72	0.979200	0.996200	0.814670
H461	H46	0.975500	0.024900	0.790200
O291	O29	0.076100	0.916400	0.878450
H471	H47	0.097700	0.932300	0.862000
C731	C73	0.897320	0.909100	0.897780
O301	O30	0.856770	0.906360	0.878680
O311	O31	0.904850	0.891200	0.935980
C741	C74	0.024700	0.432800	0.740000
C751	C75	0.056200	0.379400	0.749900
C761	C76	0.101600	0.372900	0.729100
H481	H48	0.122600	0.335500	0.735900
C771	C77	0.115880	0.420700	0.698800
C781	C78	0.085000	0.475300	0.687900
H491	H49	0.094400	0.508000	0.666800
C791	C79	0.039500	0.480600	0.709000
H501	H50	0.018300	0.517600	0.701900
O321	O32	0.041850	0.335400	0.781500
H511	H51	0.059500	0.300000	0.781000
C801	C80	0.165640	0.413100	0.678570
O331	O33	0.189620	0.358330	0.685980
O341	O34	0.182920	0.461340	0.656830
C811	C81	0.473000	0.248300	0.744300
C821	C82	0.442200	0.193300	0.754400
C831	C83	0.393400	0.195200	0.743400
H521	H52	0.373600	0.155900	0.748800
C841	C84	0.372100	0.253100	0.724490
C851	C85	0.403030	0.308200	0.714700
H531	H53	0.389900	0.348200	0.701400
C861	C86	0.453000	0.305200	0.724230
H541	H54	0.473600	0.342800	0.716800
O351	O35	0.460000	0.136200	0.775600
H551	H55	0.475300	0.111200	0.758300
C871	C87	0.318200	0.255500	0.715030
O361	O36	0.297180	0.197330	0.712040
O371	O37	0.297130	0.311310	0.711610
O381	O38	0.274790	0.521910	0.614960
C881	C88	0.312700	0.553200	0.606270
H561	H56	0.327200	0.580100	0.628300
N21	N2	0.334980	0.552200	0.568430
C891	C89	0.315100	0.511000	0.533700
H571	H57	0.341200	0.482700	0.521300
H581	H58	0.301600	0.541300	0.511600
H591	H59	0.289200	0.481100	0.544800
C901	C90	0.381900	0.589600	0.561400
H601	H60	0.388500	0.619600	0.586100
H611	H61	0.379400	0.617600	0.535400
H621	H62	0.408600	0.556400	0.558300
Sr71	Sr7	0.788470	0.420020	0.326080
Sr81	Sr8	0.709120	0.265720	0.301310
Sr91	Sr9	0.771950	0.099550	0.350520
C911	C91	0.675300	0.242400	0.065190
C921	C92	0.628400	0.250800	0.080900
C931	C93	0.619700	0.255500	0.124120
H631	H63	0.587000	0.261100	0.133900
C941	C94	0.656900	0.252400	0.153840
C951	C95	0.704300	0.246500	0.138900
H641	H64	0.730800	0.245600	0.158600
C961	C96	0.713400	0.241700	0.095700
H651	H65	0.746300	0.237900	0.086000
O391	O39	0.588740	0.255700	0.054130
H661	H66	0.585300	0.218600	0.040600
C971	C97	0.646400	0.257800	0.201230
O401	O40	0.603000	0.267580	0.212610
O411	O41	0.681660	0.251700	0.226500
C981	C98	0.687500	0.235200	0.018170
C991	C99	0.670900	0.280000	0.986770
C1001	C100	0.687300	0.275300	0.945230
H671	H67	0.676500	0.307700	0.924500
C1011	C101	0.719700	0.223200	0.933310
C1021	C102	0.735000	0.176400	0.964000
H681	H68	0.755900	0.139600	0.956000
C1031	C103	0.720100	0.183000	0.005700
H691	H69	0.732100	0.151700	0.026600
O421	O42	0.637990	0.330100	0.998530
H701	H70	0.631200	0.354600	0.977100
C1041	C104	0.739700	0.222500	0.888890
O431	O43	0.741170	0.277640	0.868510
O441	O44	0.755010	0.166790	0.872860
C1051	C105	0.570090	0.504900	0.198670
C1061	C106	0.581400	0.437000	0.210960
C1071	C107	0.620760	0.422500	0.237220
H711	H71	0.626600	0.376400	0.245900
C1081	C108	0.652140	0.474600	0.251160
C1091	C109	0.642400	0.541800	0.238180
H721	H72	0.663800	0.577800	0.246800
C1101	C110	0.602400	0.556700	0.212940
H731	H73	0.596400	0.603100	0.204900
O451	O45	0.551380	0.385700	0.196550
H741	H74	0.563100	0.347400	0.203500
C1111	C111	0.695100	0.458000	0.278860
O461	O46	0.704960	0.395420	0.286910
O471	O47	0.720390	0.507010	0.293670
C1121	C112	0.525970	0.522800	0.172670
C1131	C113	0.530530	0.564000	0.135870
C1141	C114	0.488210	0.584700	0.113470
H751	H75	0.491700	0.612400	0.088500
C1151	C115	0.441870	0.565900	0.126790
C1161	C116	0.437390	0.525500	0.163310
H761	H76	0.405900	0.512600	0.173300
C1171	C117	0.479200	0.503800	0.185330
H771	H77	0.475500	0.475100	0.209800
O481	O48	0.576100	0.583600	0.121550
H781	H78	0.597700	0.567700	0.138000
C1181	C118	0.397320	0.590900	0.102220
O491	O49	0.356770	0.593640	0.121320
O501	O50	0.404850	0.608800	0.064020
C1191	C119	0.524700	0.067200	0.260000
C1201	C120	0.556200	0.120600	0.250100
C1211	C121	0.601600	0.127100	0.270900
H791	H79	0.622600	0.164500	0.264100
C1221	C122	0.615880	0.079300	0.301200
C1231	C123	0.585000	0.024700	0.312100
H801	H80	0.594400	0.992000	0.333200
C1241	C124	0.539500	0.019400	0.291000
H811	H81	0.518300	0.982400	0.298100
O511	O51	0.541850	0.164600	0.218500
H821	H82	0.559500	0.200000	0.219000
C1251	C125	0.665640	0.086900	0.321430
O521	O52	0.689620	0.141670	0.314020
O531	O53	0.682920	0.038660	0.343170
C1261	C126	0.973000	0.251700	0.255700
C1271	C127	0.942200	0.306700	0.245600
C1281	C128	0.893400	0.304800	0.256600
H831	H83	0.873600	0.344100	0.251200
C1291	C129	0.872100	0.246900	0.275510
C1301	C130	0.903030	0.191800	0.285300
H841	H84	0.889900	0.151800	0.298600
C1311	C131	0.953000	0.194800	0.275770
H851	H85	0.973600	0.157200	0.283200
O541	O54	0.960000	0.363800	0.224400
H861	H86	0.975300	0.388800	0.241700
C1321	C132	0.818200	0.244500	0.284970
O551	O55	0.797180	0.302670	0.287960
O561	O56	0.797130	0.188690	0.288390
O571	O57	0.774790	0.978090	0.385040
C1331	C133	0.812700	0.946800	0.393730
H871	H87	0.827200	0.919900	0.371700
N31	N3	0.834980	0.947800	0.431570
C1341	C134	0.815100	0.989000	0.466300
H881	H88	0.841200	0.017300	0.478700
H891	H89	0.801600	0.958700	0.488400
H901	H90	0.789200	0.018900	0.455200
C1351	C135	0.881900	0.910400	0.438600
H911	H91	0.888500	0.880400	0.413900
H921	H92	0.879400	0.882400	0.464600
H931	H93	0.908600	0.943600	0.441700
Sr101	Sr10	0.711530	0.079980	0.826080
Sr111	Sr11	0.790880	0.234280	0.801310
Sr121	Sr12	0.728050	0.400450	0.850520
C1361	C136	0.824700	0.257600	0.565190
C1371	C137	0.871600	0.249200	0.580900
C1381	C138	0.880300	0.244500	0.624120
H941	H94	0.913000	0.238900	0.633900
C1391	C139	0.843100	0.247600	0.653840
C1401	C140	0.795700	0.253500	0.638900
H951	H95	0.769200	0.254400	0.658600
C1411	C141	0.786600	0.258300	0.595700
H961	H96	0.753700	0.262100	0.586000
O581	O58	0.911260	0.244300	0.554130
H971	H97	0.914700	0.281400	0.540600
C1421	C142	0.853600	0.242200	0.701230
O591	O59	0.897000	0.232420	0.712610
O601	O60	0.818340	0.248300	0.726500
C1431	C143	0.812500	0.264800	0.518170
C1441	C144	0.829100	0.220000	0.486770
C1451	C145	0.812700	0.224700	0.445230
H981	H98	0.823500	0.192300	0.424500
C1461	C146	0.780300	0.276800	0.433310
C1471	C147	0.765000	0.323600	0.464000
H991	H99	0.744100	0.360400	0.456000
C1481	C148	0.779900	0.317000	0.505700
H1001	H100	0.767900	0.348300	0.526600
O611	O61	0.862010	0.169900	0.498530
H1011	H101	0.868800	0.145400	0.477100
C1491	C149	0.760300	0.277500	0.388890
O621	O62	0.758830	0.222360	0.368510
O631	O63	0.744990	0.333210	0.372860
C1501	C150	0.929910	0.995100	0.698670
C1511	C151	0.918600	0.063000	0.710960
C1521	C152	0.879240	0.077500	0.737220
H1021	H102	0.873400	0.123600	0.745900
C1531	C153	0.847860	0.025400	0.751160
C1541	C154	0.857600	0.958200	0.738180
H1031	H103	0.836200	0.922200	0.746800
C1551	C155	0.897600	0.943300	0.712940
H1041	H104	0.903600	0.896900	0.704900
O641	O64	0.948620	0.114300	0.696550
H1051	H105	0.936900	0.152600	0.703500
C1561	C156	0.804900	0.042000	0.778860
O651	O65	0.795040	0.104580	0.786910
O661	O66	0.779610	0.992990	0.793670
C1571	C157	0.974030	0.977200	0.672670
C1581	C158	0.969470	0.936000	0.635870
C1591	C159	0.011790	0.915300	0.613470
H1061	H106	0.008300	0.887600	0.588500
C1601	C160	0.058130	0.934100	0.626790
C1611	C161	0.062610	0.974500	0.663310
H1071	H107	0.094100	0.987400	0.673300
C1621	C162	0.020800	0.996200	0.685330
H1081	H108	0.024500	0.024900	0.709800
O671	O67	0.923900	0.916400	0.621550
H1091	H109	0.902300	0.932300	0.638000
C1631	C163	0.102680	0.909100	0.602220
O681	O68	0.143230	0.906360	0.621320
O691	O69	0.095150	0.891200	0.564020
C1641	C164	0.975300	0.432800	0.760000
C1651	C165	0.943800	0.379400	0.750100
C1661	C166	0.898400	0.372900	0.770900
H1101	H110	0.877400	0.335500	0.764100
C1671	C167	0.884120	0.420700	0.801200
C1681	C168	0.915000	0.475300	0.812100
H1111	H111	0.905600	0.508000	0.833200
C1691	C169	0.960500	0.480600	0.791000
H1121	H112	0.981700	0.517600	0.798100
O701	O70	0.958150	0.335400	0.718500
H1131	H113	0.940500	0.300000	0.719000
C1701	C170	0.834360	0.413100	0.821430
O711	O71	0.810380	0.358330	0.814020
O721	O72	0.817080	0.461340	0.843170
C1711	C171	0.527000	0.248300	0.755700
C1721	C172	0.557800	0.193300	0.745600
C1731	C173	0.606600	0.195200	0.756600
H1141	H114	0.626400	0.155900	0.751200
C1741	C174	0.627900	0.253100	0.775510
C1751	C175	0.596970	0.308200	0.785300
H1151	H115	0.610100	0.348200	0.798600
C1761	C176	0.547000	0.305200	0.775770
H1161	H116	0.526400	0.342800	0.783200
O731	O73	0.540000	0.136200	0.724400
H1171	H117	0.524700	0.111200	0.741700
C1771	C177	0.681800	0.255500	0.784970
O741	O74	0.702820	0.197330	0.787960
O751	O75	0.702870	0.311310	0.788390
O761	O76	0.725210	0.521910	0.885040
C1781	C178	0.687300	0.553200	0.893730
H1181	H118	0.672800	0.580100	0.871700
N41	N4	0.665020	0.552200	0.931570
C1791	C179	0.684900	0.511000	0.966300
H1191	H119	0.658800	0.482700	0.978700
H1201	H120	0.698400	0.541300	0.988400
H1211	H121	0.710800	0.481100	0.955200
C1801	C180	0.618100	0.589600	0.938600
H1221	H122	0.611500	0.619600	0.913900
H1231	H123	0.620600	0.617600	0.964600
H1241	H124	0.591400	0.556400	0.941700
Sr131	Sr13	0.788470	0.579980	0.826080
Sr141	Sr14	0.709120	0.734280	0.801310
Sr151	Sr15	0.771950	0.900450	0.850520
C1811	C181	0.675300	0.757600	0.565190
C1821	C182	0.628400	0.749200	0.580900
C1831	C183	0.619700	0.744500	0.624120
H1251	H125	0.587000	0.738900	0.633900
C1841	C184	0.656900	0.747600	0.653840
C1851	C185	0.704300	0.753500	0.638900
H1261	H126	0.730800	0.754400	0.658600
C1861	C186	0.713400	0.758300	0.595700
H1271	H127	0.746300	0.762100	0.586000
O771	O77	0.588740	0.744300	0.554130
H1281	H128	0.585300	0.781400	0.540600
C1871	C187	0.646400	0.742200	0.701230
O781	O78	0.603000	0.732420	0.712610
O791	O79	0.681660	0.748300	0.726500
C1881	C188	0.687500	0.764800	0.518170
C1891	C189	0.670900	0.720000	0.486770
C1901	C190	0.687300	0.724700	0.445230
H1291	H129	0.676500	0.692300	0.424500
C1911	C191	0.719700	0.776800	0.433310
C1921	C192	0.735000	0.823600	0.464000
H1301	H130	0.755900	0.860400	0.456000
C1931	C193	0.720100	0.817000	0.505700
H1311	H131	0.732100	0.848300	0.526600
O801	O80	0.637990	0.669900	0.498530
H1321	H132	0.631200	0.645400	0.477100
C1941	C194	0.739700	0.777500	0.388890
O811	O81	0.741170	0.722360	0.368510
O821	O82	0.755010	0.833210	0.372860
C1951	C195	0.570090	0.495100	0.698670
C1961	C196	0.581400	0.563000	0.710960
C1971	C197	0.620760	0.577500	0.737220
H1331	H133	0.626600	0.623600	0.745900
C1981	C198	0.652140	0.525400	0.751160
C1991	C199	0.642400	0.458200	0.738180
H1341	H134	0.663800	0.422200	0.746800
C2001	C200	0.602400	0.443300	0.712940
H1351	H135	0.596400	0.396900	0.704900
O831	O83	0.551380	0.614300	0.696550
H1361	H136	0.563100	0.652600	0.703500
C2011	C201	0.695100	0.542000	0.778860
O841	O84	0.704960	0.604580	0.786910
O851	O85	0.720390	0.492990	0.793670
C2021	C202	0.525970	0.477200	0.672670
C2031	C203	0.530530	0.436000	0.635870
C2041	C204	0.488210	0.415300	0.613470
H1371	H137	0.491700	0.387600	0.588500
C2051	C205	0.441870	0.434100	0.626790
C2061	C206	0.437390	0.474500	0.663310
H1381	H138	0.405900	0.487400	0.673300
C2071	C207	0.479200	0.496200	0.685330
H1391	H139	0.475500	0.524900	0.709800
O861	O86	0.576100	0.416400	0.621550
H1401	H140	0.597700	0.432300	0.638000
C2081	C208	0.397320	0.409100	0.602220
O871	O87	0.356770	0.406360	0.621320
O881	O88	0.404850	0.391200	0.564020
C2091	C209	0.524700	0.932800	0.760000
C2101	C210	0.556200	0.879400	0.750100
C2111	C211	0.601600	0.872900	0.770900
H1411	H141	0.622600	0.835500	0.764100
C2121	C212	0.615880	0.920700	0.801200
C2131	C213	0.585000	0.975300	0.812100
H1421	H142	0.594400	0.008000	0.833200
C2141	C214	0.539500	0.980600	0.791000
H1431	H143	0.518300	0.017600	0.798100
O891	O89	0.541850	0.835400	0.718500
H1441	H144	0.559500	0.800000	0.719000
C2151	C215	0.665640	0.913100	0.821430
O901	O90	0.689620	0.858330	0.814020
O911	O91	0.682920	0.961340	0.843170
C2161	C216	0.973000	0.748300	0.755700
C2171	C217	0.942200	0.693300	0.745600
C2181	C218	0.893400	0.695200	0.756600
H1451	H145	0.873600	0.655900	0.751200
C2191	C219	0.872100	0.753100	0.775510
C2201	C220	0.903030	0.808200	0.785300
H1461	H146	0.889900	0.848200	0.798600
C2211	C221	0.953000	0.805200	0.775770
H1471	H147	0.973600	0.842800	0.783200
O921	O92	0.960000	0.636200	0.724400
H1481	H148	0.975300	0.611200	0.741700
C2221	C222	0.818200	0.755500	0.784970
O931	O93	0.797180	0.697330	0.787960
O941	O94	0.797130	0.811310	0.788390
O951	O95	0.774790	0.021910	0.885040
C2231	C223	0.812700	0.053200	0.893730
H1491	H149	0.827200	0.080100	0.871700
N51	N5	0.834980	0.052200	0.931570
C2241	C224	0.815100	0.011000	0.966300
H1501	H150	0.841200	0.982700	0.978700
H1511	H151	0.801600	0.041300	0.988400
H1521	H152	0.789200	0.981100	0.955200
C2251	C225	0.881900	0.089600	0.938600
H1531	H153	0.888500	0.119600	0.913900
H1541	H154	0.879400	0.117600	0.964600
H1551	H155	0.908600	0.056400	0.941700
Sr161	Sr16	0.711530	0.920020	0.326080
Sr171	Sr17	0.790880	0.765720	0.301310
Sr181	Sr18	0.728050	0.599550	0.350520
C2261	C226	0.824700	0.742400	0.065190
C2271	C227	0.871600	0.750800	0.080900
C2281	C228	0.880300	0.755500	0.124120
H1561	H156	0.913000	0.761100	0.133900
C2291	C229	0.843100	0.752400	0.153840
C2301	C230	0.795700	0.746500	0.138900
H1571	H157	0.769200	0.745600	0.158600
C2311	C231	0.786600	0.741700	0.095700
H1581	H158	0.753700	0.737900	0.086000
O961	O96	0.911260	0.755700	0.054130
H1591	H159	0.914700	0.718600	0.040600
C2321	C232	0.853600	0.757800	0.201230
O971	O97	0.897000	0.767580	0.212610
O981	O98	0.818340	0.751700	0.226500
C2331	C233	0.812500	0.735200	0.018170
C2341	C234	0.829100	0.780000	0.986770
C2351	C235	0.812700	0.775300	0.945230
H1601	H160	0.823500	0.807700	0.924500
C2361	C236	0.780300	0.723200	0.933310
C2371	C237	0.765000	0.676400	0.964000
H1611	H161	0.744100	0.639600	0.956000
C2381	C238	0.779900	0.683000	0.005700
H1621	H162	0.767900	0.651700	0.026600
O991	O99	0.862010	0.830100	0.998530
H1631	H163	0.868800	0.854600	0.977100
C2391	C239	0.760300	0.722500	0.888890
O1001	O100	0.758830	0.777640	0.868510
O1011	O101	0.744990	0.666790	0.872860
C2401	C240	0.929910	0.004900	0.198670
C2411	C241	0.918600	0.937000	0.210960
C2421	C242	0.879240	0.922500	0.237220
H1641	H164	0.873400	0.876400	0.245900
C2431	C243	0.847860	0.974600	0.251160
C2441	C244	0.857600	0.041800	0.238180
H1651	H165	0.836200	0.077800	0.246800
C2451	C245	0.897600	0.056700	0.212940
H1661	H166	0.903600	0.103100	0.204900
O1021	O102	0.948620	0.885700	0.196550
H1671	H167	0.936900	0.847400	0.203500
C2461	C246	0.804900	0.958000	0.278860
O1031	O103	0.795040	0.895420	0.286910
O1041	O104	0.779610	0.007010	0.293670
C2471	C247	0.974030	0.022800	0.172670
C2481	C248	0.969470	0.064000	0.135870
C2491	C249	0.011790	0.084700	0.113470
H1681	H168	0.008300	0.112400	0.088500
C2501	C250	0.058130	0.065900	0.126790
C2511	C251	0.062610	0.025500	0.163310
H1691	H169	0.094100	0.012600	0.173300
C2521	C252	0.020800	0.003800	0.185330
H1701	H170	0.024500	0.975100	0.209800
O1051	O105	0.923900	0.083600	0.121550
H1711	H171	0.902300	0.067700	0.138000
C2531	C253	0.102680	0.090900	0.102220
O1061	O106	0.143230	0.093640	0.121320
O1071	O107	0.095150	0.108800	0.064020
C2541	C254	0.975300	0.567200	0.260000
C2551	C255	0.943800	0.620600	0.250100
C2561	C256	0.898400	0.627100	0.270900
H1721	H172	0.877400	0.664500	0.264100
C2571	C257	0.884120	0.579300	0.301200
C2581	C258	0.915000	0.524700	0.312100
H1731	H173	0.905600	0.492000	0.333200
C2591	C259	0.960500	0.519400	0.291000
H1741	H174	0.981700	0.482400	0.298100
O1081	O108	0.958150	0.664600	0.218500
H1751	H175	0.940500	0.700000	0.219000
C2601	C260	0.834360	0.586900	0.321430
O1091	O109	0.810380	0.641670	0.314020
O1101	O110	0.817080	0.538660	0.343170
C2611	C261	0.527000	0.751700	0.255700
C2621	C262	0.557800	0.806700	0.245600
C2631	C263	0.606600	0.804800	0.256600
H1761	H176	0.626400	0.844100	0.251200
C2641	C264	0.627900	0.746900	0.275510
C2651	C265	0.596970	0.691800	0.285300
H1771	H177	0.610100	0.651800	0.298600
C2661	C266	0.547000	0.694800	0.275770
H1781	H178	0.526400	0.657200	0.283200
O1111	O111	0.540000	0.863800	0.224400
H1791	H179	0.524700	0.888800	0.241700
C2671	C267	0.681800	0.744500	0.284970
O1121	O112	0.702820	0.802670	0.287960
O1131	O113	0.702870	0.688690	0.288390
O1141	O114	0.725210	0.478090	0.385040
C2681	C268	0.687300	0.446800	0.393730
H1801	H180	0.672800	0.419900	0.371700
N61	N6	0.665020	0.447800	0.431570
C2691	C269	0.684900	0.489000	0.466300
H1811	H181	0.658800	0.517300	0.478700
H1821	H182	0.698400	0.458700	0.488400
H1831	H183	0.710800	0.518900	0.455200
C2701	C270	0.618100	0.410400	0.438600
H1841	H184	0.611500	0.380400	0.413900
H1851	H185	0.620600	0.382400	0.464600
H1861	H186	0.591400	0.443600	0.441700
Sr191	Sr19	0.211530	0.579980	0.673920
Sr201	Sr20	0.290880	0.734280	0.698690
Sr211	Sr21	0.228050	0.900450	0.649480
C2711	C271	0.324700	0.757600	0.934810
C2721	C272	0.371600	0.749200	0.919100
C2731	C273	0.380300	0.744500	0.875880
H1871	H187	0.413000	0.738900	0.866100
C2741	C274	0.343100	0.747600	0.846160
C2751	C275	0.295700	0.753500	0.861100
H1881	H188	0.269200	0.754400	0.841400
C2761	C276	0.286600	0.758300	0.904300
H1891	H189	0.253700	0.762100	0.914000
O1151	O115	0.411260	0.744300	0.945870
H1901	H190	0.414700	0.781400	0.959400
C2771	C277	0.353600	0.742200	0.798770
O1161	O116	0.397000	0.732420	0.787390
O1171	O117	0.318340	0.748300	0.773500
C2781	C278	0.312500	0.764800	0.981830
C2791	C279	0.329100	0.720000	0.013230
C2801	C280	0.312700	0.724700	0.054770
H1911	H191	0.323500	0.692300	0.075500
C2811	C281	0.280300	0.776800	0.066690
C2821	C282	0.265000	0.823600	0.036000
H1921	H192	0.244100	0.860400	0.044000
C2831	C283	0.279900	0.817000	0.994300
H1931	H193	0.267900	0.848300	0.973400
O1181	O118	0.362010	0.669900	0.001470
H1941	H194	0.368800	0.645400	0.022900
C2841	C284	0.260300	0.777500	0.111110
O1191	O119	0.258830	0.722360	0.131490
O1201	O120	0.244990	0.833210	0.127140
C2851	C285	0.429910	0.495100	0.801330
C2861	C286	0.418600	0.563000	0.789040
C2871	C287	0.379240	0.577500	0.762780
H1951	H195	0.373400	0.623600	0.754100
C2881	C288	0.347860	0.525400	0.748840
C2891	C289	0.357600	0.458200	0.761820
H1961	H196	0.336200	0.422200	0.753200
C2901	C290	0.397600	0.443300	0.787060
H1971	H197	0.403600	0.396900	0.795100
O1211	O121	0.448620	0.614300	0.803450
H1981	H198	0.436900	0.652600	0.796500
C2911	C291	0.304900	0.542000	0.721140
O1221	O122	0.295040	0.604580	0.713090
O1231	O123	0.279610	0.492990	0.706330
C2921	C292	0.474030	0.477200	0.827330
C2931	C293	0.469470	0.436000	0.864130
C2941	C294	0.511790	0.415300	0.886530
H1991	H199	0.508300	0.387600	0.911500
C2951	C295	0.558130	0.434100	0.873210
C2961	C296	0.562610	0.474500	0.836690
H2001	H200	0.594100	0.487400	0.826700
C2971	C297	0.520800	0.496200	0.814670
H2011	H201	0.524500	0.524900	0.790200
O1241	O124	0.423900	0.416400	0.878450
H2021	H202	0.402300	0.432300	0.862000
C2981	C298	0.602680	0.409100	0.897780
O1251	O125	0.643230	0.406360	0.878680
O1261	O126	0.595150	0.391200	0.935980
C2991	C299	0.475300	0.932800	0.740000
C3001	C300	0.443800	0.879400	0.749900
C3011	C301	0.398400	0.872900	0.729100
H2031	H203	0.377400	0.835500	0.735900
C3021	C302	0.384120	0.920700	0.698800
C3031	C303	0.415000	0.975300	0.687900
H2041	H204	0.405600	0.008000	0.666800
C3041	C304	0.460500	0.980600	0.709000
H2051	H205	0.481700	0.017600	0.701900
O1271	O127	0.458150	0.835400	0.781500
H2061	H206	0.440500	0.800000	0.781000
C3051	C305	0.334360	0.913100	0.678570
O1281	O128	0.310380	0.858330	0.685980
O1291	O129	0.317080	0.961340	0.656830
C3061	C306	0.027000	0.748300	0.744300
C3071	C307	0.057800	0.693300	0.754400
C3081	C308	0.106600	0.695200	0.743400
H2071	H207	0.126400	0.655900	0.748800
C3091	C309	0.127900	0.753100	0.724490
C3101	C310	0.096970	0.808200	0.714700
H2081	H208	0.110100	0.848200	0.701400
C3111	C311	0.047000	0.805200	0.724230
H2091	H209	0.026400	0.842800	0.716800
O1301	O130	0.040000	0.636200	0.775600
H2101	H210	0.024700	0.611200	0.758300
C3121	C312	0.181800	0.755500	0.715030
O1311	O131	0.202820	0.697330	0.712040
O1321	O132	0.202870	0.811310	0.711610
O1331	O133	0.225210	0.021910	0.614960
C3131	C313	0.187300	0.053200	0.606270
H2111	H211	0.172800	0.080100	0.628300
N71	N7	0.165020	0.052200	0.568430
C3141	C314	0.184900	0.011000	0.533700
H2121	H212	0.158800	0.982700	0.521300
H2131	H213	0.198400	0.041300	0.511600
H2141	H214	0.210800	0.981100	0.544800
C3151	C315	0.118100	0.089600	0.561400
H2151	H215	0.111500	0.119600	0.586100
H2161	H216	0.120600	0.117600	0.535400
H2171	H217	0.091400	0.056400	0.558300
Sr221	Sr22	0.288470	0.920020	0.173920
Sr231	Sr23	0.209120	0.765720	0.198690
Sr241	Sr24	0.271950	0.599550	0.149480
C3161	C316	0.175300	0.742400	0.434810
C3171	C317	0.128400	0.750800	0.419100
C3181	C318	0.119700	0.755500	0.375880
H2181	H218	0.087000	0.761100	0.366100
C3191	C319	0.156900	0.752400	0.346160
C3201	C320	0.204300	0.746500	0.361100
H2191	H219	0.230800	0.745600	0.341400
C3211	C321	0.213400	0.741700	0.404300
H2201	H220	0.246300	0.737900	0.414000
O1341	O134	0.088740	0.755700	0.445870
H2211	H221	0.085300	0.718600	0.459400
C3221	C322	0.146400	0.757800	0.298770
O1351	O135	0.103000	0.767580	0.287390
O1361	O136	0.181660	0.751700	0.273500
C3231	C323	0.187500	0.735200	0.481830
C3241	C324	0.170900	0.780000	0.513230
C3251	C325	0.187300	0.775300	0.554770
H2221	H222	0.176500	0.807700	0.575500
C3261	C326	0.219700	0.723200	0.566690
C3271	C327	0.235000	0.676400	0.536000
H2231	H223	0.255900	0.639600	0.544000
C3281	C328	0.220100	0.683000	0.494300
H2241	H224	0.232100	0.651700	0.473400
O1371	O137	0.137990	0.830100	0.501470
H2251	H225	0.131200	0.854600	0.522900
C3291	C329	0.239700	0.722500	0.611110
O1381	O138	0.241170	0.777640	0.631490
O1391	O139	0.255010	0.666790	0.627140
C3301	C330	0.070090	0.004900	0.301330
C3311	C331	0.081400	0.937000	0.289040
C3321	C332	0.120760	0.922500	0.262780
H2261	H226	0.126600	0.876400	0.254100
C3331	C333	0.152140	0.974600	0.248840
C3341	C334	0.142400	0.041800	0.261820
H2271	H227	0.163800	0.077800	0.253200
C3351	C335	0.102400	0.056700	0.287060
H2281	H228	0.096400	0.103100	0.295100
O1401	O140	0.051380	0.885700	0.303450
H2291	H229	0.063100	0.847400	0.296500
C3361	C336	0.195100	0.958000	0.221140
O1411	O141	0.204960	0.895420	0.213090
O1421	O142	0.220390	0.007010	0.206330
C3371	C337	0.025970	0.022800	0.327330
C3381	C338	0.030530	0.064000	0.364130
C3391	C339	0.988210	0.084700	0.386530
H2301	H230	0.991700	0.112400	0.411500
C3401	C340	0.941870	0.065900	0.373210
C3411	C341	0.937390	0.025500	0.336690
H2311	H231	0.905900	0.012600	0.326700
C3421	C342	0.979200	0.003800	0.314670
H2321	H232	0.975500	0.975100	0.290200
O1431	O143	0.076100	0.083600	0.378450
H2331	H233	0.097700	0.067700	0.362000
C3431	C343	0.897320	0.090900	0.397780
O1441	O144	0.856770	0.093640	0.378680
O1451	O145	0.904850	0.108800	0.435980
C3441	C344	0.024700	0.567200	0.240000
C3451	C345	0.056200	0.620600	0.249900
C3461	C346	0.101600	0.627100	0.229100
H2341	H234	0.122600	0.664500	0.235900
C3471	C347	0.115880	0.579300	0.198800
C3481	C348	0.085000	0.524700	0.187900
H2351	H235	0.094400	0.492000	0.166800
C3491	C349	0.039500	0.519400	0.209000
H2361	H236	0.018300	0.482400	0.201900
O1461	O146	0.041850	0.664600	0.281500
H2371	H237	0.059500	0.700000	0.281000
C3501	C350	0.165640	0.586900	0.178570
O1471	O147	0.189620	0.641670	0.185980
O1481	O148	0.182920	0.538660	0.156830
C3511	C351	0.473000	0.751700	0.244300
C3521	C352	0.442200	0.806700	0.254400
C3531	C353	0.393400	0.804800	0.243400
H2381	H238	0.373600	0.844100	0.248800
C3541	C354	0.372100	0.746900	0.224490
C3551	C355	0.403030	0.691800	0.214700
H2391	H239	0.389900	0.651800	0.201400
C3561	C356	0.453000	0.694800	0.224230
H2401	H240	0.473600	0.657200	0.216800
O1491	O149	0.460000	0.863800	0.275600
H2411	H241	0.475300	0.888800	0.258300
C3571	C357	0.318200	0.744500	0.215030
O1501	O150	0.297180	0.802670	0.212040
O1511	O151	0.297130	0.688690	0.211610
O1521	O152	0.274790	0.478090	0.114960
C3581	C358	0.312700	0.446800	0.106270
H2421	H242	0.327200	0.419900	0.128300
N81	N8	0.334980	0.447800	0.068430
C3591	C359	0.315100	0.489000	0.033700
H2431	H243	0.341200	0.517300	0.021300
H2441	H244	0.301600	0.458700	0.011600
H2451	H245	0.289200	0.518900	0.044800
C3601	C360	0.381900	0.410400	0.061400
H2461	H246	0.388500	0.380400	0.086100
H2471	H247	0.379400	0.382400	0.035400
H2481	H248	0.408600	0.443600	0.058300
