data_DIWNAA_clean_PM
_symmetry_space_group_name_H-M	'P1'
_cell_length_a	8.589700
_cell_length_b	17.444600
_cell_length_c	17.444600
_cell_angle_alpha	120.000000
_cell_angle_beta	90.000000
_cell_angle_gamma	90.000000
_symmetry_Int_Tables_number 1

loop_
_symmetry_equiv_pos_as_xyz
'x,y,z'

loop_
_atom_site_label
_atom_site_type_symbol
_atom_site_fract_x
_atom_site_fract_y
_atom_site_fract_z
Mg11	Mg1	0.666670	0.000000	0.535160
Mg21	Mg2	0.333330	0.464840	0.464840
Mg31	Mg3	0.000000	0.535160	0.000000
H11	H1	0.543130	0.878900	0.689700
H21	H2	0.532570	0.042300	0.243000
H31	H3	0.876470	0.810800	0.121100
H41	H4	0.868000	0.546000	0.128000
H51	H5	0.134100	0.243000	0.042300
H61	H6	0.465330	0.454000	0.582000
H71	H7	0.325030	0.462800	0.696000
H81	H8	0.798670	0.128000	0.546000
H91	H9	0.456870	0.189200	0.310300
H101	H10	0.991700	0.304000	0.766800
H111	H11	0.008300	0.537200	0.233200
H121	H12	0.199230	0.757000	0.799300
H131	H13	0.790200	0.121100	0.810800
H141	H14	0.800770	0.957700	0.200700
H151	H15	0.534670	0.872000	0.418000
H161	H16	0.674970	0.766800	0.304000
H171	H17	0.467430	0.799300	0.757000
H181	H18	0.209800	0.310300	0.189200
H191	H19	0.658370	0.233200	0.537200
H201	H20	0.132000	0.418000	0.872000
H211	H21	0.865900	0.200700	0.957700
H221	H22	0.123530	0.689700	0.878900
H231	H23	0.201330	0.582000	0.454000
H241	H24	0.341630	0.696000	0.462800
C11	C1	0.976000	0.301300	0.953500
C21	C2	0.024000	0.347800	0.046500
C31	C3	0.642670	0.046500	0.347800
C41	C4	0.034300	0.476990	0.193880
C51	C5	0.154000	0.343400	0.168500
C61	C6	0.892300	0.222600	0.919300
C71	C7	0.502830	0.844600	0.525090
C81	C8	0.836170	0.680490	0.155400
C91	C9	0.169500	0.474910	0.319510
C101	C10	0.367630	0.716890	0.523010
C111	C11	0.107700	0.303300	0.080700
C121	C12	0.299030	0.523010	0.716890
C131	C13	0.346330	0.562970	0.669510
C141	C14	0.846000	0.174900	0.831500
C151	C15	0.547270	0.224960	0.430200
C161	C16	0.786070	0.775040	0.205240
C171	C17	0.820670	0.831500	0.174900
C181	C18	0.700970	0.806120	0.283110
C191	C19	0.632370	0.193880	0.476990
C201	C20	0.987000	0.437030	0.106540
C211	C21	0.774370	0.919300	0.222600
C221	C22	0.512670	0.168500	0.343400
C231	C23	0.213930	0.569800	0.794760
C241	C24	0.558970	0.080700	0.303300
C251	C25	0.965700	0.283110	0.806120
C261	C26	0.830500	0.155400	0.680490
C271	C27	0.690670	0.953500	0.301300
C281	C28	0.320330	0.669510	0.562970
C291	C29	0.013000	0.330490	0.893460
C301	C30	0.497170	0.319510	0.474910
C311	C31	0.357330	0.698700	0.652200
C321	C32	0.179330	0.656600	0.825100
C331	C33	0.487330	0.825100	0.656600
C341	C34	0.653670	0.893460	0.330490
C351	C35	0.119400	0.430200	0.224960
C361	C36	0.679670	0.106540	0.437030
C371	C37	0.225630	0.696700	0.777400
C381	C38	0.441030	0.777400	0.696700
C391	C39	0.163830	0.525090	0.844600
C401	C40	0.880600	0.205240	0.775040
C411	C41	0.452730	0.794760	0.569800
C421	C42	0.309330	0.652200	0.698700
O11	O1	0.235430	0.592600	0.515980
O21	O2	0.862200	0.188510	0.631550
O31	O3	0.902100	0.484020	0.076620
O41	O4	0.431230	0.515980	0.592600
O51	O5	0.097900	0.407400	0.923380
O61	O6	0.764570	0.076620	0.484020
O71	O7	0.759200	0.084310	0.654500
O81	O8	0.240800	0.429810	0.345500
O91	O9	0.568770	0.923380	0.407400
O101	O10	0.092530	0.570190	0.915690
O111	O11	0.195530	0.443040	0.811490
O121	O12	0.907470	0.654500	0.084310
O131	O13	0.471130	0.811490	0.443040
O141	O14	0.425870	0.345500	0.429810
O151	O15	0.528870	0.368450	0.556960
O161	O16	0.574130	0.915690	0.570190
O171	O17	0.137800	0.556960	0.368450
O181	O18	0.804470	0.631550	0.188510
