data_DIYTEM_clean_PM
_symmetry_space_group_name_H-M	'P1'
_cell_length_a	13.329400
_cell_length_b	16.202000
_cell_length_c	20.283000
_cell_angle_alpha	90.000000
_cell_angle_beta	99.496000
_cell_angle_gamma	90.000000
_symmetry_Int_Tables_number 1

loop_
_symmetry_equiv_pos_as_xyz
'x,y,z'

loop_
_atom_site_label
_atom_site_type_symbol
_atom_site_fract_x
_atom_site_fract_y
_atom_site_fract_z
Cd11	Cd1	0.324320	0.498060	0.357870
Cd21	Cd2	0.675680	0.998060	0.142130
Cd31	Cd3	0.324320	0.001940	0.857870
Cd41	Cd4	0.030220	0.198440	0.235160
Cd51	Cd5	0.675680	0.501940	0.642130
Cd61	Cd6	0.030220	0.301560	0.735160
Cd71	Cd7	0.969780	0.801560	0.764840
Cd81	Cd8	0.969780	0.698440	0.264840
H11	H1	0.039900	0.916600	0.148500
H21	H2	0.850600	0.348300	0.513800
H31	H3	0.555900	0.876500	0.680100
H41	H4	0.445800	0.615800	0.480000
H51	H5	0.855900	0.588300	0.472100
H61	H6	0.773500	0.305700	0.657800
H71	H7	0.298100	0.567700	0.568000
H81	H8	0.554200	0.384200	0.520000
H91	H9	0.299300	0.822000	0.552900
H101	H10	0.688500	0.244400	0.751300
H111	H11	0.542100	0.314900	0.274800
H121	H12	0.272500	0.808900	0.418900
H131	H13	0.688500	0.255600	0.251300
H141	H14	0.432000	0.232400	0.981200
H151	H15	0.554200	0.115800	0.020000
H161	H16	0.284000	0.329600	0.783900
H171	H17	0.444100	0.376500	0.819900
H181	H18	0.457900	0.685100	0.725200
H191	H19	0.960100	0.416600	0.351500
H201	H20	0.263300	0.266000	0.966300
H211	H21	0.228700	0.931300	0.600500
H221	H22	0.555900	0.623500	0.180100
H231	H23	0.445800	0.884200	0.980000
H241	H24	0.700700	0.178000	0.447100
H251	H25	0.727500	0.191100	0.581100
H261	H26	0.736700	0.766000	0.533700
H271	H27	0.093600	0.266700	0.898400
H281	H28	0.149400	0.651700	0.486200
H291	H29	0.149400	0.848300	0.986200
H301	H30	0.226500	0.805700	0.842200
H311	H31	0.824100	0.492200	0.802500
H321	H32	0.432000	0.267600	0.481200
H331	H33	0.039900	0.583400	0.648500
H341	H34	0.906400	0.733300	0.101600
H351	H35	0.299300	0.678000	0.052900
H361	H36	0.311500	0.744400	0.748700
H371	H37	0.542100	0.185100	0.774800
H381	H38	0.226500	0.694300	0.342200
H391	H39	0.716000	0.670400	0.216100
H401	H40	0.553900	0.399900	0.746500
H411	H41	0.568000	0.767600	0.018800
H421	H42	0.298100	0.932300	0.068000
H431	H43	0.855900	0.911700	0.972100
H441	H44	0.736700	0.734000	0.033700
H451	H45	0.824100	0.007800	0.302500
H461	H46	0.444100	0.123500	0.319900
H471	H47	0.446100	0.899900	0.753500
H481	H48	0.960100	0.083400	0.851500
H491	H49	0.727500	0.308900	0.081100
H501	H50	0.701900	0.067700	0.932000
H511	H51	0.773500	0.194300	0.157800
H521	H52	0.284000	0.170400	0.283900
H531	H53	0.568000	0.732400	0.518800
H541	H54	0.228700	0.568700	0.100500
H551	H55	0.553900	0.100100	0.246500
H561	H56	0.144100	0.088300	0.027900
H571	H57	0.144100	0.411700	0.527900
H581	H58	0.701900	0.432300	0.432000
H591	H59	0.175900	0.992200	0.697500
H601	H60	0.263300	0.234000	0.466300
H611	H61	0.716000	0.829600	0.716100
H621	H62	0.093600	0.233300	0.398400
H631	H63	0.700700	0.322000	0.947100
H641	H64	0.771300	0.068700	0.399500
H651	H65	0.446100	0.600100	0.253500
H661	H66	0.272500	0.691100	0.918900
H671	H67	0.311500	0.755600	0.248700
H681	H68	0.771300	0.431300	0.899500
H691	H69	0.906400	0.766700	0.601600
H701	H70	0.457900	0.814900	0.225200
H711	H71	0.850600	0.151700	0.013800
H721	H72	0.175900	0.507800	0.197500
C11	C1	0.301100	0.743600	0.921800
C21	C2	0.846100	0.779100	0.616900
C31	C3	0.606500	0.379000	0.355600
C41	C4	0.393500	0.879000	0.144400
C51	C5	0.001400	0.124600	0.033400
C61	C6	0.266400	0.933000	0.643300
C71	C7	0.029700	0.594200	0.602900
C81	C8	0.875000	0.259300	0.312100
C91	C9	0.508300	0.081300	0.866600
C101	C10	0.257100	0.312400	0.821100
C111	C11	0.215700	0.805800	0.171200
C121	C12	0.998600	0.624600	0.466600
C131	C13	0.603100	0.149200	0.044800
C141	C14	0.603900	0.173700	0.801900
C151	C15	0.421800	0.195900	0.397600
C161	C16	0.581300	0.356200	0.878000
C171	C17	0.369400	0.682500	0.065700
C181	C18	0.065500	0.082200	0.934300
C191	C19	0.019700	0.351700	0.605500
C201	C20	0.476500	0.350200	0.858300
C211	C21	0.308700	0.790400	0.211900
C221	C22	0.476500	0.149800	0.358300
C231	C23	0.418700	0.643800	0.122000
C241	C24	0.970300	0.405800	0.397100
C251	C25	0.581300	0.143800	0.378000
C261	C26	0.784300	0.305800	0.328800
C271	C27	0.427600	0.728600	0.028400
C281	C28	0.603900	0.326300	0.301900
C291	C29	0.846900	0.554900	0.598400
C301	C30	0.385200	0.583500	0.227700
C311	C31	0.606500	0.121000	0.855600
C321	C32	0.491700	0.581300	0.633400
C331	C33	0.889500	0.378300	0.426000
C341	C34	0.691300	0.209600	0.788100
C351	C35	0.153100	0.054900	0.901600
C361	C36	0.970300	0.094200	0.897100
C371	C37	0.019700	0.148300	0.105500
C381	C38	0.572400	0.271400	0.971600
C391	C39	0.699600	0.103800	0.896100
C401	C40	0.211500	0.859900	0.117000
C411	C41	0.905000	0.135200	0.993600
C421	C42	0.919800	0.903000	0.997500
C431	C43	0.396900	0.649200	0.455200
C441	C44	0.889500	0.121700	0.926000
C451	C45	0.723000	0.193100	0.120200
C461	C46	0.614800	0.083500	0.272300
C471	C47	0.630600	0.182500	0.434300
C481	C48	0.300400	0.896200	0.103900
C491	C49	0.784300	0.194200	0.828800
C501	C50	0.998600	0.875400	0.966600
C511	C51	0.530900	0.736500	0.044800
C521	C52	0.742900	0.812400	0.678900
C531	C53	0.752200	0.722100	0.079100
C541	C54	0.723000	0.306900	0.620200
C551	C55	0.393500	0.621000	0.644400
C561	C56	0.095000	0.864800	0.006400
C571	C57	0.698900	0.256400	0.078200
C581	C58	0.125000	0.740700	0.687900
C591	C59	0.211500	0.640100	0.617000
C601	C60	0.257100	0.187600	0.321100
C611	C61	0.691300	0.290400	0.288100
C621	C62	0.788500	0.140100	0.883000
C631	C63	0.491700	0.918700	0.133400
C641	C64	0.846100	0.720900	0.116900
C651	C65	0.980300	0.648300	0.394500
C661	C66	0.934500	0.582200	0.565700
C671	C67	0.029700	0.905800	0.102900
C681	C68	0.788500	0.359900	0.383000
C691	C69	0.980300	0.851700	0.894500
C701	C70	0.762100	0.033800	0.303200
C711	C71	0.237900	0.533800	0.196800
C721	C72	0.153900	0.220900	0.383100
C731	C73	0.427600	0.771400	0.528400
C741	C74	0.578200	0.804100	0.602400
C751	C75	0.469100	0.236500	0.455200
C761	C76	0.001400	0.375400	0.533400
C771	C77	0.630600	0.317500	0.934300
C781	C78	0.369400	0.817500	0.565700
C791	C79	0.733600	0.433000	0.856700
C801	C80	0.752200	0.777900	0.579100
C811	C81	0.080200	0.403000	0.502500
C821	C82	0.578200	0.695900	0.102400
C831	C83	0.742900	0.687600	0.178900
C841	C84	0.396100	0.826300	0.198100
C851	C85	0.762100	0.466200	0.803200
C861	C86	0.523500	0.649800	0.141700
C871	C87	0.065500	0.417800	0.434300
C881	C88	0.572400	0.228600	0.471600
C891	C89	0.699600	0.396200	0.396100
C901	C90	0.247800	0.277900	0.920900
C911	C91	0.237900	0.966200	0.696800
C921	C92	0.110500	0.878300	0.074000
C931	C93	0.125000	0.759300	0.187900
C941	C94	0.919800	0.597000	0.497500
C951	C95	0.846900	0.945100	0.098400
C961	C96	0.523500	0.850200	0.641700
C971	C97	0.875000	0.240700	0.812100
C981	C98	0.153900	0.279100	0.883100
C991	C99	0.733600	0.067000	0.356700
C1001	C100	0.396100	0.673700	0.698100
C1011	C101	0.266400	0.567000	0.143300
C1021	C102	0.698900	0.243600	0.578200
C1031	C103	0.247800	0.222100	0.420900
C1041	C104	0.508300	0.418700	0.366600
C1051	C105	0.603100	0.350800	0.544800
C1061	C106	0.396900	0.850800	0.955200
C1071	C107	0.300400	0.603800	0.603900
C1081	C108	0.530900	0.763500	0.544800
C1091	C109	0.153100	0.445100	0.401600
C1101	C110	0.095000	0.635200	0.506400
C1111	C111	0.277000	0.806900	0.879800
C1121	C112	0.421800	0.304100	0.897600
C1131	C113	0.614800	0.416500	0.772300
C1141	C114	0.080200	0.097000	0.002500
C1151	C115	0.905000	0.364800	0.493600
C1161	C116	0.469100	0.263500	0.955200
C1171	C117	0.277000	0.693100	0.379800
C1181	C118	0.934500	0.917800	0.065700
C1191	C119	0.418700	0.856200	0.622000
C1201	C120	0.301100	0.756400	0.421800
C1211	C121	0.110500	0.621700	0.574000
C1221	C122	0.308700	0.709600	0.711900
C1231	C123	0.385200	0.916500	0.727700
C1241	C124	0.215700	0.694200	0.671200
N11	N1	0.313800	0.543100	0.251700
N21	N2	0.685200	0.702500	0.120400
N31	N3	0.839000	0.801100	0.680300
N41	N4	0.839000	0.698900	0.180300
N51	N5	0.639100	0.401800	0.837200
N61	N6	0.336800	0.626600	0.399900
N71	N7	0.313800	0.956900	0.751700
N81	N8	0.360900	0.901800	0.662800
N91	N9	0.663200	0.373400	0.600100
N101	N10	0.639100	0.098200	0.337200
N111	N11	0.360900	0.598200	0.162800
N121	N12	0.686200	0.456900	0.748300
N131	N13	0.314800	0.202500	0.379600
N141	N14	0.377400	0.726900	0.470300
N151	N15	0.336800	0.873400	0.899900
N161	N16	0.161000	0.198900	0.319700
N171	N17	0.685200	0.797500	0.620400
N181	N18	0.663200	0.126600	0.100100
N191	N19	0.686200	0.043100	0.248300
N201	N20	0.377400	0.773100	0.970300
N211	N21	0.314800	0.297500	0.879600
N221	N22	0.622600	0.226900	0.029700
N231	N23	0.161000	0.301100	0.819700
N241	N24	0.622600	0.273100	0.529700
O11	O1	0.895700	0.268600	0.255500
O21	O2	0.104300	0.731400	0.744500
O31	O3	0.899000	0.864100	0.859000
O41	O4	0.049100	0.813000	0.872600
O51	O5	0.758900	0.947900	0.061800
O61	O6	0.950900	0.313000	0.627400
O71	O7	0.491000	0.975200	0.091700
O81	O8	0.899000	0.635900	0.359000
O91	O9	0.758900	0.552100	0.561800
O101	O10	0.895700	0.231400	0.755500
O111	O11	0.101000	0.364100	0.641000
O121	O12	0.509000	0.475200	0.408300
O131	O13	0.491000	0.524800	0.591700
O141	O14	0.923400	0.214600	0.356400
O151	O15	0.573200	0.893700	0.166800
O161	O16	0.509000	0.024800	0.908300
O171	O17	0.857400	0.536200	0.658100
O181	O18	0.241100	0.052100	0.938200
O191	O19	0.101000	0.135900	0.141000
O201	O20	0.426800	0.393700	0.333200
O211	O21	0.142600	0.036200	0.841900
O221	O22	0.950900	0.187000	0.127400
O231	O23	0.923400	0.285400	0.856400
O241	O24	0.573200	0.606300	0.666800
O251	O25	0.076600	0.785400	0.643600
O261	O26	0.426800	0.106300	0.833200
O271	O27	0.241100	0.447900	0.438200
O281	O28	0.076600	0.714600	0.143600
O291	O29	0.857400	0.963800	0.158100
O301	O30	0.142600	0.463800	0.341900
O311	O31	0.049100	0.687000	0.372600
O321	O32	0.104300	0.768600	0.244500
