data_DOCKOW_clean_PM
_symmetry_space_group_name_H-M	'P1'
_cell_length_a	10.426000
_cell_length_b	14.962000
_cell_length_c	21.102000
_cell_angle_alpha	100.010000
_cell_angle_beta	93.540000
_cell_angle_gamma	106.900000
_symmetry_Int_Tables_number 1

loop_
_symmetry_equiv_pos_as_xyz
'x,y,z'

loop_
_atom_site_label
_atom_site_type_symbol
_atom_site_fract_x
_atom_site_fract_y
_atom_site_fract_z
Mn11	Mn1	0.236510	0.987790	0.197750
Mn21	Mn2	0.763490	0.012210	0.802250
Mn31	Mn3	0.000000	0.500000	0.500000
Zn11	Zn1	0.415660	0.984870	0.737940
Zn21	Zn2	0.173100	0.323340	0.502990
Zn31	Zn3	0.991040	0.948800	0.063980
Zn41	Zn4	0.584340	0.015130	0.262060
Zn51	Zn5	0.826900	0.676660	0.497010
Zn61	Zn6	0.008960	0.051200	0.936020
H11	H1	0.863200	0.163000	0.625700
H21	H2	0.088000	0.199000	0.304400
H31	H3	0.310700	0.040800	0.928400
H41	H4	0.488800	0.147600	0.110900
H51	H5	0.368900	0.642800	0.145000
H61	H6	0.882000	0.387000	0.303000
H71	H7	0.691900	0.209300	0.071600
H81	H8	0.679500	0.758700	0.153800
H91	H9	0.291100	0.208000	0.403600
H101	H10	0.709000	0.175400	0.961900
H111	H11	0.853100	0.189100	0.144300
H121	H12	0.020500	0.741200	0.239900
H131	H13	0.225300	0.857000	0.628100
H141	H14	0.820700	0.415400	0.607000
H151	H15	0.895400	0.629900	0.293500
H161	H16	0.579000	0.253800	0.712100
H171	H17	0.954700	0.064000	0.541300
H181	H18	0.886300	0.953400	0.525900
H191	H19	0.617300	0.076800	0.519700
H201	H20	0.558500	0.032100	0.447200
H211	H21	0.076600	0.865900	0.547100
H221	H22	0.420500	0.108200	0.397600
H231	H23	0.788800	0.315100	0.197700
H241	H24	0.440700	0.133400	0.589000
H251	H25	0.221200	0.098300	0.727100
H261	H26	0.076800	0.116200	0.648600
H271	H27	0.653200	0.395300	0.674400
H281	H28	0.320000	0.240900	0.590500
H291	H29	0.665500	0.577100	0.273000
H301	H30	0.341700	0.698100	0.632500
H311	H31	0.524400	0.494100	0.615400
H321	H32	0.688400	0.587200	0.697500
H331	H33	0.684700	0.737400	0.744500
H341	H34	0.136800	0.837000	0.374300
H351	H35	0.912000	0.801000	0.695600
H361	H36	0.689300	0.959200	0.071600
H371	H37	0.511200	0.852400	0.889100
H381	H38	0.631100	0.357200	0.855000
H391	H39	0.118000	0.613000	0.697000
H401	H40	0.308100	0.790700	0.928400
H411	H41	0.320500	0.241300	0.846200
H421	H42	0.708900	0.792000	0.596400
H431	H43	0.291000	0.824600	0.038100
H441	H44	0.146900	0.810900	0.855700
H451	H45	0.979500	0.258800	0.760100
H461	H46	0.774700	0.143000	0.371900
H471	H47	0.179300	0.584600	0.393000
H481	H48	0.104600	0.370100	0.706500
H491	H49	0.421000	0.746200	0.287900
H501	H50	0.045300	0.936000	0.458700
H511	H51	0.113700	0.046600	0.474100
H521	H52	0.382700	0.923200	0.480300
H531	H53	0.441500	0.967900	0.552800
H541	H54	0.923400	0.134100	0.452900
H551	H55	0.579500	0.891800	0.602400
H561	H56	0.211200	0.684900	0.802300
H571	H57	0.559300	0.866600	0.411000
H581	H58	0.778800	0.901700	0.272900
H591	H59	0.923200	0.883800	0.351400
H601	H60	0.346800	0.604700	0.325600
H611	H61	0.680000	0.759100	0.409500
H621	H62	0.334500	0.422900	0.727000
H631	H63	0.658300	0.301900	0.367500
H641	H64	0.475600	0.505900	0.384600
H651	H65	0.311600	0.412800	0.302500
H661	H66	0.315300	0.262600	0.255500
C11	C1	0.378600	0.088000	0.022300
C21	C2	0.020800	0.100200	0.183500
C31	C3	0.818300	0.208500	0.634000
C41	C4	0.029900	0.223200	0.282400
C51	C5	0.248000	0.044800	0.046100
C61	C6	0.387900	0.072800	0.957400
C71	C7	0.521800	0.074600	0.862300
C81	C8	0.050600	0.345900	0.383500
C91	C9	0.995100	0.301700	0.313900
C101	C10	0.713400	0.193700	0.671400
C111	C11	0.494100	0.138100	0.066500
C121	C12	0.512900	0.104900	0.933700
C131	C13	0.978700	0.181800	0.219000
C141	C14	0.862300	0.760800	0.190400
C151	C15	0.662400	0.103700	0.695400
C161	C16	0.510800	0.829700	0.724400
C171	C17	0.300400	0.522200	0.565300
C181	C18	0.941600	0.832200	0.153400
C191	C19	0.905700	0.335200	0.281900
C201	C20	0.615900	0.173000	0.043000
C211	C21	0.723600	0.731700	0.181100
C221	C22	0.323500	0.194500	0.441700
C231	C23	0.625700	0.154300	0.976900
C241	C24	0.888300	0.216900	0.187200
C251	C25	0.061600	0.994200	0.586800
C261	C26	0.926700	0.721900	0.232800
C271	C27	0.496200	0.627300	0.196400
C281	C28	0.858000	0.291000	0.608600
C291	C29	0.196400	0.910800	0.631900
C301	C30	0.411500	0.584800	0.616000
C311	C31	0.794700	0.360100	0.623600
C321	C32	0.648300	0.662700	0.211800
C331	C33	0.851900	0.654600	0.264300
C341	C34	0.649600	0.263400	0.686600
C351	C35	0.972100	0.003200	0.530800
C361	C36	0.449500	0.112900	0.492900
C371	C37	0.534400	0.045400	0.490800
C381	C38	0.106800	0.915700	0.582900
C391	C39	0.400900	0.134400	0.437700
C401	C40	0.850600	0.292900	0.218800
C411	C41	0.414700	0.149800	0.550700
C421	C42	0.194300	0.051600	0.689400
C431	C43	0.106300	0.062700	0.642600
C441	C44	0.693000	0.347400	0.663300
C451	C45	0.339000	0.212600	0.550800
C461	C46	0.714800	0.624300	0.252900
C471	C47	0.411000	0.675300	0.645500
C481	C48	0.520000	0.553400	0.635500
C491	C49	0.619000	0.609500	0.683900
C501	C50	0.512000	0.732200	0.693900
C511	C51	0.616000	0.699100	0.712400
C521	C52	0.968600	0.307600	0.567100
C531	C53	0.621400	0.912000	0.977700
C541	C54	0.979200	0.899800	0.816500
C551	C55	0.181700	0.791500	0.366000
C561	C56	0.970100	0.776800	0.717600
C571	C57	0.752000	0.955200	0.953900
C581	C58	0.612100	0.927200	0.042600
C591	C59	0.478200	0.925400	0.137700
C601	C60	0.949400	0.654100	0.616500
C611	C61	0.004900	0.698300	0.686100
C621	C62	0.286600	0.806300	0.328600
C631	C63	0.505900	0.861900	0.933500
C641	C64	0.487100	0.895100	0.066300
C651	C65	0.021300	0.818200	0.781000
C661	C66	0.137700	0.239200	0.809600
C671	C67	0.337600	0.896300	0.304600
C681	C68	0.489200	0.170300	0.275600
C691	C69	0.699600	0.477800	0.434700
C701	C70	0.058400	0.167800	0.846600
C711	C71	0.094300	0.664800	0.718100
C721	C72	0.384100	0.827000	0.957000
C731	C73	0.276400	0.268300	0.818900
C741	C74	0.676500	0.805500	0.558300
C751	C75	0.374300	0.845700	0.023100
C761	C76	0.111700	0.783100	0.812800
C771	C77	0.938400	0.005800	0.413200
C781	C78	0.073300	0.278100	0.767200
C791	C79	0.503800	0.372700	0.803600
C801	C80	0.142000	0.709000	0.391400
C811	C81	0.803600	0.089200	0.368100
C821	C82	0.588500	0.415200	0.384000
C831	C83	0.205300	0.639900	0.376400
C841	C84	0.351700	0.337300	0.788200
C851	C85	0.148100	0.345400	0.735700
C861	C86	0.350400	0.736600	0.313400
C871	C87	0.027900	0.996800	0.469200
C881	C88	0.550500	0.887100	0.507100
C891	C89	0.465600	0.954600	0.509200
C901	C90	0.893200	0.084300	0.417100
C911	C91	0.599100	0.865600	0.562300
C921	C92	0.149400	0.707100	0.781200
C931	C93	0.585300	0.850200	0.449300
C941	C94	0.805700	0.948400	0.310600
C951	C95	0.893700	0.937300	0.357400
C961	C96	0.307000	0.652600	0.336700
C971	C97	0.661000	0.787400	0.449200
C981	C98	0.285200	0.375700	0.747100
C991	C99	0.589000	0.324700	0.354500
C1001	C100	0.480000	0.446600	0.364500
C1011	C101	0.381000	0.390500	0.316100
C1021	C102	0.488000	0.267800	0.306100
C1031	C103	0.384000	0.300900	0.287600
C1041	C104	0.031400	0.692400	0.432900
N11	N1	0.292200	0.234500	0.497500
N21	N2	0.243400	0.979300	0.684300
N31	N3	0.707800	0.765500	0.502500
N41	N4	0.756600	0.020700	0.315700
O11	O1	0.139800	0.023300	0.007500
O21	O2	0.092400	0.065100	0.215400
O31	O3	0.981800	0.073600	0.123100
O41	O4	0.242400	0.027200	0.101200
O51	O5	0.108200	0.297400	0.412400
O61	O6	0.415700	0.856000	0.704200
O71	O7	0.535200	0.076000	0.695900
O81	O8	0.036100	0.423500	0.408200
O91	O9	0.741700	0.061200	0.711700
O101	O10	0.410600	0.030500	0.827400
O111	O11	0.603600	0.880200	0.767900
O121	O12	0.989100	0.374900	0.537000
O131	O13	0.213400	0.553400	0.543300
O141	O14	0.303300	0.436700	0.550600
O151	O15	0.874200	0.856600	0.112500
O161	O16	0.067300	0.860400	0.164300
O171	O17	0.447900	0.672900	0.158600
O181	O18	0.429700	0.560400	0.218400
O191	O19	0.634900	0.093700	0.842600
O201	O20	0.040700	0.252900	0.560500
O211	O21	0.860200	0.976700	0.992500
O221	O22	0.907600	0.934900	0.784600
O231	O23	0.018200	0.926400	0.876900
O241	O24	0.757600	0.972800	0.898800
O251	O25	0.891800	0.702600	0.587600
O261	O26	0.584300	0.144000	0.295800
O271	O27	0.464800	0.924000	0.304100
O281	O28	0.963900	0.576500	0.591800
O291	O29	0.258300	0.938800	0.288300
O301	O30	0.589400	0.969500	0.172600
O311	O31	0.396400	0.119800	0.232100
O321	O32	0.010900	0.625100	0.463000
O331	O33	0.786600	0.446600	0.456700
O341	O34	0.696700	0.563300	0.449400
O351	O35	0.125800	0.143400	0.887500
O361	O36	0.932700	0.139600	0.835700
O371	O37	0.552100	0.327100	0.841400
O381	O38	0.570300	0.439600	0.781600
O391	O39	0.365100	0.906300	0.157400
O401	O40	0.959300	0.747100	0.439500
