data_DODHUA_clean_PM
_symmetry_space_group_name_H-M	'P1'
_cell_length_a	7.309600
_cell_length_b	12.267000
_cell_length_c	13.891000
_cell_angle_alpha	82.960000
_cell_angle_beta	80.951000
_cell_angle_gamma	72.897000
_symmetry_Int_Tables_number 1

loop_
_symmetry_equiv_pos_as_xyz
'x,y,z'

loop_
_atom_site_label
_atom_site_type_symbol
_atom_site_fract_x
_atom_site_fract_y
_atom_site_fract_z
Ni11	Ni1	0.584020	0.563110	0.251000
Ni21	Ni2	0.047930	0.712440	0.039460
Ni31	Ni3	0.415980	0.436890	0.749000
Ni41	Ni4	0.952070	0.287560	0.960540
H11	H1	0.208800	0.899300	0.326000
H21	H2	0.966900	0.047400	0.391700
H31	H3	0.573600	0.923200	0.302500
H41	H4	0.247000	0.191800	0.488900
H51	H5	0.961300	0.281900	0.423000
H61	H6	0.513400	0.131500	0.216200
H71	H7	0.572300	0.360100	0.397200
H81	H8	0.500600	0.319800	0.560400
H91	H9	0.291400	0.879100	0.019700
H101	H10	0.257700	0.071600	0.981700
H111	H11	0.791200	0.100700	0.674000
H121	H12	0.033100	0.952600	0.608300
H131	H13	0.426400	0.076800	0.697500
H141	H14	0.753000	0.808200	0.511100
H151	H15	0.038700	0.718100	0.577000
H161	H16	0.486600	0.868500	0.783800
H171	H17	0.427700	0.639900	0.602800
H181	H18	0.499400	0.680200	0.439600
H191	H19	0.708600	0.120900	0.980300
H201	H20	0.742300	0.928400	0.018300
C11	C1	0.042700	0.824800	0.269800
C21	C2	0.081300	0.905300	0.319600
C31	C3	0.937400	0.993500	0.359900
C41	C4	0.745300	0.001000	0.352200
C51	C5	0.701500	0.919200	0.305900
C61	C6	0.852600	0.830100	0.264200
C71	C7	0.593200	0.094000	0.401000
C81	C8	0.408000	0.149800	0.358500
C91	C9	0.243900	0.197200	0.421800
C101	C10	0.073600	0.253400	0.381100
C111	C11	0.065700	0.267600	0.285100
C121	C12	0.232600	0.223100	0.218000
C131	C13	0.402300	0.163100	0.257800
C141	C14	0.208000	0.733400	0.227300
C151	C15	0.792300	0.741500	0.221100
C161	C16	0.235800	0.240500	0.111200
C171	C17	0.874700	0.331400	0.250500
C181	C18	0.541800	0.418500	0.438900
C191	C19	0.500800	0.393900	0.536400
C201	C20	0.170000	0.928100	0.011000
C211	C21	0.150000	0.044100	0.989600
C221	C22	0.957300	0.175200	0.730200
C231	C23	0.918700	0.094700	0.680400
C241	C24	0.062600	0.006500	0.640100
C251	C25	0.254700	0.999000	0.647800
C261	C26	0.298500	0.080800	0.694100
C271	C27	0.147400	0.169900	0.735800
C281	C28	0.406800	0.906000	0.599000
C291	C29	0.592000	0.850200	0.641500
C301	C30	0.756100	0.802800	0.578200
C311	C31	0.926400	0.746600	0.618900
C321	C32	0.934300	0.732400	0.714900
C331	C33	0.767400	0.776900	0.782000
C341	C34	0.597700	0.836900	0.742200
C351	C35	0.792000	0.266600	0.772700
C361	C36	0.207700	0.258500	0.778900
C371	C37	0.764200	0.759500	0.888800
C381	C38	0.125300	0.668600	0.749500
C391	C39	0.458200	0.581500	0.561100
C401	C40	0.499200	0.606100	0.463600
C411	C41	0.830000	0.071900	0.989000
C421	C42	0.850000	0.955900	0.010400
N11	N1	0.539600	0.523800	0.401400
N21	N2	0.021300	0.884800	0.019600
N31	N3	0.460400	0.476200	0.598600
N41	N4	0.978700	0.115200	0.980400
O11	O1	0.352100	0.701200	0.272700
O21	O2	0.203900	0.693700	0.150600
O31	O3	0.800500	0.741700	0.131400
O41	O4	0.730500	0.671800	0.282400
O51	O5	0.616700	0.122500	0.477400
O61	O6	0.390100	0.210500	0.057300
O71	O7	0.069700	0.285700	0.082400
O81	O8	0.754400	0.281200	0.246300
O91	O9	0.843900	0.440600	0.240100
O101	O10	0.647900	0.298800	0.727300
O111	O11	0.796100	0.306300	0.849400
O121	O12	0.199500	0.258300	0.868600
O131	O13	0.269500	0.328200	0.717600
O141	O14	0.383300	0.877500	0.522600
O151	O15	0.609900	0.789500	0.942700
O161	O16	0.930300	0.714300	0.917600
O171	O17	0.245600	0.718800	0.753700
O181	O18	0.156100	0.559400	0.759900
