data_DODMIT_clean_PM
_symmetry_space_group_name_H-M	'P1'
_cell_length_a	10.738000
_cell_length_b	10.761900
_cell_length_c	18.547000
_cell_angle_alpha	105.928000
_cell_angle_beta	90.000000
_cell_angle_gamma	119.927000
_symmetry_Int_Tables_number 1

loop_
_symmetry_equiv_pos_as_xyz
'x,y,z'

loop_
_atom_site_label
_atom_site_type_symbol
_atom_site_fract_x
_atom_site_fract_y
_atom_site_fract_z
Er11	Er1	0.076960	0.002780	0.897200
Er21	Er2	0.074180	0.997220	0.602810
Er31	Er3	0.923040	0.997220	0.102810
Er41	Er4	0.925820	0.002780	0.397200
H11	H1	0.357500	0.385600	0.218900
H21	H2	0.576600	0.610800	0.273600
H31	H3	0.486800	0.361200	0.016600
H41	H4	0.699500	0.589400	0.068600
H51	H5	0.965800	0.663000	0.097000
H61	H6	0.065700	0.558000	0.889600
H71	H7	0.971900	0.614400	0.281100
H81	H8	0.965800	0.389200	0.226400
H91	H9	0.125600	0.638800	0.483400
H101	H10	0.110100	0.410600	0.431400
H111	H11	0.302800	0.337000	0.403000
H121	H12	0.507700	0.442000	0.610400
H131	H13	0.642500	0.614400	0.781100
H141	H14	0.423400	0.389200	0.726400
H151	H15	0.513200	0.638800	0.983400
H161	H16	0.300500	0.410600	0.931400
H171	H17	0.034200	0.337000	0.903000
H181	H18	0.934300	0.442000	0.110400
H191	H19	0.028100	0.385600	0.718900
H201	H20	0.034200	0.610800	0.773600
H211	H21	0.874400	0.361200	0.516600
H221	H22	0.889900	0.589400	0.568600
H231	H23	0.697200	0.663000	0.597000
H241	H24	0.492300	0.558000	0.389600
C11	C1	0.427100	0.426600	0.189000
C21	C2	0.557200	0.562400	0.221400
C31	C3	0.039000	0.776200	0.982500
C41	C4	0.503700	0.412800	0.068200
C51	C5	0.657800	0.625600	0.176200
C61	C6	0.631200	0.548800	0.099100
C71	C7	0.979900	0.597800	0.058000
C81	C8	0.401800	0.352000	0.111500
C91	C9	0.039600	0.535000	0.934200
C101	C10	0.795400	0.777400	0.210500
C111	C11	0.258300	0.207200	0.075800
C121	C12	0.020800	0.633800	0.992100
C131	C13	0.000500	0.573400	0.311000
C141	C14	0.994800	0.437600	0.278600
C151	C15	0.262800	0.223800	0.517500
C161	C16	0.090900	0.587200	0.431800
C171	C17	0.032200	0.374400	0.323800
C181	C18	0.082400	0.451200	0.400900
C191	C19	0.382100	0.402200	0.442000
C201	C20	0.049800	0.648000	0.388500
C211	C21	0.504600	0.465000	0.565800
C221	C22	0.018000	0.222600	0.289500
C231	C23	0.051100	0.792800	0.424200
C241	C24	0.387000	0.366200	0.507900
C251	C25	0.572900	0.573400	0.811000
C261	C26	0.442800	0.437600	0.778600
C271	C27	0.961000	0.223800	0.017500
C281	C28	0.496300	0.587200	0.931800
C291	C29	0.342200	0.374400	0.823800
C301	C30	0.368800	0.451200	0.900900
C311	C31	0.020100	0.402200	0.942000
C321	C32	0.598200	0.648000	0.888500
C331	C33	0.960400	0.465000	0.065800
C341	C34	0.204600	0.222600	0.789500
C351	C35	0.741700	0.792800	0.924200
C361	C36	0.979200	0.366200	0.007900
C371	C37	0.999500	0.426600	0.689000
C381	C38	0.005200	0.562400	0.721400
C391	C39	0.737200	0.776200	0.482500
C401	C40	0.909100	0.412800	0.568200
C411	C41	0.967800	0.625600	0.676200
C421	C42	0.917600	0.548800	0.599100
C431	C43	0.617900	0.597800	0.558000
C441	C44	0.950200	0.352000	0.611500
C451	C45	0.495400	0.535000	0.434200
C461	C46	0.982000	0.777400	0.710500
C471	C47	0.948900	0.207200	0.575800
C481	C48	0.613000	0.633800	0.492100
O11	O1	0.244600	0.146000	0.006000
O21	O2	0.088500	0.810600	0.925000
O31	O3	0.001900	0.850600	0.030500
O41	O4	0.816100	0.837000	0.280700
O51	O5	0.167000	0.159400	0.117400
O61	O6	0.877200	0.832600	0.166100
O71	O7	0.098600	0.854000	0.494000
O81	O8	0.277900	0.189400	0.575000
O91	O9	0.151300	0.149400	0.469500
O101	O10	0.979100	0.163000	0.219300
O111	O11	0.007600	0.840600	0.382600
O121	O12	0.044600	0.167400	0.333900
O131	O13	0.755400	0.854000	0.994000
O141	O14	0.911500	0.189400	0.075000
O151	O15	0.998100	0.149400	0.969500
O161	O16	0.183900	0.163000	0.719300
O171	O17	0.833000	0.840600	0.882600
O181	O18	0.122800	0.167400	0.833900
O191	O19	0.901400	0.146000	0.506000
O201	O20	0.722100	0.810600	0.425000
O211	O21	0.848700	0.850600	0.530500
O221	O22	0.020900	0.837000	0.780700
O231	O23	0.992400	0.159400	0.617400
O241	O24	0.955400	0.832600	0.666100
