data_DOJXUW_clean_PM
_symmetry_space_group_name_H-M	'P1'
_cell_length_a	9.510700
_cell_length_b	14.612800
_cell_length_c	13.531700
_cell_angle_alpha	90.000000
_cell_angle_beta	90.000000
_cell_angle_gamma	90.000000
_symmetry_Int_Tables_number 1

loop_
_symmetry_equiv_pos_as_xyz
'x,y,z'

loop_
_atom_site_label
_atom_site_type_symbol
_atom_site_fract_x
_atom_site_fract_y
_atom_site_fract_z
O11	O1	0.036300	0.493660	0.231000
O21	O2	0.204700	0.391440	0.249750
O31	O3	0.907700	0.117860	0.555460
O41	O4	0.082800	0.111300	0.449850
C11	C1	0.088500	0.423930	0.274210
C21	C2	0.007200	0.379950	0.355800
C31	C3	0.907700	0.430100	0.408000
H11	H1	0.890500	0.490800	0.391300
C41	C4	0.834200	0.390000	0.484800
H21	H2	0.768800	0.424200	0.520200
C51	C5	0.857200	0.299800	0.509300
C61	C6	0.956700	0.248990	0.459070
C71	C7	0.031400	0.289450	0.382200
H31	H3	0.098400	0.255500	0.348100
C81	C8	0.984600	0.151700	0.490040
H41	H4	0.801000	0.276000	0.557000
O51	O5	0.463700	0.506340	0.231000
O61	O6	0.295300	0.608560	0.249750
O71	O7	0.592300	0.882140	0.555460
O81	O8	0.417200	0.888700	0.449850
C91	C9	0.411500	0.576070	0.274210
C101	C10	0.492800	0.620050	0.355800
C111	C11	0.592300	0.569900	0.408000
H51	H5	0.609500	0.509200	0.391300
C121	C12	0.665800	0.610000	0.484800
H61	H6	0.731200	0.575800	0.520200
C131	C13	0.642800	0.700200	0.509300
C141	C14	0.543300	0.751010	0.459070
C151	C15	0.468600	0.710550	0.382200
H71	H7	0.401600	0.744500	0.348100
C161	C16	0.515400	0.848300	0.490040
H81	H8	0.699000	0.724000	0.557000
O91	O9	0.463700	0.993660	0.269000
O101	O10	0.295300	0.891440	0.250250
O111	O11	0.592300	0.617860	0.944540
O121	O12	0.417200	0.611300	0.050150
C171	C17	0.411500	0.923930	0.225790
C181	C18	0.492800	0.879950	0.144200
C191	C19	0.592300	0.930100	0.092000
H91	H9	0.609500	0.990800	0.108700
C201	C20	0.665800	0.890000	0.015200
H101	H10	0.731200	0.924200	0.979800
C211	C21	0.642800	0.799800	0.990700
C221	C22	0.543300	0.748990	0.040930
C231	C23	0.468600	0.789450	0.117800
H111	H11	0.401600	0.755500	0.151900
C241	C24	0.515400	0.651700	0.009960
H121	H12	0.699000	0.776000	0.943000
O131	O13	0.036300	0.006340	0.269000
O141	O14	0.204700	0.108560	0.250250
O151	O15	0.907700	0.382140	0.944540
O161	O16	0.082800	0.388700	0.050150
C251	C25	0.088500	0.076070	0.225790
C261	C26	0.007200	0.120050	0.144200
C271	C27	0.907700	0.069900	0.092000
H131	H13	0.890500	0.009200	0.108700
C281	C28	0.834200	0.110000	0.015200
H141	H14	0.768800	0.075800	0.979800
C291	C29	0.857200	0.200200	0.990700
C301	C30	0.956700	0.251010	0.040930
C311	C31	0.031400	0.210550	0.117800
H151	H15	0.098400	0.244500	0.151900
C321	C32	0.984600	0.348300	0.009960
H161	H16	0.801000	0.224000	0.943000
O171	O17	0.963700	0.506340	0.769000
O181	O18	0.795300	0.608560	0.750250
O191	O19	0.092300	0.882140	0.444540
O201	O20	0.917200	0.888700	0.550150
C331	C33	0.911500	0.576070	0.725790
C341	C34	0.992800	0.620050	0.644200
C351	C35	0.092300	0.569900	0.592000
H171	H17	0.109500	0.509200	0.608700
C361	C36	0.165800	0.610000	0.515200
H181	H18	0.231200	0.575800	0.479800
C371	C37	0.142800	0.700200	0.490700
C381	C38	0.043300	0.751010	0.540930
C391	C39	0.968600	0.710550	0.617800
H191	H19	0.901600	0.744500	0.651900
C401	C40	0.015400	0.848300	0.509960
H201	H20	0.199000	0.724000	0.443000
O211	O21	0.536300	0.493660	0.769000
O221	O22	0.704700	0.391440	0.750250
O231	O23	0.407700	0.117860	0.444540
O241	O24	0.582800	0.111300	0.550150
C411	C41	0.588500	0.423930	0.725790
C421	C42	0.507200	0.379950	0.644200
C431	C43	0.407700	0.430100	0.592000
H211	H21	0.390500	0.490800	0.608700
C441	C44	0.334200	0.390000	0.515200
H221	H22	0.268800	0.424200	0.479800
C451	C45	0.357200	0.299800	0.490700
C461	C46	0.456700	0.248990	0.540930
C471	C47	0.531400	0.289450	0.617800
H231	H23	0.598400	0.255500	0.651900
C481	C48	0.484600	0.151700	0.509960
H241	H24	0.301000	0.276000	0.443000
O251	O25	0.536300	0.006340	0.731000
O261	O26	0.704700	0.108560	0.749750
O271	O27	0.407700	0.382140	0.055460
O281	O28	0.582800	0.388700	0.949850
C491	C49	0.588500	0.076070	0.774210
C501	C50	0.507200	0.120050	0.855800
C511	C51	0.407700	0.069900	0.908000
H251	H25	0.390500	0.009200	0.891300
C521	C52	0.334200	0.110000	0.984800
H261	H26	0.268800	0.075800	0.020200
C531	C53	0.357200	0.200200	0.009300
C541	C54	0.456700	0.251010	0.959070
C551	C55	0.531400	0.210550	0.882200
H271	H27	0.598400	0.244500	0.848100
C561	C56	0.484600	0.348300	0.990040
H281	H28	0.301000	0.224000	0.057000
O291	O29	0.963700	0.993660	0.731000
O301	O30	0.795300	0.891440	0.749750
O311	O31	0.092300	0.617860	0.055460
O321	O32	0.917200	0.611300	0.949850
C571	C57	0.911500	0.923930	0.774210
C581	C58	0.992800	0.879950	0.855800
C591	C59	0.092300	0.930100	0.908000
H291	H29	0.109500	0.990800	0.891300
C601	C60	0.165800	0.890000	0.984800
H301	H30	0.231200	0.924200	0.020200
C611	C61	0.142800	0.799800	0.009300
C621	C62	0.043300	0.748990	0.959070
C631	C63	0.968600	0.789450	0.882200
H311	H31	0.901600	0.755500	0.848100
C641	C64	0.015400	0.651700	0.990040
H321	H32	0.199000	0.776000	0.057000
Nd11	Nd1	0.250000	0.500000	0.104380
Nd21	Nd2	0.250000	0.000000	0.395630
Nd31	Nd3	0.750000	0.500000	0.895630
Nd41	Nd4	0.750000	0.000000	0.604380
