data_DOKHUH_clean_PM
_symmetry_space_group_name_H-M	'P1'
_cell_length_a	14.500000
_cell_length_b	18.577000
_cell_length_c	15.394000
_cell_angle_alpha	90.000000
_cell_angle_beta	103.970000
_cell_angle_gamma	90.000000
_symmetry_Int_Tables_number 1

loop_
_symmetry_equiv_pos_as_xyz
'x,y,z'

loop_
_atom_site_label
_atom_site_type_symbol
_atom_site_fract_x
_atom_site_fract_y
_atom_site_fract_z
Cd11	Cd1	0.611460	0.209230	0.116510
Cd21	Cd2	0.413010	0.306000	0.327150
O11	O1	0.439500	0.270400	0.191700
O21	O2	0.480500	0.278400	0.063500
O31	O3	0.028200	0.264900	0.034200
O41	O4	0.044600	0.261700	0.894400
O51	O5	0.252200	0.563700	0.003400
O61	O6	0.261900	0.510600	0.879400
N11	N1	0.711600	0.308200	0.104800
N21	N2	0.014900	0.605500	0.105200
N31	N3	0.323000	0.202800	0.328500
N41	N4	0.014600	0.902400	0.324400
C11	C1	0.426100	0.290900	0.112900
C21	C2	0.331200	0.329000	0.068600
C31	C3	0.248200	0.290200	0.047500
C41	C4	0.240900	0.210600	0.072600
H11	H1	0.176500	0.194500	0.051600
H21	H2	0.260200	0.205400	0.136500
H31	H3	0.281700	0.182100	0.045500
C51	C5	0.161300	0.324700	0.001600
C61	C6	0.067000	0.281700	0.975800
C71	C7	0.161000	0.396800	0.976600
C81	C8	0.070300	0.434400	0.929900
H41	H4	0.084000	0.483500	0.918200
H51	H5	0.026200	0.433200	0.967500
H61	H6	0.043000	0.410400	0.874500
C91	C9	0.247600	0.434000	0.996800
C101	C10	0.254800	0.508100	0.957800
C111	C11	0.333200	0.400900	0.044700
C121	C12	0.426800	0.444000	0.068700
H71	H7	0.415200	0.492500	0.047300
H81	H8	0.472600	0.421900	0.041400
H91	H9	0.451000	0.444600	0.132500
C131	C13	0.678100	0.376100	0.095000
H101	H10	0.613800	0.383900	0.090700
C141	C14	0.736100	0.434500	0.091100
H111	H11	0.710500	0.480700	0.084800
C151	C15	0.830000	0.424900	0.096400
C161	C16	0.861600	0.355300	0.102700
H121	H12	0.925200	0.346400	0.104600
C171	C17	0.803900	0.299600	0.106200
H131	H13	0.828700	0.253200	0.109700
C181	C18	0.893800	0.486900	0.097400
C191	C19	0.872000	0.545100	0.040000
H141	H14	0.814500	0.545900	0.997100
C201	C20	0.934700	0.602500	0.045400
H151	H15	0.918500	0.640200	0.004800
C211	C21	0.041400	0.549200	0.160200
H161	H16	0.099700	0.550700	0.201900
C221	C22	0.984200	0.488900	0.156700
H171	H17	0.005700	0.449800	0.193600
C231	C23	0.337900	0.139300	0.298400
H181	H18	0.392200	0.135700	0.276500
C241	C24	0.287500	0.078800	0.294100
H191	H19	0.306300	0.036200	0.271600
C251	C25	0.201000	0.083200	0.326900
C261	C26	0.183300	0.149400	0.361400
H201	H20	0.130000	0.154000	0.384600
C271	C27	0.239700	0.207500	0.362800
H211	H21	0.224400	0.250800	0.386200
C281	C28	0.139700	0.020600	0.324200
C291	C29	0.169600	0.950400	0.319400
H221	H22	0.231800	0.941100	0.316400
C301	C30	0.107300	0.893600	0.319000
H231	H23	0.129400	0.847000	0.314900
C311	C31	0.986800	0.969200	0.327700
H241	H24	0.923900	0.977400	0.329100
C321	C32	0.045200	0.028800	0.329300
H251	H25	0.021200	0.074700	0.333900
Cd31	Cd3	0.111460	0.709230	0.116510
Cd41	Cd4	0.913010	0.806000	0.327150
O71	O7	0.939500	0.770400	0.191700
O81	O8	0.980500	0.778400	0.063500
O91	O9	0.528200	0.764900	0.034200
O101	O10	0.544600	0.761700	0.894400
O111	O11	0.752200	0.063700	0.003400
O121	O12	0.761900	0.010600	0.879400
N51	N5	0.211600	0.808200	0.104800
N61	N6	0.514900	0.105500	0.105200
N71	N7	0.823000	0.702800	0.328500
N81	N8	0.514600	0.402400	0.324400
C331	C33	0.926100	0.790900	0.112900
C341	C34	0.831200	0.829000	0.068600
C351	C35	0.748200	0.790200	0.047500
C361	C36	0.740900	0.710600	0.072600
H261	H26	0.676500	0.694500	0.051600
H271	H27	0.760200	0.705400	0.136500
H281	H28	0.781700	0.682100	0.045500
C371	C37	0.661300	0.824700	0.001600
C381	C38	0.567000	0.781700	0.975800
C391	C39	0.661000	0.896800	0.976600
C401	C40	0.570300	0.934400	0.929900
H291	H29	0.584000	0.983500	0.918200
H301	H30	0.526200	0.933200	0.967500
H311	H31	0.543000	0.910400	0.874500
C411	C41	0.747600	0.934000	0.996800
C421	C42	0.754800	0.008100	0.957800
C431	C43	0.833200	0.900900	0.044700
C441	C44	0.926800	0.944000	0.068700
H321	H32	0.915200	0.992500	0.047300
H331	H33	0.972600	0.921900	0.041400
H341	H34	0.951000	0.944600	0.132500
C451	C45	0.178100	0.876100	0.095000
H351	H35	0.113800	0.883900	0.090700
C461	C46	0.236100	0.934500	0.091100
H361	H36	0.210500	0.980700	0.084800
C471	C47	0.330000	0.924900	0.096400
C481	C48	0.361600	0.855300	0.102700
H371	H37	0.425200	0.846400	0.104600
C491	C49	0.303900	0.799600	0.106200
H381	H38	0.328700	0.753200	0.109700
C501	C50	0.393800	0.986900	0.097400
C511	C51	0.372000	0.045100	0.040000
H391	H39	0.314500	0.045900	0.997100
C521	C52	0.434700	0.102500	0.045400
H401	H40	0.418500	0.140200	0.004800
C531	C53	0.541400	0.049200	0.160200
H411	H41	0.599700	0.050700	0.201900
C541	C54	0.484200	0.988900	0.156700
H421	H42	0.505700	0.949800	0.193600
C551	C55	0.837900	0.639300	0.298400
H431	H43	0.892200	0.635700	0.276500
C561	C56	0.787500	0.578800	0.294100
H441	H44	0.806300	0.536200	0.271600
C571	C57	0.701000	0.583200	0.326900
C581	C58	0.683300	0.649400	0.361400
H451	H45	0.630000	0.654000	0.384600
C591	C59	0.739700	0.707500	0.362800
H461	H46	0.724400	0.750800	0.386200
C601	C60	0.639700	0.520600	0.324200
C611	C61	0.669600	0.450400	0.319400
H471	H47	0.731800	0.441100	0.316400
C621	C62	0.607300	0.393600	0.319000
H481	H48	0.629400	0.347000	0.314900
C631	C63	0.486800	0.469200	0.327700
H491	H49	0.423900	0.477400	0.329100
C641	C64	0.545200	0.528800	0.329300
H501	H50	0.521200	0.574700	0.333900
Cd51	Cd5	0.611460	0.790770	0.616510
Cd61	Cd6	0.413010	0.694000	0.827150
O131	O13	0.439500	0.729600	0.691700
O141	O14	0.480500	0.721600	0.563500
O151	O15	0.028200	0.735100	0.534200
O161	O16	0.044600	0.738300	0.394400
O171	O17	0.252200	0.436300	0.503400
O181	O18	0.261900	0.489400	0.379400
N91	N9	0.711600	0.691800	0.604800
N101	N10	0.014900	0.394500	0.605200
N111	N11	0.323000	0.797200	0.828500
N121	N12	0.014600	0.097600	0.824400
C651	C65	0.426100	0.709100	0.612900
C661	C66	0.331200	0.671000	0.568600
C671	C67	0.248200	0.709800	0.547500
C681	C68	0.240900	0.789400	0.572600
H511	H51	0.176500	0.805500	0.551600
H521	H52	0.260200	0.794600	0.636500
H531	H53	0.281700	0.817900	0.545500
C691	C69	0.161300	0.675300	0.501600
C701	C70	0.067000	0.718300	0.475800
C711	C71	0.161000	0.603200	0.476600
C721	C72	0.070300	0.565600	0.429900
H541	H54	0.084000	0.516500	0.418200
H551	H55	0.026200	0.566800	0.467500
H561	H56	0.043000	0.589600	0.374500
C731	C73	0.247600	0.566000	0.496800
C741	C74	0.254800	0.491900	0.457800
C751	C75	0.333200	0.599100	0.544700
C761	C76	0.426800	0.556000	0.568700
H571	H57	0.415200	0.507500	0.547300
H581	H58	0.472600	0.578100	0.541400
H591	H59	0.451000	0.555400	0.632500
C771	C77	0.678100	0.623900	0.595000
H601	H60	0.613800	0.616100	0.590700
C781	C78	0.736100	0.565500	0.591100
H611	H61	0.710500	0.519300	0.584800
C791	C79	0.830000	0.575100	0.596400
C801	C80	0.861600	0.644700	0.602700
H621	H62	0.925200	0.653600	0.604600
C811	C81	0.803900	0.700400	0.606200
H631	H63	0.828700	0.746800	0.609700
C821	C82	0.893800	0.513100	0.597400
C831	C83	0.872000	0.454900	0.540000
H641	H64	0.814500	0.454100	0.497100
C841	C84	0.934700	0.397500	0.545400
H651	H65	0.918500	0.359800	0.504800
C851	C85	0.041400	0.450800	0.660200
H661	H66	0.099700	0.449300	0.701900
C861	C86	0.984200	0.511100	0.656700
H671	H67	0.005700	0.550200	0.693600
C871	C87	0.337900	0.860700	0.798400
H681	H68	0.392200	0.864300	0.776500
C881	C88	0.287500	0.921200	0.794100
H691	H69	0.306300	0.963800	0.771600
C891	C89	0.201000	0.916800	0.826900
C901	C90	0.183300	0.850600	0.861400
H701	H70	0.130000	0.846000	0.884600
C911	C91	0.239700	0.792500	0.862800
H711	H71	0.224400	0.749200	0.886200
C921	C92	0.139700	0.979400	0.824200
C931	C93	0.169600	0.049600	0.819400
H721	H72	0.231800	0.058900	0.816400
C941	C94	0.107300	0.106400	0.819000
H731	H73	0.129400	0.153000	0.814900
C951	C95	0.986800	0.030800	0.827700
H741	H74	0.923900	0.022600	0.829100
C961	C96	0.045200	0.971200	0.829300
H751	H75	0.021200	0.925300	0.833900
Cd71	Cd7	0.111460	0.290770	0.616510
Cd81	Cd8	0.913010	0.194000	0.827150
O191	O19	0.939500	0.229600	0.691700
O201	O20	0.980500	0.221600	0.563500
O211	O21	0.528200	0.235100	0.534200
O221	O22	0.544600	0.238300	0.394400
O231	O23	0.752200	0.936300	0.503400
O241	O24	0.761900	0.989400	0.379400
N131	N13	0.211600	0.191800	0.604800
N141	N14	0.514900	0.894500	0.605200
N151	N15	0.823000	0.297200	0.828500
N161	N16	0.514600	0.597600	0.824400
C971	C97	0.926100	0.209100	0.612900
C981	C98	0.831200	0.171000	0.568600
C991	C99	0.748200	0.209800	0.547500
C1001	C100	0.740900	0.289400	0.572600
H761	H76	0.676500	0.305500	0.551600
H771	H77	0.760200	0.294600	0.636500
H781	H78	0.781700	0.317900	0.545500
C1011	C101	0.661300	0.175300	0.501600
C1021	C102	0.567000	0.218300	0.475800
C1031	C103	0.661000	0.103200	0.476600
C1041	C104	0.570300	0.065600	0.429900
H791	H79	0.584000	0.016500	0.418200
H801	H80	0.526200	0.066800	0.467500
H811	H81	0.543000	0.089600	0.374500
C1051	C105	0.747600	0.066000	0.496800
C1061	C106	0.754800	0.991900	0.457800
C1071	C107	0.833200	0.099100	0.544700
C1081	C108	0.926800	0.056000	0.568700
H821	H82	0.915200	0.007500	0.547300
H831	H83	0.972600	0.078100	0.541400
H841	H84	0.951000	0.055400	0.632500
C1091	C109	0.178100	0.123900	0.595000
H851	H85	0.113800	0.116100	0.590700
C1101	C110	0.236100	0.065500	0.591100
H861	H86	0.210500	0.019300	0.584800
C1111	C111	0.330000	0.075100	0.596400
C1121	C112	0.361600	0.144700	0.602700
H871	H87	0.425200	0.153600	0.604600
C1131	C113	0.303900	0.200400	0.606200
H881	H88	0.328700	0.246800	0.609700
C1141	C114	0.393800	0.013100	0.597400
C1151	C115	0.372000	0.954900	0.540000
H891	H89	0.314500	0.954100	0.497100
C1161	C116	0.434700	0.897500	0.545400
H901	H90	0.418500	0.859800	0.504800
C1171	C117	0.541400	0.950800	0.660200
H911	H91	0.599700	0.949300	0.701900
C1181	C118	0.484200	0.011100	0.656700
H921	H92	0.505700	0.050200	0.693600
C1191	C119	0.837900	0.360700	0.798400
H931	H93	0.892200	0.364300	0.776500
C1201	C120	0.787500	0.421200	0.794100
H941	H94	0.806300	0.463800	0.771600
C1211	C121	0.701000	0.416800	0.826900
C1221	C122	0.683300	0.350600	0.861400
H951	H95	0.630000	0.346000	0.884600
C1231	C123	0.739700	0.292500	0.862800
H961	H96	0.724400	0.249200	0.886200
C1241	C124	0.639700	0.479400	0.824200
C1251	C125	0.669600	0.549600	0.819400
H971	H97	0.731800	0.558900	0.816400
C1261	C126	0.607300	0.606400	0.819000
H981	H98	0.629400	0.653000	0.814900
C1271	C127	0.486800	0.530800	0.827700
H991	H99	0.423900	0.522600	0.829100
C1281	C128	0.545200	0.471200	0.829300
H1001	H100	0.521200	0.425300	0.833900
