data_DOLRAZ_clean_PM
_symmetry_space_group_name_H-M	'P1'
_cell_length_a	11.359300
_cell_length_b	22.582300
_cell_length_c	16.592300
_cell_angle_alpha	90.000000
_cell_angle_beta	92.129000
_cell_angle_gamma	90.000000
_symmetry_Int_Tables_number 1

loop_
_symmetry_equiv_pos_as_xyz
'x,y,z'

loop_
_atom_site_label
_atom_site_type_symbol
_atom_site_fract_x
_atom_site_fract_y
_atom_site_fract_z
C11	C1	0.414000	0.116900	0.515100
C21	C2	0.420600	0.059700	0.564700
C31	C3	0.353800	0.013500	0.538400
H11	H1	0.308700	0.017600	0.489400
C41	C4	0.348700	0.960100	0.580400
H21	H2	0.298600	0.929200	0.560800
C51	C5	0.414900	0.952100	0.649300
C61	C6	0.489300	0.999200	0.680700
C71	C7	0.492500	0.053900	0.637500
C81	C8	0.567400	0.098900	0.670400
H31	H3	0.573800	0.135100	0.641800
C91	C9	0.629100	0.092400	0.739900
H41	H4	0.677300	0.123900	0.759900
C101	C10	0.623000	0.038600	0.784000
H51	H5	0.666100	0.034000	0.833700
C111	C11	0.554000	0.993500	0.753700
H61	H6	0.550100	0.957400	0.782900
C121	C12	0.411800	0.894000	0.692300
C131	C13	0.528500	0.379300	0.560600
C141	C14	0.402900	0.463100	0.507500
C151	C15	0.513900	0.442100	0.529100
C161	C16	0.610900	0.477700	0.523300
C171	C17	0.732400	0.457100	0.541900
H71	H7	0.742200	0.418200	0.562900
C181	C18	0.836000	0.491500	0.530500
H81	H8	0.910200	0.475100	0.547600
C191	C19	0.208600	0.238400	0.477700
C201	C20	0.086100	0.240200	0.509500
C211	C21	0.031300	0.292000	0.520700
H91	H9	0.073200	0.327600	0.511300
C221	C22	0.914900	0.296100	0.545400
H101	H10	0.879000	0.333700	0.551600
C231	C23	0.853000	0.245200	0.560800
C241	C24	0.906400	0.189300	0.552300
C251	C25	0.025400	0.186100	0.526400
C261	C26	0.080400	0.129800	0.519400
H111	H11	0.158500	0.127200	0.501200
C271	C27	0.020900	0.079300	0.538800
H121	H12	0.058200	0.041900	0.534000
C281	C28	0.904200	0.082300	0.565900
H131	H13	0.864600	0.047100	0.580500
C291	C29	0.848600	0.135500	0.571200
H141	H14	0.769500	0.136600	0.587800
C301	C30	0.730100	0.250600	0.591100
C311	C31	0.562000	0.262200	0.372800
H151	H15	0.598400	0.293700	0.402400
C321	C32	0.355600	0.249200	0.695000
H161	H16	0.304900	0.221400	0.668200
O11	O1	0.433400	0.164200	0.552200
O21	O2	0.384500	0.112400	0.442900
O31	O3	0.508000	0.866200	0.710100
O41	O4	0.314900	0.873300	0.713500
O51	O5	0.578100	0.373200	0.627800
O61	O6	0.486500	0.339200	0.516400
O71	O7	0.285700	0.266500	0.517800
O81	O8	0.222400	0.211100	0.414200
O91	O9	0.724300	0.269300	0.662500
O101	O10	0.645300	0.237600	0.545500
O111	O11	0.482700	0.234800	0.407700
O121	O12	0.599200	0.253200	0.303900
O131	O13	0.447100	0.265000	0.658300
O141	O14	0.327100	0.266400	0.761100
Mg11	Mg1	0.464100	0.250560	0.532150
Mg21	Mg2	0.585700	0.308440	0.714070
Mg31	Mg3	0.360200	0.174290	0.354310
H171	H17	0.297500	0.391200	0.537200
C331	C33	0.288400	0.430800	0.518700
H181	H18	0.096600	0.427600	0.519200
C341	C34	0.164200	0.449900	0.505900
C351	C35	0.586000	0.616900	0.984900
C361	C36	0.579400	0.559700	0.935300
C371	C37	0.646200	0.513500	0.961600
H191	H19	0.691300	0.517600	0.010600
C381	C38	0.651300	0.460100	0.919600
H201	H20	0.701400	0.429200	0.939200
C391	C39	0.585100	0.452100	0.850700
C401	C40	0.510700	0.499200	0.819300
C411	C41	0.507500	0.553900	0.862500
C421	C42	0.432600	0.598900	0.829600
H211	H21	0.426200	0.635100	0.858200
C431	C43	0.370900	0.592400	0.760100
H221	H22	0.322700	0.623900	0.740100
C441	C44	0.377000	0.538600	0.716000
H231	H23	0.333900	0.534000	0.666300
C451	C45	0.446000	0.493500	0.746300
H241	H24	0.449900	0.457400	0.717100
C461	C46	0.588200	0.394000	0.807700
C471	C47	0.471500	0.879300	0.939400
C481	C48	0.597100	0.963100	0.992500
C491	C49	0.486100	0.942100	0.970900
C501	C50	0.389100	0.977700	0.976700
C511	C51	0.267600	0.957100	0.958100
H251	H25	0.257800	0.918200	0.937100
C521	C52	0.164000	0.991500	0.969500
H261	H26	0.089800	0.975100	0.952400
C531	C53	0.791400	0.738400	0.022300
C541	C54	0.913900	0.740200	0.990500
C551	C55	0.968700	0.792000	0.979300
H271	H27	0.926800	0.827600	0.988700
C561	C56	0.085100	0.796100	0.954600
H281	H28	0.121000	0.833700	0.948400
C571	C57	0.147000	0.745200	0.939200
C581	C58	0.093600	0.689300	0.947700
C591	C59	0.974600	0.686100	0.973600
C601	C60	0.919600	0.629800	0.980600
H291	H29	0.841500	0.627200	0.998800
C611	C61	0.979100	0.579300	0.961200
H301	H30	0.941800	0.541900	0.966000
C621	C62	0.095800	0.582300	0.934100
H311	H31	0.135400	0.547100	0.919500
C631	C63	0.151400	0.635500	0.928800
H321	H32	0.230500	0.636600	0.912200
C641	C64	0.269900	0.750600	0.908900
C651	C65	0.438000	0.762200	0.127200
H331	H33	0.401600	0.793700	0.097600
C661	C66	0.644400	0.749200	0.805000
H341	H34	0.695100	0.721400	0.831800
O151	O15	0.566600	0.664200	0.947800
O161	O16	0.615500	0.612400	0.057100
O171	O17	0.492000	0.366200	0.789900
O181	O18	0.685100	0.373300	0.786500
O191	O19	0.421900	0.873200	0.872200
O201	O20	0.513500	0.839200	0.983600
O211	O21	0.714300	0.766500	0.982200
O221	O22	0.777600	0.711100	0.085800
O231	O23	0.275700	0.769300	0.837500
O241	O24	0.354700	0.737600	0.954500
O251	O25	0.517300	0.734800	0.092300
O261	O26	0.400800	0.753200	0.196100
O271	O27	0.552900	0.765000	0.841700
O281	O28	0.672900	0.766400	0.738900
Mg41	Mg4	0.535900	0.750560	0.967850
Mg51	Mg5	0.414300	0.808440	0.785930
Mg61	Mg6	0.639800	0.674290	0.145690
H351	H35	0.702500	0.891200	0.962800
C671	C67	0.711600	0.930800	0.981300
H361	H36	0.903400	0.927600	0.980800
C681	C68	0.835800	0.949900	0.994100
C691	C69	0.586000	0.883100	0.484900
C701	C70	0.579400	0.940300	0.435300
C711	C71	0.646200	0.986500	0.461600
H371	H37	0.691300	0.982400	0.510600
C721	C72	0.651300	0.039900	0.419600
H381	H38	0.701400	0.070800	0.439200
C731	C73	0.585100	0.047900	0.350700
C741	C74	0.510700	0.000800	0.319300
C751	C75	0.507500	0.946100	0.362500
C761	C76	0.432600	0.901100	0.329600
H391	H39	0.426200	0.864900	0.358200
C771	C77	0.370900	0.907600	0.260100
H401	H40	0.322700	0.876100	0.240100
C781	C78	0.377000	0.961400	0.216000
H411	H41	0.333900	0.966000	0.166300
C791	C79	0.446000	0.006500	0.246300
H421	H42	0.449900	0.042600	0.217100
C801	C80	0.588200	0.106000	0.307700
C811	C81	0.471500	0.620700	0.439400
C821	C82	0.597100	0.536900	0.492500
C831	C83	0.486100	0.557900	0.470900
C841	C84	0.389100	0.522300	0.476700
C851	C85	0.267600	0.542900	0.458100
H431	H43	0.257800	0.581800	0.437100
C861	C86	0.164000	0.508500	0.469500
H441	H44	0.089800	0.524900	0.452400
C871	C87	0.791400	0.761600	0.522300
C881	C88	0.913900	0.759800	0.490500
C891	C89	0.968700	0.708000	0.479300
H451	H45	0.926800	0.672400	0.488700
C901	C90	0.085100	0.703900	0.454600
H461	H46	0.121000	0.666300	0.448400
C911	C91	0.147000	0.754800	0.439200
C921	C92	0.093600	0.810700	0.447700
C931	C93	0.974600	0.813900	0.473600
C941	C94	0.919600	0.870200	0.480600
H471	H47	0.841500	0.872800	0.498800
C951	C95	0.979100	0.920700	0.461200
H481	H48	0.941800	0.958100	0.466000
C961	C96	0.095800	0.917700	0.434100
H491	H49	0.135400	0.952900	0.419500
C971	C97	0.151400	0.864500	0.428800
H501	H50	0.230500	0.863400	0.412200
C981	C98	0.269900	0.749400	0.408900
C991	C99	0.438000	0.737800	0.627200
H511	H51	0.401600	0.706300	0.597600
C1001	C100	0.644400	0.750800	0.305000
H521	H52	0.695100	0.778600	0.331800
O291	O29	0.566600	0.835800	0.447800
O301	O30	0.615500	0.887600	0.557100
O311	O31	0.492000	0.133800	0.289900
O321	O32	0.685100	0.126700	0.286500
O331	O33	0.421900	0.626800	0.372200
O341	O34	0.513500	0.660800	0.483600
O351	O35	0.714300	0.733500	0.482200
O361	O36	0.777600	0.788900	0.585800
O371	O37	0.275700	0.730700	0.337500
O381	O38	0.354700	0.762400	0.454500
O391	O39	0.517300	0.765200	0.592300
O401	O40	0.400800	0.746800	0.696100
O411	O41	0.552900	0.735000	0.341700
O421	O42	0.672900	0.733600	0.238900
Mg71	Mg7	0.535900	0.749440	0.467850
Mg81	Mg8	0.414300	0.691560	0.285930
Mg91	Mg9	0.639800	0.825710	0.645690
H531	H53	0.702500	0.608800	0.462800
C1011	C101	0.711600	0.569200	0.481300
H541	H54	0.903400	0.572400	0.480800
C1021	C102	0.835800	0.550100	0.494100
C1031	C103	0.414000	0.383100	0.015100
C1041	C104	0.420600	0.440300	0.064700
C1051	C105	0.353800	0.486500	0.038400
H551	H55	0.308700	0.482400	0.989400
C1061	C106	0.348700	0.539900	0.080400
H561	H56	0.298600	0.570800	0.060800
C1071	C107	0.414900	0.547900	0.149300
C1081	C108	0.489300	0.500800	0.180700
C1091	C109	0.492500	0.446100	0.137500
C1101	C110	0.567400	0.401100	0.170400
H571	H57	0.573800	0.364900	0.141800
C1111	C111	0.629100	0.407600	0.239900
H581	H58	0.677300	0.376100	0.259900
C1121	C112	0.623000	0.461400	0.284000
H591	H59	0.666100	0.466000	0.333700
C1131	C113	0.554000	0.506500	0.253700
H601	H60	0.550100	0.542600	0.282900
C1141	C114	0.411800	0.606000	0.192300
C1151	C115	0.528500	0.120700	0.060600
C1161	C116	0.402900	0.036900	0.007500
C1171	C117	0.513900	0.057900	0.029100
C1181	C118	0.610900	0.022300	0.023300
C1191	C119	0.732400	0.042900	0.041900
H611	H61	0.742200	0.081800	0.062900
C1201	C120	0.836000	0.008500	0.030500
H621	H62	0.910200	0.024900	0.047600
C1211	C121	0.208600	0.261600	0.977700
C1221	C122	0.086100	0.259800	0.009500
C1231	C123	0.031300	0.208000	0.020700
H631	H63	0.073200	0.172400	0.011300
C1241	C124	0.914900	0.203900	0.045400
H641	H64	0.879000	0.166300	0.051600
C1251	C125	0.853000	0.254800	0.060800
C1261	C126	0.906400	0.310700	0.052300
C1271	C127	0.025400	0.313900	0.026400
C1281	C128	0.080400	0.370200	0.019400
H651	H65	0.158500	0.372800	0.001200
C1291	C129	0.020900	0.420700	0.038800
H661	H66	0.058200	0.458100	0.034000
C1301	C130	0.904200	0.417700	0.065900
H671	H67	0.864600	0.452900	0.080500
C1311	C131	0.848600	0.364500	0.071200
H681	H68	0.769500	0.363400	0.087800
C1321	C132	0.730100	0.249400	0.091100
C1331	C133	0.562000	0.237800	0.872800
H691	H69	0.598400	0.206300	0.902400
C1341	C134	0.355600	0.250800	0.195000
H701	H70	0.304900	0.278600	0.168200
O431	O43	0.433400	0.335800	0.052200
O441	O44	0.384500	0.387600	0.942900
O451	O45	0.508000	0.633800	0.210100
O461	O46	0.314900	0.626700	0.213500
O471	O47	0.578100	0.126800	0.127800
O481	O48	0.486500	0.160800	0.016400
O491	O49	0.285700	0.233500	0.017800
O501	O50	0.222400	0.288900	0.914200
O511	O51	0.724300	0.230700	0.162500
O521	O52	0.645300	0.262400	0.045500
O531	O53	0.482700	0.265200	0.907700
O541	O54	0.599200	0.246800	0.803900
O551	O55	0.447100	0.235000	0.158300
O561	O56	0.327100	0.233600	0.261100
Mg101	Mg10	0.464100	0.249440	0.032150
Mg111	Mg11	0.585700	0.191560	0.214070
Mg121	Mg12	0.360200	0.325710	0.854310
H711	H71	0.297500	0.108800	0.037200
C1351	C135	0.288400	0.069200	0.018700
H721	H72	0.096600	0.072400	0.019200
C1361	C136	0.164200	0.050100	0.005900
