data_DOLXOR01_clean_PM
_symmetry_space_group_name_H-M	'P1'
_cell_length_a	9.436600
_cell_length_b	9.436600
_cell_length_c	16.424000
_cell_angle_alpha	88.504900
_cell_angle_beta	88.504900
_cell_angle_gamma	83.741600
_symmetry_Int_Tables_number 1

loop_
_symmetry_equiv_pos_as_xyz
'x,y,z'

loop_
_atom_site_label
_atom_site_type_symbol
_atom_site_fract_x
_atom_site_fract_y
_atom_site_fract_z
Cu11	Cu1	0.492240	0.136180	0.502560
Cu21	Cu2	0.863820	0.507760	0.997440
Cu31	Cu3	0.507760	0.863820	0.497440
Cu41	Cu4	0.136180	0.492240	0.002560
Cu51	Cu5	0.000000	0.000000	0.500000
Cu61	Cu6	0.000000	0.000000	0.000000
Cu71	Cu7	0.636620	0.363380	0.750000
Cu81	Cu8	0.363380	0.636620	0.250000
Cu91	Cu9	0.602200	0.397800	0.250000
Cu101	Cu10	0.397800	0.602200	0.750000
C11	C1	0.316600	0.040600	0.510800
C21	C2	0.571500	0.282900	0.661400
C31	C3	0.538000	0.306400	0.339900
C41	C4	0.959400	0.683400	0.989200
C51	C5	0.717100	0.428500	0.838600
C61	C6	0.693600	0.462000	0.160100
C71	C7	0.683400	0.959400	0.489200
C81	C8	0.428500	0.717100	0.338600
C91	C9	0.462000	0.693600	0.660100
C101	C10	0.040600	0.316600	0.010800
C111	C11	0.282900	0.571500	0.161400
C121	C12	0.306400	0.538000	0.839900
N11	N1	0.198900	0.025300	0.513400
N21	N2	0.542200	0.229200	0.603400
N31	N3	0.515800	0.244800	0.398300
N41	N4	0.974700	0.801100	0.986600
N51	N5	0.770800	0.457800	0.896600
N61	N6	0.755200	0.484200	0.101700
N71	N7	0.801100	0.974700	0.486600
N81	N8	0.457800	0.770800	0.396600
N91	N9	0.484200	0.755200	0.601700
N101	N10	0.025300	0.198900	0.013400
N111	N11	0.229200	0.542200	0.103400
N121	N12	0.244800	0.515800	0.898300
