data_DOLXOR_clean_PM
_symmetry_space_group_name_H-M	'P1'
_cell_length_a	9.427200
_cell_length_b	9.427200
_cell_length_c	16.403000
_cell_angle_alpha	88.518900
_cell_angle_beta	88.518900
_cell_angle_gamma	83.795500
_symmetry_Int_Tables_number 1

loop_
_symmetry_equiv_pos_as_xyz
'x,y,z'

loop_
_atom_site_label
_atom_site_type_symbol
_atom_site_fract_x
_atom_site_fract_y
_atom_site_fract_z
Cu11	Cu1	0.863870	0.507590	0.497460
Cu21	Cu2	0.492410	0.136130	0.002540
Cu31	Cu3	0.136130	0.492410	0.502540
Cu41	Cu4	0.507590	0.863870	0.997460
Cu51	Cu5	0.000000	0.000000	0.500000
Cu61	Cu6	0.000000	0.000000	0.000000
Cu71	Cu7	0.602330	0.397670	0.750000
Cu81	Cu8	0.397670	0.602330	0.250000
Cu91	Cu9	0.636620	0.363380	0.250000
Cu101	Cu10	0.363380	0.636620	0.750000
C11	C1	0.693300	0.463300	0.660100
C21	C2	0.959700	0.683500	0.489100
C31	C3	0.716500	0.427900	0.339700
C41	C4	0.536700	0.306700	0.839900
C51	C5	0.316500	0.040300	0.010900
C61	C6	0.572100	0.283500	0.160300
C71	C7	0.306700	0.536700	0.339900
C81	C8	0.040300	0.316500	0.510900
C91	C9	0.283500	0.572100	0.660300
C101	C10	0.463300	0.693300	0.160100
C111	C11	0.683500	0.959700	0.989100
C121	C12	0.427900	0.716500	0.839700
N11	N1	0.756800	0.484200	0.600900
N21	N2	0.975700	0.800900	0.486900
N31	N3	0.771900	0.458500	0.396900
N41	N4	0.515800	0.243200	0.899100
N51	N5	0.199100	0.024300	0.013100
N61	N6	0.541500	0.228100	0.103100
N71	N7	0.243200	0.515800	0.399100
N81	N8	0.024300	0.199100	0.513100
N91	N9	0.228100	0.541500	0.603100
N101	N10	0.484200	0.756800	0.100900
N111	N11	0.800900	0.975700	0.986900
N121	N12	0.458500	0.771900	0.896900
