data_DOLXOR02_clean_PM
_symmetry_space_group_name_H-M	'P1'
_cell_length_a	9.450500
_cell_length_b	9.450500
_cell_length_c	16.436700
_cell_angle_alpha	88.510700
_cell_angle_beta	88.510700
_cell_angle_gamma	83.796300
_symmetry_Int_Tables_number 1

loop_
_symmetry_equiv_pos_as_xyz
'x,y,z'

loop_
_atom_site_label
_atom_site_type_symbol
_atom_site_fract_x
_atom_site_fract_y
_atom_site_fract_z
Cu11	Cu1	0.136060	0.492290	0.502660
Cu21	Cu2	0.507710	0.863940	0.997340
Cu31	Cu3	0.863940	0.507710	0.497340
Cu41	Cu4	0.492290	0.136060	0.002660
Cu51	Cu5	0.397720	0.602280	0.250000
Cu61	Cu6	0.602280	0.397720	0.750000
Cu71	Cu7	0.363820	0.636180	0.750000
Cu81	Cu8	0.636180	0.363820	0.250000
Cu91	Cu9	0.000000	0.000000	0.500000
Cu101	Cu10	0.000000	0.000000	0.000000
C11	C1	0.040760	0.316600	0.510730
C21	C2	0.305520	0.537740	0.340910
C31	C3	0.281710	0.571150	0.660210
C41	C4	0.683400	0.959240	0.989270
C51	C5	0.462260	0.694480	0.159090
C61	C6	0.428850	0.718290	0.839790
C71	C7	0.959240	0.683400	0.489270
C81	C8	0.694480	0.462260	0.659090
C91	C9	0.718290	0.428850	0.339790
C101	C10	0.316600	0.040760	0.010730
C111	C11	0.537740	0.305520	0.840910
C121	C12	0.571150	0.281710	0.160210
N11	N1	0.026040	0.198840	0.513280
N21	N2	0.243260	0.516120	0.399640
N31	N3	0.228390	0.541710	0.602490
N41	N4	0.801160	0.973960	0.986720
N51	N5	0.483880	0.756740	0.100360
N61	N6	0.458290	0.771610	0.897510
N71	N7	0.973960	0.801160	0.486720
N81	N8	0.756740	0.483880	0.600360
N91	N9	0.771610	0.458290	0.397510
N101	N10	0.198840	0.026040	0.013280
N111	N11	0.516120	0.243260	0.899640
N121	N12	0.541710	0.228390	0.102490
