data_DOMFUI_clean_PM
_symmetry_space_group_name_H-M	'P1'
_cell_length_a	32.802900
_cell_length_b	35.012800
_cell_length_c	11.479100
_cell_angle_alpha	90.000000
_cell_angle_beta	110.198000
_cell_angle_gamma	90.000000
_symmetry_Int_Tables_number 1

loop_
_symmetry_equiv_pos_as_xyz
'x,y,z'

loop_
_atom_site_label
_atom_site_type_symbol
_atom_site_fract_x
_atom_site_fract_y
_atom_site_fract_z
Zn11	Zn1	0.963310	0.737570	0.706670
O11	O1	0.775010	0.542220	0.866300
O21	O2	0.738000	0.541550	0.665700
O31	O3	0.764080	0.931740	0.813200
O41	O4	0.767430	0.958230	0.642400
O51	O5	0.188030	0.540840	0.847700
O61	O6	0.175440	0.542100	0.646500
O71	O7	0.145740	0.957840	0.667700
O81	O8	0.191200	0.931600	0.836500
O91	O9	0.985400	0.744240	0.897500
N11	N1	0.960850	0.678950	0.692300
N21	N2	0.960090	0.795770	0.673000
N31	N3	0.021790	0.736540	0.676100
N41	N4	0.897040	0.737760	0.671800
C11	C1	0.768820	0.554070	0.756300
C21	C2	0.776260	0.930640	0.718100
C31	C3	0.798360	0.583740	0.735800
C41	C4	0.801250	0.897500	0.699500
C51	C5	0.871470	0.706540	0.667400
C61	C6	0.166620	0.553400	0.739100
C71	C7	0.127850	0.896200	0.724000
C81	C8	0.995140	0.655310	0.700200
C91	C9	0.157090	0.930180	0.743900
C101	C10	0.131740	0.581930	0.723000
C111	C11	0.927670	0.656070	0.701500
C121	C12	0.854930	0.639290	0.702500
C131	C13	0.046020	0.767600	0.669900
C141	C14	0.995700	0.818540	0.688400
C151	C15	0.067480	0.637090	0.697900
C161	C16	0.812780	0.867940	0.786400
H11	H1	0.802600	0.868100	0.854400
C171	C17	0.927720	0.819150	0.679400
C181	C18	0.069370	0.835650	0.695600
C191	C19	0.854400	0.837550	0.674100
C201	C20	0.886110	0.668530	0.688300
C211	C21	0.942660	0.616920	0.718600
H21	H2	0.926500	0.595500	0.729000
C221	C22	0.045300	0.704850	0.668600
C231	C23	0.034180	0.667180	0.687200
C241	C24	0.943520	0.857840	0.702400
H31	H3	0.927400	0.879600	0.710700
C251	C25	0.871050	0.769200	0.658600
C261	C26	0.084410	0.716950	0.648400
H41	H4	0.105800	0.700700	0.636400
C271	C27	0.985300	0.857350	0.709800
H51	H5	0.004400	0.878600	0.726000
C281	C28	0.885470	0.807520	0.668600
C291	C29	0.085070	0.754850	0.649800
H61	H6	0.107100	0.770700	0.639600
C301	C30	0.796240	0.594460	0.618900
H71	H7	0.775200	0.583100	0.548500
C311	C31	0.839060	0.838330	0.774000
H81	H8	0.846800	0.818400	0.833800
C321	C32	0.983330	0.616260	0.717200
H91	H9	0.001100	0.594300	0.725700
C331	C33	0.091470	0.893260	0.619500
H101	H10	0.086200	0.912000	0.556000
C341	C34	0.035710	0.805790	0.684000
C351	C35	0.827000	0.757040	0.638900
H111	H11	0.802400	0.773100	0.624600
C361	C36	0.062520	0.863730	0.605100
H121	H12	0.037500	0.862500	0.532200
C371	C37	0.815060	0.896480	0.597800
H131	H13	0.806700	0.916100	0.537000
C381	C38	0.828750	0.601810	0.836600
H141	H14	0.830700	0.595100	0.918600
C391	C39	0.827530	0.718740	0.644800
H151	H15	0.803300	0.702600	0.635800
C401	C40	0.107660	0.837320	0.797400
H161	H16	0.114100	0.817700	0.858200
C411	C41	0.855790	0.629130	0.818600
H171	H17	0.875800	0.641500	0.888900
C421	C42	0.824250	0.621530	0.602500
H181	H18	0.822500	0.628200	0.520700
C431	C43	0.136410	0.867240	0.811100
H191	H19	0.162400	0.867900	0.881300
C441	C44	0.841260	0.866520	0.585700
H201	H20	0.850400	0.865800	0.515600
C451	C45	0.111240	0.599030	0.611600
H211	H21	0.118700	0.592100	0.541500
C461	C46	0.079530	0.626500	0.599400
H221	H22	0.065800	0.638200	0.521000
C471	C47	0.087300	0.618350	0.810300
H231	H23	0.078800	0.624300	0.879300
C481	C48	0.119230	0.591250	0.823000
H241	H24	0.132600	0.579000	0.900700
Na11	Na1	0.749230	0.922660	0.989460
Zn21	Zn2	0.463310	0.237570	0.706670
O101	O10	0.275010	0.042220	0.866300
O111	O11	0.238000	0.041550	0.665700
O121	O12	0.264080	0.431740	0.813200
O131	O13	0.267430	0.458230	0.642400
O141	O14	0.688030	0.040840	0.847700
O151	O15	0.675440	0.042100	0.646500
O161	O16	0.645740	0.457840	0.667700
O171	O17	0.691200	0.431600	0.836500
O181	O18	0.485400	0.244240	0.897500
N51	N5	0.460850	0.178950	0.692300
N61	N6	0.460090	0.295770	0.673000
N71	N7	0.521790	0.236540	0.676100
N81	N8	0.397040	0.237760	0.671800
C491	C49	0.268820	0.054070	0.756300
C501	C50	0.276260	0.430640	0.718100
C511	C51	0.298360	0.083740	0.735800
C521	C52	0.301250	0.397500	0.699500
C531	C53	0.371470	0.206540	0.667400
C541	C54	0.666620	0.053400	0.739100
C551	C55	0.627850	0.396200	0.724000
C561	C56	0.495140	0.155310	0.700200
C571	C57	0.657090	0.430180	0.743900
C581	C58	0.631740	0.081930	0.723000
C591	C59	0.427670	0.156070	0.701500
C601	C60	0.354930	0.139290	0.702500
C611	C61	0.546020	0.267600	0.669900
C621	C62	0.495700	0.318540	0.688400
C631	C63	0.567480	0.137090	0.697900
C641	C64	0.312780	0.367940	0.786400
H251	H25	0.302600	0.368100	0.854400
C651	C65	0.427720	0.319150	0.679400
C661	C66	0.569370	0.335650	0.695600
C671	C67	0.354400	0.337550	0.674100
C681	C68	0.386110	0.168530	0.688300
C691	C69	0.442660	0.116920	0.718600
H261	H26	0.426500	0.095500	0.729000
C701	C70	0.545300	0.204850	0.668600
C711	C71	0.534180	0.167180	0.687200
C721	C72	0.443520	0.357840	0.702400
H271	H27	0.427400	0.379600	0.710700
C731	C73	0.371050	0.269200	0.658600
C741	C74	0.584410	0.216950	0.648400
H281	H28	0.605800	0.200700	0.636400
C751	C75	0.485300	0.357350	0.709800
H291	H29	0.504400	0.378600	0.726000
C761	C76	0.385470	0.307520	0.668600
C771	C77	0.585070	0.254850	0.649800
H301	H30	0.607100	0.270700	0.639600
C781	C78	0.296240	0.094460	0.618900
H311	H31	0.275200	0.083100	0.548500
C791	C79	0.339060	0.338330	0.774000
H321	H32	0.346800	0.318400	0.833800
C801	C80	0.483330	0.116260	0.717200
H331	H33	0.501100	0.094300	0.725700
C811	C81	0.591470	0.393260	0.619500
H341	H34	0.586200	0.412000	0.556000
C821	C82	0.535710	0.305790	0.684000
C831	C83	0.327000	0.257040	0.638900
H351	H35	0.302400	0.273100	0.624600
C841	C84	0.562520	0.363730	0.605100
H361	H36	0.537500	0.362500	0.532200
C851	C85	0.315060	0.396480	0.597800
H371	H37	0.306700	0.416100	0.537000
C861	C86	0.328750	0.101810	0.836600
H381	H38	0.330700	0.095100	0.918600
C871	C87	0.327530	0.218740	0.644800
H391	H39	0.303300	0.202600	0.635800
C881	C88	0.607660	0.337320	0.797400
H401	H40	0.614100	0.317700	0.858200
C891	C89	0.355790	0.129130	0.818600
H411	H41	0.375800	0.141500	0.888900
C901	C90	0.324250	0.121530	0.602500
H421	H42	0.322500	0.128200	0.520700
C911	C91	0.636410	0.367240	0.811100
H431	H43	0.662400	0.367900	0.881300
C921	C92	0.341260	0.366520	0.585700
H441	H44	0.350400	0.365800	0.515600
C931	C93	0.611240	0.099030	0.611600
H451	H45	0.618700	0.092100	0.541500
C941	C94	0.579530	0.126500	0.599400
H461	H46	0.565800	0.138200	0.521000
C951	C95	0.587300	0.118350	0.810300
H471	H47	0.578800	0.124300	0.879300
C961	C96	0.619230	0.091250	0.823000
H481	H48	0.632600	0.079000	0.900700
Na21	Na2	0.249230	0.422660	0.989460
Zn31	Zn3	0.036690	0.737570	0.293330
O191	O19	0.224990	0.542220	0.133700
O201	O20	0.262000	0.541550	0.334300
O211	O21	0.235920	0.931740	0.186800
O221	O22	0.232570	0.958230	0.357600
O231	O23	0.811970	0.540840	0.152300
O241	O24	0.824560	0.542100	0.353500
O251	O25	0.854260	0.957840	0.332300
O261	O26	0.808800	0.931600	0.163500
O271	O27	0.014600	0.744240	0.102500
N91	N9	0.039150	0.678950	0.307700
N101	N10	0.039910	0.795770	0.327000
N111	N11	0.978210	0.736540	0.323900
N121	N12	0.102960	0.737760	0.328200
C971	C97	0.231180	0.554070	0.243700
C981	C98	0.223740	0.930640	0.281900
C991	C99	0.201640	0.583740	0.264200
C1001	C100	0.198750	0.897500	0.300500
C1011	C101	0.128530	0.706540	0.332600
C1021	C102	0.833380	0.553400	0.260900
C1031	C103	0.872150	0.896200	0.276000
C1041	C104	0.004860	0.655310	0.299800
C1051	C105	0.842910	0.930180	0.256100
C1061	C106	0.868260	0.581930	0.277000
C1071	C107	0.072330	0.656070	0.298500
C1081	C108	0.145070	0.639290	0.297500
C1091	C109	0.953980	0.767600	0.330100
C1101	C110	0.004300	0.818540	0.311600
C1111	C111	0.932520	0.637090	0.302100
C1121	C112	0.187220	0.867940	0.213600
H491	H49	0.197400	0.868100	0.145600
C1131	C113	0.072280	0.819150	0.320600
C1141	C114	0.930630	0.835650	0.304400
C1151	C115	0.145600	0.837550	0.325900
C1161	C116	0.113890	0.668530	0.311700
C1171	C117	0.057340	0.616920	0.281400
H501	H50	0.073500	0.595500	0.271000
C1181	C118	0.954700	0.704850	0.331400
C1191	C119	0.965820	0.667180	0.312800
C1201	C120	0.056480	0.857840	0.297600
H511	H51	0.072600	0.879600	0.289300
C1211	C121	0.128950	0.769200	0.341400
C1221	C122	0.915590	0.716950	0.351600
H521	H52	0.894200	0.700700	0.363600
C1231	C123	0.014700	0.857350	0.290200
H531	H53	0.995600	0.878600	0.274000
C1241	C124	0.114530	0.807520	0.331400
C1251	C125	0.914930	0.754850	0.350200
H541	H54	0.892900	0.770700	0.360400
C1261	C126	0.203760	0.594460	0.381100
H551	H55	0.224800	0.583100	0.451500
C1271	C127	0.160940	0.838330	0.226000
H561	H56	0.153200	0.818400	0.166200
C1281	C128	0.016670	0.616260	0.282800
H571	H57	0.998900	0.594300	0.274300
C1291	C129	0.908530	0.893260	0.380500
H581	H58	0.913800	0.912000	0.444000
C1301	C130	0.964290	0.805790	0.316000
C1311	C131	0.173000	0.757040	0.361100
H591	H59	0.197600	0.773100	0.375400
C1321	C132	0.937480	0.863730	0.394900
H601	H60	0.962500	0.862500	0.467800
C1331	C133	0.184940	0.896480	0.402200
H611	H61	0.193300	0.916100	0.463000
C1341	C134	0.171250	0.601810	0.163400
H621	H62	0.169300	0.595100	0.081400
C1351	C135	0.172470	0.718740	0.355200
H631	H63	0.196700	0.702600	0.364200
C1361	C136	0.892340	0.837320	0.202600
H641	H64	0.885900	0.817700	0.141800
C1371	C137	0.144210	0.629130	0.181400
H651	H65	0.124200	0.641500	0.111100
C1381	C138	0.175750	0.621530	0.397500
H661	H66	0.177500	0.628200	0.479300
C1391	C139	0.863590	0.867240	0.188900
H671	H67	0.837600	0.867900	0.118700
C1401	C140	0.158740	0.866520	0.414300
H681	H68	0.149600	0.865800	0.484400
C1411	C141	0.888760	0.599030	0.388400
H691	H69	0.881300	0.592100	0.458500
C1421	C142	0.920470	0.626500	0.400600
H701	H70	0.934200	0.638200	0.479000
C1431	C143	0.912700	0.618350	0.189700
H711	H71	0.921200	0.624300	0.120700
C1441	C144	0.880770	0.591250	0.177000
H721	H72	0.867400	0.579000	0.099300
Na31	Na3	0.250770	0.922660	0.010540
Zn41	Zn4	0.536690	0.237570	0.293330
O281	O28	0.724990	0.042220	0.133700
O291	O29	0.762000	0.041550	0.334300
O301	O30	0.735920	0.431740	0.186800
O311	O31	0.732570	0.458230	0.357600
O321	O32	0.311970	0.040840	0.152300
O331	O33	0.324560	0.042100	0.353500
O341	O34	0.354260	0.457840	0.332300
O351	O35	0.308800	0.431600	0.163500
O361	O36	0.514600	0.244240	0.102500
N131	N13	0.539150	0.178950	0.307700
N141	N14	0.539910	0.295770	0.327000
N151	N15	0.478210	0.236540	0.323900
N161	N16	0.602960	0.237760	0.328200
C1451	C145	0.731180	0.054070	0.243700
C1461	C146	0.723740	0.430640	0.281900
C1471	C147	0.701640	0.083740	0.264200
C1481	C148	0.698750	0.397500	0.300500
C1491	C149	0.628530	0.206540	0.332600
C1501	C150	0.333380	0.053400	0.260900
C1511	C151	0.372150	0.396200	0.276000
C1521	C152	0.504860	0.155310	0.299800
C1531	C153	0.342910	0.430180	0.256100
C1541	C154	0.368260	0.081930	0.277000
C1551	C155	0.572330	0.156070	0.298500
C1561	C156	0.645070	0.139290	0.297500
C1571	C157	0.453980	0.267600	0.330100
C1581	C158	0.504300	0.318540	0.311600
C1591	C159	0.432520	0.137090	0.302100
C1601	C160	0.687220	0.367940	0.213600
H731	H73	0.697400	0.368100	0.145600
C1611	C161	0.572280	0.319150	0.320600
C1621	C162	0.430630	0.335650	0.304400
C1631	C163	0.645600	0.337550	0.325900
C1641	C164	0.613890	0.168530	0.311700
C1651	C165	0.557340	0.116920	0.281400
H741	H74	0.573500	0.095500	0.271000
C1661	C166	0.454700	0.204850	0.331400
C1671	C167	0.465820	0.167180	0.312800
C1681	C168	0.556480	0.357840	0.297600
H751	H75	0.572600	0.379600	0.289300
C1691	C169	0.628950	0.269200	0.341400
C1701	C170	0.415590	0.216950	0.351600
H761	H76	0.394200	0.200700	0.363600
C1711	C171	0.514700	0.357350	0.290200
H771	H77	0.495600	0.378600	0.274000
C1721	C172	0.614530	0.307520	0.331400
C1731	C173	0.414930	0.254850	0.350200
H781	H78	0.392900	0.270700	0.360400
C1741	C174	0.703760	0.094460	0.381100
H791	H79	0.724800	0.083100	0.451500
C1751	C175	0.660940	0.338330	0.226000
H801	H80	0.653200	0.318400	0.166200
C1761	C176	0.516670	0.116260	0.282800
H811	H81	0.498900	0.094300	0.274300
C1771	C177	0.408530	0.393260	0.380500
H821	H82	0.413800	0.412000	0.444000
C1781	C178	0.464290	0.305790	0.316000
C1791	C179	0.673000	0.257040	0.361100
H831	H83	0.697600	0.273100	0.375400
C1801	C180	0.437480	0.363730	0.394900
H841	H84	0.462500	0.362500	0.467800
C1811	C181	0.684940	0.396480	0.402200
H851	H85	0.693300	0.416100	0.463000
C1821	C182	0.671250	0.101810	0.163400
H861	H86	0.669300	0.095100	0.081400
C1831	C183	0.672470	0.218740	0.355200
H871	H87	0.696700	0.202600	0.364200
C1841	C184	0.392340	0.337320	0.202600
H881	H88	0.385900	0.317700	0.141800
C1851	C185	0.644210	0.129130	0.181400
H891	H89	0.624200	0.141500	0.111100
C1861	C186	0.675750	0.121530	0.397500
H901	H90	0.677500	0.128200	0.479300
C1871	C187	0.363590	0.367240	0.188900
H911	H91	0.337600	0.367900	0.118700
C1881	C188	0.658740	0.366520	0.414300
H921	H92	0.649600	0.365800	0.484400
C1891	C189	0.388760	0.099030	0.388400
H931	H93	0.381300	0.092100	0.458500
C1901	C190	0.420470	0.126500	0.400600
H941	H94	0.434200	0.138200	0.479000
C1911	C191	0.412700	0.118350	0.189700
H951	H95	0.421200	0.124300	0.120700
C1921	C192	0.380770	0.091250	0.177000
H961	H96	0.367400	0.079000	0.099300
Na41	Na4	0.750770	0.422660	0.010540
Zn51	Zn5	0.036690	0.262430	0.293330
O371	O37	0.224990	0.457780	0.133700
O381	O38	0.262000	0.458450	0.334300
O391	O39	0.235920	0.068260	0.186800
O401	O40	0.232570	0.041770	0.357600
O411	O41	0.811970	0.459160	0.152300
O421	O42	0.824560	0.457900	0.353500
O431	O43	0.854260	0.042160	0.332300
O441	O44	0.808800	0.068400	0.163500
O451	O45	0.014600	0.255760	0.102500
N171	N17	0.039150	0.321050	0.307700
N181	N18	0.039910	0.204230	0.327000
N191	N19	0.978210	0.263460	0.323900
N201	N20	0.102960	0.262240	0.328200
C1931	C193	0.231180	0.445930	0.243700
C1941	C194	0.223740	0.069360	0.281900
C1951	C195	0.201640	0.416260	0.264200
C1961	C196	0.198750	0.102500	0.300500
C1971	C197	0.128530	0.293460	0.332600
C1981	C198	0.833380	0.446600	0.260900
C1991	C199	0.872150	0.103800	0.276000
C2001	C200	0.004860	0.344690	0.299800
C2011	C201	0.842910	0.069820	0.256100
C2021	C202	0.868260	0.418070	0.277000
C2031	C203	0.072330	0.343930	0.298500
C2041	C204	0.145070	0.360710	0.297500
C2051	C205	0.953980	0.232400	0.330100
C2061	C206	0.004300	0.181460	0.311600
C2071	C207	0.932520	0.362910	0.302100
C2081	C208	0.187220	0.132060	0.213600
H971	H97	0.197400	0.131900	0.145600
C2091	C209	0.072280	0.180850	0.320600
C2101	C210	0.930630	0.164350	0.304400
C2111	C211	0.145600	0.162450	0.325900
C2121	C212	0.113890	0.331470	0.311700
C2131	C213	0.057340	0.383080	0.281400
H981	H98	0.073500	0.404500	0.271000
C2141	C214	0.954700	0.295150	0.331400
C2151	C215	0.965820	0.332820	0.312800
C2161	C216	0.056480	0.142160	0.297600
H991	H99	0.072600	0.120400	0.289300
C2171	C217	0.128950	0.230800	0.341400
C2181	C218	0.915590	0.283050	0.351600
H1001	H100	0.894200	0.299300	0.363600
C2191	C219	0.014700	0.142650	0.290200
H1011	H101	0.995600	0.121400	0.274000
C2201	C220	0.114530	0.192480	0.331400
C2211	C221	0.914930	0.245150	0.350200
H1021	H102	0.892900	0.229300	0.360400
C2221	C222	0.203760	0.405540	0.381100
H1031	H103	0.224800	0.416900	0.451500
C2231	C223	0.160940	0.161670	0.226000
H1041	H104	0.153200	0.181600	0.166200
C2241	C224	0.016670	0.383740	0.282800
H1051	H105	0.998900	0.405700	0.274300
C2251	C225	0.908530	0.106740	0.380500
H1061	H106	0.913800	0.088000	0.444000
C2261	C226	0.964290	0.194210	0.316000
C2271	C227	0.173000	0.242960	0.361100
H1071	H107	0.197600	0.226900	0.375400
C2281	C228	0.937480	0.136270	0.394900
H1081	H108	0.962500	0.137500	0.467800
C2291	C229	0.184940	0.103520	0.402200
H1091	H109	0.193300	0.083900	0.463000
C2301	C230	0.171250	0.398190	0.163400
H1101	H110	0.169300	0.404900	0.081400
C2311	C231	0.172470	0.281260	0.355200
H1111	H111	0.196700	0.297400	0.364200
C2321	C232	0.892340	0.162680	0.202600
H1121	H112	0.885900	0.182300	0.141800
C2331	C233	0.144210	0.370870	0.181400
H1131	H113	0.124200	0.358500	0.111100
C2341	C234	0.175750	0.378470	0.397500
H1141	H114	0.177500	0.371800	0.479300
C2351	C235	0.863590	0.132760	0.188900
H1151	H115	0.837600	0.132100	0.118700
C2361	C236	0.158740	0.133480	0.414300
H1161	H116	0.149600	0.134200	0.484400
C2371	C237	0.888760	0.400970	0.388400
H1171	H117	0.881300	0.407900	0.458500
C2381	C238	0.920470	0.373500	0.400600
H1181	H118	0.934200	0.361800	0.479000
C2391	C239	0.912700	0.381650	0.189700
H1191	H119	0.921200	0.375700	0.120700
C2401	C240	0.880770	0.408750	0.177000
H1201	H120	0.867400	0.421000	0.099300
Na51	Na5	0.250770	0.077340	0.010540
Zn61	Zn6	0.536690	0.762430	0.293330
O461	O46	0.724990	0.957780	0.133700
O471	O47	0.762000	0.958450	0.334300
O481	O48	0.735920	0.568260	0.186800
O491	O49	0.732570	0.541770	0.357600
O501	O50	0.311970	0.959160	0.152300
O511	O51	0.324560	0.957900	0.353500
O521	O52	0.354260	0.542160	0.332300
O531	O53	0.308800	0.568400	0.163500
O541	O54	0.514600	0.755760	0.102500
N211	N21	0.539150	0.821050	0.307700
N221	N22	0.539910	0.704230	0.327000
N231	N23	0.478210	0.763460	0.323900
N241	N24	0.602960	0.762240	0.328200
C2411	C241	0.731180	0.945930	0.243700
C2421	C242	0.723740	0.569360	0.281900
C2431	C243	0.701640	0.916260	0.264200
C2441	C244	0.698750	0.602500	0.300500
C2451	C245	0.628530	0.793460	0.332600
C2461	C246	0.333380	0.946600	0.260900
C2471	C247	0.372150	0.603800	0.276000
C2481	C248	0.504860	0.844690	0.299800
C2491	C249	0.342910	0.569820	0.256100
C2501	C250	0.368260	0.918070	0.277000
C2511	C251	0.572330	0.843930	0.298500
C2521	C252	0.645070	0.860710	0.297500
C2531	C253	0.453980	0.732400	0.330100
C2541	C254	0.504300	0.681460	0.311600
C2551	C255	0.432520	0.862910	0.302100
C2561	C256	0.687220	0.632060	0.213600
H1211	H121	0.697400	0.631900	0.145600
C2571	C257	0.572280	0.680850	0.320600
C2581	C258	0.430630	0.664350	0.304400
C2591	C259	0.645600	0.662450	0.325900
C2601	C260	0.613890	0.831470	0.311700
C2611	C261	0.557340	0.883080	0.281400
H1221	H122	0.573500	0.904500	0.271000
C2621	C262	0.454700	0.795150	0.331400
C2631	C263	0.465820	0.832820	0.312800
C2641	C264	0.556480	0.642160	0.297600
H1231	H123	0.572600	0.620400	0.289300
C2651	C265	0.628950	0.730800	0.341400
C2661	C266	0.415590	0.783050	0.351600
H1241	H124	0.394200	0.799300	0.363600
C2671	C267	0.514700	0.642650	0.290200
H1251	H125	0.495600	0.621400	0.274000
C2681	C268	0.614530	0.692480	0.331400
C2691	C269	0.414930	0.745150	0.350200
H1261	H126	0.392900	0.729300	0.360400
C2701	C270	0.703760	0.905540	0.381100
H1271	H127	0.724800	0.916900	0.451500
C2711	C271	0.660940	0.661670	0.226000
H1281	H128	0.653200	0.681600	0.166200
C2721	C272	0.516670	0.883740	0.282800
H1291	H129	0.498900	0.905700	0.274300
C2731	C273	0.408530	0.606740	0.380500
H1301	H130	0.413800	0.588000	0.444000
C2741	C274	0.464290	0.694210	0.316000
C2751	C275	0.673000	0.742960	0.361100
H1311	H131	0.697600	0.726900	0.375400
C2761	C276	0.437480	0.636270	0.394900
H1321	H132	0.462500	0.637500	0.467800
C2771	C277	0.684940	0.603520	0.402200
H1331	H133	0.693300	0.583900	0.463000
C2781	C278	0.671250	0.898190	0.163400
H1341	H134	0.669300	0.904900	0.081400
C2791	C279	0.672470	0.781260	0.355200
H1351	H135	0.696700	0.797400	0.364200
C2801	C280	0.392340	0.662680	0.202600
H1361	H136	0.385900	0.682300	0.141800
C2811	C281	0.644210	0.870870	0.181400
H1371	H137	0.624200	0.858500	0.111100
C2821	C282	0.675750	0.878470	0.397500
H1381	H138	0.677500	0.871800	0.479300
C2831	C283	0.363590	0.632760	0.188900
H1391	H139	0.337600	0.632100	0.118700
C2841	C284	0.658740	0.633480	0.414300
H1401	H140	0.649600	0.634200	0.484400
C2851	C285	0.388760	0.900970	0.388400
H1411	H141	0.381300	0.907900	0.458500
C2861	C286	0.420470	0.873500	0.400600
H1421	H142	0.434200	0.861800	0.479000
C2871	C287	0.412700	0.881650	0.189700
H1431	H143	0.421200	0.875700	0.120700
C2881	C288	0.380770	0.908750	0.177000
H1441	H144	0.367400	0.921000	0.099300
Na61	Na6	0.750770	0.577340	0.010540
Zn71	Zn7	0.963310	0.262430	0.706670
O551	O55	0.775010	0.457780	0.866300
O561	O56	0.738000	0.458450	0.665700
O571	O57	0.764080	0.068260	0.813200
O581	O58	0.767430	0.041770	0.642400
O591	O59	0.188030	0.459160	0.847700
O601	O60	0.175440	0.457900	0.646500
O611	O61	0.145740	0.042160	0.667700
O621	O62	0.191200	0.068400	0.836500
O631	O63	0.985400	0.255760	0.897500
N251	N25	0.960850	0.321050	0.692300
N261	N26	0.960090	0.204230	0.673000
N271	N27	0.021790	0.263460	0.676100
N281	N28	0.897040	0.262240	0.671800
C2891	C289	0.768820	0.445930	0.756300
C2901	C290	0.776260	0.069360	0.718100
C2911	C291	0.798360	0.416260	0.735800
C2921	C292	0.801250	0.102500	0.699500
C2931	C293	0.871470	0.293460	0.667400
C2941	C294	0.166620	0.446600	0.739100
C2951	C295	0.127850	0.103800	0.724000
C2961	C296	0.995140	0.344690	0.700200
C2971	C297	0.157090	0.069820	0.743900
C2981	C298	0.131740	0.418070	0.723000
C2991	C299	0.927670	0.343930	0.701500
C3001	C300	0.854930	0.360710	0.702500
C3011	C301	0.046020	0.232400	0.669900
C3021	C302	0.995700	0.181460	0.688400
C3031	C303	0.067480	0.362910	0.697900
C3041	C304	0.812780	0.132060	0.786400
H1451	H145	0.802600	0.131900	0.854400
C3051	C305	0.927720	0.180850	0.679400
C3061	C306	0.069370	0.164350	0.695600
C3071	C307	0.854400	0.162450	0.674100
C3081	C308	0.886110	0.331470	0.688300
C3091	C309	0.942660	0.383080	0.718600
H1461	H146	0.926500	0.404500	0.729000
C3101	C310	0.045300	0.295150	0.668600
C3111	C311	0.034180	0.332820	0.687200
C3121	C312	0.943520	0.142160	0.702400
H1471	H147	0.927400	0.120400	0.710700
C3131	C313	0.871050	0.230800	0.658600
C3141	C314	0.084410	0.283050	0.648400
H1481	H148	0.105800	0.299300	0.636400
C3151	C315	0.985300	0.142650	0.709800
H1491	H149	0.004400	0.121400	0.726000
C3161	C316	0.885470	0.192480	0.668600
C3171	C317	0.085070	0.245150	0.649800
H1501	H150	0.107100	0.229300	0.639600
C3181	C318	0.796240	0.405540	0.618900
H1511	H151	0.775200	0.416900	0.548500
C3191	C319	0.839060	0.161670	0.774000
H1521	H152	0.846800	0.181600	0.833800
C3201	C320	0.983330	0.383740	0.717200
H1531	H153	0.001100	0.405700	0.725700
C3211	C321	0.091470	0.106740	0.619500
H1541	H154	0.086200	0.088000	0.556000
C3221	C322	0.035710	0.194210	0.684000
C3231	C323	0.827000	0.242960	0.638900
H1551	H155	0.802400	0.226900	0.624600
C3241	C324	0.062520	0.136270	0.605100
H1561	H156	0.037500	0.137500	0.532200
C3251	C325	0.815060	0.103520	0.597800
H1571	H157	0.806700	0.083900	0.537000
C3261	C326	0.828750	0.398190	0.836600
H1581	H158	0.830700	0.404900	0.918600
C3271	C327	0.827530	0.281260	0.644800
H1591	H159	0.803300	0.297400	0.635800
C3281	C328	0.107660	0.162680	0.797400
H1601	H160	0.114100	0.182300	0.858200
C3291	C329	0.855790	0.370870	0.818600
H1611	H161	0.875800	0.358500	0.888900
C3301	C330	0.824250	0.378470	0.602500
H1621	H162	0.822500	0.371800	0.520700
C3311	C331	0.136410	0.132760	0.811100
H1631	H163	0.162400	0.132100	0.881300
C3321	C332	0.841260	0.133480	0.585700
H1641	H164	0.850400	0.134200	0.515600
C3331	C333	0.111240	0.400970	0.611600
H1651	H165	0.118700	0.407900	0.541500
C3341	C334	0.079530	0.373500	0.599400
H1661	H166	0.065800	0.361800	0.521000
C3351	C335	0.087300	0.381650	0.810300
H1671	H167	0.078800	0.375700	0.879300
C3361	C336	0.119230	0.408750	0.823000
H1681	H168	0.132600	0.421000	0.900700
Na71	Na7	0.749230	0.077340	0.989460
Zn81	Zn8	0.463310	0.762430	0.706670
O641	O64	0.275010	0.957780	0.866300
O651	O65	0.238000	0.958450	0.665700
O661	O66	0.264080	0.568260	0.813200
O671	O67	0.267430	0.541770	0.642400
O681	O68	0.688030	0.959160	0.847700
O691	O69	0.675440	0.957900	0.646500
O701	O70	0.645740	0.542160	0.667700
O711	O71	0.691200	0.568400	0.836500
O721	O72	0.485400	0.755760	0.897500
N291	N29	0.460850	0.821050	0.692300
N301	N30	0.460090	0.704230	0.673000
N311	N31	0.521790	0.763460	0.676100
N321	N32	0.397040	0.762240	0.671800
C3371	C337	0.268820	0.945930	0.756300
C3381	C338	0.276260	0.569360	0.718100
C3391	C339	0.298360	0.916260	0.735800
C3401	C340	0.301250	0.602500	0.699500
C3411	C341	0.371470	0.793460	0.667400
C3421	C342	0.666620	0.946600	0.739100
C3431	C343	0.627850	0.603800	0.724000
C3441	C344	0.495140	0.844690	0.700200
C3451	C345	0.657090	0.569820	0.743900
C3461	C346	0.631740	0.918070	0.723000
C3471	C347	0.427670	0.843930	0.701500
C3481	C348	0.354930	0.860710	0.702500
C3491	C349	0.546020	0.732400	0.669900
C3501	C350	0.495700	0.681460	0.688400
C3511	C351	0.567480	0.862910	0.697900
C3521	C352	0.312780	0.632060	0.786400
H1691	H169	0.302600	0.631900	0.854400
C3531	C353	0.427720	0.680850	0.679400
C3541	C354	0.569370	0.664350	0.695600
C3551	C355	0.354400	0.662450	0.674100
C3561	C356	0.386110	0.831470	0.688300
C3571	C357	0.442660	0.883080	0.718600
H1701	H170	0.426500	0.904500	0.729000
C3581	C358	0.545300	0.795150	0.668600
C3591	C359	0.534180	0.832820	0.687200
C3601	C360	0.443520	0.642160	0.702400
H1711	H171	0.427400	0.620400	0.710700
C3611	C361	0.371050	0.730800	0.658600
C3621	C362	0.584410	0.783050	0.648400
H1721	H172	0.605800	0.799300	0.636400
C3631	C363	0.485300	0.642650	0.709800
H1731	H173	0.504400	0.621400	0.726000
C3641	C364	0.385470	0.692480	0.668600
C3651	C365	0.585070	0.745150	0.649800
H1741	H174	0.607100	0.729300	0.639600
C3661	C366	0.296240	0.905540	0.618900
H1751	H175	0.275200	0.916900	0.548500
C3671	C367	0.339060	0.661670	0.774000
H1761	H176	0.346800	0.681600	0.833800
C3681	C368	0.483330	0.883740	0.717200
H1771	H177	0.501100	0.905700	0.725700
C3691	C369	0.591470	0.606740	0.619500
H1781	H178	0.586200	0.588000	0.556000
C3701	C370	0.535710	0.694210	0.684000
C3711	C371	0.327000	0.742960	0.638900
H1791	H179	0.302400	0.726900	0.624600
C3721	C372	0.562520	0.636270	0.605100
H1801	H180	0.537500	0.637500	0.532200
C3731	C373	0.315060	0.603520	0.597800
H1811	H181	0.306700	0.583900	0.537000
C3741	C374	0.328750	0.898190	0.836600
H1821	H182	0.330700	0.904900	0.918600
C3751	C375	0.327530	0.781260	0.644800
H1831	H183	0.303300	0.797400	0.635800
C3761	C376	0.607660	0.662680	0.797400
H1841	H184	0.614100	0.682300	0.858200
C3771	C377	0.355790	0.870870	0.818600
H1851	H185	0.375800	0.858500	0.888900
C3781	C378	0.324250	0.878470	0.602500
H1861	H186	0.322500	0.871800	0.520700
C3791	C379	0.636410	0.632760	0.811100
H1871	H187	0.662400	0.632100	0.881300
C3801	C380	0.341260	0.633480	0.585700
H1881	H188	0.350400	0.634200	0.515600
C3811	C381	0.611240	0.900970	0.611600
H1891	H189	0.618700	0.907900	0.541500
C3821	C382	0.579530	0.873500	0.599400
H1901	H190	0.565800	0.861800	0.521000
C3831	C383	0.587300	0.881650	0.810300
H1911	H191	0.578800	0.875700	0.879300
C3841	C384	0.619230	0.908750	0.823000
H1921	H192	0.632600	0.921000	0.900700
Na81	Na8	0.249230	0.577340	0.989460
Sm11	Sm1	0.205380	0.000000	0.788870
Sm21	Sm2	0.262710	0.000000	0.233850
O731	O73	0.182640	0.000000	0.120400
O741	O74	0.156030	0.000000	0.910800
O751	O75	0.226630	0.000000	0.010800
N331	N33	0.186250	0.000000	0.014000
Na91	Na9	0.768100	0.000000	0.494520
Sm31	Sm3	0.705380	0.500000	0.788870
Sm41	Sm4	0.762710	0.500000	0.233850
O761	O76	0.682640	0.500000	0.120400
O771	O77	0.656030	0.500000	0.910800
O781	O78	0.726630	0.500000	0.010800
N341	N34	0.686250	0.500000	0.014000
Na101	Na10	0.268100	0.500000	0.494520
Sm51	Sm5	0.794620	0.000000	0.211130
Sm61	Sm6	0.737290	0.000000	0.766150
O791	O79	0.817360	0.000000	0.879600
O801	O80	0.843970	0.000000	0.089200
O811	O81	0.773370	0.000000	0.989200
N351	N35	0.813750	0.000000	0.986000
Na111	Na11	0.231900	0.000000	0.505480
Sm71	Sm7	0.294620	0.500000	0.211130
Sm81	Sm8	0.237290	0.500000	0.766150
O821	O82	0.317360	0.500000	0.879600
O831	O83	0.343970	0.500000	0.089200
O841	O84	0.273370	0.500000	0.989200
N361	N36	0.313750	0.500000	0.986000
Na121	Na12	0.731900	0.500000	0.505480
C3851	C385	0.000000	0.735600	0.000000
C3861	C386	0.500000	0.235600	0.000000
C3871	C387	0.000000	0.264400	0.000000
C3881	C388	0.500000	0.764400	0.000000
Na131	Na13	0.824280	0.500000	0.003710
Na141	Na14	0.324280	0.000000	0.003710
Na151	Na15	0.175720	0.500000	0.996290
Na161	Na16	0.675720	0.000000	0.996290
