data_DONKIC_clean_PM
_symmetry_space_group_name_H-M	'P1'
_cell_length_a	16.719000
_cell_length_b	16.719000
_cell_length_c	24.598000
_cell_angle_alpha	90.000000
_cell_angle_beta	90.000000
_cell_angle_gamma	120.000000
_symmetry_Int_Tables_number 1

loop_
_symmetry_equiv_pos_as_xyz
'x,y,z'

loop_
_atom_site_label
_atom_site_type_symbol
_atom_site_fract_x
_atom_site_fract_y
_atom_site_fract_z
Co11	Co1	0.407880	0.684020	0.749450
Co21	Co2	0.491820	0.254820	0.468620
C11	C1	0.045600	0.828400	0.559500
H11	H1	0.099800	0.831700	0.544000
H21	H2	0.051300	0.832300	0.598400
H31	H3	0.038800	0.878600	0.546100
C21	C2	0.960600	0.736600	0.543600
H41	H4	0.968700	0.687300	0.559400
C31	C3	0.872100	0.725400	0.566200
C41	C4	0.864200	0.791500	0.595140
H51	H5	0.917700	0.847700	0.601200
C51	C5	0.782100	0.780100	0.616000
C61	C6	0.702700	0.695300	0.608450
C71	C7	0.705500	0.625500	0.578300
H61	H6	0.651900	0.569200	0.572500
C81	C8	0.788100	0.641600	0.557500
C91	C9	0.730000	0.529800	0.487100
H71	H7	0.762000	0.533400	0.453600
H81	H8	0.695800	0.562000	0.481500
C101	C10	0.662800	0.429800	0.499700
C111	C11	0.543500	0.595800	0.631700
H91	H9	0.559900	0.550400	0.643500
H101	H10	0.520000	0.580400	0.594800
C121	C12	0.468900	0.590800	0.668170
C131	C13	0.777800	0.858400	0.645700
H111	H11	0.732700	0.830100	0.675100
C141	C14	0.867800	0.928500	0.671300
H121	H12	0.859900	0.975100	0.689200
H131	H13	0.914200	0.956700	0.643600
H141	H14	0.886700	0.898400	0.697300
C151	C15	0.742000	0.906700	0.607800
C161	C16	0.698100	0.950500	0.629300
C171	C17	0.668100	0.998600	0.597700
H151	H15	0.640000	0.028700	0.613600
C181	C18	0.680400	0.001600	0.542200
C191	C19	0.724100	0.956700	0.518200
C201	C20	0.753700	0.911100	0.551900
H161	H16	0.783000	0.881800	0.536400
C211	C21	0.598100	0.881700	0.701800
H171	H17	0.582700	0.823700	0.684300
H181	H18	0.552800	0.898600	0.690800
C221	C22	0.596500	0.870800	0.763600
C231	C23	0.609500	0.092000	0.531200
H191	H19	0.649600	0.133600	0.559200
H201	H20	0.551900	0.047300	0.548200
C241	C24	0.591100	0.145900	0.489200
O11	O1	0.796200	0.575100	0.529050
O21	O2	0.603500	0.387200	0.463520
O31	O3	0.672600	0.398800	0.543920
O41	O4	0.623800	0.684700	0.632000
O51	O5	0.490700	0.652400	0.703540
O61	O6	0.390600	0.522700	0.661840
O71	O7	0.687000	0.950900	0.685650
O81	O8	0.655800	0.930700	0.790560
O91	O9	0.526400	0.800800	0.782770
O101	O10	0.651700	0.045900	0.507110
O111	O11	0.569000	0.203100	0.508520
O121	O12	0.596300	0.134000	0.440700
Co31	Co3	0.315980	0.723860	0.082780
Co41	Co4	0.745180	0.237000	0.801950
C251	C25	0.171600	0.217200	0.892830
H211	H21	0.168300	0.268100	0.877330
H221	H22	0.167700	0.219000	0.931730
H231	H23	0.121400	0.160200	0.879430
C261	C26	0.263400	0.224000	0.876930
H241	H24	0.312700	0.281400	0.892730
C271	C27	0.274600	0.146700	0.899530
C281	C28	0.208500	0.072700	0.928470
H251	H25	0.152300	0.070000	0.934530
C291	C29	0.219900	0.002000	0.949330
C301	C30	0.304700	0.007400	0.941780
C311	C31	0.374500	0.080000	0.911630
H261	H26	0.430800	0.082700	0.905830
C321	C32	0.358400	0.146500	0.890830
C331	C33	0.470200	0.200200	0.820430
H271	H27	0.466600	0.228600	0.786930
H281	H28	0.438000	0.133800	0.814830
C341	C34	0.570200	0.233000	0.833030
C351	C35	0.404200	0.947700	0.965030
H291	H29	0.449600	0.009500	0.976830
H301	H30	0.419600	0.939600	0.928130
C361	C36	0.409200	0.878100	0.001500
C371	C37	0.141600	0.919400	0.979030
H311	H31	0.169900	0.902600	0.008430
C381	C38	0.071500	0.939300	0.004630
H321	H32	0.024900	0.884800	0.022530
H331	H33	0.043300	0.957500	0.976930
H341	H34	0.101600	0.988300	0.030630
C391	C39	0.093300	0.835300	0.941130
C401	C40	0.049500	0.747600	0.962630
C411	C41	0.001400	0.669500	0.931030
H351	H35	0.971300	0.611300	0.946930
C421	C42	0.998400	0.678800	0.875530
C431	C43	0.043300	0.767400	0.851530
C441	C44	0.088900	0.842600	0.885230
H361	H36	0.118200	0.901200	0.869730
C451	C45	0.118300	0.716400	0.035130
H371	H37	0.176300	0.759000	0.017630
H381	H38	0.101400	0.654200	0.024130
C461	C46	0.129200	0.725700	0.096930
C471	C47	0.908000	0.517500	0.864530
H391	H39	0.866400	0.516000	0.892530
H401	H40	0.952700	0.504600	0.881530
C481	C48	0.854100	0.445200	0.822530
O131	O13	0.424900	0.221100	0.862380
O141	O14	0.612800	0.216300	0.796850
O151	O15	0.601200	0.273800	0.877250
O161	O16	0.315300	0.939100	0.965330
O171	O17	0.347600	0.838300	0.036870
O181	O18	0.477300	0.867900	0.995170
O191	O19	0.049100	0.736100	0.018980
O201	O20	0.069300	0.725100	0.123890
O211	O21	0.199200	0.725600	0.116100
O221	O22	0.954100	0.605800	0.840440
O231	O23	0.796900	0.365900	0.841850
O241	O24	0.866000	0.462300	0.774030
Co51	Co5	0.276140	0.592120	0.416120
Co61	Co6	0.763000	0.508180	0.135290
C491	C49	0.782800	0.954400	0.226170
H411	H41	0.731900	0.900200	0.210670
H421	H42	0.781000	0.948700	0.265070
H431	H43	0.839800	0.961200	0.212770
C501	C50	0.776000	0.039400	0.210270
H441	H44	0.718600	0.031300	0.226070
C511	C51	0.853300	0.127900	0.232870
C521	C52	0.927300	0.135800	0.261810
H451	H45	0.930000	0.082300	0.267870
C531	C53	0.998000	0.217900	0.282670
C541	C54	0.992600	0.297300	0.275120
C551	C55	0.920000	0.294500	0.244970
H461	H46	0.917300	0.348100	0.239170
C561	C56	0.853500	0.211900	0.224170
C571	C57	0.799800	0.270000	0.153770
H471	H47	0.771400	0.238000	0.120270
H481	H48	0.866200	0.304200	0.148170
C581	C58	0.767000	0.337200	0.166370
C591	C59	0.052300	0.456500	0.298370
H491	H49	0.990500	0.440100	0.310170
H501	H50	0.060400	0.480000	0.261470
C601	C60	0.121900	0.531100	0.334840
C611	C61	0.080600	0.222200	0.312370
H511	H51	0.097400	0.267300	0.341770
C621	C62	0.060700	0.132200	0.337970
H521	H52	0.115200	0.140100	0.355870
H531	H53	0.042500	0.085800	0.310270
H541	H54	0.011700	0.113300	0.363970
C631	C63	0.164700	0.258000	0.274470
C641	C64	0.252400	0.301900	0.295970
C651	C65	0.330500	0.331900	0.264370
H551	H55	0.388700	0.360000	0.280270
C661	C66	0.321200	0.319600	0.208870
C671	C67	0.232600	0.275900	0.184870
C681	C68	0.157400	0.246300	0.218570
H561	H56	0.098800	0.217000	0.203070
C691	C69	0.283600	0.401900	0.368470
H571	H57	0.241000	0.417300	0.350970
H581	H58	0.345800	0.447200	0.357470
C701	C70	0.274300	0.403500	0.430270
C711	C71	0.482500	0.390500	0.197870
H591	H59	0.484000	0.350400	0.225870
H601	H60	0.495400	0.448100	0.214870
C721	C72	0.554800	0.408900	0.155870
O251	O25	0.778900	0.203800	0.195720
O261	O26	0.783700	0.396500	0.130190
O271	O27	0.726200	0.327400	0.210590
O281	O28	0.060900	0.376200	0.298670
O291	O29	0.161700	0.509300	0.370210
O301	O30	0.132100	0.609400	0.328510
O311	O31	0.263900	0.313000	0.352320
O321	O32	0.274900	0.344200	0.457230
O331	O33	0.274400	0.473600	0.449440
O341	O34	0.394200	0.348300	0.173780
O351	O35	0.634100	0.431000	0.175190
O361	O36	0.537700	0.403700	0.107370
Co71	Co7	0.684020	0.407880	0.250550
Co81	Co8	0.254820	0.491820	0.531380
C731	C73	0.828400	0.045600	0.440500
H611	H61	0.831700	0.099800	0.456000
H621	H62	0.832300	0.051300	0.401600
H631	H63	0.878600	0.038800	0.453900
C741	C74	0.736600	0.960600	0.456400
H641	H64	0.687300	0.968700	0.440600
C751	C75	0.725400	0.872100	0.433800
C761	C76	0.791500	0.864200	0.404860
H651	H65	0.847700	0.917700	0.398800
C771	C77	0.780100	0.782100	0.384000
C781	C78	0.695300	0.702700	0.391550
C791	C79	0.625500	0.705500	0.421700
H661	H66	0.569200	0.651900	0.427500
C801	C80	0.641600	0.788100	0.442500
C811	C81	0.529800	0.730000	0.512900
H671	H67	0.533400	0.762000	0.546400
H681	H68	0.562000	0.695800	0.518500
C821	C82	0.429800	0.662800	0.500300
C831	C83	0.595800	0.543500	0.368300
H691	H69	0.550400	0.559900	0.356500
H701	H70	0.580400	0.520000	0.405200
C841	C84	0.590800	0.468900	0.331830
C851	C85	0.858400	0.777800	0.354300
H711	H71	0.830100	0.732700	0.324900
C861	C86	0.928500	0.867800	0.328700
H721	H72	0.975100	0.859900	0.310800
H731	H73	0.956700	0.914200	0.356400
H741	H74	0.898400	0.886700	0.302700
C871	C87	0.906700	0.742000	0.392200
C881	C88	0.950500	0.698100	0.370700
C891	C89	0.998600	0.668100	0.402300
H751	H75	0.028700	0.640000	0.386400
C901	C90	0.001600	0.680400	0.457800
C911	C91	0.956700	0.724100	0.481800
C921	C92	0.911100	0.753700	0.448100
H761	H76	0.881800	0.783000	0.463600
C931	C93	0.881700	0.598100	0.298200
H771	H77	0.823700	0.582700	0.315700
H781	H78	0.898600	0.552800	0.309200
C941	C94	0.870800	0.596500	0.236400
C951	C95	0.092000	0.609500	0.468800
H791	H79	0.133600	0.649600	0.440800
H801	H80	0.047300	0.551900	0.451800
C961	C96	0.145900	0.591100	0.510800
O371	O37	0.575100	0.796200	0.470950
O381	O38	0.387200	0.603500	0.536480
O391	O39	0.398800	0.672600	0.456080
O401	O40	0.684700	0.623800	0.368000
O411	O41	0.652400	0.490700	0.296460
O421	O42	0.522700	0.390600	0.338160
O431	O43	0.950900	0.687000	0.314350
O441	O44	0.930700	0.655800	0.209440
O451	O45	0.800800	0.526400	0.217230
O461	O46	0.045900	0.651700	0.492890
O471	O47	0.203100	0.569000	0.491480
O481	O48	0.134000	0.596300	0.559300
Co91	Co9	0.723860	0.315980	0.917220
Co101	Co10	0.237000	0.745180	0.198050
C971	C97	0.217200	0.171600	0.107170
H811	H81	0.268100	0.168300	0.122670
H821	H82	0.219000	0.167700	0.068270
H831	H83	0.160200	0.121400	0.120570
C981	C98	0.224000	0.263400	0.123070
H841	H84	0.281400	0.312700	0.107270
C991	C99	0.146700	0.274600	0.100470
C1001	C100	0.072700	0.208500	0.071530
H851	H85	0.070000	0.152300	0.065470
C1011	C101	0.002000	0.219900	0.050670
C1021	C102	0.007400	0.304700	0.058220
C1031	C103	0.080000	0.374500	0.088370
H861	H86	0.082700	0.430800	0.094170
C1041	C104	0.146500	0.358400	0.109170
C1051	C105	0.200200	0.470200	0.179570
H871	H87	0.228600	0.466600	0.213070
H881	H88	0.133800	0.438000	0.185170
C1061	C106	0.233000	0.570200	0.166970
C1071	C107	0.947700	0.404200	0.034970
H891	H89	0.009500	0.449600	0.023170
H901	H90	0.939600	0.419600	0.071870
C1081	C108	0.878100	0.409200	0.998500
C1091	C109	0.919400	0.141600	0.020970
H911	H91	0.902600	0.169900	0.991570
C1101	C110	0.939300	0.071500	0.995370
H921	H92	0.884800	0.024900	0.977470
H931	H93	0.957500	0.043300	0.023070
H941	H94	0.988300	0.101600	0.969370
C1111	C111	0.835300	0.093300	0.058870
C1121	C112	0.747600	0.049500	0.037370
C1131	C113	0.669500	0.001400	0.068970
H951	H95	0.611300	0.971300	0.053070
C1141	C114	0.678800	0.998400	0.124470
C1151	C115	0.767400	0.043300	0.148470
C1161	C116	0.842600	0.088900	0.114770
H961	H96	0.901200	0.118200	0.130270
C1171	C117	0.716400	0.118300	0.964870
H971	H97	0.759000	0.176300	0.982370
H981	H98	0.654200	0.101400	0.975870
C1181	C118	0.725700	0.129200	0.903070
C1191	C119	0.517500	0.908000	0.135470
H991	H99	0.516000	0.866400	0.107470
H1001	H100	0.504600	0.952700	0.118470
C1201	C120	0.445200	0.854100	0.177470
O491	O49	0.221100	0.424900	0.137620
O501	O50	0.216300	0.612800	0.203150
O511	O51	0.273800	0.601200	0.122750
O521	O52	0.939100	0.315300	0.034670
O531	O53	0.838300	0.347600	0.963130
O541	O54	0.867900	0.477300	0.004830
O551	O55	0.736100	0.049100	0.981020
O561	O56	0.725100	0.069300	0.876110
O571	O57	0.725600	0.199200	0.883900
O581	O58	0.605800	0.954100	0.159560
O591	O59	0.365900	0.796900	0.158150
O601	O60	0.462300	0.866000	0.225970
Co111	Co11	0.592120	0.276140	0.583880
Co121	Co12	0.508180	0.763000	0.864710
C1211	C121	0.954400	0.782800	0.773830
H1011	H101	0.900200	0.731900	0.789330
H1021	H102	0.948700	0.781000	0.734930
H1031	H103	0.961200	0.839800	0.787230
C1221	C122	0.039400	0.776000	0.789730
H1041	H104	0.031300	0.718600	0.773930
C1231	C123	0.127900	0.853300	0.767130
C1241	C124	0.135800	0.927300	0.738190
H1051	H105	0.082300	0.930000	0.732130
C1251	C125	0.217900	0.998000	0.717330
C1261	C126	0.297300	0.992600	0.724880
C1271	C127	0.294500	0.920000	0.755030
H1061	H106	0.348100	0.917300	0.760830
C1281	C128	0.211900	0.853500	0.775830
C1291	C129	0.270000	0.799800	0.846230
H1071	H107	0.238000	0.771400	0.879730
H1081	H108	0.304200	0.866200	0.851830
C1301	C130	0.337200	0.767000	0.833630
C1311	C131	0.456500	0.052300	0.701630
H1091	H109	0.440100	0.990500	0.689830
H1101	H110	0.480000	0.060400	0.738530
C1321	C132	0.531100	0.121900	0.665160
C1331	C133	0.222200	0.080600	0.687630
H1111	H111	0.267300	0.097400	0.658230
C1341	C134	0.132200	0.060700	0.662030
H1121	H112	0.140100	0.115200	0.644130
H1131	H113	0.085800	0.042500	0.689730
H1141	H114	0.113300	0.011700	0.636030
C1351	C135	0.258000	0.164700	0.725530
C1361	C136	0.301900	0.252400	0.704030
C1371	C137	0.331900	0.330500	0.735630
H1151	H115	0.360000	0.388700	0.719730
C1381	C138	0.319600	0.321200	0.791130
C1391	C139	0.275900	0.232600	0.815130
C1401	C140	0.246300	0.157400	0.781430
H1161	H116	0.217000	0.098800	0.796930
C1411	C141	0.401900	0.283600	0.631530
H1171	H117	0.417300	0.241000	0.649030
H1181	H118	0.447200	0.345800	0.642530
C1421	C142	0.403500	0.274300	0.569730
C1431	C143	0.390500	0.482500	0.802130
H1191	H119	0.350400	0.484000	0.774130
H1201	H120	0.448100	0.495400	0.785130
C1441	C144	0.408900	0.554800	0.844130
O611	O61	0.203800	0.778900	0.804280
O621	O62	0.396500	0.783700	0.869810
O631	O63	0.327400	0.726200	0.789410
O641	O64	0.376200	0.060900	0.701330
O651	O65	0.509300	0.161700	0.629790
O661	O66	0.609400	0.132100	0.671490
O671	O67	0.313000	0.263900	0.647680
O681	O68	0.344200	0.274900	0.542770
O691	O69	0.473600	0.274400	0.550560
O701	O70	0.348300	0.394200	0.826220
O711	O71	0.431000	0.634100	0.824810
O721	O72	0.403700	0.537700	0.892630
