data_DOPHUN_clean_PM
_symmetry_space_group_name_H-M	'P1'
_cell_length_a	34.182000
_cell_length_b	34.182000
_cell_length_c	34.182000
_cell_angle_alpha	90.000000
_cell_angle_beta	90.000000
_cell_angle_gamma	90.000000
_symmetry_Int_Tables_number 1

loop_
_symmetry_equiv_pos_as_xyz
'x,y,z'

loop_
_atom_site_label
_atom_site_type_symbol
_atom_site_fract_x
_atom_site_fract_y
_atom_site_fract_z
O11	O1	0.854000	0.137500	0.012700
O21	O2	0.805200	0.234000	0.974400
C11	C1	0.599700	0.142300	0.087800
H11	H1	0.592800	0.163800	0.072700
C21	C2	0.882700	0.256700	0.007900
H21	H2	0.871800	0.272100	0.986800
H31	H3	0.877000	0.270200	0.032300
N11	N1	0.693900	0.125400	0.041300
O31	O3	0.786400	0.055500	0.008800
C31	C3	0.632600	0.120100	0.077600
C41	C4	0.879700	0.132200	0.077000
O41	O4	0.733700	0.195400	0.974500
C51	C5	0.868300	0.154800	0.041400
N21	N2	0.874600	0.193400	0.041500
H41	H4	0.885600	0.204300	0.061300
C61	C6	0.863000	0.216800	0.008500
H51	H5	0.870300	0.202800	0.984600
C71	C7	0.756200	0.117300	0.007400
C81	C8	0.912700	0.142500	0.100100
H61	H6	0.927500	0.164400	0.093400
C91	C9	0.818900	0.224600	0.007100
O51	O5	0.637800	0.145700	0.012600
C101	C10	0.724600	0.181700	0.007000
C111	C11	0.754600	0.073700	0.003000
C121	C12	0.654900	0.131500	0.041500
O61	O6	0.723700	0.199250	0.039000
C131	C13	0.926500	0.254500	0.002800
O71	O7	0.944100	0.286300	0.008900
O81	O8	0.800700	0.223900	0.039300
O91	O9	0.722800	0.057800	0.992600
C141	C14	0.716400	0.136800	0.007700
O101	O10	0.941900	0.222500	0.992600
H71	H7	0.704600	0.116000	0.062300
H81	H8	0.770000	0.122400	0.033100
H91	H9	0.773000	0.128200	0.987700
H101	H10	0.702300	0.130200	0.984500
O111	O11	0.854000	0.637500	0.512700
O121	O12	0.805200	0.734000	0.474400
C151	C15	0.599700	0.642300	0.587800
H111	H11	0.592800	0.663800	0.572700
C161	C16	0.882700	0.756700	0.507900
H121	H12	0.871800	0.772100	0.486800
H131	H13	0.877000	0.770200	0.532300
N31	N3	0.693900	0.625400	0.541300
O131	O13	0.786400	0.555500	0.508800
C171	C17	0.632600	0.620100	0.577600
C181	C18	0.879700	0.632200	0.577000
O141	O14	0.733700	0.695400	0.474500
C191	C19	0.868300	0.654800	0.541400
N41	N4	0.874600	0.693400	0.541500
H141	H14	0.885600	0.704300	0.561300
C201	C20	0.863000	0.716800	0.508500
H151	H15	0.870300	0.702800	0.484600
C211	C21	0.756200	0.617300	0.507400
C221	C22	0.912700	0.642500	0.600100
H161	H16	0.927500	0.664400	0.593400
C231	C23	0.818900	0.724600	0.507100
O151	O15	0.637800	0.645700	0.512600
C241	C24	0.724600	0.681700	0.507000
C251	C25	0.754600	0.573700	0.503000
C261	C26	0.654900	0.631500	0.541500
O161	O16	0.723700	0.699250	0.539000
C271	C27	0.926500	0.754500	0.502800
O171	O17	0.944100	0.786300	0.508900
O181	O18	0.800700	0.723900	0.539300
O191	O19	0.722800	0.557800	0.492600
C281	C28	0.716400	0.636800	0.507700
O201	O20	0.941900	0.722500	0.492600
H171	H17	0.704600	0.616000	0.562300
H181	H18	0.770000	0.622400	0.533100
H191	H19	0.773000	0.628200	0.487700
H201	H20	0.702300	0.630200	0.484500
O211	O21	0.354000	0.137500	0.512700
O221	O22	0.305200	0.234000	0.474400
C291	C29	0.099700	0.142300	0.587800
H211	H21	0.092800	0.163800	0.572700
C301	C30	0.382700	0.256700	0.507900
H221	H22	0.371800	0.272100	0.486800
H231	H23	0.377000	0.270200	0.532300
N51	N5	0.193900	0.125400	0.541300
O231	O23	0.286400	0.055500	0.508800
C311	C31	0.132600	0.120100	0.577600
C321	C32	0.379700	0.132200	0.577000
O241	O24	0.233700	0.195400	0.474500
C331	C33	0.368300	0.154800	0.541400
N61	N6	0.374600	0.193400	0.541500
H241	H24	0.385600	0.204300	0.561300
C341	C34	0.363000	0.216800	0.508500
H251	H25	0.370300	0.202800	0.484600
C351	C35	0.256200	0.117300	0.507400
C361	C36	0.412700	0.142500	0.600100
H261	H26	0.427500	0.164400	0.593400
C371	C37	0.318900	0.224600	0.507100
O251	O25	0.137800	0.145700	0.512600
C381	C38	0.224600	0.181700	0.507000
C391	C39	0.254600	0.073700	0.503000
C401	C40	0.154900	0.131500	0.541500
O261	O26	0.223700	0.199250	0.539000
C411	C41	0.426500	0.254500	0.502800
O271	O27	0.444100	0.286300	0.508900
O281	O28	0.300700	0.223900	0.539300
O291	O29	0.222800	0.057800	0.492600
C421	C42	0.216400	0.136800	0.507700
O301	O30	0.441900	0.222500	0.492600
H271	H27	0.204600	0.116000	0.562300
H281	H28	0.270000	0.122400	0.533100
H291	H29	0.273000	0.128200	0.487700
H301	H30	0.202300	0.130200	0.484500
O311	O31	0.354000	0.637500	0.012700
O321	O32	0.305200	0.734000	0.974400
C431	C43	0.099700	0.642300	0.087800
H311	H31	0.092800	0.663800	0.072700
C441	C44	0.382700	0.756700	0.007900
H321	H32	0.371800	0.772100	0.986800
H331	H33	0.377000	0.770200	0.032300
N71	N7	0.193900	0.625400	0.041300
O331	O33	0.286400	0.555500	0.008800
C451	C45	0.132600	0.620100	0.077600
C461	C46	0.379700	0.632200	0.077000
O341	O34	0.233700	0.695400	0.974500
C471	C47	0.368300	0.654800	0.041400
N81	N8	0.374600	0.693400	0.041500
H341	H34	0.385600	0.704300	0.061300
C481	C48	0.363000	0.716800	0.008500
H351	H35	0.370300	0.702800	0.984600
C491	C49	0.256200	0.617300	0.007400
C501	C50	0.412700	0.642500	0.100100
H361	H36	0.427500	0.664400	0.093400
C511	C51	0.318900	0.724600	0.007100
O351	O35	0.137800	0.645700	0.012600
C521	C52	0.224600	0.681700	0.007000
C531	C53	0.254600	0.573700	0.003000
C541	C54	0.154900	0.631500	0.041500
O361	O36	0.223700	0.699250	0.039000
C551	C55	0.426500	0.754500	0.002800
O371	O37	0.444100	0.786300	0.008900
O381	O38	0.300700	0.723900	0.039300
O391	O39	0.222800	0.557800	0.992600
C561	C56	0.216400	0.636800	0.007700
O401	O40	0.441900	0.722500	0.992600
H371	H37	0.204600	0.616000	0.062300
H381	H38	0.270000	0.622400	0.033100
H391	H39	0.273000	0.628200	0.987700
H401	H40	0.202300	0.630200	0.984500
O411	O41	0.146000	0.862500	0.012700
O421	O42	0.194800	0.766000	0.974400
C571	C57	0.400300	0.857700	0.087800
H411	H41	0.407200	0.836200	0.072700
C581	C58	0.117300	0.743300	0.007900
H421	H42	0.128200	0.727900	0.986800
H431	H43	0.123000	0.729800	0.032300
N91	N9	0.306100	0.874600	0.041300
O431	O43	0.213600	0.944500	0.008800
C591	C59	0.367400	0.879900	0.077600
C601	C60	0.120300	0.867800	0.077000
O441	O44	0.266300	0.804600	0.974500
C611	C61	0.131700	0.845200	0.041400
N101	N10	0.125400	0.806600	0.041500
H441	H44	0.114400	0.795700	0.061300
C621	C62	0.137000	0.783200	0.008500
H451	H45	0.129700	0.797200	0.984600
C631	C63	0.243800	0.882700	0.007400
C641	C64	0.087300	0.857500	0.100100
H461	H46	0.072500	0.835600	0.093400
C651	C65	0.181100	0.775400	0.007100
O451	O45	0.362200	0.854300	0.012600
C661	C66	0.275400	0.818300	0.007000
C671	C67	0.245400	0.926300	0.003000
C681	C68	0.345100	0.868500	0.041500
O461	O46	0.276300	0.800750	0.039000
C691	C69	0.073500	0.745500	0.002800
O471	O47	0.055900	0.713700	0.008900
O481	O48	0.199300	0.776100	0.039300
O491	O49	0.277200	0.942200	0.992600
C701	C70	0.283600	0.863200	0.007700
O501	O50	0.058100	0.777500	0.992600
H471	H47	0.295400	0.884000	0.062300
H481	H48	0.230000	0.877600	0.033100
H491	H49	0.227000	0.871800	0.987700
H501	H50	0.297700	0.869800	0.984500
O511	O51	0.146000	0.362500	0.512700
O521	O52	0.194800	0.266000	0.474400
C711	C71	0.400300	0.357700	0.587800
H511	H51	0.407200	0.336200	0.572700
C721	C72	0.117300	0.243300	0.507900
H521	H52	0.128200	0.227900	0.486800
H531	H53	0.123000	0.229800	0.532300
N111	N11	0.306100	0.374600	0.541300
O531	O53	0.213600	0.444500	0.508800
C731	C73	0.367400	0.379900	0.577600
C741	C74	0.120300	0.367800	0.577000
O541	O54	0.266300	0.304600	0.474500
C751	C75	0.131700	0.345200	0.541400
N121	N12	0.125400	0.306600	0.541500
H541	H54	0.114400	0.295700	0.561300
C761	C76	0.137000	0.283200	0.508500
H551	H55	0.129700	0.297200	0.484600
C771	C77	0.243800	0.382700	0.507400
C781	C78	0.087300	0.357500	0.600100
H561	H56	0.072500	0.335600	0.593400
C791	C79	0.181100	0.275400	0.507100
O551	O55	0.362200	0.354300	0.512600
C801	C80	0.275400	0.318300	0.507000
C811	C81	0.245400	0.426300	0.503000
C821	C82	0.345100	0.368500	0.541500
O561	O56	0.276300	0.300750	0.539000
C831	C83	0.073500	0.245500	0.502800
O571	O57	0.055900	0.213700	0.508900
O581	O58	0.199300	0.276100	0.539300
O591	O59	0.277200	0.442200	0.492600
C841	C84	0.283600	0.363200	0.507700
O601	O60	0.058100	0.277500	0.492600
H571	H57	0.295400	0.384000	0.562300
H581	H58	0.230000	0.377600	0.533100
H591	H59	0.227000	0.371800	0.487700
H601	H60	0.297700	0.369800	0.484500
O611	O61	0.646000	0.862500	0.512700
O621	O62	0.694800	0.766000	0.474400
C851	C85	0.900300	0.857700	0.587800
H611	H61	0.907200	0.836200	0.572700
C861	C86	0.617300	0.743300	0.507900
H621	H62	0.628200	0.727900	0.486800
H631	H63	0.623000	0.729800	0.532300
N131	N13	0.806100	0.874600	0.541300
O631	O63	0.713600	0.944500	0.508800
C871	C87	0.867400	0.879900	0.577600
C881	C88	0.620300	0.867800	0.577000
O641	O64	0.766300	0.804600	0.474500
C891	C89	0.631700	0.845200	0.541400
N141	N14	0.625400	0.806600	0.541500
H641	H64	0.614400	0.795700	0.561300
C901	C90	0.637000	0.783200	0.508500
H651	H65	0.629700	0.797200	0.484600
C911	C91	0.743800	0.882700	0.507400
C921	C92	0.587300	0.857500	0.600100
H661	H66	0.572500	0.835600	0.593400
C931	C93	0.681100	0.775400	0.507100
O651	O65	0.862200	0.854300	0.512600
C941	C94	0.775400	0.818300	0.507000
C951	C95	0.745400	0.926300	0.503000
C961	C96	0.845100	0.868500	0.541500
O661	O66	0.776300	0.800750	0.539000
C971	C97	0.573500	0.745500	0.502800
O671	O67	0.555900	0.713700	0.508900
O681	O68	0.699300	0.776100	0.539300
O691	O69	0.777200	0.942200	0.492600
C981	C98	0.783600	0.863200	0.507700
O701	O70	0.558100	0.777500	0.492600
H671	H67	0.795400	0.884000	0.562300
H681	H68	0.730000	0.877600	0.533100
H691	H69	0.727000	0.871800	0.487700
H701	H70	0.797700	0.869800	0.484500
O711	O71	0.646000	0.362500	0.012700
O721	O72	0.694800	0.266000	0.974400
C991	C99	0.900300	0.357700	0.087800
H711	H71	0.907200	0.336200	0.072700
C1001	C100	0.617300	0.243300	0.007900
H721	H72	0.628200	0.227900	0.986800
H731	H73	0.623000	0.229800	0.032300
N151	N15	0.806100	0.374600	0.041300
O731	O73	0.713600	0.444500	0.008800
C1011	C101	0.867400	0.379900	0.077600
C1021	C102	0.620300	0.367800	0.077000
O741	O74	0.766300	0.304600	0.974500
C1031	C103	0.631700	0.345200	0.041400
N161	N16	0.625400	0.306600	0.041500
H741	H74	0.614400	0.295700	0.061300
C1041	C104	0.637000	0.283200	0.008500
H751	H75	0.629700	0.297200	0.984600
C1051	C105	0.743800	0.382700	0.007400
C1061	C106	0.587300	0.357500	0.100100
H761	H76	0.572500	0.335600	0.093400
C1071	C107	0.681100	0.275400	0.007100
O751	O75	0.862200	0.354300	0.012600
C1081	C108	0.775400	0.318300	0.007000
C1091	C109	0.745400	0.426300	0.003000
C1101	C110	0.845100	0.368500	0.041500
O761	O76	0.776300	0.300750	0.039000
C1111	C111	0.573500	0.245500	0.002800
O771	O77	0.555900	0.213700	0.008900
O781	O78	0.699300	0.276100	0.039300
O791	O79	0.777200	0.442200	0.992600
C1121	C112	0.783600	0.363200	0.007700
O801	O80	0.558100	0.277500	0.992600
H771	H77	0.795400	0.384000	0.062300
H781	H78	0.730000	0.377600	0.033100
H791	H79	0.727000	0.371800	0.987700
H801	H80	0.797700	0.369800	0.984500
O811	O81	0.146000	0.137500	0.987300
O821	O82	0.194800	0.234000	0.025600
C1131	C113	0.400300	0.142300	0.912200
H811	H81	0.407200	0.163800	0.927300
C1141	C114	0.117300	0.256700	0.992100
H821	H82	0.128200	0.272100	0.013200
H831	H83	0.123000	0.270200	0.967700
N171	N17	0.306100	0.125400	0.958700
O831	O83	0.213600	0.055500	0.991200
C1151	C115	0.367400	0.120100	0.922400
C1161	C116	0.120300	0.132200	0.923000
O841	O84	0.266300	0.195400	0.025500
C1171	C117	0.131700	0.154800	0.958600
N181	N18	0.125400	0.193400	0.958500
H841	H84	0.114400	0.204300	0.938700
C1181	C118	0.137000	0.216800	0.991500
H851	H85	0.129700	0.202800	0.015400
C1191	C119	0.243800	0.117300	0.992600
C1201	C120	0.087300	0.142500	0.899900
H861	H86	0.072500	0.164400	0.906600
C1211	C121	0.181100	0.224600	0.992900
O851	O85	0.362200	0.145700	0.987400
C1221	C122	0.275400	0.181700	0.993000
C1231	C123	0.245400	0.073700	0.997000
C1241	C124	0.345100	0.131500	0.958500
O861	O86	0.276300	0.199250	0.961000
C1251	C125	0.073500	0.254500	0.997200
O871	O87	0.055900	0.286300	0.991100
O881	O88	0.199300	0.223900	0.960700
O891	O89	0.277200	0.057800	0.007400
C1261	C126	0.283600	0.136800	0.992300
O901	O90	0.058100	0.222500	0.007400
H871	H87	0.295400	0.116000	0.937700
H881	H88	0.230000	0.122400	0.966900
H891	H89	0.227000	0.128200	0.012300
H901	H90	0.297700	0.130200	0.015500
O911	O91	0.146000	0.637500	0.487300
O921	O92	0.194800	0.734000	0.525600
C1271	C127	0.400300	0.642300	0.412200
H911	H91	0.407200	0.663800	0.427300
C1281	C128	0.117300	0.756700	0.492100
H921	H92	0.128200	0.772100	0.513200
H931	H93	0.123000	0.770200	0.467700
N191	N19	0.306100	0.625400	0.458700
O931	O93	0.213600	0.555500	0.491200
C1291	C129	0.367400	0.620100	0.422400
C1301	C130	0.120300	0.632200	0.423000
O941	O94	0.266300	0.695400	0.525500
C1311	C131	0.131700	0.654800	0.458600
N201	N20	0.125400	0.693400	0.458500
H941	H94	0.114400	0.704300	0.438700
C1321	C132	0.137000	0.716800	0.491500
H951	H95	0.129700	0.702800	0.515400
C1331	C133	0.243800	0.617300	0.492600
C1341	C134	0.087300	0.642500	0.399900
H961	H96	0.072500	0.664400	0.406600
C1351	C135	0.181100	0.724600	0.492900
O951	O95	0.362200	0.645700	0.487400
C1361	C136	0.275400	0.681700	0.493000
C1371	C137	0.245400	0.573700	0.497000
C1381	C138	0.345100	0.631500	0.458500
O961	O96	0.276300	0.699250	0.461000
C1391	C139	0.073500	0.754500	0.497200
O971	O97	0.055900	0.786300	0.491100
O981	O98	0.199300	0.723900	0.460700
O991	O99	0.277200	0.557800	0.507400
C1401	C140	0.283600	0.636800	0.492300
O1001	O100	0.058100	0.722500	0.507400
H971	H97	0.295400	0.616000	0.437700
H981	H98	0.230000	0.622400	0.466900
H991	H99	0.227000	0.628200	0.512300
H1001	H100	0.297700	0.630200	0.515500
O1011	O101	0.646000	0.137500	0.487300
O1021	O102	0.694800	0.234000	0.525600
C1411	C141	0.900300	0.142300	0.412200
H1011	H101	0.907200	0.163800	0.427300
C1421	C142	0.617300	0.256700	0.492100
H1021	H102	0.628200	0.272100	0.513200
H1031	H103	0.623000	0.270200	0.467700
N211	N21	0.806100	0.125400	0.458700
O1031	O103	0.713600	0.055500	0.491200
C1431	C143	0.867400	0.120100	0.422400
C1441	C144	0.620300	0.132200	0.423000
O1041	O104	0.766300	0.195400	0.525500
C1451	C145	0.631700	0.154800	0.458600
N221	N22	0.625400	0.193400	0.458500
H1041	H104	0.614400	0.204300	0.438700
C1461	C146	0.637000	0.216800	0.491500
H1051	H105	0.629700	0.202800	0.515400
C1471	C147	0.743800	0.117300	0.492600
C1481	C148	0.587300	0.142500	0.399900
H1061	H106	0.572500	0.164400	0.406600
C1491	C149	0.681100	0.224600	0.492900
O1051	O105	0.862200	0.145700	0.487400
C1501	C150	0.775400	0.181700	0.493000
C1511	C151	0.745400	0.073700	0.497000
C1521	C152	0.845100	0.131500	0.458500
O1061	O106	0.776300	0.199250	0.461000
C1531	C153	0.573500	0.254500	0.497200
O1071	O107	0.555900	0.286300	0.491100
O1081	O108	0.699300	0.223900	0.460700
O1091	O109	0.777200	0.057800	0.507400
C1541	C154	0.783600	0.136800	0.492300
O1101	O110	0.558100	0.222500	0.507400
H1071	H107	0.795400	0.116000	0.437700
H1081	H108	0.730000	0.122400	0.466900
H1091	H109	0.727000	0.128200	0.512300
H1101	H110	0.797700	0.130200	0.515500
O1111	O111	0.646000	0.637500	0.987300
O1121	O112	0.694800	0.734000	0.025600
C1551	C155	0.900300	0.642300	0.912200
H1111	H111	0.907200	0.663800	0.927300
C1561	C156	0.617300	0.756700	0.992100
H1121	H112	0.628200	0.772100	0.013200
H1131	H113	0.623000	0.770200	0.967700
N231	N23	0.806100	0.625400	0.958700
O1131	O113	0.713600	0.555500	0.991200
C1571	C157	0.867400	0.620100	0.922400
C1581	C158	0.620300	0.632200	0.923000
O1141	O114	0.766300	0.695400	0.025500
C1591	C159	0.631700	0.654800	0.958600
N241	N24	0.625400	0.693400	0.958500
H1141	H114	0.614400	0.704300	0.938700
C1601	C160	0.637000	0.716800	0.991500
H1151	H115	0.629700	0.702800	0.015400
C1611	C161	0.743800	0.617300	0.992600
C1621	C162	0.587300	0.642500	0.899900
H1161	H116	0.572500	0.664400	0.906600
C1631	C163	0.681100	0.724600	0.992900
O1151	O115	0.862200	0.645700	0.987400
C1641	C164	0.775400	0.681700	0.993000
C1651	C165	0.745400	0.573700	0.997000
C1661	C166	0.845100	0.631500	0.958500
O1161	O116	0.776300	0.699250	0.961000
C1671	C167	0.573500	0.754500	0.997200
O1171	O117	0.555900	0.786300	0.991100
O1181	O118	0.699300	0.723900	0.960700
O1191	O119	0.777200	0.557800	0.007400
C1681	C168	0.783600	0.636800	0.992300
O1201	O120	0.558100	0.722500	0.007400
H1171	H117	0.795400	0.616000	0.937700
H1181	H118	0.730000	0.622400	0.966900
H1191	H119	0.727000	0.628200	0.012300
H1201	H120	0.797700	0.630200	0.015500
O1211	O121	0.854000	0.862500	0.987300
O1221	O122	0.805200	0.766000	0.025600
C1691	C169	0.599700	0.857700	0.912200
H1211	H121	0.592800	0.836200	0.927300
C1701	C170	0.882700	0.743300	0.992100
H1221	H122	0.871800	0.727900	0.013200
H1231	H123	0.877000	0.729800	0.967700
N251	N25	0.693900	0.874600	0.958700
O1231	O123	0.786400	0.944500	0.991200
C1711	C171	0.632600	0.879900	0.922400
C1721	C172	0.879700	0.867800	0.923000
O1241	O124	0.733700	0.804600	0.025500
C1731	C173	0.868300	0.845200	0.958600
N261	N26	0.874600	0.806600	0.958500
H1241	H124	0.885600	0.795700	0.938700
C1741	C174	0.863000	0.783200	0.991500
H1251	H125	0.870300	0.797200	0.015400
C1751	C175	0.756200	0.882700	0.992600
C1761	C176	0.912700	0.857500	0.899900
H1261	H126	0.927500	0.835600	0.906600
C1771	C177	0.818900	0.775400	0.992900
O1251	O125	0.637800	0.854300	0.987400
C1781	C178	0.724600	0.818300	0.993000
C1791	C179	0.754600	0.926300	0.997000
C1801	C180	0.654900	0.868500	0.958500
O1261	O126	0.723700	0.800750	0.961000
C1811	C181	0.926500	0.745500	0.997200
O1271	O127	0.944100	0.713700	0.991100
O1281	O128	0.800700	0.776100	0.960700
O1291	O129	0.722800	0.942200	0.007400
C1821	C182	0.716400	0.863200	0.992300
O1301	O130	0.941900	0.777500	0.007400
H1271	H127	0.704600	0.884000	0.937700
H1281	H128	0.770000	0.877600	0.966900
H1291	H129	0.773000	0.871800	0.012300
H1301	H130	0.702300	0.869800	0.015500
O1311	O131	0.854000	0.362500	0.487300
O1321	O132	0.805200	0.266000	0.525600
C1831	C183	0.599700	0.357700	0.412200
H1311	H131	0.592800	0.336200	0.427300
C1841	C184	0.882700	0.243300	0.492100
H1321	H132	0.871800	0.227900	0.513200
H1331	H133	0.877000	0.229800	0.467700
N271	N27	0.693900	0.374600	0.458700
O1331	O133	0.786400	0.444500	0.491200
C1851	C185	0.632600	0.379900	0.422400
C1861	C186	0.879700	0.367800	0.423000
O1341	O134	0.733700	0.304600	0.525500
C1871	C187	0.868300	0.345200	0.458600
N281	N28	0.874600	0.306600	0.458500
H1341	H134	0.885600	0.295700	0.438700
C1881	C188	0.863000	0.283200	0.491500
H1351	H135	0.870300	0.297200	0.515400
C1891	C189	0.756200	0.382700	0.492600
C1901	C190	0.912700	0.357500	0.399900
H1361	H136	0.927500	0.335600	0.406600
C1911	C191	0.818900	0.275400	0.492900
O1351	O135	0.637800	0.354300	0.487400
C1921	C192	0.724600	0.318300	0.493000
C1931	C193	0.754600	0.426300	0.497000
C1941	C194	0.654900	0.368500	0.458500
O1361	O136	0.723700	0.300750	0.461000
C1951	C195	0.926500	0.245500	0.497200
O1371	O137	0.944100	0.213700	0.491100
O1381	O138	0.800700	0.276100	0.460700
O1391	O139	0.722800	0.442200	0.507400
C1961	C196	0.716400	0.363200	0.492300
O1401	O140	0.941900	0.277500	0.507400
H1371	H137	0.704600	0.384000	0.437700
H1381	H138	0.770000	0.377600	0.466900
H1391	H139	0.773000	0.371800	0.512300
H1401	H140	0.702300	0.369800	0.515500
O1411	O141	0.354000	0.862500	0.487300
O1421	O142	0.305200	0.766000	0.525600
C1971	C197	0.099700	0.857700	0.412200
H1411	H141	0.092800	0.836200	0.427300
C1981	C198	0.382700	0.743300	0.492100
H1421	H142	0.371800	0.727900	0.513200
H1431	H143	0.377000	0.729800	0.467700
N291	N29	0.193900	0.874600	0.458700
O1431	O143	0.286400	0.944500	0.491200
C1991	C199	0.132600	0.879900	0.422400
C2001	C200	0.379700	0.867800	0.423000
O1441	O144	0.233700	0.804600	0.525500
C2011	C201	0.368300	0.845200	0.458600
N301	N30	0.374600	0.806600	0.458500
H1441	H144	0.385600	0.795700	0.438700
C2021	C202	0.363000	0.783200	0.491500
H1451	H145	0.370300	0.797200	0.515400
C2031	C203	0.256200	0.882700	0.492600
C2041	C204	0.412700	0.857500	0.399900
H1461	H146	0.427500	0.835600	0.406600
C2051	C205	0.318900	0.775400	0.492900
O1451	O145	0.137800	0.854300	0.487400
C2061	C206	0.224600	0.818300	0.493000
C2071	C207	0.254600	0.926300	0.497000
C2081	C208	0.154900	0.868500	0.458500
O1461	O146	0.223700	0.800750	0.461000
C2091	C209	0.426500	0.745500	0.497200
O1471	O147	0.444100	0.713700	0.491100
O1481	O148	0.300700	0.776100	0.460700
O1491	O149	0.222800	0.942200	0.507400
C2101	C210	0.216400	0.863200	0.492300
O1501	O150	0.441900	0.777500	0.507400
H1471	H147	0.204600	0.884000	0.437700
H1481	H148	0.270000	0.877600	0.466900
H1491	H149	0.273000	0.871800	0.512300
H1501	H150	0.202300	0.869800	0.515500
O1511	O151	0.354000	0.362500	0.987300
O1521	O152	0.305200	0.266000	0.025600
C2111	C211	0.099700	0.357700	0.912200
H1511	H151	0.092800	0.336200	0.927300
C2121	C212	0.382700	0.243300	0.992100
H1521	H152	0.371800	0.227900	0.013200
H1531	H153	0.377000	0.229800	0.967700
N311	N31	0.193900	0.374600	0.958700
O1531	O153	0.286400	0.444500	0.991200
C2131	C213	0.132600	0.379900	0.922400
C2141	C214	0.379700	0.367800	0.923000
O1541	O154	0.233700	0.304600	0.025500
C2151	C215	0.368300	0.345200	0.958600
N321	N32	0.374600	0.306600	0.958500
H1541	H154	0.385600	0.295700	0.938700
C2161	C216	0.363000	0.283200	0.991500
H1551	H155	0.370300	0.297200	0.015400
C2171	C217	0.256200	0.382700	0.992600
C2181	C218	0.412700	0.357500	0.899900
H1561	H156	0.427500	0.335600	0.906600
C2191	C219	0.318900	0.275400	0.992900
O1551	O155	0.137800	0.354300	0.987400
C2201	C220	0.224600	0.318300	0.993000
C2211	C221	0.254600	0.426300	0.997000
C2221	C222	0.154900	0.368500	0.958500
O1561	O156	0.223700	0.300750	0.961000
C2231	C223	0.426500	0.245500	0.997200
O1571	O157	0.444100	0.213700	0.991100
O1581	O158	0.300700	0.276100	0.960700
O1591	O159	0.222800	0.442200	0.007400
C2241	C224	0.216400	0.363200	0.992300
O1601	O160	0.441900	0.277500	0.007400
H1571	H157	0.204600	0.384000	0.937700
H1581	H158	0.270000	0.377600	0.966900
H1591	H159	0.273000	0.371800	0.012300
H1601	H160	0.202300	0.369800	0.015500
O1611	O161	0.012700	0.854000	0.137500
O1621	O162	0.974400	0.805200	0.234000
C2251	C225	0.087800	0.599700	0.142300
H1611	H161	0.072700	0.592800	0.163800
C2261	C226	0.007900	0.882700	0.256700
H1621	H162	0.986800	0.871800	0.272100
H1631	H163	0.032300	0.877000	0.270200
N331	N33	0.041300	0.693900	0.125400
O1631	O163	0.008800	0.786400	0.055500
C2271	C227	0.077600	0.632600	0.120100
C2281	C228	0.077000	0.879700	0.132200
O1641	O164	0.974500	0.733700	0.195400
C2291	C229	0.041400	0.868300	0.154800
N341	N34	0.041500	0.874600	0.193400
H1641	H164	0.061300	0.885600	0.204300
C2301	C230	0.008500	0.863000	0.216800
H1651	H165	0.984600	0.870300	0.202800
C2311	C231	0.007400	0.756200	0.117300
C2321	C232	0.100100	0.912700	0.142500
H1661	H166	0.093400	0.927500	0.164400
C2331	C233	0.007100	0.818900	0.224600
O1651	O165	0.012600	0.637800	0.145700
C2341	C234	0.007000	0.724600	0.181700
C2351	C235	0.003000	0.754600	0.073700
C2361	C236	0.041500	0.654900	0.131500
O1661	O166	0.039000	0.723700	0.199250
C2371	C237	0.002800	0.926500	0.254500
O1671	O167	0.008900	0.944100	0.286300
O1681	O168	0.039300	0.800700	0.223900
O1691	O169	0.992600	0.722800	0.057800
C2381	C238	0.007700	0.716400	0.136800
O1701	O170	0.992600	0.941900	0.222500
H1671	H167	0.062300	0.704600	0.116000
H1681	H168	0.033100	0.770000	0.122400
H1691	H169	0.987700	0.773000	0.128200
H1701	H170	0.984500	0.702300	0.130200
O1711	O171	0.012700	0.354000	0.637500
O1721	O172	0.974400	0.305200	0.734000
C2391	C239	0.087800	0.099700	0.642300
H1711	H171	0.072700	0.092800	0.663800
C2401	C240	0.007900	0.382700	0.756700
H1721	H172	0.986800	0.371800	0.772100
H1731	H173	0.032300	0.377000	0.770200
N351	N35	0.041300	0.193900	0.625400
O1731	O173	0.008800	0.286400	0.555500
C2411	C241	0.077600	0.132600	0.620100
C2421	C242	0.077000	0.379700	0.632200
O1741	O174	0.974500	0.233700	0.695400
C2431	C243	0.041400	0.368300	0.654800
N361	N36	0.041500	0.374600	0.693400
H1741	H174	0.061300	0.385600	0.704300
C2441	C244	0.008500	0.363000	0.716800
H1751	H175	0.984600	0.370300	0.702800
C2451	C245	0.007400	0.256200	0.617300
C2461	C246	0.100100	0.412700	0.642500
H1761	H176	0.093400	0.427500	0.664400
C2471	C247	0.007100	0.318900	0.724600
O1751	O175	0.012600	0.137800	0.645700
C2481	C248	0.007000	0.224600	0.681700
C2491	C249	0.003000	0.254600	0.573700
C2501	C250	0.041500	0.154900	0.631500
O1761	O176	0.039000	0.223700	0.699250
C2511	C251	0.002800	0.426500	0.754500
O1771	O177	0.008900	0.444100	0.786300
O1781	O178	0.039300	0.300700	0.723900
O1791	O179	0.992600	0.222800	0.557800
C2521	C252	0.007700	0.216400	0.636800
O1801	O180	0.992600	0.441900	0.722500
H1771	H177	0.062300	0.204600	0.616000
H1781	H178	0.033100	0.270000	0.622400
H1791	H179	0.987700	0.273000	0.628200
H1801	H180	0.984500	0.202300	0.630200
O1811	O181	0.512700	0.854000	0.637500
O1821	O182	0.474400	0.805200	0.734000
C2531	C253	0.587800	0.599700	0.642300
H1811	H181	0.572700	0.592800	0.663800
C2541	C254	0.507900	0.882700	0.756700
H1821	H182	0.486800	0.871800	0.772100
H1831	H183	0.532300	0.877000	0.770200
N371	N37	0.541300	0.693900	0.625400
O1831	O183	0.508800	0.786400	0.555500
C2551	C255	0.577600	0.632600	0.620100
C2561	C256	0.577000	0.879700	0.632200
O1841	O184	0.474500	0.733700	0.695400
C2571	C257	0.541400	0.868300	0.654800
N381	N38	0.541500	0.874600	0.693400
H1841	H184	0.561300	0.885600	0.704300
C2581	C258	0.508500	0.863000	0.716800
H1851	H185	0.484600	0.870300	0.702800
C2591	C259	0.507400	0.756200	0.617300
C2601	C260	0.600100	0.912700	0.642500
H1861	H186	0.593400	0.927500	0.664400
C2611	C261	0.507100	0.818900	0.724600
O1851	O185	0.512600	0.637800	0.645700
C2621	C262	0.507000	0.724600	0.681700
C2631	C263	0.503000	0.754600	0.573700
C2641	C264	0.541500	0.654900	0.631500
O1861	O186	0.539000	0.723700	0.699250
C2651	C265	0.502800	0.926500	0.754500
O1871	O187	0.508900	0.944100	0.786300
O1881	O188	0.539300	0.800700	0.723900
O1891	O189	0.492600	0.722800	0.557800
C2661	C266	0.507700	0.716400	0.636800
O1901	O190	0.492600	0.941900	0.722500
H1871	H187	0.562300	0.704600	0.616000
H1881	H188	0.533100	0.770000	0.622400
H1891	H189	0.487700	0.773000	0.628200
H1901	H190	0.484500	0.702300	0.630200
O1911	O191	0.512700	0.354000	0.137500
O1921	O192	0.474400	0.305200	0.234000
C2671	C267	0.587800	0.099700	0.142300
H1911	H191	0.572700	0.092800	0.163800
C2681	C268	0.507900	0.382700	0.256700
H1921	H192	0.486800	0.371800	0.272100
H1931	H193	0.532300	0.377000	0.270200
N391	N39	0.541300	0.193900	0.125400
O1931	O193	0.508800	0.286400	0.055500
C2691	C269	0.577600	0.132600	0.120100
C2701	C270	0.577000	0.379700	0.132200
O1941	O194	0.474500	0.233700	0.195400
C2711	C271	0.541400	0.368300	0.154800
N401	N40	0.541500	0.374600	0.193400
H1941	H194	0.561300	0.385600	0.204300
C2721	C272	0.508500	0.363000	0.216800
H1951	H195	0.484600	0.370300	0.202800
C2731	C273	0.507400	0.256200	0.117300
C2741	C274	0.600100	0.412700	0.142500
H1961	H196	0.593400	0.427500	0.164400
C2751	C275	0.507100	0.318900	0.224600
O1951	O195	0.512600	0.137800	0.145700
C2761	C276	0.507000	0.224600	0.181700
C2771	C277	0.503000	0.254600	0.073700
C2781	C278	0.541500	0.154900	0.131500
O1961	O196	0.539000	0.223700	0.199250
C2791	C279	0.502800	0.426500	0.254500
O1971	O197	0.508900	0.444100	0.286300
O1981	O198	0.539300	0.300700	0.223900
O1991	O199	0.492600	0.222800	0.057800
C2801	C280	0.507700	0.216400	0.136800
O2001	O200	0.492600	0.441900	0.222500
H1971	H197	0.562300	0.204600	0.116000
H1981	H198	0.533100	0.270000	0.122400
H1991	H199	0.487700	0.273000	0.128200
H2001	H200	0.484500	0.202300	0.130200
O2011	O201	0.012700	0.146000	0.862500
O2021	O202	0.974400	0.194800	0.766000
C2811	C281	0.087800	0.400300	0.857700
H2011	H201	0.072700	0.407200	0.836200
C2821	C282	0.007900	0.117300	0.743300
H2021	H202	0.986800	0.128200	0.727900
H2031	H203	0.032300	0.123000	0.729800
N411	N41	0.041300	0.306100	0.874600
O2031	O203	0.008800	0.213600	0.944500
C2831	C283	0.077600	0.367400	0.879900
C2841	C284	0.077000	0.120300	0.867800
O2041	O204	0.974500	0.266300	0.804600
C2851	C285	0.041400	0.131700	0.845200
N421	N42	0.041500	0.125400	0.806600
H2041	H204	0.061300	0.114400	0.795700
C2861	C286	0.008500	0.137000	0.783200
H2051	H205	0.984600	0.129700	0.797200
C2871	C287	0.007400	0.243800	0.882700
C2881	C288	0.100100	0.087300	0.857500
H2061	H206	0.093400	0.072500	0.835600
C2891	C289	0.007100	0.181100	0.775400
O2051	O205	0.012600	0.362200	0.854300
C2901	C290	0.007000	0.275400	0.818300
C2911	C291	0.003000	0.245400	0.926300
C2921	C292	0.041500	0.345100	0.868500
O2061	O206	0.039000	0.276300	0.800750
C2931	C293	0.002800	0.073500	0.745500
O2071	O207	0.008900	0.055900	0.713700
O2081	O208	0.039300	0.199300	0.776100
O2091	O209	0.992600	0.277200	0.942200
C2941	C294	0.007700	0.283600	0.863200
O2101	O210	0.992600	0.058100	0.777500
H2071	H207	0.062300	0.295400	0.884000
H2081	H208	0.033100	0.230000	0.877600
H2091	H209	0.987700	0.227000	0.871800
H2101	H210	0.984500	0.297700	0.869800
O2111	O211	0.012700	0.646000	0.362500
O2121	O212	0.974400	0.694800	0.266000
C2951	C295	0.087800	0.900300	0.357700
H2111	H211	0.072700	0.907200	0.336200
C2961	C296	0.007900	0.617300	0.243300
H2121	H212	0.986800	0.628200	0.227900
H2131	H213	0.032300	0.623000	0.229800
N431	N43	0.041300	0.806100	0.374600
O2131	O213	0.008800	0.713600	0.444500
C2971	C297	0.077600	0.867400	0.379900
C2981	C298	0.077000	0.620300	0.367800
O2141	O214	0.974500	0.766300	0.304600
C2991	C299	0.041400	0.631700	0.345200
N441	N44	0.041500	0.625400	0.306600
H2141	H214	0.061300	0.614400	0.295700
C3001	C300	0.008500	0.637000	0.283200
H2151	H215	0.984600	0.629700	0.297200
C3011	C301	0.007400	0.743800	0.382700
C3021	C302	0.100100	0.587300	0.357500
H2161	H216	0.093400	0.572500	0.335600
C3031	C303	0.007100	0.681100	0.275400
O2151	O215	0.012600	0.862200	0.354300
C3041	C304	0.007000	0.775400	0.318300
C3051	C305	0.003000	0.745400	0.426300
C3061	C306	0.041500	0.845100	0.368500
O2161	O216	0.039000	0.776300	0.300750
C3071	C307	0.002800	0.573500	0.245500
O2171	O217	0.008900	0.555900	0.213700
O2181	O218	0.039300	0.699300	0.276100
O2191	O219	0.992600	0.777200	0.442200
C3081	C308	0.007700	0.783600	0.363200
O2201	O220	0.992600	0.558100	0.277500
H2171	H217	0.062300	0.795400	0.384000
H2181	H218	0.033100	0.730000	0.377600
H2191	H219	0.987700	0.727000	0.371800
H2201	H220	0.984500	0.797700	0.369800
O2211	O221	0.512700	0.146000	0.362500
O2221	O222	0.474400	0.194800	0.266000
C3091	C309	0.587800	0.400300	0.357700
H2211	H221	0.572700	0.407200	0.336200
C3101	C310	0.507900	0.117300	0.243300
H2221	H222	0.486800	0.128200	0.227900
H2231	H223	0.532300	0.123000	0.229800
N451	N45	0.541300	0.306100	0.374600
O2231	O223	0.508800	0.213600	0.444500
C3111	C311	0.577600	0.367400	0.379900
C3121	C312	0.577000	0.120300	0.367800
O2241	O224	0.474500	0.266300	0.304600
C3131	C313	0.541400	0.131700	0.345200
N461	N46	0.541500	0.125400	0.306600
H2241	H224	0.561300	0.114400	0.295700
C3141	C314	0.508500	0.137000	0.283200
H2251	H225	0.484600	0.129700	0.297200
C3151	C315	0.507400	0.243800	0.382700
C3161	C316	0.600100	0.087300	0.357500
H2261	H226	0.593400	0.072500	0.335600
C3171	C317	0.507100	0.181100	0.275400
O2251	O225	0.512600	0.362200	0.354300
C3181	C318	0.507000	0.275400	0.318300
C3191	C319	0.503000	0.245400	0.426300
C3201	C320	0.541500	0.345100	0.368500
O2261	O226	0.539000	0.276300	0.300750
C3211	C321	0.502800	0.073500	0.245500
O2271	O227	0.508900	0.055900	0.213700
O2281	O228	0.539300	0.199300	0.276100
O2291	O229	0.492600	0.277200	0.442200
C3221	C322	0.507700	0.283600	0.363200
O2301	O230	0.492600	0.058100	0.277500
H2271	H227	0.562300	0.295400	0.384000
H2281	H228	0.533100	0.230000	0.377600
H2291	H229	0.487700	0.227000	0.371800
H2301	H230	0.484500	0.297700	0.369800
O2311	O231	0.512700	0.646000	0.862500
O2321	O232	0.474400	0.694800	0.766000
C3231	C323	0.587800	0.900300	0.857700
H2311	H231	0.572700	0.907200	0.836200
C3241	C324	0.507900	0.617300	0.743300
H2321	H232	0.486800	0.628200	0.727900
H2331	H233	0.532300	0.623000	0.729800
N471	N47	0.541300	0.806100	0.874600
O2331	O233	0.508800	0.713600	0.944500
C3251	C325	0.577600	0.867400	0.879900
C3261	C326	0.577000	0.620300	0.867800
O2341	O234	0.474500	0.766300	0.804600
C3271	C327	0.541400	0.631700	0.845200
N481	N48	0.541500	0.625400	0.806600
H2341	H234	0.561300	0.614400	0.795700
C3281	C328	0.508500	0.637000	0.783200
H2351	H235	0.484600	0.629700	0.797200
C3291	C329	0.507400	0.743800	0.882700
C3301	C330	0.600100	0.587300	0.857500
H2361	H236	0.593400	0.572500	0.835600
C3311	C331	0.507100	0.681100	0.775400
O2351	O235	0.512600	0.862200	0.854300
C3321	C332	0.507000	0.775400	0.818300
C3331	C333	0.503000	0.745400	0.926300
C3341	C334	0.541500	0.845100	0.868500
O2361	O236	0.539000	0.776300	0.800750
C3351	C335	0.502800	0.573500	0.745500
O2371	O237	0.508900	0.555900	0.713700
O2381	O238	0.539300	0.699300	0.776100
O2391	O239	0.492600	0.777200	0.942200
C3361	C336	0.507700	0.783600	0.863200
O2401	O240	0.492600	0.558100	0.777500
H2371	H237	0.562300	0.795400	0.884000
H2381	H238	0.533100	0.730000	0.877600
H2391	H239	0.487700	0.727000	0.871800
H2401	H240	0.484500	0.797700	0.869800
O2411	O241	0.987300	0.146000	0.137500
O2421	O242	0.025600	0.194800	0.234000
C3371	C337	0.912200	0.400300	0.142300
H2411	H241	0.927300	0.407200	0.163800
C3381	C338	0.992100	0.117300	0.256700
H2421	H242	0.013200	0.128200	0.272100
H2431	H243	0.967700	0.123000	0.270200
N491	N49	0.958700	0.306100	0.125400
O2431	O243	0.991200	0.213600	0.055500
C3391	C339	0.922400	0.367400	0.120100
C3401	C340	0.923000	0.120300	0.132200
O2441	O244	0.025500	0.266300	0.195400
C3411	C341	0.958600	0.131700	0.154800
N501	N50	0.958500	0.125400	0.193400
H2441	H244	0.938700	0.114400	0.204300
C3421	C342	0.991500	0.137000	0.216800
H2451	H245	0.015400	0.129700	0.202800
C3431	C343	0.992600	0.243800	0.117300
C3441	C344	0.899900	0.087300	0.142500
H2461	H246	0.906600	0.072500	0.164400
C3451	C345	0.992900	0.181100	0.224600
O2451	O245	0.987400	0.362200	0.145700
C3461	C346	0.993000	0.275400	0.181700
C3471	C347	0.997000	0.245400	0.073700
C3481	C348	0.958500	0.345100	0.131500
O2461	O246	0.961000	0.276300	0.199250
C3491	C349	0.997200	0.073500	0.254500
O2471	O247	0.991100	0.055900	0.286300
O2481	O248	0.960700	0.199300	0.223900
O2491	O249	0.007400	0.277200	0.057800
C3501	C350	0.992300	0.283600	0.136800
O2501	O250	0.007400	0.058100	0.222500
H2471	H247	0.937700	0.295400	0.116000
H2481	H248	0.966900	0.230000	0.122400
H2491	H249	0.012300	0.227000	0.128200
H2501	H250	0.015500	0.297700	0.130200
O2511	O251	0.987300	0.646000	0.637500
O2521	O252	0.025600	0.694800	0.734000
C3511	C351	0.912200	0.900300	0.642300
H2511	H251	0.927300	0.907200	0.663800
C3521	C352	0.992100	0.617300	0.756700
H2521	H252	0.013200	0.628200	0.772100
H2531	H253	0.967700	0.623000	0.770200
N511	N51	0.958700	0.806100	0.625400
O2531	O253	0.991200	0.713600	0.555500
C3531	C353	0.922400	0.867400	0.620100
C3541	C354	0.923000	0.620300	0.632200
O2541	O254	0.025500	0.766300	0.695400
C3551	C355	0.958600	0.631700	0.654800
N521	N52	0.958500	0.625400	0.693400
H2541	H254	0.938700	0.614400	0.704300
C3561	C356	0.991500	0.637000	0.716800
H2551	H255	0.015400	0.629700	0.702800
C3571	C357	0.992600	0.743800	0.617300
C3581	C358	0.899900	0.587300	0.642500
H2561	H256	0.906600	0.572500	0.664400
C3591	C359	0.992900	0.681100	0.724600
O2551	O255	0.987400	0.862200	0.645700
C3601	C360	0.993000	0.775400	0.681700
C3611	C361	0.997000	0.745400	0.573700
C3621	C362	0.958500	0.845100	0.631500
O2561	O256	0.961000	0.776300	0.699250
C3631	C363	0.997200	0.573500	0.754500
O2571	O257	0.991100	0.555900	0.786300
O2581	O258	0.960700	0.699300	0.723900
O2591	O259	0.007400	0.777200	0.557800
C3641	C364	0.992300	0.783600	0.636800
O2601	O260	0.007400	0.558100	0.722500
H2571	H257	0.937700	0.795400	0.616000
H2581	H258	0.966900	0.730000	0.622400
H2591	H259	0.012300	0.727000	0.628200
H2601	H260	0.015500	0.797700	0.630200
O2611	O261	0.487300	0.146000	0.637500
O2621	O262	0.525600	0.194800	0.734000
C3651	C365	0.412200	0.400300	0.642300
H2611	H261	0.427300	0.407200	0.663800
C3661	C366	0.492100	0.117300	0.756700
H2621	H262	0.513200	0.128200	0.772100
H2631	H263	0.467700	0.123000	0.770200
N531	N53	0.458700	0.306100	0.625400
O2631	O263	0.491200	0.213600	0.555500
C3671	C367	0.422400	0.367400	0.620100
C3681	C368	0.423000	0.120300	0.632200
O2641	O264	0.525500	0.266300	0.695400
C3691	C369	0.458600	0.131700	0.654800
N541	N54	0.458500	0.125400	0.693400
H2641	H264	0.438700	0.114400	0.704300
C3701	C370	0.491500	0.137000	0.716800
H2651	H265	0.515400	0.129700	0.702800
C3711	C371	0.492600	0.243800	0.617300
C3721	C372	0.399900	0.087300	0.642500
H2661	H266	0.406600	0.072500	0.664400
C3731	C373	0.492900	0.181100	0.724600
O2651	O265	0.487400	0.362200	0.645700
C3741	C374	0.493000	0.275400	0.681700
C3751	C375	0.497000	0.245400	0.573700
C3761	C376	0.458500	0.345100	0.631500
O2661	O266	0.461000	0.276300	0.699250
C3771	C377	0.497200	0.073500	0.754500
O2671	O267	0.491100	0.055900	0.786300
O2681	O268	0.460700	0.199300	0.723900
O2691	O269	0.507400	0.277200	0.557800
C3781	C378	0.492300	0.283600	0.636800
O2701	O270	0.507400	0.058100	0.722500
H2671	H267	0.437700	0.295400	0.616000
H2681	H268	0.466900	0.230000	0.622400
H2691	H269	0.512300	0.227000	0.628200
H2701	H270	0.515500	0.297700	0.630200
O2711	O271	0.487300	0.646000	0.137500
O2721	O272	0.525600	0.694800	0.234000
C3791	C379	0.412200	0.900300	0.142300
H2711	H271	0.427300	0.907200	0.163800
C3801	C380	0.492100	0.617300	0.256700
H2721	H272	0.513200	0.628200	0.272100
H2731	H273	0.467700	0.623000	0.270200
N551	N55	0.458700	0.806100	0.125400
O2731	O273	0.491200	0.713600	0.055500
C3811	C381	0.422400	0.867400	0.120100
C3821	C382	0.423000	0.620300	0.132200
O2741	O274	0.525500	0.766300	0.195400
C3831	C383	0.458600	0.631700	0.154800
N561	N56	0.458500	0.625400	0.193400
H2741	H274	0.438700	0.614400	0.204300
C3841	C384	0.491500	0.637000	0.216800
H2751	H275	0.515400	0.629700	0.202800
C3851	C385	0.492600	0.743800	0.117300
C3861	C386	0.399900	0.587300	0.142500
H2761	H276	0.406600	0.572500	0.164400
C3871	C387	0.492900	0.681100	0.224600
O2751	O275	0.487400	0.862200	0.145700
C3881	C388	0.493000	0.775400	0.181700
C3891	C389	0.497000	0.745400	0.073700
C3901	C390	0.458500	0.845100	0.131500
O2761	O276	0.461000	0.776300	0.199250
C3911	C391	0.497200	0.573500	0.254500
O2771	O277	0.491100	0.555900	0.286300
O2781	O278	0.460700	0.699300	0.223900
O2791	O279	0.507400	0.777200	0.057800
C3921	C392	0.492300	0.783600	0.136800
O2801	O280	0.507400	0.558100	0.222500
H2771	H277	0.437700	0.795400	0.116000
H2781	H278	0.466900	0.730000	0.122400
H2791	H279	0.512300	0.727000	0.128200
H2801	H280	0.515500	0.797700	0.130200
O2811	O281	0.987300	0.854000	0.862500
O2821	O282	0.025600	0.805200	0.766000
C3931	C393	0.912200	0.599700	0.857700
H2811	H281	0.927300	0.592800	0.836200
C3941	C394	0.992100	0.882700	0.743300
H2821	H282	0.013200	0.871800	0.727900
H2831	H283	0.967700	0.877000	0.729800
N571	N57	0.958700	0.693900	0.874600
O2831	O283	0.991200	0.786400	0.944500
C3951	C395	0.922400	0.632600	0.879900
C3961	C396	0.923000	0.879700	0.867800
O2841	O284	0.025500	0.733700	0.804600
C3971	C397	0.958600	0.868300	0.845200
N581	N58	0.958500	0.874600	0.806600
H2841	H284	0.938700	0.885600	0.795700
C3981	C398	0.991500	0.863000	0.783200
H2851	H285	0.015400	0.870300	0.797200
C3991	C399	0.992600	0.756200	0.882700
C4001	C400	0.899900	0.912700	0.857500
H2861	H286	0.906600	0.927500	0.835600
C4011	C401	0.992900	0.818900	0.775400
O2851	O285	0.987400	0.637800	0.854300
C4021	C402	0.993000	0.724600	0.818300
C4031	C403	0.997000	0.754600	0.926300
C4041	C404	0.958500	0.654900	0.868500
O2861	O286	0.961000	0.723700	0.800750
C4051	C405	0.997200	0.926500	0.745500
O2871	O287	0.991100	0.944100	0.713700
O2881	O288	0.960700	0.800700	0.776100
O2891	O289	0.007400	0.722800	0.942200
C4061	C406	0.992300	0.716400	0.863200
O2901	O290	0.007400	0.941900	0.777500
H2871	H287	0.937700	0.704600	0.884000
H2881	H288	0.966900	0.770000	0.877600
H2891	H289	0.012300	0.773000	0.871800
H2901	H290	0.015500	0.702300	0.869800
O2911	O291	0.987300	0.354000	0.362500
O2921	O292	0.025600	0.305200	0.266000
C4071	C407	0.912200	0.099700	0.357700
H2911	H291	0.927300	0.092800	0.336200
C4081	C408	0.992100	0.382700	0.243300
H2921	H292	0.013200	0.371800	0.227900
H2931	H293	0.967700	0.377000	0.229800
N591	N59	0.958700	0.193900	0.374600
O2931	O293	0.991200	0.286400	0.444500
C4091	C409	0.922400	0.132600	0.379900
C4101	C410	0.923000	0.379700	0.367800
O2941	O294	0.025500	0.233700	0.304600
C4111	C411	0.958600	0.368300	0.345200
N601	N60	0.958500	0.374600	0.306600
H2941	H294	0.938700	0.385600	0.295700
C4121	C412	0.991500	0.363000	0.283200
H2951	H295	0.015400	0.370300	0.297200
C4131	C413	0.992600	0.256200	0.382700
C4141	C414	0.899900	0.412700	0.357500
H2961	H296	0.906600	0.427500	0.335600
C4151	C415	0.992900	0.318900	0.275400
O2951	O295	0.987400	0.137800	0.354300
C4161	C416	0.993000	0.224600	0.318300
C4171	C417	0.997000	0.254600	0.426300
C4181	C418	0.958500	0.154900	0.368500
O2961	O296	0.961000	0.223700	0.300750
C4191	C419	0.997200	0.426500	0.245500
O2971	O297	0.991100	0.444100	0.213700
O2981	O298	0.960700	0.300700	0.276100
O2991	O299	0.007400	0.222800	0.442200
C4201	C420	0.992300	0.216400	0.363200
O3001	O300	0.007400	0.441900	0.277500
H2971	H297	0.937700	0.204600	0.384000
H2981	H298	0.966900	0.270000	0.377600
H2991	H299	0.012300	0.273000	0.371800
H3001	H300	0.015500	0.202300	0.369800
O3011	O301	0.487300	0.854000	0.362500
O3021	O302	0.525600	0.805200	0.266000
C4211	C421	0.412200	0.599700	0.357700
H3011	H301	0.427300	0.592800	0.336200
C4221	C422	0.492100	0.882700	0.243300
H3021	H302	0.513200	0.871800	0.227900
H3031	H303	0.467700	0.877000	0.229800
N611	N61	0.458700	0.693900	0.374600
O3031	O303	0.491200	0.786400	0.444500
C4231	C423	0.422400	0.632600	0.379900
C4241	C424	0.423000	0.879700	0.367800
O3041	O304	0.525500	0.733700	0.304600
C4251	C425	0.458600	0.868300	0.345200
N621	N62	0.458500	0.874600	0.306600
H3041	H304	0.438700	0.885600	0.295700
C4261	C426	0.491500	0.863000	0.283200
H3051	H305	0.515400	0.870300	0.297200
C4271	C427	0.492600	0.756200	0.382700
C4281	C428	0.399900	0.912700	0.357500
H3061	H306	0.406600	0.927500	0.335600
C4291	C429	0.492900	0.818900	0.275400
O3051	O305	0.487400	0.637800	0.354300
C4301	C430	0.493000	0.724600	0.318300
C4311	C431	0.497000	0.754600	0.426300
C4321	C432	0.458500	0.654900	0.368500
O3061	O306	0.461000	0.723700	0.300750
C4331	C433	0.497200	0.926500	0.245500
O3071	O307	0.491100	0.944100	0.213700
O3081	O308	0.460700	0.800700	0.276100
O3091	O309	0.507400	0.722800	0.442200
C4341	C434	0.492300	0.716400	0.363200
O3101	O310	0.507400	0.941900	0.277500
H3071	H307	0.437700	0.704600	0.384000
H3081	H308	0.466900	0.770000	0.377600
H3091	H309	0.512300	0.773000	0.371800
H3101	H310	0.515500	0.702300	0.369800
O3111	O311	0.487300	0.354000	0.862500
O3121	O312	0.525600	0.305200	0.766000
C4351	C435	0.412200	0.099700	0.857700
H3111	H311	0.427300	0.092800	0.836200
C4361	C436	0.492100	0.382700	0.743300
H3121	H312	0.513200	0.371800	0.727900
H3131	H313	0.467700	0.377000	0.729800
N631	N63	0.458700	0.193900	0.874600
O3131	O313	0.491200	0.286400	0.944500
C4371	C437	0.422400	0.132600	0.879900
C4381	C438	0.423000	0.379700	0.867800
O3141	O314	0.525500	0.233700	0.804600
C4391	C439	0.458600	0.368300	0.845200
N641	N64	0.458500	0.374600	0.806600
H3141	H314	0.438700	0.385600	0.795700
C4401	C440	0.491500	0.363000	0.783200
H3151	H315	0.515400	0.370300	0.797200
C4411	C441	0.492600	0.256200	0.882700
C4421	C442	0.399900	0.412700	0.857500
H3161	H316	0.406600	0.427500	0.835600
C4431	C443	0.492900	0.318900	0.775400
O3151	O315	0.487400	0.137800	0.854300
C4441	C444	0.493000	0.224600	0.818300
C4451	C445	0.497000	0.254600	0.926300
C4461	C446	0.458500	0.154900	0.868500
O3161	O316	0.461000	0.223700	0.800750
C4471	C447	0.497200	0.426500	0.745500
O3171	O317	0.491100	0.444100	0.713700
O3181	O318	0.460700	0.300700	0.776100
O3191	O319	0.507400	0.222800	0.942200
C4481	C448	0.492300	0.216400	0.863200
O3201	O320	0.507400	0.441900	0.777500
H3171	H317	0.437700	0.204600	0.884000
H3181	H318	0.466900	0.270000	0.877600
H3191	H319	0.512300	0.273000	0.871800
H3201	H320	0.515500	0.202300	0.869800
O3211	O321	0.137500	0.012700	0.854000
O3221	O322	0.234000	0.974400	0.805200
C4491	C449	0.142300	0.087800	0.599700
H3211	H321	0.163800	0.072700	0.592800
C4501	C450	0.256700	0.007900	0.882700
H3221	H322	0.272100	0.986800	0.871800
H3231	H323	0.270200	0.032300	0.877000
N651	N65	0.125400	0.041300	0.693900
O3231	O323	0.055500	0.008800	0.786400
C4511	C451	0.120100	0.077600	0.632600
C4521	C452	0.132200	0.077000	0.879700
O3241	O324	0.195400	0.974500	0.733700
C4531	C453	0.154800	0.041400	0.868300
N661	N66	0.193400	0.041500	0.874600
H3241	H324	0.204300	0.061300	0.885600
C4541	C454	0.216800	0.008500	0.863000
H3251	H325	0.202800	0.984600	0.870300
C4551	C455	0.117300	0.007400	0.756200
C4561	C456	0.142500	0.100100	0.912700
H3261	H326	0.164400	0.093400	0.927500
C4571	C457	0.224600	0.007100	0.818900
O3251	O325	0.145700	0.012600	0.637800
C4581	C458	0.181700	0.007000	0.724600
C4591	C459	0.073700	0.003000	0.754600
C4601	C460	0.131500	0.041500	0.654900
O3261	O326	0.199250	0.039000	0.723700
C4611	C461	0.254500	0.002800	0.926500
O3271	O327	0.286300	0.008900	0.944100
O3281	O328	0.223900	0.039300	0.800700
O3291	O329	0.057800	0.992600	0.722800
C4621	C462	0.136800	0.007700	0.716400
O3301	O330	0.222500	0.992600	0.941900
H3271	H327	0.116000	0.062300	0.704600
H3281	H328	0.122400	0.033100	0.770000
H3291	H329	0.128200	0.987700	0.773000
H3301	H330	0.130200	0.984500	0.702300
O3311	O331	0.137500	0.512700	0.354000
O3321	O332	0.234000	0.474400	0.305200
C4631	C463	0.142300	0.587800	0.099700
H3311	H331	0.163800	0.572700	0.092800
C4641	C464	0.256700	0.507900	0.382700
H3321	H332	0.272100	0.486800	0.371800
H3331	H333	0.270200	0.532300	0.377000
N671	N67	0.125400	0.541300	0.193900
O3331	O333	0.055500	0.508800	0.286400
C4651	C465	0.120100	0.577600	0.132600
C4661	C466	0.132200	0.577000	0.379700
O3341	O334	0.195400	0.474500	0.233700
C4671	C467	0.154800	0.541400	0.368300
N681	N68	0.193400	0.541500	0.374600
H3341	H334	0.204300	0.561300	0.385600
C4681	C468	0.216800	0.508500	0.363000
H3351	H335	0.202800	0.484600	0.370300
C4691	C469	0.117300	0.507400	0.256200
C4701	C470	0.142500	0.600100	0.412700
H3361	H336	0.164400	0.593400	0.427500
C4711	C471	0.224600	0.507100	0.318900
O3351	O335	0.145700	0.512600	0.137800
C4721	C472	0.181700	0.507000	0.224600
C4731	C473	0.073700	0.503000	0.254600
C4741	C474	0.131500	0.541500	0.154900
O3361	O336	0.199250	0.539000	0.223700
C4751	C475	0.254500	0.502800	0.426500
O3371	O337	0.286300	0.508900	0.444100
O3381	O338	0.223900	0.539300	0.300700
O3391	O339	0.057800	0.492600	0.222800
C4761	C476	0.136800	0.507700	0.216400
O3401	O340	0.222500	0.492600	0.441900
H3371	H337	0.116000	0.562300	0.204600
H3381	H338	0.122400	0.533100	0.270000
H3391	H339	0.128200	0.487700	0.273000
H3401	H340	0.130200	0.484500	0.202300
O3411	O341	0.637500	0.012700	0.354000
O3421	O342	0.734000	0.974400	0.305200
C4771	C477	0.642300	0.087800	0.099700
H3411	H341	0.663800	0.072700	0.092800
C4781	C478	0.756700	0.007900	0.382700
H3421	H342	0.772100	0.986800	0.371800
H3431	H343	0.770200	0.032300	0.377000
N691	N69	0.625400	0.041300	0.193900
O3431	O343	0.555500	0.008800	0.286400
C4791	C479	0.620100	0.077600	0.132600
C4801	C480	0.632200	0.077000	0.379700
O3441	O344	0.695400	0.974500	0.233700
C4811	C481	0.654800	0.041400	0.368300
N701	N70	0.693400	0.041500	0.374600
H3441	H344	0.704300	0.061300	0.385600
C4821	C482	0.716800	0.008500	0.363000
H3451	H345	0.702800	0.984600	0.370300
C4831	C483	0.617300	0.007400	0.256200
C4841	C484	0.642500	0.100100	0.412700
H3461	H346	0.664400	0.093400	0.427500
C4851	C485	0.724600	0.007100	0.318900
O3451	O345	0.645700	0.012600	0.137800
C4861	C486	0.681700	0.007000	0.224600
C4871	C487	0.573700	0.003000	0.254600
C4881	C488	0.631500	0.041500	0.154900
O3461	O346	0.699250	0.039000	0.223700
C4891	C489	0.754500	0.002800	0.426500
O3471	O347	0.786300	0.008900	0.444100
O3481	O348	0.723900	0.039300	0.300700
O3491	O349	0.557800	0.992600	0.222800
C4901	C490	0.636800	0.007700	0.216400
O3501	O350	0.722500	0.992600	0.441900
H3471	H347	0.616000	0.062300	0.204600
H3481	H348	0.622400	0.033100	0.270000
H3491	H349	0.628200	0.987700	0.273000
H3501	H350	0.630200	0.984500	0.202300
O3511	O351	0.637500	0.512700	0.854000
O3521	O352	0.734000	0.474400	0.805200
C4911	C491	0.642300	0.587800	0.599700
H3511	H351	0.663800	0.572700	0.592800
C4921	C492	0.756700	0.507900	0.882700
H3521	H352	0.772100	0.486800	0.871800
H3531	H353	0.770200	0.532300	0.877000
N711	N71	0.625400	0.541300	0.693900
O3531	O353	0.555500	0.508800	0.786400
C4931	C493	0.620100	0.577600	0.632600
C4941	C494	0.632200	0.577000	0.879700
O3541	O354	0.695400	0.474500	0.733700
C4951	C495	0.654800	0.541400	0.868300
N721	N72	0.693400	0.541500	0.874600
H3541	H354	0.704300	0.561300	0.885600
C4961	C496	0.716800	0.508500	0.863000
H3551	H355	0.702800	0.484600	0.870300
C4971	C497	0.617300	0.507400	0.756200
C4981	C498	0.642500	0.600100	0.912700
H3561	H356	0.664400	0.593400	0.927500
C4991	C499	0.724600	0.507100	0.818900
O3551	O355	0.645700	0.512600	0.637800
C5001	C500	0.681700	0.507000	0.724600
C5011	C501	0.573700	0.503000	0.754600
C5021	C502	0.631500	0.541500	0.654900
O3561	O356	0.699250	0.539000	0.723700
C5031	C503	0.754500	0.502800	0.926500
O3571	O357	0.786300	0.508900	0.944100
O3581	O358	0.723900	0.539300	0.800700
O3591	O359	0.557800	0.492600	0.722800
C5041	C504	0.636800	0.507700	0.716400
O3601	O360	0.722500	0.492600	0.941900
H3571	H357	0.616000	0.562300	0.704600
H3581	H358	0.622400	0.533100	0.770000
H3591	H359	0.628200	0.487700	0.773000
H3601	H360	0.630200	0.484500	0.702300
O3611	O361	0.862500	0.012700	0.146000
O3621	O362	0.766000	0.974400	0.194800
C5051	C505	0.857700	0.087800	0.400300
H3611	H361	0.836200	0.072700	0.407200
C5061	C506	0.743300	0.007900	0.117300
H3621	H362	0.727900	0.986800	0.128200
H3631	H363	0.729800	0.032300	0.123000
N731	N73	0.874600	0.041300	0.306100
O3631	O363	0.944500	0.008800	0.213600
C5071	C507	0.879900	0.077600	0.367400
C5081	C508	0.867800	0.077000	0.120300
O3641	O364	0.804600	0.974500	0.266300
C5091	C509	0.845200	0.041400	0.131700
N741	N74	0.806600	0.041500	0.125400
H3641	H364	0.795700	0.061300	0.114400
C5101	C510	0.783200	0.008500	0.137000
H3651	H365	0.797200	0.984600	0.129700
C5111	C511	0.882700	0.007400	0.243800
C5121	C512	0.857500	0.100100	0.087300
H3661	H366	0.835600	0.093400	0.072500
C5131	C513	0.775400	0.007100	0.181100
O3651	O365	0.854300	0.012600	0.362200
C5141	C514	0.818300	0.007000	0.275400
C5151	C515	0.926300	0.003000	0.245400
C5161	C516	0.868500	0.041500	0.345100
O3661	O366	0.800750	0.039000	0.276300
C5171	C517	0.745500	0.002800	0.073500
O3671	O367	0.713700	0.008900	0.055900
O3681	O368	0.776100	0.039300	0.199300
O3691	O369	0.942200	0.992600	0.277200
C5181	C518	0.863200	0.007700	0.283600
O3701	O370	0.777500	0.992600	0.058100
H3671	H367	0.884000	0.062300	0.295400
H3681	H368	0.877600	0.033100	0.230000
H3691	H369	0.871800	0.987700	0.227000
H3701	H370	0.869800	0.984500	0.297700
O3711	O371	0.862500	0.512700	0.646000
O3721	O372	0.766000	0.474400	0.694800
C5191	C519	0.857700	0.587800	0.900300
H3711	H371	0.836200	0.572700	0.907200
C5201	C520	0.743300	0.507900	0.617300
H3721	H372	0.727900	0.486800	0.628200
H3731	H373	0.729800	0.532300	0.623000
N751	N75	0.874600	0.541300	0.806100
O3731	O373	0.944500	0.508800	0.713600
C5211	C521	0.879900	0.577600	0.867400
C5221	C522	0.867800	0.577000	0.620300
O3741	O374	0.804600	0.474500	0.766300
C5231	C523	0.845200	0.541400	0.631700
N761	N76	0.806600	0.541500	0.625400
H3741	H374	0.795700	0.561300	0.614400
C5241	C524	0.783200	0.508500	0.637000
H3751	H375	0.797200	0.484600	0.629700
C5251	C525	0.882700	0.507400	0.743800
C5261	C526	0.857500	0.600100	0.587300
H3761	H376	0.835600	0.593400	0.572500
C5271	C527	0.775400	0.507100	0.681100
O3751	O375	0.854300	0.512600	0.862200
C5281	C528	0.818300	0.507000	0.775400
C5291	C529	0.926300	0.503000	0.745400
C5301	C530	0.868500	0.541500	0.845100
O3761	O376	0.800750	0.539000	0.776300
C5311	C531	0.745500	0.502800	0.573500
O3771	O377	0.713700	0.508900	0.555900
O3781	O378	0.776100	0.539300	0.699300
O3791	O379	0.942200	0.492600	0.777200
C5321	C532	0.863200	0.507700	0.783600
O3801	O380	0.777500	0.492600	0.558100
H3771	H377	0.884000	0.562300	0.795400
H3781	H378	0.877600	0.533100	0.730000
H3791	H379	0.871800	0.487700	0.727000
H3801	H380	0.869800	0.484500	0.797700
O3811	O381	0.362500	0.012700	0.646000
O3821	O382	0.266000	0.974400	0.694800
C5331	C533	0.357700	0.087800	0.900300
H3811	H381	0.336200	0.072700	0.907200
C5341	C534	0.243300	0.007900	0.617300
H3821	H382	0.227900	0.986800	0.628200
H3831	H383	0.229800	0.032300	0.623000
N771	N77	0.374600	0.041300	0.806100
O3831	O383	0.444500	0.008800	0.713600
C5351	C535	0.379900	0.077600	0.867400
C5361	C536	0.367800	0.077000	0.620300
O3841	O384	0.304600	0.974500	0.766300
C5371	C537	0.345200	0.041400	0.631700
N781	N78	0.306600	0.041500	0.625400
H3841	H384	0.295700	0.061300	0.614400
C5381	C538	0.283200	0.008500	0.637000
H3851	H385	0.297200	0.984600	0.629700
C5391	C539	0.382700	0.007400	0.743800
C5401	C540	0.357500	0.100100	0.587300
H3861	H386	0.335600	0.093400	0.572500
C5411	C541	0.275400	0.007100	0.681100
O3851	O385	0.354300	0.012600	0.862200
C5421	C542	0.318300	0.007000	0.775400
C5431	C543	0.426300	0.003000	0.745400
C5441	C544	0.368500	0.041500	0.845100
O3861	O386	0.300750	0.039000	0.776300
C5451	C545	0.245500	0.002800	0.573500
O3871	O387	0.213700	0.008900	0.555900
O3881	O388	0.276100	0.039300	0.699300
O3891	O389	0.442200	0.992600	0.777200
C5461	C546	0.363200	0.007700	0.783600
O3901	O390	0.277500	0.992600	0.558100
H3871	H387	0.384000	0.062300	0.795400
H3881	H388	0.377600	0.033100	0.730000
H3891	H389	0.371800	0.987700	0.727000
H3901	H390	0.369800	0.984500	0.797700
O3911	O391	0.362500	0.512700	0.146000
O3921	O392	0.266000	0.474400	0.194800
C5471	C547	0.357700	0.587800	0.400300
H3911	H391	0.336200	0.572700	0.407200
C5481	C548	0.243300	0.507900	0.117300
H3921	H392	0.227900	0.486800	0.128200
H3931	H393	0.229800	0.532300	0.123000
N791	N79	0.374600	0.541300	0.306100
O3931	O393	0.444500	0.508800	0.213600
C5491	C549	0.379900	0.577600	0.367400
C5501	C550	0.367800	0.577000	0.120300
O3941	O394	0.304600	0.474500	0.266300
C5511	C551	0.345200	0.541400	0.131700
N801	N80	0.306600	0.541500	0.125400
H3941	H394	0.295700	0.561300	0.114400
C5521	C552	0.283200	0.508500	0.137000
H3951	H395	0.297200	0.484600	0.129700
C5531	C553	0.382700	0.507400	0.243800
C5541	C554	0.357500	0.600100	0.087300
H3961	H396	0.335600	0.593400	0.072500
C5551	C555	0.275400	0.507100	0.181100
O3951	O395	0.354300	0.512600	0.362200
C5561	C556	0.318300	0.507000	0.275400
C5571	C557	0.426300	0.503000	0.245400
C5581	C558	0.368500	0.541500	0.345100
O3961	O396	0.300750	0.539000	0.276300
C5591	C559	0.245500	0.502800	0.073500
O3971	O397	0.213700	0.508900	0.055900
O3981	O398	0.276100	0.539300	0.199300
O3991	O399	0.442200	0.492600	0.277200
C5601	C560	0.363200	0.507700	0.283600
O4001	O400	0.277500	0.492600	0.058100
H3971	H397	0.384000	0.562300	0.295400
H3981	H398	0.377600	0.533100	0.230000
H3991	H399	0.371800	0.487700	0.227000
H4001	H400	0.369800	0.484500	0.297700
O4011	O401	0.137500	0.987300	0.146000
O4021	O402	0.234000	0.025600	0.194800
C5611	C561	0.142300	0.912200	0.400300
H4011	H401	0.163800	0.927300	0.407200
C5621	C562	0.256700	0.992100	0.117300
H4021	H402	0.272100	0.013200	0.128200
H4031	H403	0.270200	0.967700	0.123000
N811	N81	0.125400	0.958700	0.306100
O4031	O403	0.055500	0.991200	0.213600
C5631	C563	0.120100	0.922400	0.367400
C5641	C564	0.132200	0.923000	0.120300
O4041	O404	0.195400	0.025500	0.266300
C5651	C565	0.154800	0.958600	0.131700
N821	N82	0.193400	0.958500	0.125400
H4041	H404	0.204300	0.938700	0.114400
C5661	C566	0.216800	0.991500	0.137000
H4051	H405	0.202800	0.015400	0.129700
C5671	C567	0.117300	0.992600	0.243800
C5681	C568	0.142500	0.899900	0.087300
H4061	H406	0.164400	0.906600	0.072500
C5691	C569	0.224600	0.992900	0.181100
O4051	O405	0.145700	0.987400	0.362200
C5701	C570	0.181700	0.993000	0.275400
C5711	C571	0.073700	0.997000	0.245400
C5721	C572	0.131500	0.958500	0.345100
O4061	O406	0.199250	0.961000	0.276300
C5731	C573	0.254500	0.997200	0.073500
O4071	O407	0.286300	0.991100	0.055900
O4081	O408	0.223900	0.960700	0.199300
O4091	O409	0.057800	0.007400	0.277200
C5741	C574	0.136800	0.992300	0.283600
O4101	O410	0.222500	0.007400	0.058100
H4071	H407	0.116000	0.937700	0.295400
H4081	H408	0.122400	0.966900	0.230000
H4091	H409	0.128200	0.012300	0.227000
H4101	H410	0.130200	0.015500	0.297700
O4111	O411	0.137500	0.487300	0.646000
O4121	O412	0.234000	0.525600	0.694800
C5751	C575	0.142300	0.412200	0.900300
H4111	H411	0.163800	0.427300	0.907200
C5761	C576	0.256700	0.492100	0.617300
H4121	H412	0.272100	0.513200	0.628200
H4131	H413	0.270200	0.467700	0.623000
N831	N83	0.125400	0.458700	0.806100
O4131	O413	0.055500	0.491200	0.713600
C5771	C577	0.120100	0.422400	0.867400
C5781	C578	0.132200	0.423000	0.620300
O4141	O414	0.195400	0.525500	0.766300
C5791	C579	0.154800	0.458600	0.631700
N841	N84	0.193400	0.458500	0.625400
H4141	H414	0.204300	0.438700	0.614400
C5801	C580	0.216800	0.491500	0.637000
H4151	H415	0.202800	0.515400	0.629700
C5811	C581	0.117300	0.492600	0.743800
C5821	C582	0.142500	0.399900	0.587300
H4161	H416	0.164400	0.406600	0.572500
C5831	C583	0.224600	0.492900	0.681100
O4151	O415	0.145700	0.487400	0.862200
C5841	C584	0.181700	0.493000	0.775400
C5851	C585	0.073700	0.497000	0.745400
C5861	C586	0.131500	0.458500	0.845100
O4161	O416	0.199250	0.461000	0.776300
C5871	C587	0.254500	0.497200	0.573500
O4171	O417	0.286300	0.491100	0.555900
O4181	O418	0.223900	0.460700	0.699300
O4191	O419	0.057800	0.507400	0.777200
C5881	C588	0.136800	0.492300	0.783600
O4201	O420	0.222500	0.507400	0.558100
H4171	H417	0.116000	0.437700	0.795400
H4181	H418	0.122400	0.466900	0.730000
H4191	H419	0.128200	0.512300	0.727000
H4201	H420	0.130200	0.515500	0.797700
O4211	O421	0.637500	0.987300	0.646000
O4221	O422	0.734000	0.025600	0.694800
C5891	C589	0.642300	0.912200	0.900300
H4211	H421	0.663800	0.927300	0.907200
C5901	C590	0.756700	0.992100	0.617300
H4221	H422	0.772100	0.013200	0.628200
H4231	H423	0.770200	0.967700	0.623000
N851	N85	0.625400	0.958700	0.806100
O4231	O423	0.555500	0.991200	0.713600
C5911	C591	0.620100	0.922400	0.867400
C5921	C592	0.632200	0.923000	0.620300
O4241	O424	0.695400	0.025500	0.766300
C5931	C593	0.654800	0.958600	0.631700
N861	N86	0.693400	0.958500	0.625400
H4241	H424	0.704300	0.938700	0.614400
C5941	C594	0.716800	0.991500	0.637000
H4251	H425	0.702800	0.015400	0.629700
C5951	C595	0.617300	0.992600	0.743800
C5961	C596	0.642500	0.899900	0.587300
H4261	H426	0.664400	0.906600	0.572500
C5971	C597	0.724600	0.992900	0.681100
O4251	O425	0.645700	0.987400	0.862200
C5981	C598	0.681700	0.993000	0.775400
C5991	C599	0.573700	0.997000	0.745400
C6001	C600	0.631500	0.958500	0.845100
O4261	O426	0.699250	0.961000	0.776300
C6011	C601	0.754500	0.997200	0.573500
O4271	O427	0.786300	0.991100	0.555900
O4281	O428	0.723900	0.960700	0.699300
O4291	O429	0.557800	0.007400	0.777200
C6021	C602	0.636800	0.992300	0.783600
O4301	O430	0.722500	0.007400	0.558100
H4271	H427	0.616000	0.937700	0.795400
H4281	H428	0.622400	0.966900	0.730000
H4291	H429	0.628200	0.012300	0.727000
H4301	H430	0.630200	0.015500	0.797700
O4311	O431	0.637500	0.487300	0.146000
O4321	O432	0.734000	0.525600	0.194800
C6031	C603	0.642300	0.412200	0.400300
H4311	H431	0.663800	0.427300	0.407200
C6041	C604	0.756700	0.492100	0.117300
H4321	H432	0.772100	0.513200	0.128200
H4331	H433	0.770200	0.467700	0.123000
N871	N87	0.625400	0.458700	0.306100
O4331	O433	0.555500	0.491200	0.213600
C6051	C605	0.620100	0.422400	0.367400
C6061	C606	0.632200	0.423000	0.120300
O4341	O434	0.695400	0.525500	0.266300
C6071	C607	0.654800	0.458600	0.131700
N881	N88	0.693400	0.458500	0.125400
H4341	H434	0.704300	0.438700	0.114400
C6081	C608	0.716800	0.491500	0.137000
H4351	H435	0.702800	0.515400	0.129700
C6091	C609	0.617300	0.492600	0.243800
C6101	C610	0.642500	0.399900	0.087300
H4361	H436	0.664400	0.406600	0.072500
C6111	C611	0.724600	0.492900	0.181100
O4351	O435	0.645700	0.487400	0.362200
C6121	C612	0.681700	0.493000	0.275400
C6131	C613	0.573700	0.497000	0.245400
C6141	C614	0.631500	0.458500	0.345100
O4361	O436	0.699250	0.461000	0.276300
C6151	C615	0.754500	0.497200	0.073500
O4371	O437	0.786300	0.491100	0.055900
O4381	O438	0.723900	0.460700	0.199300
O4391	O439	0.557800	0.507400	0.277200
C6161	C616	0.636800	0.492300	0.283600
O4401	O440	0.722500	0.507400	0.058100
H4371	H437	0.616000	0.437700	0.295400
H4381	H438	0.622400	0.466900	0.230000
H4391	H439	0.628200	0.512300	0.227000
H4401	H440	0.630200	0.515500	0.297700
O4411	O441	0.862500	0.987300	0.854000
O4421	O442	0.766000	0.025600	0.805200
C6171	C617	0.857700	0.912200	0.599700
H4411	H441	0.836200	0.927300	0.592800
C6181	C618	0.743300	0.992100	0.882700
H4421	H442	0.727900	0.013200	0.871800
H4431	H443	0.729800	0.967700	0.877000
N891	N89	0.874600	0.958700	0.693900
O4431	O443	0.944500	0.991200	0.786400
C6191	C619	0.879900	0.922400	0.632600
C6201	C620	0.867800	0.923000	0.879700
O4441	O444	0.804600	0.025500	0.733700
C6211	C621	0.845200	0.958600	0.868300
N901	N90	0.806600	0.958500	0.874600
H4441	H444	0.795700	0.938700	0.885600
C6221	C622	0.783200	0.991500	0.863000
H4451	H445	0.797200	0.015400	0.870300
C6231	C623	0.882700	0.992600	0.756200
C6241	C624	0.857500	0.899900	0.912700
H4461	H446	0.835600	0.906600	0.927500
C6251	C625	0.775400	0.992900	0.818900
O4451	O445	0.854300	0.987400	0.637800
C6261	C626	0.818300	0.993000	0.724600
C6271	C627	0.926300	0.997000	0.754600
C6281	C628	0.868500	0.958500	0.654900
O4461	O446	0.800750	0.961000	0.723700
C6291	C629	0.745500	0.997200	0.926500
O4471	O447	0.713700	0.991100	0.944100
O4481	O448	0.776100	0.960700	0.800700
O4491	O449	0.942200	0.007400	0.722800
C6301	C630	0.863200	0.992300	0.716400
O4501	O450	0.777500	0.007400	0.941900
H4471	H447	0.884000	0.937700	0.704600
H4481	H448	0.877600	0.966900	0.770000
H4491	H449	0.871800	0.012300	0.773000
H4501	H450	0.869800	0.015500	0.702300
O4511	O451	0.862500	0.487300	0.354000
O4521	O452	0.766000	0.525600	0.305200
C6311	C631	0.857700	0.412200	0.099700
H4511	H451	0.836200	0.427300	0.092800
C6321	C632	0.743300	0.492100	0.382700
H4521	H452	0.727900	0.513200	0.371800
H4531	H453	0.729800	0.467700	0.377000
N911	N91	0.874600	0.458700	0.193900
O4531	O453	0.944500	0.491200	0.286400
C6331	C633	0.879900	0.422400	0.132600
C6341	C634	0.867800	0.423000	0.379700
O4541	O454	0.804600	0.525500	0.233700
C6351	C635	0.845200	0.458600	0.368300
N921	N92	0.806600	0.458500	0.374600
H4541	H454	0.795700	0.438700	0.385600
C6361	C636	0.783200	0.491500	0.363000
H4551	H455	0.797200	0.515400	0.370300
C6371	C637	0.882700	0.492600	0.256200
C6381	C638	0.857500	0.399900	0.412700
H4561	H456	0.835600	0.406600	0.427500
C6391	C639	0.775400	0.492900	0.318900
O4551	O455	0.854300	0.487400	0.137800
C6401	C640	0.818300	0.493000	0.224600
C6411	C641	0.926300	0.497000	0.254600
C6421	C642	0.868500	0.458500	0.154900
O4561	O456	0.800750	0.461000	0.223700
C6431	C643	0.745500	0.497200	0.426500
O4571	O457	0.713700	0.491100	0.444100
O4581	O458	0.776100	0.460700	0.300700
O4591	O459	0.942200	0.507400	0.222800
C6441	C644	0.863200	0.492300	0.216400
O4601	O460	0.777500	0.507400	0.441900
H4571	H457	0.884000	0.437700	0.204600
H4581	H458	0.877600	0.466900	0.270000
H4591	H459	0.871800	0.512300	0.273000
H4601	H460	0.869800	0.515500	0.202300
O4611	O461	0.362500	0.987300	0.354000
O4621	O462	0.266000	0.025600	0.305200
C6451	C645	0.357700	0.912200	0.099700
H4611	H461	0.336200	0.927300	0.092800
C6461	C646	0.243300	0.992100	0.382700
H4621	H462	0.227900	0.013200	0.371800
H4631	H463	0.229800	0.967700	0.377000
N931	N93	0.374600	0.958700	0.193900
O4631	O463	0.444500	0.991200	0.286400
C6471	C647	0.379900	0.922400	0.132600
C6481	C648	0.367800	0.923000	0.379700
O4641	O464	0.304600	0.025500	0.233700
C6491	C649	0.345200	0.958600	0.368300
N941	N94	0.306600	0.958500	0.374600
H4641	H464	0.295700	0.938700	0.385600
C6501	C650	0.283200	0.991500	0.363000
H4651	H465	0.297200	0.015400	0.370300
C6511	C651	0.382700	0.992600	0.256200
C6521	C652	0.357500	0.899900	0.412700
H4661	H466	0.335600	0.906600	0.427500
C6531	C653	0.275400	0.992900	0.318900
O4651	O465	0.354300	0.987400	0.137800
C6541	C654	0.318300	0.993000	0.224600
C6551	C655	0.426300	0.997000	0.254600
C6561	C656	0.368500	0.958500	0.154900
O4661	O466	0.300750	0.961000	0.223700
C6571	C657	0.245500	0.997200	0.426500
O4671	O467	0.213700	0.991100	0.444100
O4681	O468	0.276100	0.960700	0.300700
O4691	O469	0.442200	0.007400	0.222800
C6581	C658	0.363200	0.992300	0.216400
O4701	O470	0.277500	0.007400	0.441900
H4671	H467	0.384000	0.937700	0.204600
H4681	H468	0.377600	0.966900	0.270000
H4691	H469	0.371800	0.012300	0.273000
H4701	H470	0.369800	0.015500	0.202300
O4711	O471	0.362500	0.487300	0.854000
O4721	O472	0.266000	0.525600	0.805200
C6591	C659	0.357700	0.412200	0.599700
H4711	H471	0.336200	0.427300	0.592800
C6601	C660	0.243300	0.492100	0.882700
H4721	H472	0.227900	0.513200	0.871800
H4731	H473	0.229800	0.467700	0.877000
N951	N95	0.374600	0.458700	0.693900
O4731	O473	0.444500	0.491200	0.786400
C6611	C661	0.379900	0.422400	0.632600
C6621	C662	0.367800	0.423000	0.879700
O4741	O474	0.304600	0.525500	0.733700
C6631	C663	0.345200	0.458600	0.868300
N961	N96	0.306600	0.458500	0.874600
H4741	H474	0.295700	0.438700	0.885600
C6641	C664	0.283200	0.491500	0.863000
H4751	H475	0.297200	0.515400	0.870300
C6651	C665	0.382700	0.492600	0.756200
C6661	C666	0.357500	0.399900	0.912700
H4761	H476	0.335600	0.406600	0.927500
C6671	C667	0.275400	0.492900	0.818900
O4751	O475	0.354300	0.487400	0.637800
C6681	C668	0.318300	0.493000	0.724600
C6691	C669	0.426300	0.497000	0.754600
C6701	C670	0.368500	0.458500	0.654900
O4761	O476	0.300750	0.461000	0.723700
C6711	C671	0.245500	0.497200	0.926500
O4771	O477	0.213700	0.491100	0.944100
O4781	O478	0.276100	0.460700	0.800700
O4791	O479	0.442200	0.507400	0.722800
C6721	C672	0.363200	0.492300	0.716400
O4801	O480	0.277500	0.507400	0.941900
H4771	H477	0.384000	0.437700	0.704600
H4781	H478	0.377600	0.466900	0.770000
H4791	H479	0.371800	0.512300	0.773000
H4801	H480	0.369800	0.515500	0.702300
Cu11	Cu1	0.750000	0.250000	0.045720
Cu21	Cu2	0.750000	0.250000	0.968430
Cu31	Cu3	0.750000	0.750000	0.545720
Cu41	Cu4	0.750000	0.750000	0.468430
Cu51	Cu5	0.250000	0.750000	0.045720
Cu61	Cu6	0.250000	0.750000	0.968430
Cu71	Cu7	0.250000	0.250000	0.545720
Cu81	Cu8	0.250000	0.250000	0.468430
Cu91	Cu9	0.250000	0.250000	0.954280
Cu101	Cu10	0.250000	0.250000	0.031570
Cu111	Cu11	0.250000	0.750000	0.454280
Cu121	Cu12	0.250000	0.750000	0.531570
Cu131	Cu13	0.750000	0.750000	0.954280
Cu141	Cu14	0.750000	0.750000	0.031570
Cu151	Cu15	0.750000	0.250000	0.454280
Cu161	Cu16	0.750000	0.250000	0.531570
Cu171	Cu17	0.045720	0.750000	0.250000
Cu181	Cu18	0.968430	0.750000	0.250000
Cu191	Cu19	0.545720	0.750000	0.750000
Cu201	Cu20	0.468430	0.750000	0.750000
Cu211	Cu21	0.045720	0.250000	0.750000
Cu221	Cu22	0.968430	0.250000	0.750000
Cu231	Cu23	0.545720	0.250000	0.250000
Cu241	Cu24	0.468430	0.250000	0.250000
Cu251	Cu25	0.954280	0.250000	0.250000
Cu261	Cu26	0.031570	0.250000	0.250000
Cu271	Cu27	0.454280	0.250000	0.750000
Cu281	Cu28	0.531570	0.250000	0.750000
Cu291	Cu29	0.954280	0.750000	0.750000
Cu301	Cu30	0.031570	0.750000	0.750000
Cu311	Cu31	0.454280	0.750000	0.250000
Cu321	Cu32	0.531570	0.750000	0.250000
Cu331	Cu33	0.250000	0.045720	0.750000
Cu341	Cu34	0.250000	0.968430	0.750000
Cu351	Cu35	0.250000	0.545720	0.250000
Cu361	Cu36	0.250000	0.468430	0.250000
Cu371	Cu37	0.750000	0.045720	0.250000
Cu381	Cu38	0.750000	0.968430	0.250000
Cu391	Cu39	0.750000	0.545720	0.750000
Cu401	Cu40	0.750000	0.468430	0.750000
Cu411	Cu41	0.250000	0.954280	0.250000
Cu421	Cu42	0.250000	0.031570	0.250000
Cu431	Cu43	0.250000	0.454280	0.750000
Cu441	Cu44	0.250000	0.531570	0.750000
Cu451	Cu45	0.750000	0.954280	0.750000
Cu461	Cu46	0.750000	0.031570	0.750000
Cu471	Cu47	0.750000	0.454280	0.250000
Cu481	Cu48	0.750000	0.531570	0.250000
Cu491	Cu49	0.710890	0.000000	0.000000
Cu501	Cu50	0.789010	0.000000	0.000000
Cu511	Cu51	0.710890	0.500000	0.500000
Cu521	Cu52	0.789010	0.500000	0.500000
Cu531	Cu53	0.210890	0.000000	0.500000
Cu541	Cu54	0.289010	0.000000	0.500000
Cu551	Cu55	0.210890	0.500000	0.000000
Cu561	Cu56	0.289010	0.500000	0.000000
Cu571	Cu57	0.289110	0.000000	0.000000
Cu581	Cu58	0.210990	0.000000	0.000000
Cu591	Cu59	0.289110	0.500000	0.500000
Cu601	Cu60	0.210990	0.500000	0.500000
Cu611	Cu61	0.789110	0.000000	0.500000
Cu621	Cu62	0.710990	0.000000	0.500000
Cu631	Cu63	0.789110	0.500000	0.000000
Cu641	Cu64	0.710990	0.500000	0.000000
Cu651	Cu65	0.000000	0.710890	0.000000
Cu661	Cu66	0.000000	0.789010	0.000000
Cu671	Cu67	0.000000	0.210890	0.500000
Cu681	Cu68	0.000000	0.289010	0.500000
Cu691	Cu69	0.500000	0.710890	0.500000
Cu701	Cu70	0.500000	0.789010	0.500000
Cu711	Cu71	0.500000	0.210890	0.000000
Cu721	Cu72	0.500000	0.289010	0.000000
Cu731	Cu73	0.000000	0.289110	0.000000
Cu741	Cu74	0.000000	0.210990	0.000000
Cu751	Cu75	0.000000	0.789110	0.500000
Cu761	Cu76	0.000000	0.710990	0.500000
Cu771	Cu77	0.500000	0.289110	0.500000
Cu781	Cu78	0.500000	0.210990	0.500000
Cu791	Cu79	0.500000	0.789110	0.000000
Cu801	Cu80	0.500000	0.710990	0.000000
Cu811	Cu81	0.000000	0.000000	0.710890
Cu821	Cu82	0.000000	0.000000	0.789010
Cu831	Cu83	0.000000	0.500000	0.210890
Cu841	Cu84	0.000000	0.500000	0.289010
Cu851	Cu85	0.500000	0.000000	0.210890
Cu861	Cu86	0.500000	0.000000	0.289010
Cu871	Cu87	0.500000	0.500000	0.710890
Cu881	Cu88	0.500000	0.500000	0.789010
Cu891	Cu89	0.000000	0.000000	0.289110
Cu901	Cu90	0.000000	0.000000	0.210990
Cu911	Cu91	0.000000	0.500000	0.789110
Cu921	Cu92	0.000000	0.500000	0.710990
Cu931	Cu93	0.500000	0.000000	0.789110
Cu941	Cu94	0.500000	0.000000	0.710990
Cu951	Cu95	0.500000	0.500000	0.289110
Cu961	Cu96	0.500000	0.500000	0.210990
