data_DOQHOH_clean_PM
_symmetry_space_group_name_H-M	'P1'
_cell_length_a	7.235100
_cell_length_b	10.199900
_cell_length_c	13.055000
_cell_angle_alpha	90.000000
_cell_angle_beta	90.000000
_cell_angle_gamma	100.427000
_symmetry_Int_Tables_number 1

loop_
_symmetry_equiv_pos_as_xyz
'x,y,z'

loop_
_atom_site_label
_atom_site_type_symbol
_atom_site_fract_x
_atom_site_fract_y
_atom_site_fract_z
Sm11	Sm1	0.163640	0.282160	0.905950
Sm21	Sm2	0.836360	0.217840	0.405950
Sm31	Sm3	0.836360	0.717840	0.094050
Sm41	Sm4	0.163640	0.782160	0.594050
P11	P1	0.788410	0.069410	0.049100
P21	P2	0.211590	0.430590	0.549100
P31	P3	0.211590	0.930590	0.950900
P41	P4	0.788410	0.569410	0.450900
H11	H1	0.593000	0.186100	0.044100
H21	H2	0.865900	0.999300	0.260100
H31	H3	0.057300	0.085100	0.150700
H41	H4	0.407000	0.313900	0.544100
H51	H5	0.134100	0.500700	0.760100
H61	H6	0.942700	0.414900	0.650700
H71	H7	0.407000	0.813900	0.955900
H81	H8	0.134100	0.000700	0.739900
H91	H9	0.942700	0.914900	0.849300
H101	H10	0.593000	0.686100	0.455900
H111	H11	0.865900	0.499300	0.239900
H121	H12	0.057300	0.585100	0.349300
C11	C1	0.943700	0.124300	0.157000
C21	C2	0.000000	0.274400	0.163800
C31	C3	0.453200	0.554900	0.975800
C41	C4	0.056300	0.375700	0.657000
C51	C5	0.000000	0.225600	0.663800
C61	C6	0.546800	0.945100	0.475800
C71	C7	0.056300	0.875700	0.843000
C81	C8	0.000000	0.725600	0.836200
C91	C9	0.546800	0.445100	0.024200
C101	C10	0.943700	0.624300	0.343000
C111	C11	0.000000	0.774400	0.336200
C121	C12	0.453200	0.054900	0.524200
O11	O1	0.603700	0.121800	0.079900
O21	O2	0.871700	0.131800	0.951600
O31	O3	0.746500	0.920500	0.053700
O41	O4	0.844600	0.073900	0.247500
O51	O5	0.081300	0.333600	0.087400
O61	O6	0.961000	0.330600	0.245000
O71	O7	0.303100	0.518300	0.928100
O81	O8	0.534000	0.672700	0.990500
O91	O9	0.396300	0.378200	0.579900
O101	O10	0.128300	0.368200	0.451600
O111	O11	0.253500	0.579500	0.553700
O121	O12	0.155400	0.426100	0.747500
O131	O13	0.918700	0.166400	0.587400
O141	O14	0.039000	0.169400	0.745000
O151	O15	0.696900	0.981700	0.428100
O161	O16	0.466000	0.827300	0.490500
O171	O17	0.396300	0.878200	0.920100
O181	O18	0.128300	0.868200	0.048400
O191	O19	0.253500	0.079500	0.946300
O201	O20	0.155400	0.926100	0.752500
O211	O21	0.918700	0.666400	0.912600
O221	O22	0.039000	0.669400	0.755000
O231	O23	0.696900	0.481700	0.071900
O241	O24	0.466000	0.327300	0.009500
O251	O25	0.603700	0.621800	0.420100
O261	O26	0.871700	0.631800	0.548400
O271	O27	0.746500	0.420500	0.446300
O281	O28	0.844600	0.573900	0.252500
O291	O29	0.081300	0.833600	0.412600
O301	O30	0.961000	0.830600	0.255000
O311	O31	0.303100	0.018300	0.571900
O321	O32	0.534000	0.172700	0.509500
