data_DOQHIB_clean_PM
_symmetry_space_group_name_H-M	'P1'
_cell_length_a	7.232600
_cell_length_b	10.233700
_cell_length_c	13.155800
_cell_angle_alpha	90.000000
_cell_angle_beta	90.000000
_cell_angle_gamma	100.107000
_symmetry_Int_Tables_number 1

loop_
_symmetry_equiv_pos_as_xyz
'x,y,z'

loop_
_atom_site_label
_atom_site_type_symbol
_atom_site_fract_x
_atom_site_fract_y
_atom_site_fract_z
Nd11	Nd1	0.163000	0.281870	0.905490
Nd21	Nd2	0.837000	0.218130	0.405490
Nd31	Nd3	0.837000	0.718130	0.094510
Nd41	Nd4	0.163000	0.781870	0.594510
P11	P1	0.787450	0.070690	0.049460
P21	P2	0.212550	0.429310	0.549460
P31	P3	0.212550	0.929310	0.950540
P41	P4	0.787450	0.570690	0.450540
H11	H1	0.592900	0.188000	0.044700
H21	H2	0.867900	0.000400	0.258600
H31	H3	0.057700	0.086000	0.149500
H41	H4	0.407100	0.312000	0.544700
H51	H5	0.132100	0.499600	0.758600
H61	H6	0.942300	0.414000	0.649500
H71	H7	0.407100	0.812000	0.955300
H81	H8	0.132100	0.999600	0.741400
H91	H9	0.942300	0.914000	0.850500
H101	H10	0.592900	0.688000	0.455300
H111	H11	0.867900	0.500400	0.241400
H121	H12	0.057700	0.586000	0.350500
C11	C1	0.944100	0.125200	0.156200
C21	C2	0.999700	0.274500	0.163400
C31	C3	0.453100	0.555300	0.975700
C41	C4	0.055900	0.374800	0.656200
C51	C5	0.000300	0.225500	0.663400
C61	C6	0.546900	0.944700	0.475700
C71	C7	0.055900	0.874800	0.843800
C81	C8	0.000300	0.725500	0.836600
C91	C9	0.546900	0.444700	0.024300
C101	C10	0.944100	0.625200	0.343800
C111	C11	0.999700	0.774500	0.336600
C121	C12	0.453100	0.055300	0.524300
O11	O1	0.603700	0.124100	0.080400
O21	O2	0.869600	0.131400	0.952300
O31	O3	0.745400	0.922300	0.054400
O41	O4	0.846100	0.074800	0.246400
O51	O5	0.080900	0.333800	0.087400
O61	O6	0.960900	0.330600	0.244200
O71	O7	0.305100	0.518600	0.926900
O81	O8	0.532800	0.672000	0.991400
O91	O9	0.396300	0.375900	0.580400
O101	O10	0.130400	0.368600	0.452300
O111	O11	0.254600	0.577700	0.554400
O121	O12	0.153900	0.425200	0.746400
O131	O13	0.919100	0.166200	0.587400
O141	O14	0.039100	0.169400	0.744200
O151	O15	0.694900	0.981400	0.426900
O161	O16	0.467200	0.828000	0.491400
O171	O17	0.396300	0.875900	0.919600
O181	O18	0.130400	0.868600	0.047700
O191	O19	0.254600	0.077700	0.945600
O201	O20	0.153900	0.925200	0.753600
O211	O21	0.919100	0.666200	0.912600
O221	O22	0.039100	0.669400	0.755800
O231	O23	0.694900	0.481400	0.073100
O241	O24	0.467200	0.328000	0.008600
O251	O25	0.603700	0.624100	0.419600
O261	O26	0.869600	0.631400	0.547700
O271	O27	0.745400	0.422300	0.445600
O281	O28	0.846100	0.574800	0.253600
O291	O29	0.080900	0.833800	0.412600
O301	O30	0.960900	0.830600	0.255800
O311	O31	0.305100	0.018600	0.573100
O321	O32	0.532800	0.172000	0.508600
