data_DOQHEX_clean_PM
_symmetry_space_group_name_H-M	'P1'
_cell_length_a	7.230000
_cell_length_b	10.253500
_cell_length_c	13.223900
_cell_angle_alpha	90.000000
_cell_angle_beta	90.000000
_cell_angle_gamma	99.869000
_symmetry_Int_Tables_number 1

loop_
_symmetry_equiv_pos_as_xyz
'x,y,z'

loop_
_atom_site_label
_atom_site_type_symbol
_atom_site_fract_x
_atom_site_fract_y
_atom_site_fract_z
Pr11	Pr1	0.162390	0.281660	0.905460
Pr21	Pr2	0.837610	0.218340	0.405460
Pr31	Pr3	0.837610	0.718340	0.094540
Pr41	Pr4	0.162390	0.781660	0.594540
P11	P1	0.786920	0.071660	0.049940
P21	P2	0.213080	0.428340	0.549940
P31	P3	0.213080	0.928340	0.950060
P41	P4	0.786920	0.571660	0.450060
H11	H1	0.591700	0.188900	0.045400
H21	H2	0.868500	0.001200	0.258400
H31	H3	0.057800	0.086000	0.148800
H41	H4	0.408300	0.311100	0.545400
H51	H5	0.131500	0.498800	0.758400
H61	H6	0.942200	0.414000	0.648800
H71	H7	0.408300	0.811100	0.954600
H81	H8	0.131500	0.998800	0.741600
H91	H9	0.942200	0.914000	0.851200
H101	H10	0.591700	0.688900	0.454600
H111	H11	0.868500	0.501200	0.241600
H121	H12	0.057800	0.586000	0.351200
C11	C1	0.943900	0.125100	0.155700
C21	C2	0.998200	0.274300	0.163300
C31	C3	0.452200	0.554200	0.975700
C41	C4	0.056100	0.374900	0.655700
C51	C5	0.001800	0.225700	0.663300
C61	C6	0.547800	0.945800	0.475700
C71	C7	0.056100	0.874900	0.844300
C81	C8	0.001800	0.725700	0.836700
C91	C9	0.547800	0.445800	0.024300
C101	C10	0.943900	0.625100	0.344300
C111	C11	0.998200	0.774300	0.336700
C121	C12	0.452200	0.054200	0.524300
O11	O1	0.602900	0.125000	0.080800
O21	O2	0.868700	0.131500	0.953100
O31	O3	0.744800	0.923500	0.055400
O41	O4	0.846800	0.075500	0.246200
O51	O5	0.080600	0.333700	0.087600
O61	O6	0.960400	0.331000	0.243500
O71	O7	0.306700	0.519000	0.926400
O81	O8	0.532000	0.671700	0.991300
O91	O9	0.397100	0.375000	0.580800
O101	O10	0.131300	0.368500	0.453100
O111	O11	0.255200	0.576500	0.555400
O121	O12	0.153200	0.424500	0.746200
O131	O13	0.919400	0.166300	0.587600
O141	O14	0.039600	0.169000	0.743500
O151	O15	0.693300	0.981000	0.426400
O161	O16	0.468000	0.828300	0.491300
O171	O17	0.397100	0.875000	0.919200
O181	O18	0.131300	0.868500	0.046900
O191	O19	0.255200	0.076500	0.944600
O201	O20	0.153200	0.924500	0.753800
O211	O21	0.919400	0.666300	0.912400
O221	O22	0.039600	0.669000	0.756500
O231	O23	0.693300	0.481000	0.073600
O241	O24	0.468000	0.328300	0.008700
O251	O25	0.602900	0.625000	0.419200
O261	O26	0.868700	0.631500	0.546900
O271	O27	0.744800	0.423500	0.444600
O281	O28	0.846800	0.575500	0.253800
O291	O29	0.080600	0.833700	0.412400
O301	O30	0.960400	0.831000	0.256500
O311	O31	0.306700	0.019000	0.573600
O321	O32	0.532000	0.171700	0.508700
