data_DOQKAW_charged_PM
_symmetry_space_group_name_H-M	'P1'
_cell_length_a	13.799500
_cell_length_b	13.799500
_cell_length_c	17.669000
_cell_angle_alpha	98.113400
_cell_angle_beta	98.113400
_cell_angle_gamma	96.659500
_symmetry_Int_Tables_number 1

loop_
_symmetry_equiv_pos_as_xyz
'x,y,z'

loop_
_atom_site_label
_atom_site_type_symbol
_atom_site_fract_x
_atom_site_fract_y
_atom_site_fract_z
Cd11	Cd1	0.404820	0.224960	0.799130
Cd21	Cd2	0.228540	0.265920	0.927500
Cd31	Cd3	0.775040	0.595180	0.700870
Cd41	Cd4	0.734080	0.771460	0.572500
Cd51	Cd5	0.595180	0.775040	0.200870
Cd61	Cd6	0.771460	0.734080	0.072500
Cd71	Cd7	0.224960	0.404820	0.299130
Cd81	Cd8	0.265920	0.228540	0.427500
Cd91	Cd9	0.542890	0.457110	0.750000
Cd101	Cd10	0.457110	0.542890	0.250000
H11	H1	0.914500	0.412700	0.887100
H21	H2	0.744300	0.399900	0.859200
H31	H3	0.723300	0.105300	0.834000
H41	H4	0.892900	0.118900	0.873100
H51	H5	0.227100	0.902300	0.758800
H61	H6	0.033400	0.095400	0.764200
H71	H7	0.557800	0.144800	0.961100
H81	H8	0.334600	0.962400	0.005000
H91	H9	0.296600	0.152800	0.605400
H101	H10	0.428900	0.394100	0.559300
H111	H11	0.200400	0.529200	0.966500
H121	H12	0.221900	0.696500	0.964400
H131	H13	0.331600	0.767000	0.895800
H141	H14	0.432800	0.675200	0.828200
H151	H15	0.587300	0.085500	0.612900
H161	H16	0.600100	0.255700	0.640800
H171	H17	0.894700	0.276700	0.666000
H181	H18	0.881100	0.107100	0.626900
H191	H19	0.097700	0.772900	0.741200
H201	H20	0.904600	0.966600	0.735800
H211	H21	0.855200	0.442200	0.538900
H221	H22	0.037600	0.665400	0.495000
H231	H23	0.847200	0.703400	0.894600
H241	H24	0.605900	0.571100	0.940700
H251	H25	0.470800	0.799600	0.533500
H261	H26	0.303500	0.778100	0.535600
H271	H27	0.233000	0.668400	0.604200
H281	H28	0.324800	0.567200	0.671800
H291	H29	0.085500	0.587300	0.112900
H301	H30	0.255700	0.600100	0.140800
H311	H31	0.276700	0.894700	0.166000
H321	H32	0.107100	0.881100	0.126900
H331	H33	0.772900	0.097700	0.241200
H341	H34	0.966600	0.904600	0.235800
H351	H35	0.442200	0.855200	0.038900
H361	H36	0.665400	0.037600	0.995000
H371	H37	0.703400	0.847200	0.394600
H381	H38	0.571100	0.605900	0.440700
H391	H39	0.799600	0.470800	0.033500
H401	H40	0.778100	0.303500	0.035600
H411	H41	0.668400	0.233000	0.104200
H421	H42	0.567200	0.324800	0.171800
H431	H43	0.412700	0.914500	0.387100
H441	H44	0.399900	0.744300	0.359200
H451	H45	0.105300	0.723300	0.334000
H461	H46	0.118900	0.892900	0.373100
H471	H47	0.902300	0.227100	0.258800
H481	H48	0.095400	0.033400	0.264200
H491	H49	0.144800	0.557800	0.461100
H501	H50	0.962400	0.334600	0.505000
H511	H51	0.152800	0.296600	0.105400
H521	H52	0.394100	0.428900	0.059300
H531	H53	0.529200	0.200400	0.466500
H541	H54	0.696500	0.221900	0.464400
H551	H55	0.767000	0.331600	0.395800
H561	H56	0.675200	0.432800	0.328200
C11	C1	0.920000	0.267800	0.883800
C21	C2	0.876100	0.351100	0.878500
C31	C3	0.774300	0.343100	0.860300
C41	C4	0.716500	0.250900	0.843700
C51	C5	0.761100	0.167300	0.846700
C61	C6	0.863100	0.175300	0.868600
C71	C7	0.030400	0.273800	0.902700
C81	C8	0.606800	0.244200	0.820800
C91	C9	0.162300	0.915700	0.756000
C101	C10	0.143100	0.012300	0.763800
C111	C11	0.046900	0.030500	0.757800
C121	C12	0.228700	0.094900	0.778000
C131	C13	0.434600	0.064400	0.978100
C141	C14	0.533900	0.086100	0.976500
C151	C15	0.401400	0.977800	0.002600
C161	C16	0.364700	0.135700	0.956000
C171	C17	0.336500	0.213100	0.610400
C181	C18	0.408200	0.343400	0.585400
C191	C19	0.372700	0.542700	0.856900
C201	C20	0.302600	0.500000	0.897000
C211	C21	0.245700	0.557100	0.938700
C221	C22	0.259100	0.656300	0.937000
C231	C23	0.326700	0.699300	0.895800
C241	C24	0.386800	0.646000	0.854900
C251	C25	0.732200	0.080000	0.616200
C261	C26	0.648900	0.123900	0.621500
C271	C27	0.656900	0.225700	0.639700
C281	C28	0.749100	0.283500	0.656300
C291	C29	0.832700	0.238900	0.653300
C301	C30	0.824700	0.136900	0.631400
C311	C31	0.726200	0.969600	0.597300
C321	C32	0.755800	0.393200	0.679200
C331	C33	0.084300	0.837700	0.744000
C341	C34	0.987700	0.856900	0.736200
C351	C35	0.969500	0.953100	0.742200
C361	C36	0.905100	0.771300	0.722000
C371	C37	0.935600	0.565400	0.521900
C381	C38	0.913900	0.466100	0.523500
C391	C39	0.022200	0.598600	0.497400
C401	C40	0.864300	0.635300	0.544000
C411	C41	0.786900	0.663500	0.889600
C421	C42	0.656600	0.591800	0.914600
C431	C43	0.457300	0.627300	0.643100
C441	C44	0.500000	0.697400	0.603000
C451	C45	0.442900	0.754300	0.561300
C461	C46	0.343700	0.740900	0.563000
C471	C47	0.300700	0.673300	0.604200
C481	C48	0.354000	0.613200	0.645100
C491	C49	0.080000	0.732200	0.116200
C501	C50	0.123900	0.648900	0.121500
C511	C51	0.225700	0.656900	0.139700
C521	C52	0.283500	0.749100	0.156300
C531	C53	0.238900	0.832700	0.153300
C541	C54	0.136900	0.824700	0.131400
C551	C55	0.969600	0.726200	0.097300
C561	C56	0.393200	0.755800	0.179200
C571	C57	0.837700	0.084300	0.244000
C581	C58	0.856900	0.987700	0.236200
C591	C59	0.953100	0.969500	0.242200
C601	C60	0.771300	0.905100	0.222000
C611	C61	0.565400	0.935600	0.021900
C621	C62	0.466100	0.913900	0.023500
C631	C63	0.598600	0.022200	0.997400
C641	C64	0.635300	0.864300	0.044000
C651	C65	0.663500	0.786900	0.389600
C661	C66	0.591800	0.656600	0.414600
C671	C67	0.627300	0.457300	0.143100
C681	C68	0.697400	0.500000	0.103000
C691	C69	0.754300	0.442900	0.061300
C701	C70	0.740900	0.343700	0.063000
C711	C71	0.673300	0.300700	0.104200
C721	C72	0.613200	0.354000	0.145100
C731	C73	0.267800	0.920000	0.383800
C741	C74	0.351100	0.876100	0.378500
C751	C75	0.343100	0.774300	0.360300
C761	C76	0.250900	0.716500	0.343700
C771	C77	0.167300	0.761100	0.346700
C781	C78	0.175300	0.863100	0.368600
C791	C79	0.273800	0.030400	0.402700
C801	C80	0.244200	0.606800	0.320800
C811	C81	0.915700	0.162300	0.256000
C821	C82	0.012300	0.143100	0.263800
C831	C83	0.030500	0.046900	0.257800
C841	C84	0.094900	0.228700	0.278000
C851	C85	0.064400	0.434600	0.478100
C861	C86	0.086100	0.533900	0.476500
C871	C87	0.977800	0.401400	0.502600
C881	C88	0.135700	0.364700	0.456000
C891	C89	0.213100	0.336500	0.110400
C901	C90	0.343400	0.408200	0.085400
C911	C91	0.542700	0.372700	0.356900
C921	C92	0.500000	0.302600	0.397000
C931	C93	0.557100	0.245700	0.438700
C941	C94	0.656300	0.259100	0.437000
C951	C95	0.699300	0.326700	0.395800
C961	C96	0.646000	0.386800	0.354900
N11	N1	0.438800	0.343600	0.659000
N21	N2	0.391000	0.257800	0.676000
N31	N3	0.344300	0.263700	0.551100
N41	N4	0.415900	0.470100	0.822800
N51	N5	0.372800	0.384800	0.841400
N61	N6	0.306100	0.400900	0.885800
N71	N7	0.656400	0.561200	0.841000
N81	N8	0.742200	0.609000	0.824000
N91	N9	0.736300	0.655700	0.948900
N101	N10	0.529900	0.584100	0.677200
N111	N11	0.615200	0.627200	0.658600
N121	N12	0.599100	0.693900	0.614200
N131	N13	0.561200	0.656400	0.341000
N141	N14	0.609000	0.742200	0.324000
N151	N15	0.655700	0.736300	0.448900
N161	N16	0.584100	0.529900	0.177200
N171	N17	0.627200	0.615200	0.158600
N181	N18	0.693900	0.599100	0.114200
N191	N19	0.343600	0.438800	0.159000
N201	N20	0.257800	0.391000	0.176000
N211	N21	0.263700	0.344300	0.051100
N221	N22	0.470100	0.415900	0.322800
N231	N23	0.384800	0.372800	0.341400
N241	N24	0.400900	0.306100	0.385800
O11	O1	0.794800	0.933600	0.570800
O21	O2	0.653000	0.918200	0.611400
O31	O3	0.556200	0.159600	0.808000
O41	O4	0.569400	0.322200	0.817000
O51	O5	0.213400	0.183000	0.796800
O61	O6	0.313100	0.072700	0.767300
O71	O7	0.276500	0.118700	0.965600
O81	O8	0.397030	0.210770	0.928800
O91	O9	0.066400	0.205200	0.929200
O101	O10	0.081800	0.347000	0.888600
O111	O11	0.840400	0.443800	0.692000
O121	O12	0.677800	0.430600	0.683000
O131	O13	0.817000	0.786600	0.703200
O141	O14	0.927300	0.686900	0.732700
O151	O15	0.881300	0.723500	0.534400
O161	O16	0.789230	0.602970	0.571200
O171	O17	0.205200	0.066400	0.429200
O181	O18	0.347000	0.081800	0.388600
O191	O19	0.443800	0.840400	0.192000
O201	O20	0.430600	0.677800	0.183000
O211	O21	0.786600	0.817000	0.203200
O221	O22	0.686900	0.927300	0.232700
O231	O23	0.723500	0.881300	0.034400
O241	O24	0.602970	0.789230	0.071200
O251	O25	0.933600	0.794800	0.070800
O261	O26	0.918200	0.653000	0.111400
O271	O27	0.159600	0.556200	0.308000
O281	O28	0.322200	0.569400	0.317000
O291	O29	0.183000	0.213400	0.296800
O301	O30	0.072700	0.313100	0.267300
O311	O31	0.118700	0.276500	0.465600
O321	O32	0.210770	0.397030	0.428800
H571	H57	0.564100	0.949900	0.701800
H581	H58	0.569300	0.016300	0.774400
H591	H59	0.703000	0.939600	0.778800
H601	H60	0.640200	0.910600	0.841600
H611	H61	0.633600	0.838200	0.763700
H621	H62	0.420000	0.940400	0.737600
H631	H63	0.461600	0.839400	0.737400
H641	H64	0.467100	0.910900	0.815600
C971	C97	0.641200	0.906400	0.787100
C981	C98	0.470800	0.907400	0.761500
N251	N25	0.561600	0.952200	0.752600
H651	H65	0.050100	0.435900	0.798200
H661	H66	0.983700	0.430700	0.725600
H671	H67	0.060400	0.297000	0.721200
H681	H68	0.089400	0.359800	0.658400
H691	H69	0.161800	0.366400	0.736300
H701	H70	0.059600	0.580000	0.762400
H711	H71	0.160600	0.538400	0.762600
H721	H72	0.089100	0.532900	0.684400
C991	C99	0.093600	0.358800	0.712900
C1001	C100	0.092600	0.529200	0.738500
N261	N26	0.047800	0.438400	0.747400
H731	H73	0.435900	0.050100	0.298200
H741	H74	0.430700	0.983700	0.225600
H751	H75	0.297000	0.060400	0.221200
H761	H76	0.359800	0.089400	0.158400
H771	H77	0.366400	0.161800	0.236300
H781	H78	0.580000	0.059600	0.262400
H791	H79	0.538400	0.160600	0.262600
H801	H80	0.532900	0.089100	0.184400
C1011	C101	0.358800	0.093600	0.212900
C1021	C102	0.529200	0.092600	0.238500
N271	N27	0.438400	0.047800	0.247400
H811	H81	0.949900	0.564100	0.201800
H821	H82	0.016300	0.569300	0.274400
H831	H83	0.939600	0.703000	0.278800
H841	H84	0.910600	0.640200	0.341600
H851	H85	0.838200	0.633600	0.263700
H861	H86	0.940400	0.420000	0.237600
H871	H87	0.839400	0.461600	0.237400
H881	H88	0.910900	0.467100	0.315600
C1031	C103	0.906400	0.641200	0.287100
C1041	C104	0.907400	0.470800	0.261500
N281	N28	0.952200	0.561600	0.252600
