data_DOQRUW_clean_PM
_symmetry_space_group_name_H-M	'P1'
_cell_length_a	8.648000
_cell_length_b	11.661200
_cell_length_c	18.493000
_cell_angle_alpha	102.037000
_cell_angle_beta	90.000000
_cell_angle_gamma	90.000000
_symmetry_Int_Tables_number 1

loop_
_symmetry_equiv_pos_as_xyz
'x,y,z'

loop_
_atom_site_label
_atom_site_type_symbol
_atom_site_fract_x
_atom_site_fract_y
_atom_site_fract_z
Mn11	Mn1	0.793780	0.941630	0.165800
Mn21	Mn2	0.293780	0.058370	0.334200
Mn31	Mn3	0.206220	0.058370	0.834200
Mn41	Mn4	0.706220	0.941630	0.665800
H11	H1	0.651000	0.880000	0.886000
H21	H2	0.908000	0.017000	0.937000
H31	H3	0.638000	0.703000	0.096200
H41	H4	0.638000	0.509000	0.097600
H51	H5	0.970000	0.564000	0.243000
H61	H6	0.967000	0.752000	0.240000
H71	H7	0.650000	0.128000	0.078000
H81	H8	0.645000	0.325000	0.083600
H91	H9	0.950000	0.372000	0.249600
H101	H10	0.947000	0.175000	0.248000
H111	H11	0.151000	0.120000	0.614000
H121	H12	0.408000	0.983000	0.563000
H131	H13	0.138000	0.297000	0.403800
H141	H14	0.138000	0.491000	0.402400
H151	H15	0.470000	0.436000	0.257000
H161	H16	0.467000	0.248000	0.260000
H171	H17	0.150000	0.872000	0.422000
H181	H18	0.145000	0.675000	0.416400
H191	H19	0.450000	0.628000	0.250400
H201	H20	0.447000	0.825000	0.252000
H211	H21	0.349000	0.120000	0.114000
H221	H22	0.092000	0.983000	0.063000
H231	H23	0.362000	0.297000	0.903800
H241	H24	0.362000	0.491000	0.902400
H251	H25	0.030000	0.436000	0.757000
H261	H26	0.033000	0.248000	0.760000
H271	H27	0.350000	0.872000	0.922000
H281	H28	0.355000	0.675000	0.916400
H291	H29	0.050000	0.628000	0.750400
H301	H30	0.053000	0.825000	0.752000
H311	H31	0.849000	0.880000	0.386000
H321	H32	0.592000	0.017000	0.437000
H331	H33	0.862000	0.703000	0.596200
H341	H34	0.862000	0.509000	0.597600
H351	H35	0.530000	0.564000	0.743000
H361	H36	0.533000	0.752000	0.740000
H371	H37	0.850000	0.128000	0.578000
H381	H38	0.855000	0.325000	0.583600
H391	H39	0.550000	0.372000	0.749600
H401	H40	0.553000	0.175000	0.748000
C11	C1	0.695900	0.886300	0.998000
C21	C2	0.724200	0.909600	0.923120
C31	C3	0.833000	0.976600	0.904400
C41	C4	0.842800	0.003500	0.828920
C51	C5	0.707600	0.672700	0.126900
C61	C6	0.702500	0.554700	0.126100
C71	C7	0.801500	0.506500	0.169580
C81	C8	0.900500	0.584000	0.213900
C91	C9	0.898700	0.701200	0.211100
C101	C10	0.713500	0.182600	0.119300
C111	C11	0.709800	0.299900	0.119300
C121	C12	0.800800	0.378600	0.168310
C131	C13	0.890700	0.329600	0.215700
C141	C14	0.886900	0.210700	0.213300
C151	C15	0.195900	0.113700	0.502000
C161	C16	0.224200	0.090400	0.576880
C171	C17	0.333000	0.023400	0.595600
C181	C18	0.342800	0.996500	0.671080
C191	C19	0.207600	0.327300	0.373100
C201	C20	0.202500	0.445300	0.373900
C211	C21	0.301500	0.493500	0.330420
C221	C22	0.400500	0.416000	0.286100
C231	C23	0.398700	0.298800	0.288900
C241	C24	0.213500	0.817400	0.380700
C251	C25	0.209800	0.700100	0.380700
C261	C26	0.300800	0.621400	0.331690
C271	C27	0.390700	0.670400	0.284300
C281	C28	0.386900	0.789300	0.286700
C291	C29	0.304100	0.113700	0.002000
C301	C30	0.275800	0.090400	0.076880
C311	C31	0.167000	0.023400	0.095600
C321	C32	0.157200	0.996500	0.171080
C331	C33	0.292400	0.327300	0.873100
C341	C34	0.297500	0.445300	0.873900
C351	C35	0.198500	0.493500	0.830420
C361	C36	0.099500	0.416000	0.786100
C371	C37	0.101300	0.298800	0.788900
C381	C38	0.286500	0.817400	0.880700
C391	C39	0.290200	0.700100	0.880700
C401	C40	0.199200	0.621400	0.831690
C411	C41	0.109300	0.670400	0.784300
C421	C42	0.113100	0.789300	0.786700
C431	C43	0.804100	0.886300	0.498000
C441	C44	0.775800	0.909600	0.423120
C451	C45	0.667000	0.976600	0.404400
C461	C46	0.657200	0.003500	0.328920
C471	C47	0.792400	0.672700	0.626900
C481	C48	0.797500	0.554700	0.626100
C491	C49	0.698500	0.506500	0.669580
C501	C50	0.599500	0.584000	0.713900
C511	C51	0.601300	0.701200	0.711100
C521	C52	0.786500	0.182600	0.619300
C531	C53	0.790200	0.299900	0.619300
C541	C54	0.699200	0.378600	0.668310
C551	C55	0.609300	0.329600	0.715700
C561	C56	0.613100	0.210700	0.713300
N11	N1	0.803400	0.746900	0.168120
N21	N2	0.798900	0.136900	0.166160
N31	N3	0.303400	0.253100	0.331880
N41	N4	0.298900	0.863100	0.333840
N51	N5	0.196600	0.253100	0.831880
N61	N6	0.201100	0.863100	0.833840
N71	N7	0.696600	0.746900	0.668120
N81	N8	0.701100	0.136900	0.666160
O11	O1	0.802500	0.908660	0.046010
O21	O2	0.565600	0.845900	0.008910
O31	O3	0.729600	0.975770	0.785890
O41	O4	0.962600	0.052790	0.812150
O51	O5	0.302500	0.091340	0.453990
O61	O6	0.065600	0.154100	0.491090
O71	O7	0.229600	0.024230	0.714110
O81	O8	0.462600	0.947210	0.687850
O91	O9	0.197500	0.091340	0.953990
O101	O10	0.434400	0.154100	0.991090
O111	O11	0.270400	0.024230	0.214110
O121	O12	0.037400	0.947210	0.187850
O131	O13	0.697500	0.908660	0.546010
O141	O14	0.934400	0.845900	0.508910
O151	O15	0.770400	0.975770	0.285890
O161	O16	0.537400	0.052790	0.312150
