data_DOQRUY_clean_PM
_symmetry_space_group_name_H-M	'P1'
_cell_length_a	25.655000
_cell_length_b	28.561000
_cell_length_c	32.001000
_cell_angle_alpha	90.000000
_cell_angle_beta	90.000000
_cell_angle_gamma	90.000000
_symmetry_Int_Tables_number 1

loop_
_symmetry_equiv_pos_as_xyz
'x,y,z'

loop_
_atom_site_label
_atom_site_type_symbol
_atom_site_fract_x
_atom_site_fract_y
_atom_site_fract_z
Co11	Co1	0.757330	0.129750	0.784500
O11	O1	0.740800	0.189950	0.808170
O21	O2	0.832790	0.123270	0.789860
O31	O3	0.717210	0.135780	0.731880
O41	O4	0.757810	0.934090	0.696310
C11	C1	0.727900	0.200990	0.844400
C21	C2	0.869000	0.145500	0.770710
C31	C3	0.720030	0.107190	0.700990
O51	O5	0.714400	0.173740	0.872220
C41	C4	0.730300	0.252890	0.853770
O61	O6	0.915090	0.145460	0.782220
C51	C5	0.852900	0.173070	0.732980
O71	O7	0.683470	0.099960	0.677450
C61	C6	0.770100	0.079480	0.697150
O81	O8	0.843850	0.925730	0.703810
C71	C7	0.754000	0.283110	0.825530
C81	C8	0.709000	0.271800	0.889200
C91	C9	0.826800	0.152320	0.699680
C101	C10	0.863600	0.221500	0.732860
C111	C11	0.819400	0.100180	0.698310
C121	C12	0.765330	0.031070	0.696210
O91	O9	0.830650	0.326690	0.676370
O101	O10	0.791100	0.351000	0.767600
O111	O11	0.888900	0.315370	0.727280
H11	H1	0.767800	0.271000	0.800200
C131	C13	0.757890	0.331100	0.833730
C141	C14	0.711700	0.319000	0.897500
H21	H2	0.692000	0.251800	0.908600
C151	C15	0.811000	0.180400	0.666550
H31	H3	0.882400	0.235100	0.755400
C161	C16	0.846700	0.249340	0.699810
C171	C17	0.863200	0.071450	0.696590
H41	H4	0.731700	0.017300	0.695300
C181	C18	0.809360	0.002490	0.696520
C191	C19	0.736600	0.349310	0.870130
C201	C20	0.790900	0.359200	0.803600
H51	H5	0.696300	0.331000	0.922200
C211	C21	0.820100	0.228000	0.666460
H61	H6	0.793700	0.166500	0.643500
C221	C22	0.855100	0.301200	0.701060
C231	C23	0.858500	0.023010	0.696380
H71	H7	0.896800	0.085200	0.695500
C241	C24	0.804400	0.949810	0.698940
O121	O12	0.821700	0.387000	0.817500
H81	H8	0.808300	0.246500	0.643700
H91	H9	0.888900	0.003900	0.696100
Co21	Co2	0.757330	0.629750	0.284500
O131	O13	0.740800	0.689950	0.308170
O141	O14	0.832790	0.623270	0.289860
O151	O15	0.717210	0.635780	0.231880
O161	O16	0.757810	0.434090	0.196310
C251	C25	0.727900	0.700990	0.344400
C261	C26	0.869000	0.645500	0.270710
C271	C27	0.720030	0.607190	0.200990
O171	O17	0.714400	0.673740	0.372220
C281	C28	0.730300	0.752890	0.353770
O181	O18	0.915090	0.645460	0.282220
C291	C29	0.852900	0.673070	0.232980
O191	O19	0.683470	0.599960	0.177450
C301	C30	0.770100	0.579480	0.197150
O201	O20	0.843850	0.425730	0.203810
C311	C31	0.754000	0.783110	0.325530
C321	C32	0.709000	0.771800	0.389200
C331	C33	0.826800	0.652320	0.199680
C341	C34	0.863600	0.721500	0.232860
C351	C35	0.819400	0.600180	0.198310
C361	C36	0.765330	0.531070	0.196210
O211	O21	0.830650	0.826690	0.176370
O221	O22	0.791100	0.851000	0.267600
O231	O23	0.888900	0.815370	0.227280
H101	H10	0.767800	0.771000	0.300200
C371	C37	0.757890	0.831100	0.333730
C381	C38	0.711700	0.819000	0.397500
H111	H11	0.692000	0.751800	0.408600
C391	C39	0.811000	0.680400	0.166550
H121	H12	0.882400	0.735100	0.255400
C401	C40	0.846700	0.749340	0.199810
C411	C41	0.863200	0.571450	0.196590
H131	H13	0.731700	0.517300	0.195300
C421	C42	0.809360	0.502490	0.196520
C431	C43	0.736600	0.849310	0.370130
C441	C44	0.790900	0.859200	0.303600
H141	H14	0.696300	0.831000	0.422200
C451	C45	0.820100	0.728000	0.166460
H151	H15	0.793700	0.666500	0.143500
C461	C46	0.855100	0.801200	0.201060
C471	C47	0.858500	0.523010	0.196380
H161	H16	0.896800	0.585200	0.195500
C481	C48	0.804400	0.449810	0.198940
O241	O24	0.821700	0.887000	0.317500
H171	H17	0.808300	0.746500	0.143700
H181	H18	0.888900	0.503900	0.196100
Co31	Co3	0.257330	0.129750	0.284500
O251	O25	0.240800	0.189950	0.308170
O261	O26	0.332790	0.123270	0.289860
O271	O27	0.217210	0.135780	0.231880
O281	O28	0.257810	0.934090	0.196310
C491	C49	0.227900	0.200990	0.344400
C501	C50	0.369000	0.145500	0.270710
C511	C51	0.220030	0.107190	0.200990
O291	O29	0.214400	0.173740	0.372220
C521	C52	0.230300	0.252890	0.353770
O301	O30	0.415090	0.145460	0.282220
C531	C53	0.352900	0.173070	0.232980
O311	O31	0.183470	0.099960	0.177450
C541	C54	0.270100	0.079480	0.197150
O321	O32	0.343850	0.925730	0.203810
C551	C55	0.254000	0.283110	0.325530
C561	C56	0.209000	0.271800	0.389200
C571	C57	0.326800	0.152320	0.199680
C581	C58	0.363600	0.221500	0.232860
C591	C59	0.319400	0.100180	0.198310
C601	C60	0.265330	0.031070	0.196210
O331	O33	0.330650	0.326690	0.176370
O341	O34	0.291100	0.351000	0.267600
O351	O35	0.388900	0.315370	0.227280
H191	H19	0.267800	0.271000	0.300200
C611	C61	0.257890	0.331100	0.333730
C621	C62	0.211700	0.319000	0.397500
H201	H20	0.192000	0.251800	0.408600
C631	C63	0.311000	0.180400	0.166550
H211	H21	0.382400	0.235100	0.255400
C641	C64	0.346700	0.249340	0.199810
C651	C65	0.363200	0.071450	0.196590
H221	H22	0.231700	0.017300	0.195300
C661	C66	0.309360	0.002490	0.196520
C671	C67	0.236600	0.349310	0.370130
C681	C68	0.290900	0.359200	0.303600
H231	H23	0.196300	0.331000	0.422200
C691	C69	0.320100	0.228000	0.166460
H241	H24	0.293700	0.166500	0.143500
C701	C70	0.355100	0.301200	0.201060
C711	C71	0.358500	0.023010	0.196380
H251	H25	0.396800	0.085200	0.195500
C721	C72	0.304400	0.949810	0.198940
O361	O36	0.321700	0.387000	0.317500
H261	H26	0.308300	0.246500	0.143700
H271	H27	0.388900	0.003900	0.196100
Co41	Co4	0.257330	0.629750	0.784500
O371	O37	0.240800	0.689950	0.808170
O381	O38	0.332790	0.623270	0.789860
O391	O39	0.217210	0.635780	0.731880
O401	O40	0.257810	0.434090	0.696310
C731	C73	0.227900	0.700990	0.844400
C741	C74	0.369000	0.645500	0.770710
C751	C75	0.220030	0.607190	0.700990
O411	O41	0.214400	0.673740	0.872220
C761	C76	0.230300	0.752890	0.853770
O421	O42	0.415090	0.645460	0.782220
C771	C77	0.352900	0.673070	0.732980
O431	O43	0.183470	0.599960	0.677450
C781	C78	0.270100	0.579480	0.697150
O441	O44	0.343850	0.425730	0.703810
C791	C79	0.254000	0.783110	0.825530
C801	C80	0.209000	0.771800	0.889200
C811	C81	0.326800	0.652320	0.699680
C821	C82	0.363600	0.721500	0.732860
C831	C83	0.319400	0.600180	0.698310
C841	C84	0.265330	0.531070	0.696210
O451	O45	0.330650	0.826690	0.676370
O461	O46	0.291100	0.851000	0.767600
O471	O47	0.388900	0.815370	0.727280
H281	H28	0.267800	0.771000	0.800200
C851	C85	0.257890	0.831100	0.833730
C861	C86	0.211700	0.819000	0.897500
H291	H29	0.192000	0.751800	0.908600
C871	C87	0.311000	0.680400	0.666550
H301	H30	0.382400	0.735100	0.755400
C881	C88	0.346700	0.749340	0.699810
C891	C89	0.363200	0.571450	0.696590
H311	H31	0.231700	0.517300	0.695300
C901	C90	0.309360	0.502490	0.696520
C911	C91	0.236600	0.849310	0.870130
C921	C92	0.290900	0.859200	0.803600
H321	H32	0.196300	0.831000	0.922200
C931	C93	0.320100	0.728000	0.666460
H331	H33	0.293700	0.666500	0.643500
C941	C94	0.355100	0.801200	0.701060
C951	C95	0.358500	0.523010	0.696380
H341	H34	0.396800	0.585200	0.695500
C961	C96	0.304400	0.449810	0.698940
O481	O48	0.321700	0.887000	0.817500
H351	H35	0.308300	0.746500	0.643700
H361	H36	0.388900	0.503900	0.696100
Co51	Co5	0.992670	0.620250	0.784500
O491	O49	0.009200	0.560050	0.808170
O501	O50	0.917210	0.626730	0.789860
O511	O51	0.032790	0.614220	0.731880
O521	O52	0.992190	0.815910	0.696310
C971	C97	0.022100	0.549010	0.844400
C981	C98	0.881000	0.604500	0.770710
C991	C99	0.029970	0.642810	0.700990
O531	O53	0.035600	0.576260	0.872220
C1001	C100	0.019700	0.497110	0.853770
O541	O54	0.834910	0.604540	0.782220
C1011	C101	0.897100	0.576930	0.732980
O551	O55	0.066530	0.650040	0.677450
C1021	C102	0.979900	0.670520	0.697150
O561	O56	0.906150	0.824270	0.703810
C1031	C103	0.996000	0.466890	0.825530
C1041	C104	0.041000	0.478200	0.889200
C1051	C105	0.923200	0.597680	0.699680
C1061	C106	0.886400	0.528500	0.732860
C1071	C107	0.930600	0.649820	0.698310
C1081	C108	0.984670	0.718930	0.696210
O571	O57	0.919350	0.423310	0.676370
O581	O58	0.958900	0.399000	0.767600
O591	O59	0.861100	0.434630	0.727280
H371	H37	0.982200	0.479000	0.800200
C1091	C109	0.992110	0.418900	0.833730
C1101	C110	0.038300	0.431000	0.897500
H381	H38	0.058000	0.498200	0.908600
C1111	C111	0.939000	0.569600	0.666550
H391	H39	0.867600	0.514900	0.755400
C1121	C112	0.903300	0.500660	0.699810
C1131	C113	0.886800	0.678550	0.696590
H401	H40	0.018300	0.732700	0.695300
C1141	C114	0.940640	0.747510	0.696520
C1151	C115	0.013400	0.400690	0.870130
C1161	C116	0.959100	0.390800	0.803600
H411	H41	0.053700	0.419000	0.922200
C1171	C117	0.929900	0.522000	0.666460
H421	H42	0.956300	0.583500	0.643500
C1181	C118	0.894900	0.448800	0.701060
C1191	C119	0.891500	0.726990	0.696380
H431	H43	0.853200	0.664800	0.695500
C1201	C120	0.945600	0.800190	0.698940
O601	O60	0.928300	0.363000	0.817500
H441	H44	0.941700	0.503500	0.643700
H451	H45	0.861100	0.746100	0.696100
Co61	Co6	0.992670	0.120250	0.284500
O611	O61	0.009200	0.060050	0.308170
O621	O62	0.917210	0.126730	0.289860
O631	O63	0.032790	0.114220	0.231880
O641	O64	0.992190	0.315910	0.196310
C1211	C121	0.022100	0.049010	0.344400
C1221	C122	0.881000	0.104500	0.270710
C1231	C123	0.029970	0.142810	0.200990
O651	O65	0.035600	0.076260	0.372220
C1241	C124	0.019700	0.997110	0.353770
O661	O66	0.834910	0.104540	0.282220
C1251	C125	0.897100	0.076930	0.232980
O671	O67	0.066530	0.150040	0.177450
C1261	C126	0.979900	0.170520	0.197150
O681	O68	0.906150	0.324270	0.203810
C1271	C127	0.996000	0.966890	0.325530
C1281	C128	0.041000	0.978200	0.389200
C1291	C129	0.923200	0.097680	0.199680
C1301	C130	0.886400	0.028500	0.232860
C1311	C131	0.930600	0.149820	0.198310
C1321	C132	0.984670	0.218930	0.196210
O691	O69	0.919350	0.923310	0.176370
O701	O70	0.958900	0.899000	0.267600
O711	O71	0.861100	0.934630	0.227280
H461	H46	0.982200	0.979000	0.300200
C1331	C133	0.992110	0.918900	0.333730
C1341	C134	0.038300	0.931000	0.397500
H471	H47	0.058000	0.998200	0.408600
C1351	C135	0.939000	0.069600	0.166550
H481	H48	0.867600	0.014900	0.255400
C1361	C136	0.903300	0.000660	0.199810
C1371	C137	0.886800	0.178550	0.196590
H491	H49	0.018300	0.232700	0.195300
C1381	C138	0.940640	0.247510	0.196520
C1391	C139	0.013400	0.900690	0.370130
C1401	C140	0.959100	0.890800	0.303600
H501	H50	0.053700	0.919000	0.422200
C1411	C141	0.929900	0.022000	0.166460
H511	H51	0.956300	0.083500	0.143500
C1421	C142	0.894900	0.948800	0.201060
C1431	C143	0.891500	0.226990	0.196380
H521	H52	0.853200	0.164800	0.195500
C1441	C144	0.945600	0.300190	0.198940
O721	O72	0.928300	0.863000	0.317500
H531	H53	0.941700	0.003500	0.143700
H541	H54	0.861100	0.246100	0.196100
Co71	Co7	0.492670	0.620250	0.284500
O731	O73	0.509200	0.560050	0.308170
O741	O74	0.417210	0.626730	0.289860
O751	O75	0.532790	0.614220	0.231880
O761	O76	0.492190	0.815910	0.196310
C1451	C145	0.522100	0.549010	0.344400
C1461	C146	0.381000	0.604500	0.270710
C1471	C147	0.529970	0.642810	0.200990
O771	O77	0.535600	0.576260	0.372220
C1481	C148	0.519700	0.497110	0.353770
O781	O78	0.334910	0.604540	0.282220
C1491	C149	0.397100	0.576930	0.232980
O791	O79	0.566530	0.650040	0.177450
C1501	C150	0.479900	0.670520	0.197150
O801	O80	0.406150	0.824270	0.203810
C1511	C151	0.496000	0.466890	0.325530
C1521	C152	0.541000	0.478200	0.389200
C1531	C153	0.423200	0.597680	0.199680
C1541	C154	0.386400	0.528500	0.232860
C1551	C155	0.430600	0.649820	0.198310
C1561	C156	0.484670	0.718930	0.196210
O811	O81	0.419350	0.423310	0.176370
O821	O82	0.458900	0.399000	0.267600
O831	O83	0.361100	0.434630	0.227280
H551	H55	0.482200	0.479000	0.300200
C1571	C157	0.492110	0.418900	0.333730
C1581	C158	0.538300	0.431000	0.397500
H561	H56	0.558000	0.498200	0.408600
C1591	C159	0.439000	0.569600	0.166550
H571	H57	0.367600	0.514900	0.255400
C1601	C160	0.403300	0.500660	0.199810
C1611	C161	0.386800	0.678550	0.196590
H581	H58	0.518300	0.732700	0.195300
C1621	C162	0.440640	0.747510	0.196520
C1631	C163	0.513400	0.400690	0.370130
C1641	C164	0.459100	0.390800	0.303600
H591	H59	0.553700	0.419000	0.422200
C1651	C165	0.429900	0.522000	0.166460
H601	H60	0.456300	0.583500	0.143500
C1661	C166	0.394900	0.448800	0.201060
C1671	C167	0.391500	0.726990	0.196380
H611	H61	0.353200	0.664800	0.195500
C1681	C168	0.445600	0.800190	0.198940
O841	O84	0.428300	0.363000	0.317500
H621	H62	0.441700	0.503500	0.143700
H631	H63	0.361100	0.746100	0.196100
Co81	Co8	0.492670	0.120250	0.784500
O851	O85	0.509200	0.060050	0.808170
O861	O86	0.417210	0.126730	0.789860
O871	O87	0.532790	0.114220	0.731880
O881	O88	0.492190	0.315910	0.696310
C1691	C169	0.522100	0.049010	0.844400
C1701	C170	0.381000	0.104500	0.770710
C1711	C171	0.529970	0.142810	0.700990
O891	O89	0.535600	0.076260	0.872220
C1721	C172	0.519700	0.997110	0.853770
O901	O90	0.334910	0.104540	0.782220
C1731	C173	0.397100	0.076930	0.732980
O911	O91	0.566530	0.150040	0.677450
C1741	C174	0.479900	0.170520	0.697150
O921	O92	0.406150	0.324270	0.703810
C1751	C175	0.496000	0.966890	0.825530
C1761	C176	0.541000	0.978200	0.889200
C1771	C177	0.423200	0.097680	0.699680
C1781	C178	0.386400	0.028500	0.732860
C1791	C179	0.430600	0.149820	0.698310
C1801	C180	0.484670	0.218930	0.696210
O931	O93	0.419350	0.923310	0.676370
O941	O94	0.458900	0.899000	0.767600
O951	O95	0.361100	0.934630	0.727280
H641	H64	0.482200	0.979000	0.800200
C1811	C181	0.492110	0.918900	0.833730
C1821	C182	0.538300	0.931000	0.897500
H651	H65	0.558000	0.998200	0.908600
C1831	C183	0.439000	0.069600	0.666550
H661	H66	0.367600	0.014900	0.755400
C1841	C184	0.403300	0.000660	0.699810
C1851	C185	0.386800	0.178550	0.696590
H671	H67	0.518300	0.232700	0.695300
C1861	C186	0.440640	0.247510	0.696520
C1871	C187	0.513400	0.900690	0.870130
C1881	C188	0.459100	0.890800	0.803600
H681	H68	0.553700	0.919000	0.922200
C1891	C189	0.429900	0.022000	0.666460
H691	H69	0.456300	0.083500	0.643500
C1901	C190	0.394900	0.948800	0.701060
C1911	C191	0.391500	0.226990	0.696380
H701	H70	0.353200	0.164800	0.695500
C1921	C192	0.445600	0.300190	0.698940
O961	O96	0.428300	0.863000	0.817500
H711	H71	0.441700	0.003500	0.643700
H721	H72	0.361100	0.246100	0.696100
Co91	Co9	0.992670	0.129750	0.965500
O971	O97	0.009200	0.189950	0.941830
O981	O98	0.917210	0.123270	0.960140
O991	O99	0.032790	0.135780	0.018120
O1001	O100	0.992190	0.934090	0.053690
C1931	C193	0.022100	0.200990	0.905600
C1941	C194	0.881000	0.145500	0.979290
C1951	C195	0.029970	0.107190	0.049010
O1011	O101	0.035600	0.173740	0.877780
C1961	C196	0.019700	0.252890	0.896230
O1021	O102	0.834910	0.145460	0.967780
C1971	C197	0.897100	0.173070	0.017020
O1031	O103	0.066530	0.099960	0.072550
C1981	C198	0.979900	0.079480	0.052850
O1041	O104	0.906150	0.925730	0.046190
C1991	C199	0.996000	0.283110	0.924470
C2001	C200	0.041000	0.271800	0.860800
C2011	C201	0.923200	0.152320	0.050320
C2021	C202	0.886400	0.221500	0.017140
C2031	C203	0.930600	0.100180	0.051690
C2041	C204	0.984670	0.031070	0.053790
O1051	O105	0.919350	0.326690	0.073630
O1061	O106	0.958900	0.351000	0.982400
O1071	O107	0.861100	0.315370	0.022720
H731	H73	0.982200	0.271000	0.949800
C2051	C205	0.992110	0.331100	0.916270
C2061	C206	0.038300	0.319000	0.852500
H741	H74	0.058000	0.251800	0.841400
C2071	C207	0.939000	0.180400	0.083450
H751	H75	0.867600	0.235100	0.994600
C2081	C208	0.903300	0.249340	0.050190
C2091	C209	0.886800	0.071450	0.053410
H761	H76	0.018300	0.017300	0.054700
C2101	C210	0.940640	0.002490	0.053480
C2111	C211	0.013400	0.349310	0.879870
C2121	C212	0.959100	0.359200	0.946400
H771	H77	0.053700	0.331000	0.827800
C2131	C213	0.929900	0.228000	0.083540
H781	H78	0.956300	0.166500	0.106500
C2141	C214	0.894900	0.301200	0.048940
C2151	C215	0.891500	0.023010	0.053620
H791	H79	0.853200	0.085200	0.054500
C2161	C216	0.945600	0.949810	0.051060
O1081	O108	0.928300	0.387000	0.932500
H801	H80	0.941700	0.246500	0.106300
H811	H81	0.861100	0.003900	0.053900
Co101	Co10	0.992670	0.629750	0.465500
O1091	O109	0.009200	0.689950	0.441830
O1101	O110	0.917210	0.623270	0.460140
O1111	O111	0.032790	0.635780	0.518120
O1121	O112	0.992190	0.434090	0.553690
C2171	C217	0.022100	0.700990	0.405600
C2181	C218	0.881000	0.645500	0.479290
C2191	C219	0.029970	0.607190	0.549010
O1131	O113	0.035600	0.673740	0.377780
C2201	C220	0.019700	0.752890	0.396230
O1141	O114	0.834910	0.645460	0.467780
C2211	C221	0.897100	0.673070	0.517020
O1151	O115	0.066530	0.599960	0.572550
C2221	C222	0.979900	0.579480	0.552850
O1161	O116	0.906150	0.425730	0.546190
C2231	C223	0.996000	0.783110	0.424470
C2241	C224	0.041000	0.771800	0.360800
C2251	C225	0.923200	0.652320	0.550320
C2261	C226	0.886400	0.721500	0.517140
C2271	C227	0.930600	0.600180	0.551690
C2281	C228	0.984670	0.531070	0.553790
O1171	O117	0.919350	0.826690	0.573630
O1181	O118	0.958900	0.851000	0.482400
O1191	O119	0.861100	0.815370	0.522720
H821	H82	0.982200	0.771000	0.449800
C2291	C229	0.992110	0.831100	0.416270
C2301	C230	0.038300	0.819000	0.352500
H831	H83	0.058000	0.751800	0.341400
C2311	C231	0.939000	0.680400	0.583450
H841	H84	0.867600	0.735100	0.494600
C2321	C232	0.903300	0.749340	0.550190
C2331	C233	0.886800	0.571450	0.553410
H851	H85	0.018300	0.517300	0.554700
C2341	C234	0.940640	0.502490	0.553480
C2351	C235	0.013400	0.849310	0.379870
C2361	C236	0.959100	0.859200	0.446400
H861	H86	0.053700	0.831000	0.327800
C2371	C237	0.929900	0.728000	0.583540
H871	H87	0.956300	0.666500	0.606500
C2381	C238	0.894900	0.801200	0.548940
C2391	C239	0.891500	0.523010	0.553620
H881	H88	0.853200	0.585200	0.554500
C2401	C240	0.945600	0.449810	0.551060
O1201	O120	0.928300	0.887000	0.432500
H891	H89	0.941700	0.746500	0.606300
H901	H90	0.861100	0.503900	0.553900
Co111	Co11	0.492670	0.129750	0.465500
O1211	O121	0.509200	0.189950	0.441830
O1221	O122	0.417210	0.123270	0.460140
O1231	O123	0.532790	0.135780	0.518120
O1241	O124	0.492190	0.934090	0.553690
C2411	C241	0.522100	0.200990	0.405600
C2421	C242	0.381000	0.145500	0.479290
C2431	C243	0.529970	0.107190	0.549010
O1251	O125	0.535600	0.173740	0.377780
C2441	C244	0.519700	0.252890	0.396230
O1261	O126	0.334910	0.145460	0.467780
C2451	C245	0.397100	0.173070	0.517020
O1271	O127	0.566530	0.099960	0.572550
C2461	C246	0.479900	0.079480	0.552850
O1281	O128	0.406150	0.925730	0.546190
C2471	C247	0.496000	0.283110	0.424470
C2481	C248	0.541000	0.271800	0.360800
C2491	C249	0.423200	0.152320	0.550320
C2501	C250	0.386400	0.221500	0.517140
C2511	C251	0.430600	0.100180	0.551690
C2521	C252	0.484670	0.031070	0.553790
O1291	O129	0.419350	0.326690	0.573630
O1301	O130	0.458900	0.351000	0.482400
O1311	O131	0.361100	0.315370	0.522720
H911	H91	0.482200	0.271000	0.449800
C2531	C253	0.492110	0.331100	0.416270
C2541	C254	0.538300	0.319000	0.352500
H921	H92	0.558000	0.251800	0.341400
C2551	C255	0.439000	0.180400	0.583450
H931	H93	0.367600	0.235100	0.494600
C2561	C256	0.403300	0.249340	0.550190
C2571	C257	0.386800	0.071450	0.553410
H941	H94	0.518300	0.017300	0.554700
C2581	C258	0.440640	0.002490	0.553480
C2591	C259	0.513400	0.349310	0.379870
C2601	C260	0.459100	0.359200	0.446400
H951	H95	0.553700	0.331000	0.327800
C2611	C261	0.429900	0.228000	0.583540
H961	H96	0.456300	0.166500	0.606500
C2621	C262	0.394900	0.301200	0.548940
C2631	C263	0.391500	0.023010	0.553620
H971	H97	0.353200	0.085200	0.554500
C2641	C264	0.445600	0.949810	0.551060
O1321	O132	0.428300	0.387000	0.432500
H981	H98	0.441700	0.246500	0.606300
H991	H99	0.361100	0.003900	0.553900
Co121	Co12	0.492670	0.629750	0.965500
O1331	O133	0.509200	0.689950	0.941830
O1341	O134	0.417210	0.623270	0.960140
O1351	O135	0.532790	0.635780	0.018120
O1361	O136	0.492190	0.434090	0.053690
C2651	C265	0.522100	0.700990	0.905600
C2661	C266	0.381000	0.645500	0.979290
C2671	C267	0.529970	0.607190	0.049010
O1371	O137	0.535600	0.673740	0.877780
C2681	C268	0.519700	0.752890	0.896230
O1381	O138	0.334910	0.645460	0.967780
C2691	C269	0.397100	0.673070	0.017020
O1391	O139	0.566530	0.599960	0.072550
C2701	C270	0.479900	0.579480	0.052850
O1401	O140	0.406150	0.425730	0.046190
C2711	C271	0.496000	0.783110	0.924470
C2721	C272	0.541000	0.771800	0.860800
C2731	C273	0.423200	0.652320	0.050320
C2741	C274	0.386400	0.721500	0.017140
C2751	C275	0.430600	0.600180	0.051690
C2761	C276	0.484670	0.531070	0.053790
O1411	O141	0.419350	0.826690	0.073630
O1421	O142	0.458900	0.851000	0.982400
O1431	O143	0.361100	0.815370	0.022720
H1001	H100	0.482200	0.771000	0.949800
C2771	C277	0.492110	0.831100	0.916270
C2781	C278	0.538300	0.819000	0.852500
H1011	H101	0.558000	0.751800	0.841400
C2791	C279	0.439000	0.680400	0.083450
H1021	H102	0.367600	0.735100	0.994600
C2801	C280	0.403300	0.749340	0.050190
C2811	C281	0.386800	0.571450	0.053410
H1031	H103	0.518300	0.517300	0.054700
C2821	C282	0.440640	0.502490	0.053480
C2831	C283	0.513400	0.849310	0.879870
C2841	C284	0.459100	0.859200	0.946400
H1041	H104	0.553700	0.831000	0.827800
C2851	C285	0.429900	0.728000	0.083540
H1051	H105	0.456300	0.666500	0.106500
C2861	C286	0.394900	0.801200	0.048940
C2871	C287	0.391500	0.523010	0.053620
H1061	H106	0.353200	0.585200	0.054500
C2881	C288	0.445600	0.449810	0.051060
O1441	O144	0.428300	0.887000	0.932500
H1071	H107	0.441700	0.746500	0.106300
H1081	H108	0.361100	0.503900	0.053900
Co131	Co13	0.757330	0.620250	0.965500
O1451	O145	0.740800	0.560050	0.941830
O1461	O146	0.832790	0.626730	0.960140
O1471	O147	0.717210	0.614220	0.018120
O1481	O148	0.757810	0.815910	0.053690
C2891	C289	0.727900	0.549010	0.905600
C2901	C290	0.869000	0.604500	0.979290
C2911	C291	0.720030	0.642810	0.049010
O1491	O149	0.714400	0.576260	0.877780
C2921	C292	0.730300	0.497110	0.896230
O1501	O150	0.915090	0.604540	0.967780
C2931	C293	0.852900	0.576930	0.017020
O1511	O151	0.683470	0.650040	0.072550
C2941	C294	0.770100	0.670520	0.052850
O1521	O152	0.843850	0.824270	0.046190
C2951	C295	0.754000	0.466890	0.924470
C2961	C296	0.709000	0.478200	0.860800
C2971	C297	0.826800	0.597680	0.050320
C2981	C298	0.863600	0.528500	0.017140
C2991	C299	0.819400	0.649820	0.051690
C3001	C300	0.765330	0.718930	0.053790
O1531	O153	0.830650	0.423310	0.073630
O1541	O154	0.791100	0.399000	0.982400
O1551	O155	0.888900	0.434630	0.022720
H1091	H109	0.767800	0.479000	0.949800
C3011	C301	0.757890	0.418900	0.916270
C3021	C302	0.711700	0.431000	0.852500
H1101	H110	0.692000	0.498200	0.841400
C3031	C303	0.811000	0.569600	0.083450
H1111	H111	0.882400	0.514900	0.994600
C3041	C304	0.846700	0.500660	0.050190
C3051	C305	0.863200	0.678550	0.053410
H1121	H112	0.731700	0.732700	0.054700
C3061	C306	0.809360	0.747510	0.053480
C3071	C307	0.736600	0.400690	0.879870
C3081	C308	0.790900	0.390800	0.946400
H1131	H113	0.696300	0.419000	0.827800
C3091	C309	0.820100	0.522000	0.083540
H1141	H114	0.793700	0.583500	0.106500
C3101	C310	0.855100	0.448800	0.048940
C3111	C311	0.858500	0.726990	0.053620
H1151	H115	0.896800	0.664800	0.054500
C3121	C312	0.804400	0.800190	0.051060
O1561	O156	0.821700	0.363000	0.932500
H1161	H116	0.808300	0.503500	0.106300
H1171	H117	0.888900	0.746100	0.053900
Co141	Co14	0.757330	0.120250	0.465500
O1571	O157	0.740800	0.060050	0.441830
O1581	O158	0.832790	0.126730	0.460140
O1591	O159	0.717210	0.114220	0.518120
O1601	O160	0.757810	0.315910	0.553690
C3131	C313	0.727900	0.049010	0.405600
C3141	C314	0.869000	0.104500	0.479290
C3151	C315	0.720030	0.142810	0.549010
O1611	O161	0.714400	0.076260	0.377780
C3161	C316	0.730300	0.997110	0.396230
O1621	O162	0.915090	0.104540	0.467780
C3171	C317	0.852900	0.076930	0.517020
O1631	O163	0.683470	0.150040	0.572550
C3181	C318	0.770100	0.170520	0.552850
O1641	O164	0.843850	0.324270	0.546190
C3191	C319	0.754000	0.966890	0.424470
C3201	C320	0.709000	0.978200	0.360800
C3211	C321	0.826800	0.097680	0.550320
C3221	C322	0.863600	0.028500	0.517140
C3231	C323	0.819400	0.149820	0.551690
C3241	C324	0.765330	0.218930	0.553790
O1651	O165	0.830650	0.923310	0.573630
O1661	O166	0.791100	0.899000	0.482400
O1671	O167	0.888900	0.934630	0.522720
H1181	H118	0.767800	0.979000	0.449800
C3251	C325	0.757890	0.918900	0.416270
C3261	C326	0.711700	0.931000	0.352500
H1191	H119	0.692000	0.998200	0.341400
C3271	C327	0.811000	0.069600	0.583450
H1201	H120	0.882400	0.014900	0.494600
C3281	C328	0.846700	0.000660	0.550190
C3291	C329	0.863200	0.178550	0.553410
H1211	H121	0.731700	0.232700	0.554700
C3301	C330	0.809360	0.247510	0.553480
C3311	C331	0.736600	0.900690	0.379870
C3321	C332	0.790900	0.890800	0.446400
H1221	H122	0.696300	0.919000	0.327800
C3331	C333	0.820100	0.022000	0.583540
H1231	H123	0.793700	0.083500	0.606500
C3341	C334	0.855100	0.948800	0.548940
C3351	C335	0.858500	0.226990	0.553620
H1241	H124	0.896800	0.164800	0.554500
C3361	C336	0.804400	0.300190	0.551060
O1681	O168	0.821700	0.863000	0.432500
H1251	H125	0.808300	0.003500	0.606300
H1261	H126	0.888900	0.246100	0.553900
Co151	Co15	0.257330	0.620250	0.465500
O1691	O169	0.240800	0.560050	0.441830
O1701	O170	0.332790	0.626730	0.460140
O1711	O171	0.217210	0.614220	0.518120
O1721	O172	0.257810	0.815910	0.553690
C3371	C337	0.227900	0.549010	0.405600
C3381	C338	0.369000	0.604500	0.479290
C3391	C339	0.220030	0.642810	0.549010
O1731	O173	0.214400	0.576260	0.377780
C3401	C340	0.230300	0.497110	0.396230
O1741	O174	0.415090	0.604540	0.467780
C3411	C341	0.352900	0.576930	0.517020
O1751	O175	0.183470	0.650040	0.572550
C3421	C342	0.270100	0.670520	0.552850
O1761	O176	0.343850	0.824270	0.546190
C3431	C343	0.254000	0.466890	0.424470
C3441	C344	0.209000	0.478200	0.360800
C3451	C345	0.326800	0.597680	0.550320
C3461	C346	0.363600	0.528500	0.517140
C3471	C347	0.319400	0.649820	0.551690
C3481	C348	0.265330	0.718930	0.553790
O1771	O177	0.330650	0.423310	0.573630
O1781	O178	0.291100	0.399000	0.482400
O1791	O179	0.388900	0.434630	0.522720
H1271	H127	0.267800	0.479000	0.449800
C3491	C349	0.257890	0.418900	0.416270
C3501	C350	0.211700	0.431000	0.352500
H1281	H128	0.192000	0.498200	0.341400
C3511	C351	0.311000	0.569600	0.583450
H1291	H129	0.382400	0.514900	0.494600
C3521	C352	0.346700	0.500660	0.550190
C3531	C353	0.363200	0.678550	0.553410
H1301	H130	0.231700	0.732700	0.554700
C3541	C354	0.309360	0.747510	0.553480
C3551	C355	0.236600	0.400690	0.379870
C3561	C356	0.290900	0.390800	0.446400
H1311	H131	0.196300	0.419000	0.327800
C3571	C357	0.320100	0.522000	0.583540
H1321	H132	0.293700	0.583500	0.606500
C3581	C358	0.355100	0.448800	0.548940
C3591	C359	0.358500	0.726990	0.553620
H1331	H133	0.396800	0.664800	0.554500
C3601	C360	0.304400	0.800190	0.551060
O1801	O180	0.321700	0.363000	0.432500
H1341	H134	0.308300	0.503500	0.606300
H1351	H135	0.388900	0.746100	0.553900
Co161	Co16	0.257330	0.120250	0.965500
O1811	O181	0.240800	0.060050	0.941830
O1821	O182	0.332790	0.126730	0.960140
O1831	O183	0.217210	0.114220	0.018120
O1841	O184	0.257810	0.315910	0.053690
C3611	C361	0.227900	0.049010	0.905600
C3621	C362	0.369000	0.104500	0.979290
C3631	C363	0.220030	0.142810	0.049010
O1851	O185	0.214400	0.076260	0.877780
C3641	C364	0.230300	0.997110	0.896230
O1861	O186	0.415090	0.104540	0.967780
C3651	C365	0.352900	0.076930	0.017020
O1871	O187	0.183470	0.150040	0.072550
C3661	C366	0.270100	0.170520	0.052850
O1881	O188	0.343850	0.324270	0.046190
C3671	C367	0.254000	0.966890	0.924470
C3681	C368	0.209000	0.978200	0.860800
C3691	C369	0.326800	0.097680	0.050320
C3701	C370	0.363600	0.028500	0.017140
C3711	C371	0.319400	0.149820	0.051690
C3721	C372	0.265330	0.218930	0.053790
O1891	O189	0.330650	0.923310	0.073630
O1901	O190	0.291100	0.899000	0.982400
O1911	O191	0.388900	0.934630	0.022720
H1361	H136	0.267800	0.979000	0.949800
C3731	C373	0.257890	0.918900	0.916270
C3741	C374	0.211700	0.931000	0.852500
H1371	H137	0.192000	0.998200	0.841400
C3751	C375	0.311000	0.069600	0.083450
H1381	H138	0.382400	0.014900	0.994600
C3761	C376	0.346700	0.000660	0.050190
C3771	C377	0.363200	0.178550	0.053410
H1391	H139	0.231700	0.232700	0.054700
C3781	C378	0.309360	0.247510	0.053480
C3791	C379	0.236600	0.900690	0.879870
C3801	C380	0.290900	0.890800	0.946400
H1401	H140	0.196300	0.919000	0.827800
C3811	C381	0.320100	0.022000	0.083540
H1411	H141	0.293700	0.083500	0.106500
C3821	C382	0.355100	0.948800	0.048940
C3831	C383	0.358500	0.226990	0.053620
H1421	H142	0.396800	0.164800	0.054500
C3841	C384	0.304400	0.300190	0.051060
O1921	O192	0.321700	0.863000	0.932500
H1431	H143	0.308300	0.003500	0.106300
H1441	H144	0.388900	0.246100	0.053900
Co171	Co17	0.242670	0.870250	0.215500
O1931	O193	0.259200	0.810050	0.191830
O1941	O194	0.167210	0.876730	0.210140
O1951	O195	0.282790	0.864220	0.268120
O1961	O196	0.242190	0.065910	0.303690
C3851	C385	0.272100	0.799010	0.155600
C3861	C386	0.131000	0.854500	0.229290
C3871	C387	0.279970	0.892810	0.299010
O1971	O197	0.285600	0.826260	0.127780
C3881	C388	0.269700	0.747110	0.146230
O1981	O198	0.084910	0.854540	0.217780
C3891	C389	0.147100	0.826930	0.267020
O1991	O199	0.316530	0.900040	0.322550
C3901	C390	0.229900	0.920520	0.302850
O2001	O200	0.156150	0.074270	0.296190
C3911	C391	0.246000	0.716890	0.174470
C3921	C392	0.291000	0.728200	0.110800
C3931	C393	0.173200	0.847680	0.300320
C3941	C394	0.136400	0.778500	0.267140
C3951	C395	0.180600	0.899820	0.301690
C3961	C396	0.234670	0.968930	0.303790
O2011	O201	0.169350	0.673310	0.323630
O2021	O202	0.208900	0.649000	0.232400
O2031	O203	0.111100	0.684630	0.272720
H1451	H145	0.232200	0.729000	0.199800
C3971	C397	0.242110	0.668900	0.166270
C3981	C398	0.288300	0.681000	0.102500
H1461	H146	0.308000	0.748200	0.091400
C3991	C399	0.189000	0.819600	0.333450
H1471	H147	0.117600	0.764900	0.244600
C4001	C400	0.153300	0.750660	0.300190
C4011	C401	0.136800	0.928550	0.303410
H1481	H148	0.268300	0.982700	0.304700
C4021	C402	0.190640	0.997510	0.303480
C4031	C403	0.263400	0.650690	0.129870
C4041	C404	0.209100	0.640800	0.196400
H1491	H149	0.303700	0.669000	0.077800
C4051	C405	0.179900	0.772000	0.333540
H1501	H150	0.206300	0.833500	0.356500
C4061	C406	0.144900	0.698800	0.298940
C4071	C407	0.141500	0.976990	0.303620
H1511	H151	0.103200	0.914800	0.304500
C4081	C408	0.195600	0.050190	0.301060
O2041	O204	0.178300	0.613000	0.182500
H1521	H152	0.191700	0.753500	0.356300
H1531	H153	0.111100	0.996100	0.303900
Co181	Co18	0.242670	0.370250	0.715500
O2051	O205	0.259200	0.310050	0.691830
O2061	O206	0.167210	0.376730	0.710140
O2071	O207	0.282790	0.364220	0.768120
O2081	O208	0.242190	0.565910	0.803690
C4091	C409	0.272100	0.299010	0.655600
C4101	C410	0.131000	0.354500	0.729290
C4111	C411	0.279970	0.392810	0.799010
O2091	O209	0.285600	0.326260	0.627780
C4121	C412	0.269700	0.247110	0.646230
O2101	O210	0.084910	0.354540	0.717780
C4131	C413	0.147100	0.326930	0.767020
O2111	O211	0.316530	0.400040	0.822550
C4141	C414	0.229900	0.420520	0.802850
O2121	O212	0.156150	0.574270	0.796190
C4151	C415	0.246000	0.216890	0.674470
C4161	C416	0.291000	0.228200	0.610800
C4171	C417	0.173200	0.347680	0.800320
C4181	C418	0.136400	0.278500	0.767140
C4191	C419	0.180600	0.399820	0.801690
C4201	C420	0.234670	0.468930	0.803790
O2131	O213	0.169350	0.173310	0.823630
O2141	O214	0.208900	0.149000	0.732400
O2151	O215	0.111100	0.184630	0.772720
H1541	H154	0.232200	0.229000	0.699800
C4211	C421	0.242110	0.168900	0.666270
C4221	C422	0.288300	0.181000	0.602500
H1551	H155	0.308000	0.248200	0.591400
C4231	C423	0.189000	0.319600	0.833450
H1561	H156	0.117600	0.264900	0.744600
C4241	C424	0.153300	0.250660	0.800190
C4251	C425	0.136800	0.428550	0.803410
H1571	H157	0.268300	0.482700	0.804700
C4261	C426	0.190640	0.497510	0.803480
C4271	C427	0.263400	0.150690	0.629870
C4281	C428	0.209100	0.140800	0.696400
H1581	H158	0.303700	0.169000	0.577800
C4291	C429	0.179900	0.272000	0.833540
H1591	H159	0.206300	0.333500	0.856500
C4301	C430	0.144900	0.198800	0.798940
C4311	C431	0.141500	0.476990	0.803620
H1601	H160	0.103200	0.414800	0.804500
C4321	C432	0.195600	0.550190	0.801060
O2161	O216	0.178300	0.113000	0.682500
H1611	H161	0.191700	0.253500	0.856300
H1621	H162	0.111100	0.496100	0.803900
Co191	Co19	0.742670	0.870250	0.715500
O2171	O217	0.759200	0.810050	0.691830
O2181	O218	0.667210	0.876730	0.710140
O2191	O219	0.782790	0.864220	0.768120
O2201	O220	0.742190	0.065910	0.803690
C4331	C433	0.772100	0.799010	0.655600
C4341	C434	0.631000	0.854500	0.729290
C4351	C435	0.779970	0.892810	0.799010
O2211	O221	0.785600	0.826260	0.627780
C4361	C436	0.769700	0.747110	0.646230
O2221	O222	0.584910	0.854540	0.717780
C4371	C437	0.647100	0.826930	0.767020
O2231	O223	0.816530	0.900040	0.822550
C4381	C438	0.729900	0.920520	0.802850
O2241	O224	0.656150	0.074270	0.796190
C4391	C439	0.746000	0.716890	0.674470
C4401	C440	0.791000	0.728200	0.610800
C4411	C441	0.673200	0.847680	0.800320
C4421	C442	0.636400	0.778500	0.767140
C4431	C443	0.680600	0.899820	0.801690
C4441	C444	0.734670	0.968930	0.803790
O2251	O225	0.669350	0.673310	0.823630
O2261	O226	0.708900	0.649000	0.732400
O2271	O227	0.611100	0.684630	0.772720
H1631	H163	0.732200	0.729000	0.699800
C4451	C445	0.742110	0.668900	0.666270
C4461	C446	0.788300	0.681000	0.602500
H1641	H164	0.808000	0.748200	0.591400
C4471	C447	0.689000	0.819600	0.833450
H1651	H165	0.617600	0.764900	0.744600
C4481	C448	0.653300	0.750660	0.800190
C4491	C449	0.636800	0.928550	0.803410
H1661	H166	0.768300	0.982700	0.804700
C4501	C450	0.690640	0.997510	0.803480
C4511	C451	0.763400	0.650690	0.629870
C4521	C452	0.709100	0.640800	0.696400
H1671	H167	0.803700	0.669000	0.577800
C4531	C453	0.679900	0.772000	0.833540
H1681	H168	0.706300	0.833500	0.856500
C4541	C454	0.644900	0.698800	0.798940
C4551	C455	0.641500	0.976990	0.803620
H1691	H169	0.603200	0.914800	0.804500
C4561	C456	0.695600	0.050190	0.801060
O2281	O228	0.678300	0.613000	0.682500
H1701	H170	0.691700	0.753500	0.856300
H1711	H171	0.611100	0.996100	0.803900
Co201	Co20	0.742670	0.370250	0.215500
O2291	O229	0.759200	0.310050	0.191830
O2301	O230	0.667210	0.376730	0.210140
O2311	O231	0.782790	0.364220	0.268120
O2321	O232	0.742190	0.565910	0.303690
C4571	C457	0.772100	0.299010	0.155600
C4581	C458	0.631000	0.354500	0.229290
C4591	C459	0.779970	0.392810	0.299010
O2331	O233	0.785600	0.326260	0.127780
C4601	C460	0.769700	0.247110	0.146230
O2341	O234	0.584910	0.354540	0.217780
C4611	C461	0.647100	0.326930	0.267020
O2351	O235	0.816530	0.400040	0.322550
C4621	C462	0.729900	0.420520	0.302850
O2361	O236	0.656150	0.574270	0.296190
C4631	C463	0.746000	0.216890	0.174470
C4641	C464	0.791000	0.228200	0.110800
C4651	C465	0.673200	0.347680	0.300320
C4661	C466	0.636400	0.278500	0.267140
C4671	C467	0.680600	0.399820	0.301690
C4681	C468	0.734670	0.468930	0.303790
O2371	O237	0.669350	0.173310	0.323630
O2381	O238	0.708900	0.149000	0.232400
O2391	O239	0.611100	0.184630	0.272720
H1721	H172	0.732200	0.229000	0.199800
C4691	C469	0.742110	0.168900	0.166270
C4701	C470	0.788300	0.181000	0.102500
H1731	H173	0.808000	0.248200	0.091400
C4711	C471	0.689000	0.319600	0.333450
H1741	H174	0.617600	0.264900	0.244600
C4721	C472	0.653300	0.250660	0.300190
C4731	C473	0.636800	0.428550	0.303410
H1751	H175	0.768300	0.482700	0.304700
C4741	C474	0.690640	0.497510	0.303480
C4751	C475	0.763400	0.150690	0.129870
C4761	C476	0.709100	0.140800	0.196400
H1761	H176	0.803700	0.169000	0.077800
C4771	C477	0.679900	0.272000	0.333540
H1771	H177	0.706300	0.333500	0.356500
C4781	C478	0.644900	0.198800	0.298940
C4791	C479	0.641500	0.476990	0.303620
H1781	H178	0.603200	0.414800	0.304500
C4801	C480	0.695600	0.550190	0.301060
O2401	O240	0.678300	0.113000	0.182500
H1791	H179	0.691700	0.253500	0.356300
H1801	H180	0.611100	0.496100	0.303900
Co211	Co21	0.007330	0.379750	0.215500
O2411	O241	0.990800	0.439950	0.191830
O2421	O242	0.082790	0.373270	0.210140
O2431	O243	0.967210	0.385780	0.268120
O2441	O244	0.007810	0.184090	0.303690
C4811	C481	0.977900	0.450990	0.155600
C4821	C482	0.119000	0.395500	0.229290
C4831	C483	0.970030	0.357190	0.299010
O2451	O245	0.964400	0.423740	0.127780
C4841	C484	0.980300	0.502890	0.146230
O2461	O246	0.165090	0.395460	0.217780
C4851	C485	0.102900	0.423070	0.267020
O2471	O247	0.933470	0.349960	0.322550
C4861	C486	0.020100	0.329480	0.302850
O2481	O248	0.093850	0.175730	0.296190
C4871	C487	0.004000	0.533110	0.174470
C4881	C488	0.959000	0.521800	0.110800
C4891	C489	0.076800	0.402320	0.300320
C4901	C490	0.113600	0.471500	0.267140
C4911	C491	0.069400	0.350180	0.301690
C4921	C492	0.015330	0.281070	0.303790
O2491	O249	0.080650	0.576690	0.323630
O2501	O250	0.041100	0.601000	0.232400
O2511	O251	0.138900	0.565370	0.272720
H1811	H181	0.017800	0.521000	0.199800
C4931	C493	0.007890	0.581100	0.166270
C4941	C494	0.961700	0.569000	0.102500
H1821	H182	0.942000	0.501800	0.091400
C4951	C495	0.061000	0.430400	0.333450
H1831	H183	0.132400	0.485100	0.244600
C4961	C496	0.096700	0.499340	0.300190
C4971	C497	0.113200	0.321450	0.303410
H1841	H184	0.981700	0.267300	0.304700
C4981	C498	0.059360	0.252490	0.303480
C4991	C499	0.986600	0.599310	0.129870
C5001	C500	0.040900	0.609200	0.196400
H1851	H185	0.946300	0.581000	0.077800
C5011	C501	0.070100	0.478000	0.333540
H1861	H186	0.043700	0.416500	0.356500
C5021	C502	0.105100	0.551200	0.298940
C5031	C503	0.108500	0.273010	0.303620
H1871	H187	0.146800	0.335200	0.304500
C5041	C504	0.054400	0.199810	0.301060
O2521	O252	0.071700	0.637000	0.182500
H1881	H188	0.058300	0.496500	0.356300
H1891	H189	0.138900	0.253900	0.303900
Co221	Co22	0.007330	0.879750	0.715500
O2531	O253	0.990800	0.939950	0.691830
O2541	O254	0.082790	0.873270	0.710140
O2551	O255	0.967210	0.885780	0.768120
O2561	O256	0.007810	0.684090	0.803690
C5051	C505	0.977900	0.950990	0.655600
C5061	C506	0.119000	0.895500	0.729290
C5071	C507	0.970030	0.857190	0.799010
O2571	O257	0.964400	0.923740	0.627780
C5081	C508	0.980300	0.002890	0.646230
O2581	O258	0.165090	0.895460	0.717780
C5091	C509	0.102900	0.923070	0.767020
O2591	O259	0.933470	0.849960	0.822550
C5101	C510	0.020100	0.829480	0.802850
O2601	O260	0.093850	0.675730	0.796190
C5111	C511	0.004000	0.033110	0.674470
C5121	C512	0.959000	0.021800	0.610800
C5131	C513	0.076800	0.902320	0.800320
C5141	C514	0.113600	0.971500	0.767140
C5151	C515	0.069400	0.850180	0.801690
C5161	C516	0.015330	0.781070	0.803790
O2611	O261	0.080650	0.076690	0.823630
O2621	O262	0.041100	0.101000	0.732400
O2631	O263	0.138900	0.065370	0.772720
H1901	H190	0.017800	0.021000	0.699800
C5171	C517	0.007890	0.081100	0.666270
C5181	C518	0.961700	0.069000	0.602500
H1911	H191	0.942000	0.001800	0.591400
C5191	C519	0.061000	0.930400	0.833450
H1921	H192	0.132400	0.985100	0.744600
C5201	C520	0.096700	0.999340	0.800190
C5211	C521	0.113200	0.821450	0.803410
H1931	H193	0.981700	0.767300	0.804700
C5221	C522	0.059360	0.752490	0.803480
C5231	C523	0.986600	0.099310	0.629870
C5241	C524	0.040900	0.109200	0.696400
H1941	H194	0.946300	0.081000	0.577800
C5251	C525	0.070100	0.978000	0.833540
H1951	H195	0.043700	0.916500	0.856500
C5261	C526	0.105100	0.051200	0.798940
C5271	C527	0.108500	0.773010	0.803620
H1961	H196	0.146800	0.835200	0.804500
C5281	C528	0.054400	0.699810	0.801060
O2641	O264	0.071700	0.137000	0.682500
H1971	H197	0.058300	0.996500	0.856300
H1981	H198	0.138900	0.753900	0.803900
Co231	Co23	0.507330	0.379750	0.715500
O2651	O265	0.490800	0.439950	0.691830
O2661	O266	0.582790	0.373270	0.710140
O2671	O267	0.467210	0.385780	0.768120
O2681	O268	0.507810	0.184090	0.803690
C5291	C529	0.477900	0.450990	0.655600
C5301	C530	0.619000	0.395500	0.729290
C5311	C531	0.470030	0.357190	0.799010
O2691	O269	0.464400	0.423740	0.627780
C5321	C532	0.480300	0.502890	0.646230
O2701	O270	0.665090	0.395460	0.717780
C5331	C533	0.602900	0.423070	0.767020
O2711	O271	0.433470	0.349960	0.822550
C5341	C534	0.520100	0.329480	0.802850
O2721	O272	0.593850	0.175730	0.796190
C5351	C535	0.504000	0.533110	0.674470
C5361	C536	0.459000	0.521800	0.610800
C5371	C537	0.576800	0.402320	0.800320
C5381	C538	0.613600	0.471500	0.767140
C5391	C539	0.569400	0.350180	0.801690
C5401	C540	0.515330	0.281070	0.803790
O2731	O273	0.580650	0.576690	0.823630
O2741	O274	0.541100	0.601000	0.732400
O2751	O275	0.638900	0.565370	0.772720
H1991	H199	0.517800	0.521000	0.699800
C5411	C541	0.507890	0.581100	0.666270
C5421	C542	0.461700	0.569000	0.602500
H2001	H200	0.442000	0.501800	0.591400
C5431	C543	0.561000	0.430400	0.833450
H2011	H201	0.632400	0.485100	0.744600
C5441	C544	0.596700	0.499340	0.800190
C5451	C545	0.613200	0.321450	0.803410
H2021	H202	0.481700	0.267300	0.804700
C5461	C546	0.559360	0.252490	0.803480
C5471	C547	0.486600	0.599310	0.629870
C5481	C548	0.540900	0.609200	0.696400
H2031	H203	0.446300	0.581000	0.577800
C5491	C549	0.570100	0.478000	0.833540
H2041	H204	0.543700	0.416500	0.856500
C5501	C550	0.605100	0.551200	0.798940
C5511	C551	0.608500	0.273010	0.803620
H2051	H205	0.646800	0.335200	0.804500
C5521	C552	0.554400	0.199810	0.801060
O2761	O276	0.571700	0.637000	0.682500
H2061	H206	0.558300	0.496500	0.856300
H2071	H207	0.638900	0.253900	0.803900
Co241	Co24	0.507330	0.879750	0.215500
O2771	O277	0.490800	0.939950	0.191830
O2781	O278	0.582790	0.873270	0.210140
O2791	O279	0.467210	0.885780	0.268120
O2801	O280	0.507810	0.684090	0.303690
C5531	C553	0.477900	0.950990	0.155600
C5541	C554	0.619000	0.895500	0.229290
C5551	C555	0.470030	0.857190	0.299010
O2811	O281	0.464400	0.923740	0.127780
C5561	C556	0.480300	0.002890	0.146230
O2821	O282	0.665090	0.895460	0.217780
C5571	C557	0.602900	0.923070	0.267020
O2831	O283	0.433470	0.849960	0.322550
C5581	C558	0.520100	0.829480	0.302850
O2841	O284	0.593850	0.675730	0.296190
C5591	C559	0.504000	0.033110	0.174470
C5601	C560	0.459000	0.021800	0.110800
C5611	C561	0.576800	0.902320	0.300320
C5621	C562	0.613600	0.971500	0.267140
C5631	C563	0.569400	0.850180	0.301690
C5641	C564	0.515330	0.781070	0.303790
O2851	O285	0.580650	0.076690	0.323630
O2861	O286	0.541100	0.101000	0.232400
O2871	O287	0.638900	0.065370	0.272720
H2081	H208	0.517800	0.021000	0.199800
C5651	C565	0.507890	0.081100	0.166270
C5661	C566	0.461700	0.069000	0.102500
H2091	H209	0.442000	0.001800	0.091400
C5671	C567	0.561000	0.930400	0.333450
H2101	H210	0.632400	0.985100	0.244600
C5681	C568	0.596700	0.999340	0.300190
C5691	C569	0.613200	0.821450	0.303410
H2111	H211	0.481700	0.767300	0.304700
C5701	C570	0.559360	0.752490	0.303480
C5711	C571	0.486600	0.099310	0.129870
C5721	C572	0.540900	0.109200	0.196400
H2121	H212	0.446300	0.081000	0.077800
C5731	C573	0.570100	0.978000	0.333540
H2131	H213	0.543700	0.916500	0.356500
C5741	C574	0.605100	0.051200	0.298940
C5751	C575	0.608500	0.773010	0.303620
H2141	H214	0.646800	0.835200	0.304500
C5761	C576	0.554400	0.699810	0.301060
O2881	O288	0.571700	0.137000	0.182500
H2151	H215	0.558300	0.996500	0.356300
H2161	H216	0.638900	0.753900	0.303900
Co251	Co25	0.007330	0.870250	0.034500
O2891	O289	0.990800	0.810050	0.058170
O2901	O290	0.082790	0.876730	0.039860
O2911	O291	0.967210	0.864220	0.981880
O2921	O292	0.007810	0.065910	0.946310
C5771	C577	0.977900	0.799010	0.094400
C5781	C578	0.119000	0.854500	0.020710
C5791	C579	0.970030	0.892810	0.950990
O2931	O293	0.964400	0.826260	0.122220
C5801	C580	0.980300	0.747110	0.103770
O2941	O294	0.165090	0.854540	0.032220
C5811	C581	0.102900	0.826930	0.982980
O2951	O295	0.933470	0.900040	0.927450
C5821	C582	0.020100	0.920520	0.947150
O2961	O296	0.093850	0.074270	0.953810
C5831	C583	0.004000	0.716890	0.075530
C5841	C584	0.959000	0.728200	0.139200
C5851	C585	0.076800	0.847680	0.949680
C5861	C586	0.113600	0.778500	0.982860
C5871	C587	0.069400	0.899820	0.948310
C5881	C588	0.015330	0.968930	0.946210
O2971	O297	0.080650	0.673310	0.926370
O2981	O298	0.041100	0.649000	0.017600
O2991	O299	0.138900	0.684630	0.977280
H2171	H217	0.017800	0.729000	0.050200
C5891	C589	0.007890	0.668900	0.083730
C5901	C590	0.961700	0.681000	0.147500
H2181	H218	0.942000	0.748200	0.158600
C5911	C591	0.061000	0.819600	0.916550
H2191	H219	0.132400	0.764900	0.005400
C5921	C592	0.096700	0.750660	0.949810
C5931	C593	0.113200	0.928550	0.946590
H2201	H220	0.981700	0.982700	0.945300
C5941	C594	0.059360	0.997510	0.946520
C5951	C595	0.986600	0.650690	0.120130
C5961	C596	0.040900	0.640800	0.053600
H2211	H221	0.946300	0.669000	0.172200
C5971	C597	0.070100	0.772000	0.916460
H2221	H222	0.043700	0.833500	0.893500
C5981	C598	0.105100	0.698800	0.951060
C5991	C599	0.108500	0.976990	0.946380
H2231	H223	0.146800	0.914800	0.945500
C6001	C600	0.054400	0.050190	0.948940
O3001	O300	0.071700	0.613000	0.067500
H2241	H224	0.058300	0.753500	0.893700
H2251	H225	0.138900	0.996100	0.946100
Co261	Co26	0.007330	0.370250	0.534500
O3011	O301	0.990800	0.310050	0.558170
O3021	O302	0.082790	0.376730	0.539860
O3031	O303	0.967210	0.364220	0.481880
O3041	O304	0.007810	0.565910	0.446310
C6011	C601	0.977900	0.299010	0.594400
C6021	C602	0.119000	0.354500	0.520710
C6031	C603	0.970030	0.392810	0.450990
O3051	O305	0.964400	0.326260	0.622220
C6041	C604	0.980300	0.247110	0.603770
O3061	O306	0.165090	0.354540	0.532220
C6051	C605	0.102900	0.326930	0.482980
O3071	O307	0.933470	0.400040	0.427450
C6061	C606	0.020100	0.420520	0.447150
O3081	O308	0.093850	0.574270	0.453810
C6071	C607	0.004000	0.216890	0.575530
C6081	C608	0.959000	0.228200	0.639200
C6091	C609	0.076800	0.347680	0.449680
C6101	C610	0.113600	0.278500	0.482860
C6111	C611	0.069400	0.399820	0.448310
C6121	C612	0.015330	0.468930	0.446210
O3091	O309	0.080650	0.173310	0.426370
O3101	O310	0.041100	0.149000	0.517600
O3111	O311	0.138900	0.184630	0.477280
H2261	H226	0.017800	0.229000	0.550200
C6131	C613	0.007890	0.168900	0.583730
C6141	C614	0.961700	0.181000	0.647500
H2271	H227	0.942000	0.248200	0.658600
C6151	C615	0.061000	0.319600	0.416550
H2281	H228	0.132400	0.264900	0.505400
C6161	C616	0.096700	0.250660	0.449810
C6171	C617	0.113200	0.428550	0.446590
H2291	H229	0.981700	0.482700	0.445300
C6181	C618	0.059360	0.497510	0.446520
C6191	C619	0.986600	0.150690	0.620130
C6201	C620	0.040900	0.140800	0.553600
H2301	H230	0.946300	0.169000	0.672200
C6211	C621	0.070100	0.272000	0.416460
H2311	H231	0.043700	0.333500	0.393500
C6221	C622	0.105100	0.198800	0.451060
C6231	C623	0.108500	0.476990	0.446380
H2321	H232	0.146800	0.414800	0.445500
C6241	C624	0.054400	0.550190	0.448940
O3121	O312	0.071700	0.113000	0.567500
H2331	H233	0.058300	0.253500	0.393700
H2341	H234	0.138900	0.496100	0.446100
Co271	Co27	0.507330	0.870250	0.534500
O3131	O313	0.490800	0.810050	0.558170
O3141	O314	0.582790	0.876730	0.539860
O3151	O315	0.467210	0.864220	0.481880
O3161	O316	0.507810	0.065910	0.446310
C6251	C625	0.477900	0.799010	0.594400
C6261	C626	0.619000	0.854500	0.520710
C6271	C627	0.470030	0.892810	0.450990
O3171	O317	0.464400	0.826260	0.622220
C6281	C628	0.480300	0.747110	0.603770
O3181	O318	0.665090	0.854540	0.532220
C6291	C629	0.602900	0.826930	0.482980
O3191	O319	0.433470	0.900040	0.427450
C6301	C630	0.520100	0.920520	0.447150
O3201	O320	0.593850	0.074270	0.453810
C6311	C631	0.504000	0.716890	0.575530
C6321	C632	0.459000	0.728200	0.639200
C6331	C633	0.576800	0.847680	0.449680
C6341	C634	0.613600	0.778500	0.482860
C6351	C635	0.569400	0.899820	0.448310
C6361	C636	0.515330	0.968930	0.446210
O3211	O321	0.580650	0.673310	0.426370
O3221	O322	0.541100	0.649000	0.517600
O3231	O323	0.638900	0.684630	0.477280
H2351	H235	0.517800	0.729000	0.550200
C6371	C637	0.507890	0.668900	0.583730
C6381	C638	0.461700	0.681000	0.647500
H2361	H236	0.442000	0.748200	0.658600
C6391	C639	0.561000	0.819600	0.416550
H2371	H237	0.632400	0.764900	0.505400
C6401	C640	0.596700	0.750660	0.449810
C6411	C641	0.613200	0.928550	0.446590
H2381	H238	0.481700	0.982700	0.445300
C6421	C642	0.559360	0.997510	0.446520
C6431	C643	0.486600	0.650690	0.620130
C6441	C644	0.540900	0.640800	0.553600
H2391	H239	0.446300	0.669000	0.672200
C6451	C645	0.570100	0.772000	0.416460
H2401	H240	0.543700	0.833500	0.393500
C6461	C646	0.605100	0.698800	0.451060
C6471	C647	0.608500	0.976990	0.446380
H2411	H241	0.646800	0.914800	0.445500
C6481	C648	0.554400	0.050190	0.448940
O3241	O324	0.571700	0.613000	0.567500
H2421	H242	0.558300	0.753500	0.393700
H2431	H243	0.638900	0.996100	0.446100
Co281	Co28	0.507330	0.370250	0.034500
O3251	O325	0.490800	0.310050	0.058170
O3261	O326	0.582790	0.376730	0.039860
O3271	O327	0.467210	0.364220	0.981880
O3281	O328	0.507810	0.565910	0.946310
C6491	C649	0.477900	0.299010	0.094400
C6501	C650	0.619000	0.354500	0.020710
C6511	C651	0.470030	0.392810	0.950990
O3291	O329	0.464400	0.326260	0.122220
C6521	C652	0.480300	0.247110	0.103770
O3301	O330	0.665090	0.354540	0.032220
C6531	C653	0.602900	0.326930	0.982980
O3311	O331	0.433470	0.400040	0.927450
C6541	C654	0.520100	0.420520	0.947150
O3321	O332	0.593850	0.574270	0.953810
C6551	C655	0.504000	0.216890	0.075530
C6561	C656	0.459000	0.228200	0.139200
C6571	C657	0.576800	0.347680	0.949680
C6581	C658	0.613600	0.278500	0.982860
C6591	C659	0.569400	0.399820	0.948310
C6601	C660	0.515330	0.468930	0.946210
O3331	O333	0.580650	0.173310	0.926370
O3341	O334	0.541100	0.149000	0.017600
O3351	O335	0.638900	0.184630	0.977280
H2441	H244	0.517800	0.229000	0.050200
C6611	C661	0.507890	0.168900	0.083730
C6621	C662	0.461700	0.181000	0.147500
H2451	H245	0.442000	0.248200	0.158600
C6631	C663	0.561000	0.319600	0.916550
H2461	H246	0.632400	0.264900	0.005400
C6641	C664	0.596700	0.250660	0.949810
C6651	C665	0.613200	0.428550	0.946590
H2471	H247	0.481700	0.482700	0.945300
C6661	C666	0.559360	0.497510	0.946520
C6671	C667	0.486600	0.150690	0.120130
C6681	C668	0.540900	0.140800	0.053600
H2481	H248	0.446300	0.169000	0.172200
C6691	C669	0.570100	0.272000	0.916460
H2491	H249	0.543700	0.333500	0.893500
C6701	C670	0.605100	0.198800	0.951060
C6711	C671	0.608500	0.476990	0.946380
H2501	H250	0.646800	0.414800	0.945500
C6721	C672	0.554400	0.550190	0.948940
O3361	O336	0.571700	0.113000	0.067500
H2511	H251	0.558300	0.253500	0.893700
H2521	H252	0.638900	0.496100	0.946100
Co291	Co29	0.242670	0.379750	0.034500
O3371	O337	0.259200	0.439950	0.058170
O3381	O338	0.167210	0.373270	0.039860
O3391	O339	0.282790	0.385780	0.981880
O3401	O340	0.242190	0.184090	0.946310
C6731	C673	0.272100	0.450990	0.094400
C6741	C674	0.131000	0.395500	0.020710
C6751	C675	0.279970	0.357190	0.950990
O3411	O341	0.285600	0.423740	0.122220
C6761	C676	0.269700	0.502890	0.103770
O3421	O342	0.084910	0.395460	0.032220
C6771	C677	0.147100	0.423070	0.982980
O3431	O343	0.316530	0.349960	0.927450
C6781	C678	0.229900	0.329480	0.947150
O3441	O344	0.156150	0.175730	0.953810
C6791	C679	0.246000	0.533110	0.075530
C6801	C680	0.291000	0.521800	0.139200
C6811	C681	0.173200	0.402320	0.949680
C6821	C682	0.136400	0.471500	0.982860
C6831	C683	0.180600	0.350180	0.948310
C6841	C684	0.234670	0.281070	0.946210
O3451	O345	0.169350	0.576690	0.926370
O3461	O346	0.208900	0.601000	0.017600
O3471	O347	0.111100	0.565370	0.977280
H2531	H253	0.232200	0.521000	0.050200
C6851	C685	0.242110	0.581100	0.083730
C6861	C686	0.288300	0.569000	0.147500
H2541	H254	0.308000	0.501800	0.158600
C6871	C687	0.189000	0.430400	0.916550
H2551	H255	0.117600	0.485100	0.005400
C6881	C688	0.153300	0.499340	0.949810
C6891	C689	0.136800	0.321450	0.946590
H2561	H256	0.268300	0.267300	0.945300
C6901	C690	0.190640	0.252490	0.946520
C6911	C691	0.263400	0.599310	0.120130
C6921	C692	0.209100	0.609200	0.053600
H2571	H257	0.303700	0.581000	0.172200
C6931	C693	0.179900	0.478000	0.916460
H2581	H258	0.206300	0.416500	0.893500
C6941	C694	0.144900	0.551200	0.951060
C6951	C695	0.141500	0.273010	0.946380
H2591	H259	0.103200	0.335200	0.945500
C6961	C696	0.195600	0.199810	0.948940
O3481	O348	0.178300	0.637000	0.067500
H2601	H260	0.191700	0.496500	0.893700
H2611	H261	0.111100	0.253900	0.946100
Co301	Co30	0.242670	0.879750	0.534500
O3491	O349	0.259200	0.939950	0.558170
O3501	O350	0.167210	0.873270	0.539860
O3511	O351	0.282790	0.885780	0.481880
O3521	O352	0.242190	0.684090	0.446310
C6971	C697	0.272100	0.950990	0.594400
C6981	C698	0.131000	0.895500	0.520710
C6991	C699	0.279970	0.857190	0.450990
O3531	O353	0.285600	0.923740	0.622220
C7001	C700	0.269700	0.002890	0.603770
O3541	O354	0.084910	0.895460	0.532220
C7011	C701	0.147100	0.923070	0.482980
O3551	O355	0.316530	0.849960	0.427450
C7021	C702	0.229900	0.829480	0.447150
O3561	O356	0.156150	0.675730	0.453810
C7031	C703	0.246000	0.033110	0.575530
C7041	C704	0.291000	0.021800	0.639200
C7051	C705	0.173200	0.902320	0.449680
C7061	C706	0.136400	0.971500	0.482860
C7071	C707	0.180600	0.850180	0.448310
C7081	C708	0.234670	0.781070	0.446210
O3571	O357	0.169350	0.076690	0.426370
O3581	O358	0.208900	0.101000	0.517600
O3591	O359	0.111100	0.065370	0.477280
H2621	H262	0.232200	0.021000	0.550200
C7091	C709	0.242110	0.081100	0.583730
C7101	C710	0.288300	0.069000	0.647500
H2631	H263	0.308000	0.001800	0.658600
C7111	C711	0.189000	0.930400	0.416550
H2641	H264	0.117600	0.985100	0.505400
C7121	C712	0.153300	0.999340	0.449810
C7131	C713	0.136800	0.821450	0.446590
H2651	H265	0.268300	0.767300	0.445300
C7141	C714	0.190640	0.752490	0.446520
C7151	C715	0.263400	0.099310	0.620130
C7161	C716	0.209100	0.109200	0.553600
H2661	H266	0.303700	0.081000	0.672200
C7171	C717	0.179900	0.978000	0.416460
H2671	H267	0.206300	0.916500	0.393500
C7181	C718	0.144900	0.051200	0.451060
C7191	C719	0.141500	0.773010	0.446380
H2681	H268	0.103200	0.835200	0.445500
C7201	C720	0.195600	0.699810	0.448940
O3601	O360	0.178300	0.137000	0.567500
H2691	H269	0.191700	0.996500	0.393700
H2701	H270	0.111100	0.753900	0.446100
Co311	Co31	0.742670	0.379750	0.534500
O3611	O361	0.759200	0.439950	0.558170
O3621	O362	0.667210	0.373270	0.539860
O3631	O363	0.782790	0.385780	0.481880
O3641	O364	0.742190	0.184090	0.446310
C7211	C721	0.772100	0.450990	0.594400
C7221	C722	0.631000	0.395500	0.520710
C7231	C723	0.779970	0.357190	0.450990
O3651	O365	0.785600	0.423740	0.622220
C7241	C724	0.769700	0.502890	0.603770
O3661	O366	0.584910	0.395460	0.532220
C7251	C725	0.647100	0.423070	0.482980
O3671	O367	0.816530	0.349960	0.427450
C7261	C726	0.729900	0.329480	0.447150
O3681	O368	0.656150	0.175730	0.453810
C7271	C727	0.746000	0.533110	0.575530
C7281	C728	0.791000	0.521800	0.639200
C7291	C729	0.673200	0.402320	0.449680
C7301	C730	0.636400	0.471500	0.482860
C7311	C731	0.680600	0.350180	0.448310
C7321	C732	0.734670	0.281070	0.446210
O3691	O369	0.669350	0.576690	0.426370
O3701	O370	0.708900	0.601000	0.517600
O3711	O371	0.611100	0.565370	0.477280
H2711	H271	0.732200	0.521000	0.550200
C7331	C733	0.742110	0.581100	0.583730
C7341	C734	0.788300	0.569000	0.647500
H2721	H272	0.808000	0.501800	0.658600
C7351	C735	0.689000	0.430400	0.416550
H2731	H273	0.617600	0.485100	0.505400
C7361	C736	0.653300	0.499340	0.449810
C7371	C737	0.636800	0.321450	0.446590
H2741	H274	0.768300	0.267300	0.445300
C7381	C738	0.690640	0.252490	0.446520
C7391	C739	0.763400	0.599310	0.620130
C7401	C740	0.709100	0.609200	0.553600
H2751	H275	0.803700	0.581000	0.672200
C7411	C741	0.679900	0.478000	0.416460
H2761	H276	0.706300	0.416500	0.393500
C7421	C742	0.644900	0.551200	0.451060
C7431	C743	0.641500	0.273010	0.446380
H2771	H277	0.603200	0.335200	0.445500
C7441	C744	0.695600	0.199810	0.448940
O3721	O372	0.678300	0.637000	0.567500
H2781	H278	0.691700	0.496500	0.393700
H2791	H279	0.611100	0.253900	0.446100
Co321	Co32	0.742670	0.879750	0.034500
O3731	O373	0.759200	0.939950	0.058170
O3741	O374	0.667210	0.873270	0.039860
O3751	O375	0.782790	0.885780	0.981880
O3761	O376	0.742190	0.684090	0.946310
C7451	C745	0.772100	0.950990	0.094400
C7461	C746	0.631000	0.895500	0.020710
C7471	C747	0.779970	0.857190	0.950990
O3771	O377	0.785600	0.923740	0.122220
C7481	C748	0.769700	0.002890	0.103770
O3781	O378	0.584910	0.895460	0.032220
C7491	C749	0.647100	0.923070	0.982980
O3791	O379	0.816530	0.849960	0.927450
C7501	C750	0.729900	0.829480	0.947150
O3801	O380	0.656150	0.675730	0.953810
C7511	C751	0.746000	0.033110	0.075530
C7521	C752	0.791000	0.021800	0.139200
C7531	C753	0.673200	0.902320	0.949680
C7541	C754	0.636400	0.971500	0.982860
C7551	C755	0.680600	0.850180	0.948310
C7561	C756	0.734670	0.781070	0.946210
O3811	O381	0.669350	0.076690	0.926370
O3821	O382	0.708900	0.101000	0.017600
O3831	O383	0.611100	0.065370	0.977280
H2801	H280	0.732200	0.021000	0.050200
C7571	C757	0.742110	0.081100	0.083730
C7581	C758	0.788300	0.069000	0.147500
H2811	H281	0.808000	0.001800	0.158600
C7591	C759	0.689000	0.930400	0.916550
H2821	H282	0.617600	0.985100	0.005400
C7601	C760	0.653300	0.999340	0.949810
C7611	C761	0.636800	0.821450	0.946590
H2831	H283	0.768300	0.767300	0.945300
C7621	C762	0.690640	0.752490	0.946520
C7631	C763	0.763400	0.099310	0.120130
C7641	C764	0.709100	0.109200	0.053600
H2841	H284	0.803700	0.081000	0.172200
C7651	C765	0.679900	0.978000	0.916460
H2851	H285	0.706300	0.916500	0.893500
C7661	C766	0.644900	0.051200	0.951060
C7671	C767	0.641500	0.773010	0.946380
H2861	H286	0.603200	0.835200	0.945500
C7681	C768	0.695600	0.699810	0.948940
O3841	O384	0.678300	0.137000	0.067500
H2871	H287	0.691700	0.996500	0.893700
H2881	H288	0.611100	0.753900	0.946100
Co331	Co33	0.875000	0.375000	0.756910
Co341	Co34	0.875000	0.875000	0.256910
Co351	Co35	0.375000	0.375000	0.256910
Co361	Co36	0.375000	0.875000	0.756910
Co371	Co37	0.875000	0.375000	0.993090
Co381	Co38	0.875000	0.875000	0.493090
Co391	Co39	0.375000	0.375000	0.493090
Co401	Co40	0.375000	0.875000	0.993090
Co411	Co41	0.125000	0.625000	0.243090
Co421	Co42	0.125000	0.125000	0.743090
Co431	Co43	0.625000	0.625000	0.743090
Co441	Co44	0.625000	0.125000	0.243090
Co451	Co45	0.125000	0.625000	0.006910
Co461	Co46	0.125000	0.125000	0.506910
Co471	Co47	0.625000	0.625000	0.506910
Co481	Co48	0.625000	0.125000	0.006910
Na11	Na1	0.625000	0.125000	0.744660
Na21	Na2	0.625000	0.625000	0.244660
Na31	Na3	0.125000	0.625000	0.744660
Na41	Na4	0.125000	0.125000	0.244660
Na51	Na5	0.125000	0.125000	0.005340
Na61	Na6	0.125000	0.625000	0.505340
Na71	Na7	0.625000	0.625000	0.005340
Na81	Na8	0.625000	0.125000	0.505340
Na91	Na9	0.375000	0.875000	0.255340
Na101	Na10	0.375000	0.375000	0.755340
Na111	Na11	0.875000	0.375000	0.255340
Na121	Na12	0.875000	0.875000	0.755340
Na131	Na13	0.875000	0.875000	0.994660
Na141	Na14	0.875000	0.375000	0.494660
Na151	Na15	0.375000	0.375000	0.994660
Na161	Na16	0.375000	0.875000	0.494660
Na171	Na17	0.625000	0.125000	0.625000
Na181	Na18	0.125000	0.625000	0.625000
Na191	Na19	0.125000	0.125000	0.125000
Na201	Na20	0.625000	0.625000	0.125000
Na211	Na21	0.375000	0.875000	0.375000
Na221	Na22	0.875000	0.375000	0.375000
Na231	Na23	0.875000	0.875000	0.875000
Na241	Na24	0.375000	0.375000	0.875000
Na251	Na25	0.875000	0.375000	0.875000
Na261	Na26	0.875000	0.875000	0.375000
Na271	Na27	0.375000	0.375000	0.375000
Na281	Na28	0.375000	0.875000	0.875000
Na291	Na29	0.125000	0.625000	0.125000
Na301	Na30	0.125000	0.125000	0.625000
Na311	Na31	0.625000	0.625000	0.625000
Na321	Na32	0.625000	0.125000	0.125000
