data_DORFOG_clean_PM
_symmetry_space_group_name_H-M	'P1'
_cell_length_a	7.943000
_cell_length_b	7.943000
_cell_length_c	12.812500
_cell_angle_alpha	90.000000
_cell_angle_beta	90.000000
_cell_angle_gamma	90.000000
_symmetry_Int_Tables_number 1

loop_
_symmetry_equiv_pos_as_xyz
'x,y,z'

loop_
_atom_site_label
_atom_site_type_symbol
_atom_site_fract_x
_atom_site_fract_y
_atom_site_fract_z
Mg11	Mg1	0.469530	0.117940	0.787000
Mg21	Mg2	0.530470	0.882060	0.287000
Mg31	Mg3	0.882060	0.469530	0.037000
Mg41	Mg4	0.117940	0.530470	0.537000
H11	H1	0.405500	0.073700	0.979600
H21	H2	0.297900	0.840900	0.995200
H31	H3	0.617600	0.740900	0.914900
H41	H4	0.483300	0.606400	0.947300
H51	H5	0.594500	0.926300	0.479600
H61	H6	0.702100	0.159100	0.495200
H71	H7	0.382400	0.259100	0.414900
H81	H8	0.516700	0.393600	0.447300
H91	H9	0.926300	0.405500	0.229600
H101	H10	0.159100	0.297900	0.245200
H111	H11	0.259100	0.617600	0.164900
H121	H12	0.393600	0.483300	0.197300
H131	H13	0.073700	0.594500	0.729600
H141	H14	0.840900	0.702100	0.745200
H151	H15	0.740900	0.382400	0.664900
H161	H16	0.606400	0.516700	0.697300
C11	C1	0.300000	0.803700	0.835100
C21	C2	0.382400	0.847000	0.939600
C31	C3	0.524700	0.718800	0.962100
C41	C4	0.589500	0.723400	0.072500
C51	C5	0.700000	0.196300	0.335100
C61	C6	0.617600	0.153000	0.439600
C71	C7	0.475300	0.281200	0.462100
C81	C8	0.410500	0.276600	0.572500
C91	C9	0.196300	0.300000	0.085100
C101	C10	0.153000	0.382400	0.189600
C111	C11	0.281200	0.524700	0.212100
C121	C12	0.276600	0.589500	0.322500
C131	C13	0.803700	0.700000	0.585100
C141	C14	0.847000	0.617600	0.689600
C151	C15	0.718800	0.475300	0.712100
C161	C16	0.723400	0.410500	0.822500
O11	O1	0.331500	0.896600	0.757700
O21	O2	0.210600	0.674200	0.833200
O31	O3	0.699900	0.618100	0.099300
O41	O4	0.525200	0.828700	0.134100
O51	O5	0.450400	0.015100	0.934900
O61	O6	0.668500	0.103400	0.257700
O71	O7	0.789400	0.325800	0.333200
O81	O8	0.300100	0.381900	0.599300
O91	O9	0.474800	0.171300	0.634100
O101	O10	0.549600	0.984900	0.434900
O111	O11	0.103400	0.331500	0.007700
O121	O12	0.325800	0.210600	0.083200
O131	O13	0.381900	0.699900	0.349300
O141	O14	0.171300	0.525200	0.384100
O151	O15	0.984900	0.450400	0.184900
O161	O16	0.896600	0.668500	0.507700
O171	O17	0.674200	0.789400	0.583200
O181	O18	0.618100	0.300100	0.849300
O191	O19	0.828700	0.474800	0.884100
O201	O20	0.015100	0.549600	0.684900
