data_DOTFID_clean_PM
_symmetry_space_group_name_H-M	'P1'
_cell_length_a	41.189500
_cell_length_b	20.633400
_cell_length_c	27.097900
_cell_angle_alpha	90.000000
_cell_angle_beta	129.772000
_cell_angle_gamma	90.000000
_symmetry_Int_Tables_number 1

loop_
_symmetry_equiv_pos_as_xyz
'x,y,z'

loop_
_atom_site_label
_atom_site_type_symbol
_atom_site_fract_x
_atom_site_fract_y
_atom_site_fract_z
Cu11	Cu1	0.252880	0.990040	0.113600
O11	O1	0.487600	0.522000	0.929600
O21	O2	0.539500	0.481000	0.932600
O31	O3	0.404400	0.274900	0.017000
O41	O4	0.417000	0.335400	0.962300
O51	O5	0.393000	0.247000	0.672000
O61	O6	0.418200	0.231700	0.773000
O71	O7	0.479600	0.970700	0.535800
O81	O8	0.527400	0.019800	0.630300
O91	O9	0.427200	0.314000	0.615000
O101	O10	0.387000	0.236100	0.548400
O111	O11	0.417000	0.212700	0.302500
O121	O12	0.402500	0.185900	0.365600
N11	N1	0.503900	0.678800	0.805400
N21	N2	0.294300	0.448100	0.914100
N31	N3	0.299800	0.074400	0.646600
N41	N4	0.501000	0.820100	0.698200
N51	N5	0.291700	0.422800	0.446600
N61	N6	0.296900	0.056700	0.174700
C11	C1	0.534400	0.634300	0.831800
H11	H1	0.554600	0.637900	0.825600
C21	C2	0.537500	0.583700	0.867400
H21	H2	0.559600	0.552700	0.885400
C31	C3	0.509000	0.577800	0.877100
C41	C4	0.478200	0.622900	0.850900
H31	H3	0.457800	0.620400	0.856600
C51	C5	0.476900	0.673200	0.815200
H41	H4	0.455200	0.704800	0.797100
C61	C6	0.511500	0.524000	0.915600
C71	C7	0.547200	0.430500	0.977000
H51	H5	0.549300	0.450800	0.012100
H61	H6	0.574500	0.409200	0.996500
C81	C8	0.325000	0.465100	0.913000
H71	H7	0.324200	0.506900	0.897500
C91	C9	0.357900	0.424500	0.933300
H81	H8	0.378400	0.437800	0.929700
C101	C10	0.361400	0.365800	0.958600
C111	C11	0.330600	0.348200	0.961600
H91	H9	0.332400	0.308200	0.980600
C121	C12	0.297200	0.389400	0.937000
H101	H10	0.274900	0.375100	0.936100
C131	C13	0.396400	0.320200	0.982700
C141	C14	0.451400	0.291000	0.981100
H111	H11	0.474600	0.292900	0.028100
H121	H12	0.440800	0.245900	0.969200
C151	C15	0.304600	0.100000	0.606600
H131	H13	0.287500	0.085200	0.563500
C161	C16	0.334800	0.149000	0.627000
H141	H14	0.336600	0.170100	0.597800
C171	C17	0.361000	0.165000	0.690000
C181	C18	0.356300	0.139600	0.730300
H151	H15	0.373500	0.153400	0.773800
C191	C19	0.326500	0.094000	0.707900
H161	H16	0.324200	0.074500	0.737300
C201	C20	0.393000	0.220000	0.712000
C211	C21	0.452000	0.278000	0.796000
H171	H17	0.441500	0.313700	0.764600
H181	H18	0.475900	0.256800	0.802700
C221	C22	0.466100	0.305200	0.857600
C231	C23	0.495900	0.352200	0.885500
H191	H19	0.505800	0.366900	0.864000
C241	C24	0.512700	0.379900	0.944300
C251	C25	0.497500	0.359200	0.973600
H201	H20	0.508400	0.377900	0.013600
C261	C26	0.466600	0.311600	0.947200
C271	C27	0.450500	0.285500	0.888300
H211	H21	0.428700	0.253900	0.868600
C281	C28	0.474900	0.819600	0.634300
H221	H22	0.455700	0.784600	0.612200
C291	C29	0.474600	0.867300	0.599600
H231	H23	0.455800	0.865200	0.554100
C301	C30	0.502600	0.919700	0.632100
C311	C31	0.529600	0.919900	0.697200
H241	H24	0.548800	0.954900	0.720200
C321	C32	0.529200	0.869400	0.729700
H251	H25	0.549000	0.868900	0.775300
C331	C33	0.500500	0.972800	0.593000
C341	C34	0.532900	0.071700	0.598600
H261	H26	0.534800	0.052400	0.567100
H271	H27	0.559500	0.095400	0.631000
C351	C35	0.322900	0.437600	0.506200
H281	H28	0.322300	0.478600	0.521600
C361	C36	0.357200	0.397000	0.549000
H291	H29	0.378900	0.409500	0.592300
C371	C37	0.358500	0.340000	0.527000
C381	C38	0.326800	0.324000	0.466000
H301	H30	0.327200	0.283500	0.449000
C391	C39	0.292000	0.368000	0.426000
H311	H31	0.268800	0.355600	0.383100
C401	C40	0.394000	0.293000	0.569000
C411	C41	0.420000	0.189000	0.588000
H321	H32	0.407800	0.146700	0.586400
H331	H33	0.439700	0.203600	0.633300
C421	C42	0.326700	0.072100	0.172300
H341	H34	0.326200	0.054200	0.139500
C431	C43	0.359400	0.114600	0.217200
H351	H35	0.380900	0.124100	0.214800
C441	C44	0.361000	0.142500	0.264400
C451	C45	0.328800	0.125900	0.265100
H361	H36	0.328700	0.143000	0.297600
C461	C46	0.297000	0.085200	0.219700
H371	H37	0.274400	0.076800	0.219800
C471	C47	0.395600	0.183800	0.311500
C481	C48	0.437700	0.223300	0.418000
H381	H38	0.429000	0.268800	0.414900
H391	H39	0.461000	0.222800	0.416300
C491	C49	0.496400	0.118000	0.564900
C501	C50	0.476100	0.134600	0.589100
H401	H40	0.484000	0.113300	0.626400
C511	C51	0.445200	0.180400	0.560500
C521	C52	0.431400	0.210300	0.502800
H411	H41	0.408700	0.240500	0.481200
C531	C53	0.451800	0.194400	0.478300
C541	C54	0.483500	0.149200	0.509800
H421	H42	0.497200	0.138700	0.493000
Cu21	Cu2	0.752880	0.490040	0.113600
O131	O13	0.987600	0.022000	0.929600
O141	O14	0.039500	0.981000	0.932600
O151	O15	0.904400	0.774900	0.017000
O161	O16	0.917000	0.835400	0.962300
O171	O17	0.893000	0.747000	0.672000
O181	O18	0.918200	0.731700	0.773000
O191	O19	0.979600	0.470700	0.535800
O201	O20	0.027400	0.519800	0.630300
O211	O21	0.927200	0.814000	0.615000
O221	O22	0.887000	0.736100	0.548400
O231	O23	0.917000	0.712700	0.302500
O241	O24	0.902500	0.685900	0.365600
N71	N7	0.003900	0.178800	0.805400
N81	N8	0.794300	0.948100	0.914100
N91	N9	0.799800	0.574400	0.646600
N101	N10	0.001000	0.320100	0.698200
N111	N11	0.791700	0.922800	0.446600
N121	N12	0.796900	0.556700	0.174700
C551	C55	0.034400	0.134300	0.831800
H431	H43	0.054600	0.137900	0.825600
C561	C56	0.037500	0.083700	0.867400
H441	H44	0.059600	0.052700	0.885400
C571	C57	0.009000	0.077800	0.877100
C581	C58	0.978200	0.122900	0.850900
H451	H45	0.957800	0.120400	0.856600
C591	C59	0.976900	0.173200	0.815200
H461	H46	0.955200	0.204800	0.797100
C601	C60	0.011500	0.024000	0.915600
C611	C61	0.047200	0.930500	0.977000
H471	H47	0.049300	0.950800	0.012100
H481	H48	0.074500	0.909200	0.996500
C621	C62	0.825000	0.965100	0.913000
H491	H49	0.824200	0.006900	0.897500
C631	C63	0.857900	0.924500	0.933300
H501	H50	0.878400	0.937800	0.929700
C641	C64	0.861400	0.865800	0.958600
C651	C65	0.830600	0.848200	0.961600
H511	H51	0.832400	0.808200	0.980600
C661	C66	0.797200	0.889400	0.937000
H521	H52	0.774900	0.875100	0.936100
C671	C67	0.896400	0.820200	0.982700
C681	C68	0.951400	0.791000	0.981100
H531	H53	0.974600	0.792900	0.028100
H541	H54	0.940800	0.745900	0.969200
C691	C69	0.804600	0.600000	0.606600
H551	H55	0.787500	0.585200	0.563500
C701	C70	0.834800	0.649000	0.627000
H561	H56	0.836600	0.670100	0.597800
C711	C71	0.861000	0.665000	0.690000
C721	C72	0.856300	0.639600	0.730300
H571	H57	0.873500	0.653400	0.773800
C731	C73	0.826500	0.594000	0.707900
H581	H58	0.824200	0.574500	0.737300
C741	C74	0.893000	0.720000	0.712000
C751	C75	0.952000	0.778000	0.796000
H591	H59	0.941500	0.813700	0.764600
H601	H60	0.975900	0.756800	0.802700
C761	C76	0.966100	0.805200	0.857600
C771	C77	0.995900	0.852200	0.885500
H611	H61	0.005800	0.866900	0.864000
C781	C78	0.012700	0.879900	0.944300
C791	C79	0.997500	0.859200	0.973600
H621	H62	0.008400	0.877900	0.013600
C801	C80	0.966600	0.811600	0.947200
C811	C81	0.950500	0.785500	0.888300
H631	H63	0.928700	0.753900	0.868600
C821	C82	0.974900	0.319600	0.634300
H641	H64	0.955700	0.284600	0.612200
C831	C83	0.974600	0.367300	0.599600
H651	H65	0.955800	0.365200	0.554100
C841	C84	0.002600	0.419700	0.632100
C851	C85	0.029600	0.419900	0.697200
H661	H66	0.048800	0.454900	0.720200
C861	C86	0.029200	0.369400	0.729700
H671	H67	0.049000	0.368900	0.775300
C871	C87	0.000500	0.472800	0.593000
C881	C88	0.032900	0.571700	0.598600
H681	H68	0.034800	0.552400	0.567100
H691	H69	0.059500	0.595400	0.631000
C891	C89	0.822900	0.937600	0.506200
H701	H70	0.822300	0.978600	0.521600
C901	C90	0.857200	0.897000	0.549000
H711	H71	0.878900	0.909500	0.592300
C911	C91	0.858500	0.840000	0.527000
C921	C92	0.826800	0.824000	0.466000
H721	H72	0.827200	0.783500	0.449000
C931	C93	0.792000	0.868000	0.426000
H731	H73	0.768800	0.855600	0.383100
C941	C94	0.894000	0.793000	0.569000
C951	C95	0.920000	0.689000	0.588000
H741	H74	0.907800	0.646700	0.586400
H751	H75	0.939700	0.703600	0.633300
C961	C96	0.826700	0.572100	0.172300
H761	H76	0.826200	0.554200	0.139500
C971	C97	0.859400	0.614600	0.217200
H771	H77	0.880900	0.624100	0.214800
C981	C98	0.861000	0.642500	0.264400
C991	C99	0.828800	0.625900	0.265100
H781	H78	0.828700	0.643000	0.297600
C1001	C100	0.797000	0.585200	0.219700
H791	H79	0.774400	0.576800	0.219800
C1011	C101	0.895600	0.683800	0.311500
C1021	C102	0.937700	0.723300	0.418000
H801	H80	0.929000	0.768800	0.414900
H811	H81	0.961000	0.722800	0.416300
C1031	C103	0.996400	0.618000	0.564900
C1041	C104	0.976100	0.634600	0.589100
H821	H82	0.984000	0.613300	0.626400
C1051	C105	0.945200	0.680400	0.560500
C1061	C106	0.931400	0.710300	0.502800
H831	H83	0.908700	0.740500	0.481200
C1071	C107	0.951800	0.694400	0.478300
C1081	C108	0.983500	0.649200	0.509800
H841	H84	0.997200	0.638700	0.493000
Cu31	Cu3	0.747120	0.990040	0.386400
O251	O25	0.512400	0.522000	0.570400
O261	O26	0.460500	0.481000	0.567400
O271	O27	0.595600	0.274900	0.483000
O281	O28	0.583000	0.335400	0.537700
O291	O29	0.607000	0.247000	0.828000
O301	O30	0.581800	0.231700	0.727000
O311	O31	0.520400	0.970700	0.964200
O321	O32	0.472600	0.019800	0.869700
O331	O33	0.572800	0.314000	0.885000
O341	O34	0.613000	0.236100	0.951600
O351	O35	0.583000	0.212700	0.197500
O361	O36	0.597500	0.185900	0.134400
N131	N13	0.496100	0.678800	0.694600
N141	N14	0.705700	0.448100	0.585900
N151	N15	0.700200	0.074400	0.853400
N161	N16	0.499000	0.820100	0.801800
N171	N17	0.708300	0.422800	0.053400
N181	N18	0.703100	0.056700	0.325300
C1091	C109	0.465600	0.634300	0.668200
H851	H85	0.445400	0.637900	0.674400
C1101	C110	0.462500	0.583700	0.632600
H861	H86	0.440400	0.552700	0.614600
C1111	C111	0.491000	0.577800	0.622900
C1121	C112	0.521800	0.622900	0.649100
H871	H87	0.542200	0.620400	0.643400
C1131	C113	0.523100	0.673200	0.684800
H881	H88	0.544800	0.704800	0.702900
C1141	C114	0.488500	0.524000	0.584400
C1151	C115	0.452800	0.430500	0.523000
H891	H89	0.450700	0.450800	0.487900
H901	H90	0.425500	0.409200	0.503500
C1161	C116	0.675000	0.465100	0.587000
H911	H91	0.675800	0.506900	0.602500
C1171	C117	0.642100	0.424500	0.566700
H921	H92	0.621600	0.437800	0.570300
C1181	C118	0.638600	0.365800	0.541400
C1191	C119	0.669400	0.348200	0.538400
H931	H93	0.667600	0.308200	0.519400
C1201	C120	0.702800	0.389400	0.563000
H941	H94	0.725100	0.375100	0.563900
C1211	C121	0.603600	0.320200	0.517300
C1221	C122	0.548600	0.291000	0.518900
H951	H95	0.525400	0.292900	0.471900
H961	H96	0.559200	0.245900	0.530800
C1231	C123	0.695400	0.100000	0.893400
H971	H97	0.712500	0.085200	0.936500
C1241	C124	0.665200	0.149000	0.873000
H981	H98	0.663400	0.170100	0.902200
C1251	C125	0.639000	0.165000	0.810000
C1261	C126	0.643700	0.139600	0.769700
H991	H99	0.626500	0.153400	0.726200
C1271	C127	0.673500	0.094000	0.792100
H1001	H100	0.675800	0.074500	0.762700
C1281	C128	0.607000	0.220000	0.788000
C1291	C129	0.548000	0.278000	0.704000
H1011	H101	0.558500	0.313700	0.735400
H1021	H102	0.524100	0.256800	0.697300
C1301	C130	0.533900	0.305200	0.642400
C1311	C131	0.504100	0.352200	0.614500
H1031	H103	0.494200	0.366900	0.636000
C1321	C132	0.487300	0.379900	0.555700
C1331	C133	0.502500	0.359200	0.526400
H1041	H104	0.491600	0.377900	0.486400
C1341	C134	0.533400	0.311600	0.552800
C1351	C135	0.549500	0.285500	0.611700
H1051	H105	0.571300	0.253900	0.631400
C1361	C136	0.525100	0.819600	0.865700
H1061	H106	0.544300	0.784600	0.887800
C1371	C137	0.525400	0.867300	0.900400
H1071	H107	0.544200	0.865200	0.945900
C1381	C138	0.497400	0.919700	0.867900
C1391	C139	0.470400	0.919900	0.802800
H1081	H108	0.451200	0.954900	0.779800
C1401	C140	0.470800	0.869400	0.770300
H1091	H109	0.451000	0.868900	0.724700
C1411	C141	0.499500	0.972800	0.907000
C1421	C142	0.467100	0.071700	0.901400
H1101	H110	0.465200	0.052400	0.932900
H1111	H111	0.440500	0.095400	0.869000
C1431	C143	0.677100	0.437600	0.993800
H1121	H112	0.677700	0.478600	0.978400
C1441	C144	0.642800	0.397000	0.951000
H1131	H113	0.621100	0.409500	0.907700
C1451	C145	0.641500	0.340000	0.973000
C1461	C146	0.673200	0.324000	0.034000
H1141	H114	0.672800	0.283500	0.051000
C1471	C147	0.708000	0.368000	0.074000
H1151	H115	0.731200	0.355600	0.116900
C1481	C148	0.606000	0.293000	0.931000
C1491	C149	0.580000	0.189000	0.912000
H1161	H116	0.592200	0.146700	0.913600
H1171	H117	0.560300	0.203600	0.866700
C1501	C150	0.673300	0.072100	0.327700
H1181	H118	0.673800	0.054200	0.360500
C1511	C151	0.640600	0.114600	0.282800
H1191	H119	0.619100	0.124100	0.285200
C1521	C152	0.639000	0.142500	0.235600
C1531	C153	0.671200	0.125900	0.234900
H1201	H120	0.671300	0.143000	0.202400
C1541	C154	0.703000	0.085200	0.280300
H1211	H121	0.725600	0.076800	0.280200
C1551	C155	0.604400	0.183800	0.188500
C1561	C156	0.562300	0.223300	0.082000
H1221	H122	0.571000	0.268800	0.085100
H1231	H123	0.539000	0.222800	0.083700
C1571	C157	0.503600	0.118000	0.935100
C1581	C158	0.523900	0.134600	0.910900
H1241	H124	0.516000	0.113300	0.873600
C1591	C159	0.554800	0.180400	0.939500
C1601	C160	0.568600	0.210300	0.997200
H1251	H125	0.591300	0.240500	0.018800
C1611	C161	0.548200	0.194400	0.021700
C1621	C162	0.516500	0.149200	0.990200
H1261	H126	0.502800	0.138700	0.007000
Cu41	Cu4	0.247120	0.490040	0.386400
O371	O37	0.012400	0.022000	0.570400
O381	O38	0.960500	0.981000	0.567400
O391	O39	0.095600	0.774900	0.483000
O401	O40	0.083000	0.835400	0.537700
O411	O41	0.107000	0.747000	0.828000
O421	O42	0.081800	0.731700	0.727000
O431	O43	0.020400	0.470700	0.964200
O441	O44	0.972600	0.519800	0.869700
O451	O45	0.072800	0.814000	0.885000
O461	O46	0.113000	0.736100	0.951600
O471	O47	0.083000	0.712700	0.197500
O481	O48	0.097500	0.685900	0.134400
N191	N19	0.996100	0.178800	0.694600
N201	N20	0.205700	0.948100	0.585900
N211	N21	0.200200	0.574400	0.853400
N221	N22	0.999000	0.320100	0.801800
N231	N23	0.208300	0.922800	0.053400
N241	N24	0.203100	0.556700	0.325300
C1631	C163	0.965600	0.134300	0.668200
H1271	H127	0.945400	0.137900	0.674400
C1641	C164	0.962500	0.083700	0.632600
H1281	H128	0.940400	0.052700	0.614600
C1651	C165	0.991000	0.077800	0.622900
C1661	C166	0.021800	0.122900	0.649100
H1291	H129	0.042200	0.120400	0.643400
C1671	C167	0.023100	0.173200	0.684800
H1301	H130	0.044800	0.204800	0.702900
C1681	C168	0.988500	0.024000	0.584400
C1691	C169	0.952800	0.930500	0.523000
H1311	H131	0.950700	0.950800	0.487900
H1321	H132	0.925500	0.909200	0.503500
C1701	C170	0.175000	0.965100	0.587000
H1331	H133	0.175800	0.006900	0.602500
C1711	C171	0.142100	0.924500	0.566700
H1341	H134	0.121600	0.937800	0.570300
C1721	C172	0.138600	0.865800	0.541400
C1731	C173	0.169400	0.848200	0.538400
H1351	H135	0.167600	0.808200	0.519400
C1741	C174	0.202800	0.889400	0.563000
H1361	H136	0.225100	0.875100	0.563900
C1751	C175	0.103600	0.820200	0.517300
C1761	C176	0.048600	0.791000	0.518900
H1371	H137	0.025400	0.792900	0.471900
H1381	H138	0.059200	0.745900	0.530800
C1771	C177	0.195400	0.600000	0.893400
H1391	H139	0.212500	0.585200	0.936500
C1781	C178	0.165200	0.649000	0.873000
H1401	H140	0.163400	0.670100	0.902200
C1791	C179	0.139000	0.665000	0.810000
C1801	C180	0.143700	0.639600	0.769700
H1411	H141	0.126500	0.653400	0.726200
C1811	C181	0.173500	0.594000	0.792100
H1421	H142	0.175800	0.574500	0.762700
C1821	C182	0.107000	0.720000	0.788000
C1831	C183	0.048000	0.778000	0.704000
H1431	H143	0.058500	0.813700	0.735400
H1441	H144	0.024100	0.756800	0.697300
C1841	C184	0.033900	0.805200	0.642400
C1851	C185	0.004100	0.852200	0.614500
H1451	H145	0.994200	0.866900	0.636000
C1861	C186	0.987300	0.879900	0.555700
C1871	C187	0.002500	0.859200	0.526400
H1461	H146	0.991600	0.877900	0.486400
C1881	C188	0.033400	0.811600	0.552800
C1891	C189	0.049500	0.785500	0.611700
H1471	H147	0.071300	0.753900	0.631400
C1901	C190	0.025100	0.319600	0.865700
H1481	H148	0.044300	0.284600	0.887800
C1911	C191	0.025400	0.367300	0.900400
H1491	H149	0.044200	0.365200	0.945900
C1921	C192	0.997400	0.419700	0.867900
C1931	C193	0.970400	0.419900	0.802800
H1501	H150	0.951200	0.454900	0.779800
C1941	C194	0.970800	0.369400	0.770300
H1511	H151	0.951000	0.368900	0.724700
C1951	C195	0.999500	0.472800	0.907000
C1961	C196	0.967100	0.571700	0.901400
H1521	H152	0.965200	0.552400	0.932900
H1531	H153	0.940500	0.595400	0.869000
C1971	C197	0.177100	0.937600	0.993800
H1541	H154	0.177700	0.978600	0.978400
C1981	C198	0.142800	0.897000	0.951000
H1551	H155	0.121100	0.909500	0.907700
C1991	C199	0.141500	0.840000	0.973000
C2001	C200	0.173200	0.824000	0.034000
H1561	H156	0.172800	0.783500	0.051000
C2011	C201	0.208000	0.868000	0.074000
H1571	H157	0.231200	0.855600	0.116900
C2021	C202	0.106000	0.793000	0.931000
C2031	C203	0.080000	0.689000	0.912000
H1581	H158	0.092200	0.646700	0.913600
H1591	H159	0.060300	0.703600	0.866700
C2041	C204	0.173300	0.572100	0.327700
H1601	H160	0.173800	0.554200	0.360500
C2051	C205	0.140600	0.614600	0.282800
H1611	H161	0.119100	0.624100	0.285200
C2061	C206	0.139000	0.642500	0.235600
C2071	C207	0.171200	0.625900	0.234900
H1621	H162	0.171300	0.643000	0.202400
C2081	C208	0.203000	0.585200	0.280300
H1631	H163	0.225600	0.576800	0.280200
C2091	C209	0.104400	0.683800	0.188500
C2101	C210	0.062300	0.723300	0.082000
H1641	H164	0.071000	0.768800	0.085100
H1651	H165	0.039000	0.722800	0.083700
C2111	C211	0.003600	0.618000	0.935100
C2121	C212	0.023900	0.634600	0.910900
H1661	H166	0.016000	0.613300	0.873600
C2131	C213	0.054800	0.680400	0.939500
C2141	C214	0.068600	0.710300	0.997200
H1671	H167	0.091300	0.740500	0.018800
C2151	C215	0.048200	0.694400	0.021700
C2161	C216	0.016500	0.649200	0.990200
H1681	H168	0.002800	0.638700	0.007000
Cu51	Cu5	0.747120	0.009960	0.886400
O491	O49	0.512400	0.478000	0.070400
O501	O50	0.460500	0.519000	0.067400
O511	O51	0.595600	0.725100	0.983000
O521	O52	0.583000	0.664600	0.037700
O531	O53	0.607000	0.753000	0.328000
O541	O54	0.581800	0.768300	0.227000
O551	O55	0.520400	0.029300	0.464200
O561	O56	0.472600	0.980200	0.369700
O571	O57	0.572800	0.686000	0.385000
O581	O58	0.613000	0.763900	0.451600
O591	O59	0.583000	0.787300	0.697500
O601	O60	0.597500	0.814100	0.634400
N251	N25	0.496100	0.321200	0.194600
N261	N26	0.705700	0.551900	0.085900
N271	N27	0.700200	0.925600	0.353400
N281	N28	0.499000	0.179900	0.301800
N291	N29	0.708300	0.577200	0.553400
N301	N30	0.703100	0.943300	0.825300
C2171	C217	0.465600	0.365700	0.168200
H1691	H169	0.445400	0.362100	0.174400
C2181	C218	0.462500	0.416300	0.132600
H1701	H170	0.440400	0.447300	0.114600
C2191	C219	0.491000	0.422200	0.122900
C2201	C220	0.521800	0.377100	0.149100
H1711	H171	0.542200	0.379600	0.143400
C2211	C221	0.523100	0.326800	0.184800
H1721	H172	0.544800	0.295200	0.202900
C2221	C222	0.488500	0.476000	0.084400
C2231	C223	0.452800	0.569500	0.023000
H1731	H173	0.450700	0.549200	0.987900
H1741	H174	0.425500	0.590800	0.003500
C2241	C224	0.675000	0.534900	0.087000
H1751	H175	0.675800	0.493100	0.102500
C2251	C225	0.642100	0.575500	0.066700
H1761	H176	0.621600	0.562200	0.070300
C2261	C226	0.638600	0.634200	0.041400
C2271	C227	0.669400	0.651800	0.038400
H1771	H177	0.667600	0.691800	0.019400
C2281	C228	0.702800	0.610600	0.063000
H1781	H178	0.725100	0.624900	0.063900
C2291	C229	0.603600	0.679800	0.017300
C2301	C230	0.548600	0.709000	0.018900
H1791	H179	0.525400	0.707100	0.971900
H1801	H180	0.559200	0.754100	0.030800
C2311	C231	0.695400	0.900000	0.393400
H1811	H181	0.712500	0.914800	0.436500
C2321	C232	0.665200	0.851000	0.373000
H1821	H182	0.663400	0.829900	0.402200
C2331	C233	0.639000	0.835000	0.310000
C2341	C234	0.643700	0.860400	0.269700
H1831	H183	0.626500	0.846600	0.226200
C2351	C235	0.673500	0.906000	0.292100
H1841	H184	0.675800	0.925500	0.262700
C2361	C236	0.607000	0.780000	0.288000
C2371	C237	0.548000	0.722000	0.204000
H1851	H185	0.558500	0.686300	0.235400
H1861	H186	0.524100	0.743200	0.197300
C2381	C238	0.533900	0.694800	0.142400
C2391	C239	0.504100	0.647800	0.114500
H1871	H187	0.494200	0.633100	0.136000
C2401	C240	0.487300	0.620100	0.055700
C2411	C241	0.502500	0.640800	0.026400
H1881	H188	0.491600	0.622100	0.986400
C2421	C242	0.533400	0.688400	0.052800
C2431	C243	0.549500	0.714500	0.111700
H1891	H189	0.571300	0.746100	0.131400
C2441	C244	0.525100	0.180400	0.365700
H1901	H190	0.544300	0.215400	0.387800
C2451	C245	0.525400	0.132700	0.400400
H1911	H191	0.544200	0.134800	0.445900
C2461	C246	0.497400	0.080300	0.367900
C2471	C247	0.470400	0.080100	0.302800
H1921	H192	0.451200	0.045100	0.279800
C2481	C248	0.470800	0.130600	0.270300
H1931	H193	0.451000	0.131100	0.224700
C2491	C249	0.499500	0.027200	0.407000
C2501	C250	0.467100	0.928300	0.401400
H1941	H194	0.465200	0.947600	0.432900
H1951	H195	0.440500	0.904600	0.369000
C2511	C251	0.677100	0.562400	0.493800
H1961	H196	0.677700	0.521400	0.478400
C2521	C252	0.642800	0.603000	0.451000
H1971	H197	0.621100	0.590500	0.407700
C2531	C253	0.641500	0.660000	0.473000
C2541	C254	0.673200	0.676000	0.534000
H1981	H198	0.672800	0.716500	0.551000
C2551	C255	0.708000	0.632000	0.574000
H1991	H199	0.731200	0.644400	0.616900
C2561	C256	0.606000	0.707000	0.431000
C2571	C257	0.580000	0.811000	0.412000
H2001	H200	0.592200	0.853300	0.413600
H2011	H201	0.560300	0.796400	0.366700
C2581	C258	0.673300	0.927900	0.827700
H2021	H202	0.673800	0.945800	0.860500
C2591	C259	0.640600	0.885400	0.782800
H2031	H203	0.619100	0.875900	0.785200
C2601	C260	0.639000	0.857500	0.735600
C2611	C261	0.671200	0.874100	0.734900
H2041	H204	0.671300	0.857000	0.702400
C2621	C262	0.703000	0.914800	0.780300
H2051	H205	0.725600	0.923200	0.780200
C2631	C263	0.604400	0.816200	0.688500
C2641	C264	0.562300	0.776700	0.582000
H2061	H206	0.571000	0.731200	0.585100
H2071	H207	0.539000	0.777200	0.583700
C2651	C265	0.503600	0.882000	0.435100
C2661	C266	0.523900	0.865400	0.410900
H2081	H208	0.516000	0.886700	0.373600
C2671	C267	0.554800	0.819600	0.439500
C2681	C268	0.568600	0.789700	0.497200
H2091	H209	0.591300	0.759500	0.518800
C2691	C269	0.548200	0.805600	0.521700
C2701	C270	0.516500	0.850800	0.490200
H2101	H210	0.502800	0.861300	0.507000
Cu61	Cu6	0.247120	0.509960	0.886400
O611	O61	0.012400	0.978000	0.070400
O621	O62	0.960500	0.019000	0.067400
O631	O63	0.095600	0.225100	0.983000
O641	O64	0.083000	0.164600	0.037700
O651	O65	0.107000	0.253000	0.328000
O661	O66	0.081800	0.268300	0.227000
O671	O67	0.020400	0.529300	0.464200
O681	O68	0.972600	0.480200	0.369700
O691	O69	0.072800	0.186000	0.385000
O701	O70	0.113000	0.263900	0.451600
O711	O71	0.083000	0.287300	0.697500
O721	O72	0.097500	0.314100	0.634400
N311	N31	0.996100	0.821200	0.194600
N321	N32	0.205700	0.051900	0.085900
N331	N33	0.200200	0.425600	0.353400
N341	N34	0.999000	0.679900	0.301800
N351	N35	0.208300	0.077200	0.553400
N361	N36	0.203100	0.443300	0.825300
C2711	C271	0.965600	0.865700	0.168200
H2111	H211	0.945400	0.862100	0.174400
C2721	C272	0.962500	0.916300	0.132600
H2121	H212	0.940400	0.947300	0.114600
C2731	C273	0.991000	0.922200	0.122900
C2741	C274	0.021800	0.877100	0.149100
H2131	H213	0.042200	0.879600	0.143400
C2751	C275	0.023100	0.826800	0.184800
H2141	H214	0.044800	0.795200	0.202900
C2761	C276	0.988500	0.976000	0.084400
C2771	C277	0.952800	0.069500	0.023000
H2151	H215	0.950700	0.049200	0.987900
H2161	H216	0.925500	0.090800	0.003500
C2781	C278	0.175000	0.034900	0.087000
H2171	H217	0.175800	0.993100	0.102500
C2791	C279	0.142100	0.075500	0.066700
H2181	H218	0.121600	0.062200	0.070300
C2801	C280	0.138600	0.134200	0.041400
C2811	C281	0.169400	0.151800	0.038400
H2191	H219	0.167600	0.191800	0.019400
C2821	C282	0.202800	0.110600	0.063000
H2201	H220	0.225100	0.124900	0.063900
C2831	C283	0.103600	0.179800	0.017300
C2841	C284	0.048600	0.209000	0.018900
H2211	H221	0.025400	0.207100	0.971900
H2221	H222	0.059200	0.254100	0.030800
C2851	C285	0.195400	0.400000	0.393400
H2231	H223	0.212500	0.414800	0.436500
C2861	C286	0.165200	0.351000	0.373000
H2241	H224	0.163400	0.329900	0.402200
C2871	C287	0.139000	0.335000	0.310000
C2881	C288	0.143700	0.360400	0.269700
H2251	H225	0.126500	0.346600	0.226200
C2891	C289	0.173500	0.406000	0.292100
H2261	H226	0.175800	0.425500	0.262700
C2901	C290	0.107000	0.280000	0.288000
C2911	C291	0.048000	0.222000	0.204000
H2271	H227	0.058500	0.186300	0.235400
H2281	H228	0.024100	0.243200	0.197300
C2921	C292	0.033900	0.194800	0.142400
C2931	C293	0.004100	0.147800	0.114500
H2291	H229	0.994200	0.133100	0.136000
C2941	C294	0.987300	0.120100	0.055700
C2951	C295	0.002500	0.140800	0.026400
H2301	H230	0.991600	0.122100	0.986400
C2961	C296	0.033400	0.188400	0.052800
C2971	C297	0.049500	0.214500	0.111700
H2311	H231	0.071300	0.246100	0.131400
C2981	C298	0.025100	0.680400	0.365700
H2321	H232	0.044300	0.715400	0.387800
C2991	C299	0.025400	0.632700	0.400400
H2331	H233	0.044200	0.634800	0.445900
C3001	C300	0.997400	0.580300	0.367900
C3011	C301	0.970400	0.580100	0.302800
H2341	H234	0.951200	0.545100	0.279800
C3021	C302	0.970800	0.630600	0.270300
H2351	H235	0.951000	0.631100	0.224700
C3031	C303	0.999500	0.527200	0.407000
C3041	C304	0.967100	0.428300	0.401400
H2361	H236	0.965200	0.447600	0.432900
H2371	H237	0.940500	0.404600	0.369000
C3051	C305	0.177100	0.062400	0.493800
H2381	H238	0.177700	0.021400	0.478400
C3061	C306	0.142800	0.103000	0.451000
H2391	H239	0.121100	0.090500	0.407700
C3071	C307	0.141500	0.160000	0.473000
C3081	C308	0.173200	0.176000	0.534000
H2401	H240	0.172800	0.216500	0.551000
C3091	C309	0.208000	0.132000	0.574000
H2411	H241	0.231200	0.144400	0.616900
C3101	C310	0.106000	0.207000	0.431000
C3111	C311	0.080000	0.311000	0.412000
H2421	H242	0.092200	0.353300	0.413600
H2431	H243	0.060300	0.296400	0.366700
C3121	C312	0.173300	0.427900	0.827700
H2441	H244	0.173800	0.445800	0.860500
C3131	C313	0.140600	0.385400	0.782800
H2451	H245	0.119100	0.375900	0.785200
C3141	C314	0.139000	0.357500	0.735600
C3151	C315	0.171200	0.374100	0.734900
H2461	H246	0.171300	0.357000	0.702400
C3161	C316	0.203000	0.414800	0.780300
H2471	H247	0.225600	0.423200	0.780200
C3171	C317	0.104400	0.316200	0.688500
C3181	C318	0.062300	0.276700	0.582000
H2481	H248	0.071000	0.231200	0.585100
H2491	H249	0.039000	0.277200	0.583700
C3191	C319	0.003600	0.382000	0.435100
C3201	C320	0.023900	0.365400	0.410900
H2501	H250	0.016000	0.386700	0.373600
C3211	C321	0.054800	0.319600	0.439500
C3221	C322	0.068600	0.289700	0.497200
H2511	H251	0.091300	0.259500	0.518800
C3231	C323	0.048200	0.305600	0.521700
C3241	C324	0.016500	0.350800	0.490200
H2521	H252	0.002800	0.361300	0.507000
Cu71	Cu7	0.252880	0.009960	0.613600
O731	O73	0.487600	0.478000	0.429600
O741	O74	0.539500	0.519000	0.432600
O751	O75	0.404400	0.725100	0.517000
O761	O76	0.417000	0.664600	0.462300
O771	O77	0.393000	0.753000	0.172000
O781	O78	0.418200	0.768300	0.273000
O791	O79	0.479600	0.029300	0.035800
O801	O80	0.527400	0.980200	0.130300
O811	O81	0.427200	0.686000	0.115000
O821	O82	0.387000	0.763900	0.048400
O831	O83	0.417000	0.787300	0.802500
O841	O84	0.402500	0.814100	0.865600
N371	N37	0.503900	0.321200	0.305400
N381	N38	0.294300	0.551900	0.414100
N391	N39	0.299800	0.925600	0.146600
N401	N40	0.501000	0.179900	0.198200
N411	N41	0.291700	0.577200	0.946600
N421	N42	0.296900	0.943300	0.674700
C3251	C325	0.534400	0.365700	0.331800
H2531	H253	0.554600	0.362100	0.325600
C3261	C326	0.537500	0.416300	0.367400
H2541	H254	0.559600	0.447300	0.385400
C3271	C327	0.509000	0.422200	0.377100
C3281	C328	0.478200	0.377100	0.350900
H2551	H255	0.457800	0.379600	0.356600
C3291	C329	0.476900	0.326800	0.315200
H2561	H256	0.455200	0.295200	0.297100
C3301	C330	0.511500	0.476000	0.415600
C3311	C331	0.547200	0.569500	0.477000
H2571	H257	0.549300	0.549200	0.512100
H2581	H258	0.574500	0.590800	0.496500
C3321	C332	0.325000	0.534900	0.413000
H2591	H259	0.324200	0.493100	0.397500
C3331	C333	0.357900	0.575500	0.433300
H2601	H260	0.378400	0.562200	0.429700
C3341	C334	0.361400	0.634200	0.458600
C3351	C335	0.330600	0.651800	0.461600
H2611	H261	0.332400	0.691800	0.480600
C3361	C336	0.297200	0.610600	0.437000
H2621	H262	0.274900	0.624900	0.436100
C3371	C337	0.396400	0.679800	0.482700
C3381	C338	0.451400	0.709000	0.481100
H2631	H263	0.474600	0.707100	0.528100
H2641	H264	0.440800	0.754100	0.469200
C3391	C339	0.304600	0.900000	0.106600
H2651	H265	0.287500	0.914800	0.063500
C3401	C340	0.334800	0.851000	0.127000
H2661	H266	0.336600	0.829900	0.097800
C3411	C341	0.361000	0.835000	0.190000
C3421	C342	0.356300	0.860400	0.230300
H2671	H267	0.373500	0.846600	0.273800
C3431	C343	0.326500	0.906000	0.207900
H2681	H268	0.324200	0.925500	0.237300
C3441	C344	0.393000	0.780000	0.212000
C3451	C345	0.452000	0.722000	0.296000
H2691	H269	0.441500	0.686300	0.264600
H2701	H270	0.475900	0.743200	0.302700
C3461	C346	0.466100	0.694800	0.357600
C3471	C347	0.495900	0.647800	0.385500
H2711	H271	0.505800	0.633100	0.364000
C3481	C348	0.512700	0.620100	0.444300
C3491	C349	0.497500	0.640800	0.473600
H2721	H272	0.508400	0.622100	0.513600
C3501	C350	0.466600	0.688400	0.447200
C3511	C351	0.450500	0.714500	0.388300
H2731	H273	0.428700	0.746100	0.368600
C3521	C352	0.474900	0.180400	0.134300
H2741	H274	0.455700	0.215400	0.112200
C3531	C353	0.474600	0.132700	0.099600
H2751	H275	0.455800	0.134800	0.054100
C3541	C354	0.502600	0.080300	0.132100
C3551	C355	0.529600	0.080100	0.197200
H2761	H276	0.548800	0.045100	0.220200
C3561	C356	0.529200	0.130600	0.229700
H2771	H277	0.549000	0.131100	0.275300
C3571	C357	0.500500	0.027200	0.093000
C3581	C358	0.532900	0.928300	0.098600
H2781	H278	0.534800	0.947600	0.067100
H2791	H279	0.559500	0.904600	0.131000
C3591	C359	0.322900	0.562400	0.006200
H2801	H280	0.322300	0.521400	0.021600
C3601	C360	0.357200	0.603000	0.049000
H2811	H281	0.378900	0.590500	0.092300
C3611	C361	0.358500	0.660000	0.027000
C3621	C362	0.326800	0.676000	0.966000
H2821	H282	0.327200	0.716500	0.949000
C3631	C363	0.292000	0.632000	0.926000
H2831	H283	0.268800	0.644400	0.883100
C3641	C364	0.394000	0.707000	0.069000
C3651	C365	0.420000	0.811000	0.088000
H2841	H284	0.407800	0.853300	0.086400
H2851	H285	0.439700	0.796400	0.133300
C3661	C366	0.326700	0.927900	0.672300
H2861	H286	0.326200	0.945800	0.639500
C3671	C367	0.359400	0.885400	0.717200
H2871	H287	0.380900	0.875900	0.714800
C3681	C368	0.361000	0.857500	0.764400
C3691	C369	0.328800	0.874100	0.765100
H2881	H288	0.328700	0.857000	0.797600
C3701	C370	0.297000	0.914800	0.719700
H2891	H289	0.274400	0.923200	0.719800
C3711	C371	0.395600	0.816200	0.811500
C3721	C372	0.437700	0.776700	0.918000
H2901	H290	0.429000	0.731200	0.914900
H2911	H291	0.461000	0.777200	0.916300
C3731	C373	0.496400	0.882000	0.064900
C3741	C374	0.476100	0.865400	0.089100
H2921	H292	0.484000	0.886700	0.126400
C3751	C375	0.445200	0.819600	0.060500
C3761	C376	0.431400	0.789700	0.002800
H2931	H293	0.408700	0.759500	0.981200
C3771	C377	0.451800	0.805600	0.978300
C3781	C378	0.483500	0.850800	0.009800
H2941	H294	0.497200	0.861300	0.993000
Cu81	Cu8	0.752880	0.509960	0.613600
O851	O85	0.987600	0.978000	0.429600
O861	O86	0.039500	0.019000	0.432600
O871	O87	0.904400	0.225100	0.517000
O881	O88	0.917000	0.164600	0.462300
O891	O89	0.893000	0.253000	0.172000
O901	O90	0.918200	0.268300	0.273000
O911	O91	0.979600	0.529300	0.035800
O921	O92	0.027400	0.480200	0.130300
O931	O93	0.927200	0.186000	0.115000
O941	O94	0.887000	0.263900	0.048400
O951	O95	0.917000	0.287300	0.802500
O961	O96	0.902500	0.314100	0.865600
N431	N43	0.003900	0.821200	0.305400
N441	N44	0.794300	0.051900	0.414100
N451	N45	0.799800	0.425600	0.146600
N461	N46	0.001000	0.679900	0.198200
N471	N47	0.791700	0.077200	0.946600
N481	N48	0.796900	0.443300	0.674700
C3791	C379	0.034400	0.865700	0.331800
H2951	H295	0.054600	0.862100	0.325600
C3801	C380	0.037500	0.916300	0.367400
H2961	H296	0.059600	0.947300	0.385400
C3811	C381	0.009000	0.922200	0.377100
C3821	C382	0.978200	0.877100	0.350900
H2971	H297	0.957800	0.879600	0.356600
C3831	C383	0.976900	0.826800	0.315200
H2981	H298	0.955200	0.795200	0.297100
C3841	C384	0.011500	0.976000	0.415600
C3851	C385	0.047200	0.069500	0.477000
H2991	H299	0.049300	0.049200	0.512100
H3001	H300	0.074500	0.090800	0.496500
C3861	C386	0.825000	0.034900	0.413000
H3011	H301	0.824200	0.993100	0.397500
C3871	C387	0.857900	0.075500	0.433300
H3021	H302	0.878400	0.062200	0.429700
C3881	C388	0.861400	0.134200	0.458600
C3891	C389	0.830600	0.151800	0.461600
H3031	H303	0.832400	0.191800	0.480600
C3901	C390	0.797200	0.110600	0.437000
H3041	H304	0.774900	0.124900	0.436100
C3911	C391	0.896400	0.179800	0.482700
C3921	C392	0.951400	0.209000	0.481100
H3051	H305	0.974600	0.207100	0.528100
H3061	H306	0.940800	0.254100	0.469200
C3931	C393	0.804600	0.400000	0.106600
H3071	H307	0.787500	0.414800	0.063500
C3941	C394	0.834800	0.351000	0.127000
H3081	H308	0.836600	0.329900	0.097800
C3951	C395	0.861000	0.335000	0.190000
C3961	C396	0.856300	0.360400	0.230300
H3091	H309	0.873500	0.346600	0.273800
C3971	C397	0.826500	0.406000	0.207900
H3101	H310	0.824200	0.425500	0.237300
C3981	C398	0.893000	0.280000	0.212000
C3991	C399	0.952000	0.222000	0.296000
H3111	H311	0.941500	0.186300	0.264600
H3121	H312	0.975900	0.243200	0.302700
C4001	C400	0.966100	0.194800	0.357600
C4011	C401	0.995900	0.147800	0.385500
H3131	H313	0.005800	0.133100	0.364000
C4021	C402	0.012700	0.120100	0.444300
C4031	C403	0.997500	0.140800	0.473600
H3141	H314	0.008400	0.122100	0.513600
C4041	C404	0.966600	0.188400	0.447200
C4051	C405	0.950500	0.214500	0.388300
H3151	H315	0.928700	0.246100	0.368600
C4061	C406	0.974900	0.680400	0.134300
H3161	H316	0.955700	0.715400	0.112200
C4071	C407	0.974600	0.632700	0.099600
H3171	H317	0.955800	0.634800	0.054100
C4081	C408	0.002600	0.580300	0.132100
C4091	C409	0.029600	0.580100	0.197200
H3181	H318	0.048800	0.545100	0.220200
C4101	C410	0.029200	0.630600	0.229700
H3191	H319	0.049000	0.631100	0.275300
C4111	C411	0.000500	0.527200	0.093000
C4121	C412	0.032900	0.428300	0.098600
H3201	H320	0.034800	0.447600	0.067100
H3211	H321	0.059500	0.404600	0.131000
C4131	C413	0.822900	0.062400	0.006200
H3221	H322	0.822300	0.021400	0.021600
C4141	C414	0.857200	0.103000	0.049000
H3231	H323	0.878900	0.090500	0.092300
C4151	C415	0.858500	0.160000	0.027000
C4161	C416	0.826800	0.176000	0.966000
H3241	H324	0.827200	0.216500	0.949000
C4171	C417	0.792000	0.132000	0.926000
H3251	H325	0.768800	0.144400	0.883100
C4181	C418	0.894000	0.207000	0.069000
C4191	C419	0.920000	0.311000	0.088000
H3261	H326	0.907800	0.353300	0.086400
H3271	H327	0.939700	0.296400	0.133300
C4201	C420	0.826700	0.427900	0.672300
H3281	H328	0.826200	0.445800	0.639500
C4211	C421	0.859400	0.385400	0.717200
H3291	H329	0.880900	0.375900	0.714800
C4221	C422	0.861000	0.357500	0.764400
C4231	C423	0.828800	0.374100	0.765100
H3301	H330	0.828700	0.357000	0.797600
C4241	C424	0.797000	0.414800	0.719700
H3311	H331	0.774400	0.423200	0.719800
C4251	C425	0.895600	0.316200	0.811500
C4261	C426	0.937700	0.276700	0.918000
H3321	H332	0.929000	0.231200	0.914900
H3331	H333	0.961000	0.277200	0.916300
C4271	C427	0.996400	0.382000	0.064900
C4281	C428	0.976100	0.365400	0.089100
H3341	H334	0.984000	0.386700	0.126400
C4291	C429	0.945200	0.319600	0.060500
C4301	C430	0.931400	0.289700	0.002800
H3351	H335	0.908700	0.259500	0.981200
C4311	C431	0.951800	0.305600	0.978300
C4321	C432	0.983500	0.350800	0.009800
H3361	H336	0.997200	0.361300	0.993000
Cu91	Cu9	0.500000	0.749900	0.750000
Cu101	Cu10	0.000000	0.249900	0.750000
Cu111	Cu11	0.500000	0.250100	0.250000
Cu121	Cu12	0.000000	0.750100	0.250000
