data_DOTTUC_charged_PM
_symmetry_space_group_name_H-M	'P1'
_cell_length_a	12.991300
_cell_length_b	12.991300
_cell_length_c	17.391100
_cell_angle_alpha	90.000000
_cell_angle_beta	90.000000
_cell_angle_gamma	120.000000
_symmetry_Int_Tables_number 1

loop_
_symmetry_equiv_pos_as_xyz
'x,y,z'

loop_
_atom_site_label
_atom_site_type_symbol
_atom_site_fract_x
_atom_site_fract_y
_atom_site_fract_z
In11	In1	0.377100	0.000000	0.500000
In21	In2	0.622900	0.622900	0.833330
In31	In3	0.000000	0.377100	0.166670
H11	H1	0.563100	0.575700	0.569600
H21	H2	0.340900	0.423500	0.641400
H31	H3	0.367700	0.520200	0.577400
H41	H4	0.330900	0.391900	0.487600
H51	H5	0.289500	0.293100	0.550900
H61	H6	0.452300	0.375700	0.398100
H71	H7	0.582400	0.421300	0.427100
H81	H8	0.520600	0.496600	0.442600
H91	H9	0.717900	0.490200	0.613400
H101	H10	0.695300	0.513800	0.528300
H111	H11	0.680600	0.390400	0.551200
H121	H12	0.573100	0.366100	0.689700
H131	H13	0.533700	0.264200	0.628800
H141	H14	0.439800	0.293000	0.663900
H151	H15	0.012600	0.436900	0.902930
H161	H16	0.082600	0.659100	0.974730
H171	H17	0.152500	0.632300	0.910730
H181	H18	0.061000	0.669100	0.820930
H191	H19	0.003600	0.710500	0.884230
H201	H20	0.923400	0.547700	0.731430
H211	H21	0.838900	0.417600	0.760430
H221	H22	0.976000	0.479400	0.775930
H231	H23	0.772300	0.282100	0.946730
H241	H24	0.818500	0.304700	0.861630
H251	H25	0.709800	0.319400	0.884530
H261	H26	0.793000	0.426900	0.023030
H271	H27	0.730500	0.466300	0.962130
H281	H28	0.853200	0.560200	0.997230
H291	H29	0.424300	0.987400	0.236270
H301	H30	0.576500	0.917400	0.308070
H311	H31	0.479800	0.847500	0.244070
H321	H32	0.608100	0.939000	0.154270
H331	H33	0.706900	0.996400	0.217570
H341	H34	0.624300	0.076600	0.064770
H351	H35	0.578700	0.161100	0.093770
H361	H36	0.503400	0.024000	0.109270
H371	H37	0.509800	0.227700	0.280070
H381	H38	0.486200	0.181500	0.194970
H391	H39	0.609600	0.290200	0.217870
H401	H40	0.633900	0.207000	0.356370
H411	H41	0.735800	0.269500	0.295470
H421	H42	0.707000	0.146800	0.330570
H431	H43	0.987400	0.424300	0.430400
H441	H44	0.917400	0.576500	0.358600
H451	H45	0.847500	0.479800	0.422600
H461	H46	0.939000	0.608100	0.512400
H471	H47	0.996400	0.706900	0.449100
H481	H48	0.076600	0.624300	0.601900
H491	H49	0.161100	0.578700	0.572900
H501	H50	0.024000	0.503400	0.557400
H511	H51	0.227700	0.509800	0.386600
H521	H52	0.181500	0.486200	0.471700
H531	H53	0.290200	0.609600	0.448800
H541	H54	0.207000	0.633900	0.310300
H551	H55	0.269500	0.735800	0.371200
H561	H56	0.146800	0.707000	0.336100
H571	H57	0.575700	0.563100	0.097070
H581	H58	0.423500	0.340900	0.025270
H591	H59	0.520200	0.367700	0.089270
H601	H60	0.391900	0.330900	0.179070
H611	H61	0.293100	0.289500	0.115770
H621	H62	0.375700	0.452300	0.268570
H631	H63	0.421300	0.582400	0.239570
H641	H64	0.496600	0.520600	0.224070
H651	H65	0.490200	0.717900	0.053270
H661	H66	0.513800	0.695300	0.138370
H671	H67	0.390400	0.680600	0.115470
H681	H68	0.366100	0.573100	0.976970
H691	H69	0.264200	0.533700	0.037870
H701	H70	0.293000	0.439800	0.002770
H711	H71	0.436900	0.012600	0.763730
H721	H72	0.659100	0.082600	0.691930
H731	H73	0.632300	0.152500	0.755930
H741	H74	0.669100	0.061000	0.845730
H751	H75	0.710500	0.003600	0.782430
H761	H76	0.547700	0.923400	0.935230
H771	H77	0.417600	0.838900	0.906230
H781	H78	0.479400	0.976000	0.890730
H791	H79	0.282100	0.772300	0.719930
H801	H80	0.304700	0.818500	0.805030
H811	H81	0.319400	0.709800	0.782130
H821	H82	0.426900	0.793000	0.643630
H831	H83	0.466300	0.730500	0.704530
H841	H84	0.560200	0.853200	0.669430
C11	C1	0.459300	0.351700	0.515100
C21	C2	0.544200	0.410400	0.586500
C31	C3	0.520900	0.511600	0.607000
C41	C4	0.384900	0.459200	0.594500
C51	C5	0.355600	0.368200	0.533800
C61	C6	0.508200	0.417500	0.438500
C71	C7	0.670500	0.455100	0.568200
C81	C8	0.520700	0.326400	0.647300
C91	C9	0.428900	0.223300	0.503700
C101	C10	0.564500	0.562400	0.686700
C111	C11	0.892400	0.540700	0.848430
C121	C12	0.866200	0.455800	0.919830
C131	C13	0.990700	0.479100	0.940330
C141	C14	0.074300	0.615100	0.927830
C151	C15	0.012600	0.644400	0.867130
C161	C16	0.909300	0.491800	0.771830
C171	C17	0.784600	0.329500	0.901530
C181	C18	0.805700	0.479300	0.980630
C191	C19	0.794400	0.571100	0.837030
C201	C20	0.997900	0.435500	0.020030
C211	C21	0.648300	0.107600	0.181770
C221	C22	0.589600	0.133800	0.253170
C231	C23	0.488400	0.009300	0.273670
C241	C24	0.540800	0.925700	0.261170
C251	C25	0.631800	0.987400	0.200470
C261	C26	0.582500	0.090700	0.105170
C271	C27	0.544900	0.215400	0.234870
C281	C28	0.673600	0.194300	0.313970
C291	C29	0.776700	0.205600	0.170370
C301	C30	0.437600	0.002100	0.353370
C311	C31	0.107600	0.648300	0.484900
C321	C32	0.133800	0.589600	0.413500
C331	C33	0.009300	0.488400	0.393000
C341	C34	0.925700	0.540800	0.405500
C351	C35	0.987400	0.631800	0.466200
C361	C36	0.090700	0.582500	0.561500
C371	C37	0.215400	0.544900	0.431800
C381	C38	0.194300	0.673600	0.352700
C391	C39	0.205600	0.776700	0.496300
C401	C40	0.002100	0.437600	0.313300
C411	C41	0.351700	0.459300	0.151570
C421	C42	0.410400	0.544200	0.080170
C431	C43	0.511600	0.520900	0.059670
C441	C44	0.459200	0.384900	0.072170
C451	C45	0.368200	0.355600	0.132870
C461	C46	0.417500	0.508200	0.228170
C471	C47	0.455100	0.670500	0.098470
C481	C48	0.326400	0.520700	0.019370
C491	C49	0.223300	0.428900	0.162970
C501	C50	0.562400	0.564500	0.979970
C511	C51	0.540700	0.892400	0.818230
C521	C52	0.455800	0.866200	0.746830
C531	C53	0.479100	0.990700	0.726330
C541	C54	0.615100	0.074300	0.738830
C551	C55	0.644400	0.012600	0.799530
C561	C56	0.491800	0.909300	0.894830
C571	C57	0.329500	0.784600	0.765130
C581	C58	0.479300	0.805700	0.686030
C591	C59	0.571100	0.794400	0.829630
C601	C60	0.435500	0.997900	0.646630
O11	O1	0.324500	0.138000	0.514300
O21	O2	0.511600	0.203000	0.487100
O31	O3	0.497100	0.515700	0.743300
O41	O4	0.667300	0.643700	0.697900
O51	O5	0.813500	0.675500	0.847630
O61	O6	0.691400	0.488400	0.820430
O71	O7	0.018600	0.502900	0.076630
O81	O8	0.976400	0.332700	0.031230
O91	O9	0.862000	0.186500	0.180970
O101	O10	0.797000	0.308600	0.153770
O111	O11	0.484300	0.981400	0.409970
O121	O12	0.356300	0.023600	0.364570
O131	O13	0.186500	0.862000	0.485700
O141	O14	0.308600	0.797000	0.512900
O151	O15	0.981400	0.484300	0.256700
O161	O16	0.023600	0.356300	0.302100
O171	O17	0.138000	0.324500	0.152370
O181	O18	0.203000	0.511600	0.179570
O191	O19	0.515700	0.497100	0.923370
O201	O20	0.643700	0.667300	0.968770
O211	O21	0.675500	0.813500	0.819030
O221	O22	0.488400	0.691400	0.846230
O231	O23	0.502900	0.018600	0.590030
O241	O24	0.332700	0.976400	0.635430
H851	H85	0.989400	0.831600	0.782600
H861	H86	0.068400	0.970200	0.788200
H871	H87	0.120400	0.895400	0.751900
H881	H88	0.065300	0.021200	0.578700
H891	H89	0.160700	0.009400	0.627100
H901	H90	0.107200	0.086100	0.658200
H911	H91	0.010600	0.842200	0.550730
H921	H92	0.931600	0.901800	0.545130
H931	H93	0.879600	0.775000	0.581430
H941	H94	0.934700	0.955900	0.754630
H951	H95	0.839300	0.848700	0.706230
H961	H96	0.892800	0.978900	0.675130
C611	C61	0.050000	0.901000	0.757600
C621	C62	0.090400	0.016000	0.629800
C631	C63	0.950000	0.851000	0.575730
C641	C64	0.909600	0.925600	0.703530
N11	N1	0.000000	0.915900	0.666670
H971	H97	0.842200	0.010600	0.115930
H981	H98	0.901800	0.931600	0.121530
H991	H99	0.775000	0.879600	0.085230
H1001	H100	0.955900	0.934700	0.912030
H1011	H101	0.848700	0.839300	0.960430
H1021	H102	0.978900	0.892800	0.991530
H1031	H103	0.831600	0.989400	0.884070
H1041	H104	0.970200	0.068400	0.878470
H1051	H105	0.895400	0.120400	0.914770
H1061	H106	0.021200	0.065300	0.087970
H1071	H107	0.009400	0.160700	0.039570
H1081	H108	0.086100	0.107200	0.008470
C651	C65	0.851000	0.950000	0.090930
C661	C66	0.925600	0.909600	0.963130
C671	C67	0.901000	0.050000	0.909070
C681	C68	0.016000	0.090400	0.036870
N21	N2	0.915900	0.000000	0.000000
H1091	H109	0.168400	0.157800	0.449270
H1101	H110	0.029800	0.098200	0.454870
H1111	H111	0.104600	0.225000	0.418570
H1121	H112	0.978800	0.044100	0.245370
H1131	H113	0.990600	0.151300	0.293770
H1141	H114	0.913900	0.021100	0.324870
H1151	H115	0.157800	0.168400	0.217400
H1161	H116	0.098200	0.029800	0.211800
H1171	H117	0.225000	0.104600	0.248100
H1181	H118	0.044100	0.978800	0.421300
H1191	H119	0.151300	0.990600	0.372900
H1201	H120	0.021100	0.913900	0.341800
C691	C69	0.099000	0.149000	0.424270
C701	C70	0.984000	0.074400	0.296470
C711	C71	0.149000	0.099000	0.242400
C721	C72	0.074400	0.984000	0.370200
N31	N3	0.084100	0.084100	0.333330
