data_DOTWAL_clean_PM
_symmetry_space_group_name_H-M	'P1'
_cell_length_a	9.522800
_cell_length_b	9.522800
_cell_length_c	17.470000
_cell_angle_alpha	90.000000
_cell_angle_beta	90.000000
_cell_angle_gamma	120.000000
_symmetry_Int_Tables_number 1

loop_
_symmetry_equiv_pos_as_xyz
'x,y,z'

loop_
_atom_site_label
_atom_site_type_symbol
_atom_site_fract_x
_atom_site_fract_y
_atom_site_fract_z
La11	La1	0.333330	0.666660	0.750000
La21	La2	0.666670	0.333340	0.250000
La31	La3	0.000000	0.000000	0.000000
La41	La4	0.000000	0.000000	0.500000
H11	H1	0.503000	0.670300	0.975700
H21	H2	0.575300	0.595300	0.918600
H31	H3	0.167300	0.497000	0.975700
H41	H4	0.020000	0.424700	0.918600
H51	H5	0.329700	0.832700	0.975700
H61	H6	0.404700	0.980000	0.918600
H71	H7	0.503000	0.670300	0.524300
H81	H8	0.575300	0.595300	0.581400
H91	H9	0.167300	0.497000	0.524300
H101	H10	0.020000	0.424700	0.581400
H111	H11	0.329700	0.832700	0.524300
H121	H12	0.404700	0.980000	0.581400
H131	H13	0.832700	0.329700	0.024300
H141	H14	0.980000	0.404700	0.081400
H151	H15	0.670300	0.503000	0.024300
H161	H16	0.595300	0.575300	0.081400
H171	H17	0.497000	0.167300	0.024300
H181	H18	0.424700	0.020000	0.081400
H191	H19	0.832700	0.329700	0.475700
H201	H20	0.980000	0.404700	0.418600
H211	H21	0.670300	0.503000	0.475700
H221	H22	0.595300	0.575300	0.418600
H231	H23	0.497000	0.167300	0.475700
H241	H24	0.424700	0.020000	0.418600
C11	C1	0.650300	0.833300	0.894700
C21	C2	0.599800	0.691400	0.947900
C31	C3	0.183000	0.349700	0.894700
C41	C4	0.091600	0.400200	0.947900
C51	C5	0.166700	0.817000	0.894700
C61	C6	0.308600	0.908400	0.947900
C71	C7	0.650300	0.833300	0.605300
C81	C8	0.599800	0.691400	0.552100
C91	C9	0.183000	0.349700	0.605300
C101	C10	0.091600	0.400200	0.552100
C111	C11	0.166700	0.817000	0.605300
C121	C12	0.308600	0.908400	0.552100
C131	C13	0.817000	0.166700	0.105300
C141	C14	0.908400	0.308600	0.052100
C151	C15	0.833300	0.650300	0.105300
C161	C16	0.691400	0.599800	0.052100
C171	C17	0.349700	0.183000	0.105300
C181	C18	0.400200	0.091600	0.052100
C191	C19	0.817000	0.166700	0.394700
C201	C20	0.908400	0.308600	0.447900
C211	C21	0.833300	0.650300	0.394700
C221	C22	0.691400	0.599800	0.447900
C231	C23	0.349700	0.183000	0.394700
C241	C24	0.400200	0.091600	0.447900
O11	O1	0.549100	0.822600	0.845100
O21	O2	0.786500	0.959000	0.904300
O31	O3	0.273500	0.450900	0.845100
O41	O4	0.172500	0.213500	0.904300
O51	O5	0.177400	0.726500	0.845100
O61	O6	0.041000	0.827500	0.904300
O71	O7	0.549100	0.822600	0.654900
O81	O8	0.786500	0.959000	0.595700
O91	O9	0.273500	0.450900	0.654900
O101	O10	0.172500	0.213500	0.595700
O111	O11	0.177400	0.726500	0.654900
O121	O12	0.041000	0.827500	0.595700
O131	O13	0.726500	0.177400	0.154900
O141	O14	0.827500	0.041000	0.095700
O151	O15	0.822600	0.549100	0.154900
O161	O16	0.959000	0.786500	0.095700
O171	O17	0.450900	0.273500	0.154900
O181	O18	0.213500	0.172500	0.095700
O191	O19	0.726500	0.177400	0.345100
O201	O20	0.827500	0.041000	0.404300
O211	O21	0.822600	0.549100	0.345100
O221	O22	0.959000	0.786500	0.404300
O231	O23	0.450900	0.273500	0.345100
O241	O24	0.213500	0.172500	0.404300
O251	O25	0.727200	0.727200	0.000000
O261	O26	0.000000	0.272800	0.000000
O271	O27	0.272800	0.000000	0.000000
O281	O28	0.727200	0.727200	0.500000
O291	O29	0.000000	0.272800	0.500000
O301	O30	0.272800	0.000000	0.500000
