data_DOTYES_clean_PM
_symmetry_space_group_name_H-M	'P1'
_cell_length_a	28.552000
_cell_length_b	27.845400
_cell_length_c	27.887000
_cell_angle_alpha	90.000000
_cell_angle_beta	120.610000
_cell_angle_gamma	90.000000
_symmetry_Int_Tables_number 1

loop_
_symmetry_equiv_pos_as_xyz
'x,y,z'

loop_
_atom_site_label
_atom_site_type_symbol
_atom_site_fract_x
_atom_site_fract_y
_atom_site_fract_z
W11	W1	0.144930	0.627930	0.199920
W21	W2	0.227640	0.628040	0.146880
W31	W3	0.193430	0.578420	0.338500
W41	W4	0.267630	0.411350	0.353640
W51	W5	0.364850	0.579680	0.228540
W61	W6	0.358950	0.411940	0.295470
W71	W7	0.410430	0.536480	0.356850
W81	W8	0.141410	0.454500	0.277000
W91	W9	0.320450	0.535700	0.414080
W101	W10	0.315510	0.455450	0.167460
W111	W11	0.093270	0.504170	0.136200
W121	W12	0.112300	0.371550	0.160000
W131	W13	0.197900	0.371270	0.108030
W141	W14	0.175640	0.503410	0.084200
W151	W15	0.241360	0.328620	0.238430
Ni11	Ni1	0.421110	0.626100	0.454750
Ni21	Ni2	0.193180	0.704650	0.323150
Ni31	Ni3	0.349770	0.531220	0.555840
Ni41	Ni4	0.262930	0.700840	0.264810
Ni51	Ni5	0.380180	0.661700	0.334460
Ni61	Ni6	0.303310	0.661680	0.383330
Ni71	Ni7	0.346200	0.704890	0.223190
P11	P1	0.278890	0.585520	0.283210
P21	P2	0.222920	0.451270	0.215840
O11	O1	0.339800	0.598100	0.422900
O21	O2	0.347200	0.510900	0.203300
O31	O3	0.169800	0.510100	0.315000
O41	O4	0.168600	0.432000	0.079500
O51	O5	0.379700	0.680000	0.404000
O61	O6	0.263100	0.676200	0.194700
O71	O7	0.300000	0.636200	0.309500
O81	O8	0.163200	0.321200	0.203400
O91	O9	0.124100	0.398200	0.227400
O101	O10	0.262800	0.270600	0.264400
O111	O11	0.219300	0.455700	0.268100
O121	O12	0.151100	0.591200	0.260000
O131	O13	0.185300	0.489000	0.170700
O141	O14	0.340400	0.719500	0.290200
O151	O15	0.202100	0.400600	0.191300
O161	O16	0.228700	0.321200	0.163300
O171	O17	0.263200	0.557600	0.321300
O181	O18	0.225400	0.635900	0.351900
O191	O19	0.159300	0.643000	0.141200
O201	O20	0.324600	0.558500	0.280000
O211	O21	0.368700	0.517200	0.391300
O221	O22	0.326100	0.413300	0.339700
O231	O23	0.363800	0.417000	0.229000
O241	O24	0.303200	0.691600	0.449800
O251	O25	0.292300	0.590500	0.171200
O261	O26	0.285300	0.470100	0.384800
O271	O27	0.355000	0.517100	0.483600
O281	O28	0.185300	0.676100	0.243000
O291	O29	0.229300	0.592100	0.224500
O301	O30	0.108500	0.488900	0.208900
O311	O31	0.281100	0.455700	0.228900
O321	O32	0.267000	0.399300	0.138500
O331	O33	0.306800	0.358800	0.257400
O341	O34	0.242400	0.358200	0.297800
O351	O35	0.091600	0.432500	0.128500
O361	O36	0.188900	0.564800	0.109800
O371	O37	0.116000	0.565400	0.155800
O381	O38	0.387400	0.470600	0.318600
O391	O39	0.422900	0.552400	0.297200
O401	O40	0.250700	0.551300	0.405800
O411	O41	0.369900	0.637500	0.260200
O421	O42	0.085300	0.448000	0.284700
O431	O43	0.267000	0.719100	0.335700
O441	O44	0.128900	0.354100	0.102900
O451	O45	0.104100	0.505100	0.073800
O461	O46	0.342500	0.449800	0.124600
O471	O47	0.219000	0.722400	0.405200
O481	O48	0.427100	0.722000	0.265700
O491	O49	0.451800	0.691200	0.353800
O501	O50	0.249700	0.489400	0.118600
O511	O51	0.413300	0.598300	0.378700
O521	O52	0.192800	0.415200	0.335700
N11	N1	0.344900	0.688200	0.151500
H11	H1	0.378200	0.678500	0.159600
H21	H2	0.321500	0.663800	0.134300
N21	N2	0.006400	0.506200	0.302400
H31	H3	0.983200	0.502000	0.314800
H41	H4	0.040500	0.508100	0.331900
N31	N3	0.321400	0.770600	0.183500
H51	H5	0.291000	0.779700	0.183200
H61	H6	0.347400	0.792500	0.203200
N41	N4	0.374900	0.461500	0.582000
H71	H7	0.398500	0.451800	0.571500
H81	H8	0.391400	0.459500	0.619300
N51	N5	0.465700	0.568800	0.503400
H91	H9	0.453700	0.560200	0.526400
H101	H10	0.462200	0.543500	0.481800
N61	N6	0.496100	0.655900	0.479200
H111	H11	0.495900	0.670000	0.450000
H121	H12	0.504700	0.678100	0.505800
N71	N7	0.116500	0.686400	0.304400
H131	H13	0.101200	0.666500	0.274900
H141	H14	0.117600	0.671400	0.333500
N81	N8	0.158700	0.769600	0.294800
H151	H15	0.174700	0.790900	0.322900
H161	H16	0.165400	0.779100	0.268000
N91	N9	0.272900	0.500600	0.514400
H171	H17	0.252900	0.511400	0.528700
H181	H18	0.255700	0.508300	0.478000
C11	C1	0.264700	0.714600	0.448700
C21	C2	0.274000	0.737900	0.501100
H191	H19	0.302600	0.761600	0.512300
H201	H20	0.287300	0.713600	0.530000
C31	C3	0.310400	0.770100	0.126400
H211	H21	0.271500	0.773000	0.101200
H221	H22	0.327500	0.798100	0.121000
C41	C4	0.521200	0.583400	0.534900
H231	H23	0.544500	0.555300	0.546700
H241	H24	0.527400	0.600400	0.568000
C51	C5	0.460600	0.712300	0.316800
C61	C6	0.098300	0.771200	0.271600
H251	H25	0.088400	0.800300	0.283400
H261	H26	0.079100	0.770600	0.231200
C71	C7	0.084600	0.731300	0.291500
H271	H27	0.047100	0.723300	0.264400
H281	H28	0.085300	0.741000	0.325300
C81	C8	0.315000	0.723500	0.050700
H291	H29	0.278900	0.710300	0.028600
H301	H30	0.340900	0.701700	0.050700
H311	H31	0.316700	0.753700	0.035200
C91	C9	0.993000	0.549600	0.268000
H321	H32	0.953000	0.547000	0.245000
C101	C10	0.001000	0.599900	0.279000
H331	H33	0.036000	0.608700	0.310800
H341	H34	0.971300	0.616800	0.278900
C111	C11	0.279000	0.452200	0.521000
H351	H35	0.270000	0.454000	0.550000
C121	C12	0.234500	0.416900	0.490000
H361	H36	0.249600	0.385200	0.495600
H371	H37	0.215500	0.424400	0.450900
H381	H38	0.209600	0.418200	0.503500
C131	C13	0.327700	0.432800	0.556600
H391	H39	0.334100	0.407200	0.537100
H401	H40	0.324500	0.418000	0.586300
C141	C14	0.327700	0.731200	0.112300
H411	H41	0.365000	0.743000	0.126000
C151	C15	0.536200	0.615800	0.501100
H421	H42	0.520000	0.596000	0.467000
C161	C16	0.584700	0.618500	0.509000
H431	H43	0.586800	0.645300	0.488300
H441	H44	0.592900	0.589400	0.495800
H451	H45	0.610500	0.622700	0.547700
C171	C17	0.519000	0.725900	0.333000
H461	H46	0.518900	0.757600	0.319300
H471	H47	0.532200	0.703300	0.316700
H481	H48	0.541700	0.725400	0.372700
W161	W16	0.644930	0.127930	0.199920
W171	W17	0.727640	0.128040	0.146880
W181	W18	0.693430	0.078420	0.338500
W191	W19	0.767630	0.911350	0.353640
W201	W20	0.864850	0.079680	0.228540
W211	W21	0.858950	0.911940	0.295470
W221	W22	0.910430	0.036480	0.356850
W231	W23	0.641410	0.954500	0.277000
W241	W24	0.820450	0.035700	0.414080
W251	W25	0.815510	0.955450	0.167460
W261	W26	0.593270	0.004170	0.136200
W271	W27	0.612300	0.871550	0.160000
W281	W28	0.697900	0.871270	0.108030
W291	W29	0.675640	0.003410	0.084200
W301	W30	0.741360	0.828620	0.238430
Ni81	Ni8	0.921110	0.126100	0.454750
Ni91	Ni9	0.693180	0.204650	0.323150
Ni101	Ni10	0.849770	0.031220	0.555840
Ni111	Ni11	0.762930	0.200840	0.264810
Ni121	Ni12	0.880180	0.161700	0.334460
Ni131	Ni13	0.803310	0.161680	0.383330
Ni141	Ni14	0.846200	0.204890	0.223190
P31	P3	0.778890	0.085520	0.283210
P41	P4	0.722920	0.951270	0.215840
O531	O53	0.839800	0.098100	0.422900
O541	O54	0.847200	0.010900	0.203300
O551	O55	0.669800	0.010100	0.315000
O561	O56	0.668600	0.932000	0.079500
O571	O57	0.879700	0.180000	0.404000
O581	O58	0.763100	0.176200	0.194700
O591	O59	0.800000	0.136200	0.309500
O601	O60	0.663200	0.821200	0.203400
O611	O61	0.624100	0.898200	0.227400
O621	O62	0.762800	0.770600	0.264400
O631	O63	0.719300	0.955700	0.268100
O641	O64	0.651100	0.091200	0.260000
O651	O65	0.685300	0.989000	0.170700
O661	O66	0.840400	0.219500	0.290200
O671	O67	0.702100	0.900600	0.191300
O681	O68	0.728700	0.821200	0.163300
O691	O69	0.763200	0.057600	0.321300
O701	O70	0.725400	0.135900	0.351900
O711	O71	0.659300	0.143000	0.141200
O721	O72	0.824600	0.058500	0.280000
O731	O73	0.868700	0.017200	0.391300
O741	O74	0.826100	0.913300	0.339700
O751	O75	0.863800	0.917000	0.229000
O761	O76	0.803200	0.191600	0.449800
O771	O77	0.792300	0.090500	0.171200
O781	O78	0.785300	0.970100	0.384800
O791	O79	0.855000	0.017100	0.483600
O801	O80	0.685300	0.176100	0.243000
O811	O81	0.729300	0.092100	0.224500
O821	O82	0.608500	0.988900	0.208900
O831	O83	0.781100	0.955700	0.228900
O841	O84	0.767000	0.899300	0.138500
O851	O85	0.806800	0.858800	0.257400
O861	O86	0.742400	0.858200	0.297800
O871	O87	0.591600	0.932500	0.128500
O881	O88	0.688900	0.064800	0.109800
O891	O89	0.616000	0.065400	0.155800
O901	O90	0.887400	0.970600	0.318600
O911	O91	0.922900	0.052400	0.297200
O921	O92	0.750700	0.051300	0.405800
O931	O93	0.869900	0.137500	0.260200
O941	O94	0.585300	0.948000	0.284700
O951	O95	0.767000	0.219100	0.335700
O961	O96	0.628900	0.854100	0.102900
O971	O97	0.604100	0.005100	0.073800
O981	O98	0.842500	0.949800	0.124600
O991	O99	0.719000	0.222400	0.405200
O1001	O100	0.927100	0.222000	0.265700
O1011	O101	0.951800	0.191200	0.353800
O1021	O102	0.749700	0.989400	0.118600
O1031	O103	0.913300	0.098300	0.378700
O1041	O104	0.692800	0.915200	0.335700
N101	N10	0.844900	0.188200	0.151500
H491	H49	0.878200	0.178500	0.159600
H501	H50	0.821500	0.163800	0.134300
N111	N11	0.506400	0.006200	0.302400
H511	H51	0.483200	0.002000	0.314800
H521	H52	0.540500	0.008100	0.331900
N121	N12	0.821400	0.270600	0.183500
H531	H53	0.791000	0.279700	0.183200
H541	H54	0.847400	0.292500	0.203200
N131	N13	0.874900	0.961500	0.582000
H551	H55	0.898500	0.951800	0.571500
H561	H56	0.891400	0.959500	0.619300
N141	N14	0.965700	0.068800	0.503400
H571	H57	0.953700	0.060200	0.526400
H581	H58	0.962200	0.043500	0.481800
N151	N15	0.996100	0.155900	0.479200
H591	H59	0.995900	0.170000	0.450000
H601	H60	0.004700	0.178100	0.505800
N161	N16	0.616500	0.186400	0.304400
H611	H61	0.601200	0.166500	0.274900
H621	H62	0.617600	0.171400	0.333500
N171	N17	0.658700	0.269600	0.294800
H631	H63	0.674700	0.290900	0.322900
H641	H64	0.665400	0.279100	0.268000
N181	N18	0.772900	0.000600	0.514400
H651	H65	0.752900	0.011400	0.528700
H661	H66	0.755700	0.008300	0.478000
C181	C18	0.764700	0.214600	0.448700
C191	C19	0.774000	0.237900	0.501100
H671	H67	0.802600	0.261600	0.512300
H681	H68	0.787300	0.213600	0.530000
C201	C20	0.810400	0.270100	0.126400
H691	H69	0.771500	0.273000	0.101200
H701	H70	0.827500	0.298100	0.121000
C211	C21	0.021200	0.083400	0.534900
H711	H71	0.044500	0.055300	0.546700
H721	H72	0.027400	0.100400	0.568000
C221	C22	0.960600	0.212300	0.316800
C231	C23	0.598300	0.271200	0.271600
H731	H73	0.588400	0.300300	0.283400
H741	H74	0.579100	0.270600	0.231200
C241	C24	0.584600	0.231300	0.291500
H751	H75	0.547100	0.223300	0.264400
H761	H76	0.585300	0.241000	0.325300
C251	C25	0.815000	0.223500	0.050700
H771	H77	0.778900	0.210300	0.028600
H781	H78	0.840900	0.201700	0.050700
H791	H79	0.816700	0.253700	0.035200
C261	C26	0.493000	0.049600	0.268000
H801	H80	0.453000	0.047000	0.245000
C271	C27	0.501000	0.099900	0.279000
H811	H81	0.536000	0.108700	0.310800
H821	H82	0.471300	0.116800	0.278900
C281	C28	0.779000	0.952200	0.521000
H831	H83	0.770000	0.954000	0.550000
C291	C29	0.734500	0.916900	0.490000
H841	H84	0.749600	0.885200	0.495600
H851	H85	0.715500	0.924400	0.450900
H861	H86	0.709600	0.918200	0.503500
C301	C30	0.827700	0.932800	0.556600
H871	H87	0.834100	0.907200	0.537100
H881	H88	0.824500	0.918000	0.586300
C311	C31	0.827700	0.231200	0.112300
H891	H89	0.865000	0.243000	0.126000
C321	C32	0.036200	0.115800	0.501100
H901	H90	0.020000	0.096000	0.467000
C331	C33	0.084700	0.118500	0.509000
H911	H91	0.086800	0.145300	0.488300
H921	H92	0.092900	0.089400	0.495800
H931	H93	0.110500	0.122700	0.547700
C341	C34	0.019000	0.225900	0.333000
H941	H94	0.018900	0.257600	0.319300
H951	H95	0.032200	0.203300	0.316700
H961	H96	0.041700	0.225400	0.372700
W311	W31	0.855070	0.627930	0.300080
W321	W32	0.772360	0.628040	0.353120
W331	W33	0.806570	0.578420	0.161500
W341	W34	0.732370	0.411350	0.146360
W351	W35	0.635150	0.579680	0.271460
W361	W36	0.641050	0.411940	0.204530
W371	W37	0.589570	0.536480	0.143150
W381	W38	0.858590	0.454500	0.223000
W391	W39	0.679550	0.535700	0.085920
W401	W40	0.684490	0.455450	0.332540
W411	W41	0.906730	0.504170	0.363800
W421	W42	0.887700	0.371550	0.340000
W431	W43	0.802100	0.371270	0.391970
W441	W44	0.824360	0.503410	0.415800
W451	W45	0.758640	0.328620	0.261570
Ni151	Ni15	0.578890	0.626100	0.045250
Ni161	Ni16	0.806820	0.704650	0.176850
Ni171	Ni17	0.650230	0.531220	0.944160
Ni181	Ni18	0.737070	0.700840	0.235190
Ni191	Ni19	0.619820	0.661700	0.165540
Ni201	Ni20	0.696690	0.661680	0.116670
Ni211	Ni21	0.653800	0.704890	0.276810
P51	P5	0.721110	0.585520	0.216790
P61	P6	0.777080	0.451270	0.284160
O1051	O105	0.660200	0.598100	0.077100
O1061	O106	0.652800	0.510900	0.296700
O1071	O107	0.830200	0.510100	0.185000
O1081	O108	0.831400	0.432000	0.420500
O1091	O109	0.620300	0.680000	0.096000
O1101	O110	0.736900	0.676200	0.305300
O1111	O111	0.700000	0.636200	0.190500
O1121	O112	0.836800	0.321200	0.296600
O1131	O113	0.875900	0.398200	0.272600
O1141	O114	0.737200	0.270600	0.235600
O1151	O115	0.780700	0.455700	0.231900
O1161	O116	0.848900	0.591200	0.240000
O1171	O117	0.814700	0.489000	0.329300
O1181	O118	0.659600	0.719500	0.209800
O1191	O119	0.797900	0.400600	0.308700
O1201	O120	0.771300	0.321200	0.336700
O1211	O121	0.736800	0.557600	0.178700
O1221	O122	0.774600	0.635900	0.148100
O1231	O123	0.840700	0.643000	0.358800
O1241	O124	0.675400	0.558500	0.220000
O1251	O125	0.631300	0.517200	0.108700
O1261	O126	0.673900	0.413300	0.160300
O1271	O127	0.636200	0.417000	0.271000
O1281	O128	0.696800	0.691600	0.050200
O1291	O129	0.707700	0.590500	0.328800
O1301	O130	0.714700	0.470100	0.115200
O1311	O131	0.645000	0.517100	0.016400
O1321	O132	0.814700	0.676100	0.257000
O1331	O133	0.770700	0.592100	0.275500
O1341	O134	0.891500	0.488900	0.291100
O1351	O135	0.718900	0.455700	0.271100
O1361	O136	0.733000	0.399300	0.361500
O1371	O137	0.693200	0.358800	0.242600
O1381	O138	0.757600	0.358200	0.202200
O1391	O139	0.908400	0.432500	0.371500
O1401	O140	0.811100	0.564800	0.390200
O1411	O141	0.884000	0.565400	0.344200
O1421	O142	0.612600	0.470600	0.181400
O1431	O143	0.577100	0.552400	0.202800
O1441	O144	0.749300	0.551300	0.094200
O1451	O145	0.630100	0.637500	0.239800
O1461	O146	0.914700	0.448000	0.215300
O1471	O147	0.733000	0.719100	0.164300
O1481	O148	0.871100	0.354100	0.397100
O1491	O149	0.895900	0.505100	0.426200
O1501	O150	0.657500	0.449800	0.375400
O1511	O151	0.781000	0.722400	0.094800
O1521	O152	0.572900	0.722000	0.234300
O1531	O153	0.548200	0.691200	0.146200
O1541	O154	0.750300	0.489400	0.381400
O1551	O155	0.586700	0.598300	0.121300
O1561	O156	0.807200	0.415200	0.164300
N191	N19	0.655100	0.688200	0.348500
H971	H97	0.621800	0.678500	0.340400
H981	H98	0.678500	0.663800	0.365700
N201	N20	0.993600	0.506200	0.197600
H991	H99	0.016800	0.502000	0.185200
H1001	H100	0.959500	0.508100	0.168100
N211	N21	0.678600	0.770600	0.316500
H1011	H101	0.709000	0.779700	0.316800
H1021	H102	0.652600	0.792500	0.296800
N221	N22	0.625100	0.461500	0.918000
H1031	H103	0.601500	0.451800	0.928500
H1041	H104	0.608600	0.459500	0.880700
N231	N23	0.534300	0.568800	0.996600
H1051	H105	0.546300	0.560200	0.973600
H1061	H106	0.537800	0.543500	0.018200
N241	N24	0.503900	0.655900	0.020800
H1071	H107	0.504100	0.670000	0.050000
H1081	H108	0.495300	0.678100	0.994200
N251	N25	0.883500	0.686400	0.195600
H1091	H109	0.898800	0.666500	0.225100
H1101	H110	0.882400	0.671400	0.166500
N261	N26	0.841300	0.769600	0.205200
H1111	H111	0.825300	0.790900	0.177100
H1121	H112	0.834600	0.779100	0.232000
N271	N27	0.727100	0.500600	0.985600
H1131	H113	0.747100	0.511400	0.971300
H1141	H114	0.744300	0.508300	0.022000
C351	C35	0.735300	0.714600	0.051300
C361	C36	0.726000	0.737900	0.998900
H1151	H115	0.697400	0.761600	0.987700
H1161	H116	0.712700	0.713600	0.970000
C371	C37	0.689600	0.770100	0.373600
H1171	H117	0.728500	0.773000	0.398800
H1181	H118	0.672500	0.798100	0.379000
C381	C38	0.478800	0.583400	0.965100
H1191	H119	0.455500	0.555300	0.953300
H1201	H120	0.472600	0.600400	0.932000
C391	C39	0.539400	0.712300	0.183200
C401	C40	0.901700	0.771200	0.228400
H1211	H121	0.911600	0.800300	0.216600
H1221	H122	0.920900	0.770600	0.268800
C411	C41	0.915400	0.731300	0.208500
H1231	H123	0.952900	0.723300	0.235600
H1241	H124	0.914700	0.741000	0.174700
C421	C42	0.685000	0.723500	0.449300
H1251	H125	0.721100	0.710300	0.471400
H1261	H126	0.659100	0.701700	0.449300
H1271	H127	0.683300	0.753700	0.464800
C431	C43	0.007000	0.549600	0.232000
H1281	H128	0.047000	0.547000	0.255000
C441	C44	0.999000	0.599900	0.221000
H1291	H129	0.964000	0.608700	0.189200
H1301	H130	0.028700	0.616800	0.221100
C451	C45	0.721000	0.452200	0.979000
H1311	H131	0.730000	0.454000	0.950000
C461	C46	0.765500	0.416900	0.010000
H1321	H132	0.750400	0.385200	0.004400
H1331	H133	0.784500	0.424400	0.049100
H1341	H134	0.790400	0.418200	0.996500
C471	C47	0.672300	0.432800	0.943400
H1351	H135	0.665900	0.407200	0.962900
H1361	H136	0.675500	0.418000	0.913700
C481	C48	0.672300	0.731200	0.387700
H1371	H137	0.635000	0.743000	0.374000
C491	C49	0.463800	0.615800	0.998900
H1381	H138	0.480000	0.596000	0.033000
C501	C50	0.415300	0.618500	0.991000
H1391	H139	0.413200	0.645300	0.011700
H1401	H140	0.407100	0.589400	0.004200
H1411	H141	0.389500	0.622700	0.952300
C511	C51	0.481000	0.725900	0.167000
H1421	H142	0.481100	0.757600	0.180700
H1431	H143	0.467800	0.703300	0.183300
H1441	H144	0.458300	0.725400	0.127300
W461	W46	0.355070	0.127930	0.300080
W471	W47	0.272360	0.128040	0.353120
W481	W48	0.306570	0.078420	0.161500
W491	W49	0.232370	0.911350	0.146360
W501	W50	0.135150	0.079680	0.271460
W511	W51	0.141050	0.911940	0.204530
W521	W52	0.089570	0.036480	0.143150
W531	W53	0.358590	0.954500	0.223000
W541	W54	0.179550	0.035700	0.085920
W551	W55	0.184490	0.955450	0.332540
W561	W56	0.406730	0.004170	0.363800
W571	W57	0.387700	0.871550	0.340000
W581	W58	0.302100	0.871270	0.391970
W591	W59	0.324360	0.003410	0.415800
W601	W60	0.258640	0.828620	0.261570
Ni221	Ni22	0.078890	0.126100	0.045250
Ni231	Ni23	0.306820	0.204650	0.176850
Ni241	Ni24	0.150230	0.031220	0.944160
Ni251	Ni25	0.237070	0.200840	0.235190
Ni261	Ni26	0.119820	0.161700	0.165540
Ni271	Ni27	0.196690	0.161680	0.116670
Ni281	Ni28	0.153800	0.204890	0.276810
P71	P7	0.221110	0.085520	0.216790
P81	P8	0.277080	0.951270	0.284160
O1571	O157	0.160200	0.098100	0.077100
O1581	O158	0.152800	0.010900	0.296700
O1591	O159	0.330200	0.010100	0.185000
O1601	O160	0.331400	0.932000	0.420500
O1611	O161	0.120300	0.180000	0.096000
O1621	O162	0.236900	0.176200	0.305300
O1631	O163	0.200000	0.136200	0.190500
O1641	O164	0.336800	0.821200	0.296600
O1651	O165	0.375900	0.898200	0.272600
O1661	O166	0.237200	0.770600	0.235600
O1671	O167	0.280700	0.955700	0.231900
O1681	O168	0.348900	0.091200	0.240000
O1691	O169	0.314700	0.989000	0.329300
O1701	O170	0.159600	0.219500	0.209800
O1711	O171	0.297900	0.900600	0.308700
O1721	O172	0.271300	0.821200	0.336700
O1731	O173	0.236800	0.057600	0.178700
O1741	O174	0.274600	0.135900	0.148100
O1751	O175	0.340700	0.143000	0.358800
O1761	O176	0.175400	0.058500	0.220000
O1771	O177	0.131300	0.017200	0.108700
O1781	O178	0.173900	0.913300	0.160300
O1791	O179	0.136200	0.917000	0.271000
O1801	O180	0.196800	0.191600	0.050200
O1811	O181	0.207700	0.090500	0.328800
O1821	O182	0.214700	0.970100	0.115200
O1831	O183	0.145000	0.017100	0.016400
O1841	O184	0.314700	0.176100	0.257000
O1851	O185	0.270700	0.092100	0.275500
O1861	O186	0.391500	0.988900	0.291100
O1871	O187	0.218900	0.955700	0.271100
O1881	O188	0.233000	0.899300	0.361500
O1891	O189	0.193200	0.858800	0.242600
O1901	O190	0.257600	0.858200	0.202200
O1911	O191	0.408400	0.932500	0.371500
O1921	O192	0.311100	0.064800	0.390200
O1931	O193	0.384000	0.065400	0.344200
O1941	O194	0.112600	0.970600	0.181400
O1951	O195	0.077100	0.052400	0.202800
O1961	O196	0.249300	0.051300	0.094200
O1971	O197	0.130100	0.137500	0.239800
O1981	O198	0.414700	0.948000	0.215300
O1991	O199	0.233000	0.219100	0.164300
O2001	O200	0.371100	0.854100	0.397100
O2011	O201	0.395900	0.005100	0.426200
O2021	O202	0.157500	0.949800	0.375400
O2031	O203	0.281000	0.222400	0.094800
O2041	O204	0.072900	0.222000	0.234300
O2051	O205	0.048200	0.191200	0.146200
O2061	O206	0.250300	0.989400	0.381400
O2071	O207	0.086700	0.098300	0.121300
O2081	O208	0.307200	0.915200	0.164300
N281	N28	0.155100	0.188200	0.348500
H1451	H145	0.121800	0.178500	0.340400
H1461	H146	0.178500	0.163800	0.365700
N291	N29	0.493600	0.006200	0.197600
H1471	H147	0.516800	0.002000	0.185200
H1481	H148	0.459500	0.008100	0.168100
N301	N30	0.178600	0.270600	0.316500
H1491	H149	0.209000	0.279700	0.316800
H1501	H150	0.152600	0.292500	0.296800
N311	N31	0.125100	0.961500	0.918000
H1511	H151	0.101500	0.951800	0.928500
H1521	H152	0.108600	0.959500	0.880700
N321	N32	0.034300	0.068800	0.996600
H1531	H153	0.046300	0.060200	0.973600
H1541	H154	0.037800	0.043500	0.018200
N331	N33	0.003900	0.155900	0.020800
H1551	H155	0.004100	0.170000	0.050000
H1561	H156	0.995300	0.178100	0.994200
N341	N34	0.383500	0.186400	0.195600
H1571	H157	0.398800	0.166500	0.225100
H1581	H158	0.382400	0.171400	0.166500
N351	N35	0.341300	0.269600	0.205200
H1591	H159	0.325300	0.290900	0.177100
H1601	H160	0.334600	0.279100	0.232000
N361	N36	0.227100	0.000600	0.985600
H1611	H161	0.247100	0.011400	0.971300
H1621	H162	0.244300	0.008300	0.022000
C521	C52	0.235300	0.214600	0.051300
C531	C53	0.226000	0.237900	0.998900
H1631	H163	0.197400	0.261600	0.987700
H1641	H164	0.212700	0.213600	0.970000
C541	C54	0.189600	0.270100	0.373600
H1651	H165	0.228500	0.273000	0.398800
H1661	H166	0.172500	0.298100	0.379000
C551	C55	0.978800	0.083400	0.965100
H1671	H167	0.955500	0.055300	0.953300
H1681	H168	0.972600	0.100400	0.932000
C561	C56	0.039400	0.212300	0.183200
C571	C57	0.401700	0.271200	0.228400
H1691	H169	0.411600	0.300300	0.216600
H1701	H170	0.420900	0.270600	0.268800
C581	C58	0.415400	0.231300	0.208500
H1711	H171	0.452900	0.223300	0.235600
H1721	H172	0.414700	0.241000	0.174700
C591	C59	0.185000	0.223500	0.449300
H1731	H173	0.221100	0.210300	0.471400
H1741	H174	0.159100	0.201700	0.449300
H1751	H175	0.183300	0.253700	0.464800
C601	C60	0.507000	0.049600	0.232000
H1761	H176	0.547000	0.047000	0.255000
C611	C61	0.499000	0.099900	0.221000
H1771	H177	0.464000	0.108700	0.189200
H1781	H178	0.528700	0.116800	0.221100
C621	C62	0.221000	0.952200	0.979000
H1791	H179	0.230000	0.954000	0.950000
C631	C63	0.265500	0.916900	0.010000
H1801	H180	0.250400	0.885200	0.004400
H1811	H181	0.284500	0.924400	0.049100
H1821	H182	0.290400	0.918200	0.996500
C641	C64	0.172300	0.932800	0.943400
H1831	H183	0.165900	0.907200	0.962900
H1841	H184	0.175500	0.918000	0.913700
C651	C65	0.172300	0.231200	0.387700
H1851	H185	0.135000	0.243000	0.374000
C661	C66	0.963800	0.115800	0.998900
H1861	H186	0.980000	0.096000	0.033000
C671	C67	0.915300	0.118500	0.991000
H1871	H187	0.913200	0.145300	0.011700
H1881	H188	0.907100	0.089400	0.004200
H1891	H189	0.889500	0.122700	0.952300
C681	C68	0.981000	0.225900	0.167000
H1901	H190	0.981100	0.257600	0.180700
H1911	H191	0.967800	0.203300	0.183300
H1921	H192	0.958300	0.225400	0.127300
W611	W61	0.855070	0.372070	0.800080
W621	W62	0.772360	0.371960	0.853120
W631	W63	0.806570	0.421580	0.661500
W641	W64	0.732370	0.588650	0.646360
W651	W65	0.635150	0.420320	0.771460
W661	W66	0.641050	0.588060	0.704530
W671	W67	0.589570	0.463520	0.643150
W681	W68	0.858590	0.545500	0.723000
W691	W69	0.679550	0.464300	0.585920
W701	W70	0.684490	0.544550	0.832540
W711	W71	0.906730	0.495830	0.863800
W721	W72	0.887700	0.628450	0.840000
W731	W73	0.802100	0.628730	0.891970
W741	W74	0.824360	0.496590	0.915800
W751	W75	0.758640	0.671380	0.761570
Ni291	Ni29	0.578890	0.373900	0.545250
Ni301	Ni30	0.806820	0.295350	0.676850
Ni311	Ni31	0.650230	0.468780	0.444160
Ni321	Ni32	0.737070	0.299160	0.735190
Ni331	Ni33	0.619820	0.338300	0.665540
Ni341	Ni34	0.696690	0.338320	0.616670
Ni351	Ni35	0.653800	0.295110	0.776810
P91	P9	0.721110	0.414480	0.716790
P101	P10	0.777080	0.548730	0.784160
O2091	O209	0.660200	0.401900	0.577100
O2101	O210	0.652800	0.489100	0.796700
O2111	O211	0.830200	0.489900	0.685000
O2121	O212	0.831400	0.568000	0.920500
O2131	O213	0.620300	0.320000	0.596000
O2141	O214	0.736900	0.323800	0.805300
O2151	O215	0.700000	0.363800	0.690500
O2161	O216	0.836800	0.678800	0.796600
O2171	O217	0.875900	0.601800	0.772600
O2181	O218	0.737200	0.729400	0.735600
O2191	O219	0.780700	0.544300	0.731900
O2201	O220	0.848900	0.408800	0.740000
O2211	O221	0.814700	0.511000	0.829300
O2221	O222	0.659600	0.280500	0.709800
O2231	O223	0.797900	0.599400	0.808700
O2241	O224	0.771300	0.678800	0.836700
O2251	O225	0.736800	0.442400	0.678700
O2261	O226	0.774600	0.364100	0.648100
O2271	O227	0.840700	0.357000	0.858800
O2281	O228	0.675400	0.441500	0.720000
O2291	O229	0.631300	0.482800	0.608700
O2301	O230	0.673900	0.586700	0.660300
O2311	O231	0.636200	0.583000	0.771000
O2321	O232	0.696800	0.308400	0.550200
O2331	O233	0.707700	0.409500	0.828800
O2341	O234	0.714700	0.529900	0.615200
O2351	O235	0.645000	0.482900	0.516400
O2361	O236	0.814700	0.323900	0.757000
O2371	O237	0.770700	0.407900	0.775500
O2381	O238	0.891500	0.511100	0.791100
O2391	O239	0.718900	0.544300	0.771100
O2401	O240	0.733000	0.600700	0.861500
O2411	O241	0.693200	0.641200	0.742600
O2421	O242	0.757600	0.641800	0.702200
O2431	O243	0.908400	0.567500	0.871500
O2441	O244	0.811100	0.435200	0.890200
O2451	O245	0.884000	0.434600	0.844200
O2461	O246	0.612600	0.529400	0.681400
O2471	O247	0.577100	0.447600	0.702800
O2481	O248	0.749300	0.448700	0.594200
O2491	O249	0.630100	0.362500	0.739800
O2501	O250	0.914700	0.552000	0.715300
O2511	O251	0.733000	0.280900	0.664300
O2521	O252	0.871100	0.645900	0.897100
O2531	O253	0.895900	0.494900	0.926200
O2541	O254	0.657500	0.550200	0.875400
O2551	O255	0.781000	0.277600	0.594800
O2561	O256	0.572900	0.278000	0.734300
O2571	O257	0.548200	0.308800	0.646200
O2581	O258	0.750300	0.510600	0.881400
O2591	O259	0.586700	0.401700	0.621300
O2601	O260	0.807200	0.584800	0.664300
N371	N37	0.655100	0.311800	0.848500
H1931	H193	0.621800	0.321500	0.840400
H1941	H194	0.678500	0.336200	0.865700
N381	N38	0.993600	0.493800	0.697600
H1951	H195	0.016800	0.498000	0.685200
H1961	H196	0.959500	0.491900	0.668100
N391	N39	0.678600	0.229400	0.816500
H1971	H197	0.709000	0.220300	0.816800
H1981	H198	0.652600	0.207500	0.796800
N401	N40	0.625100	0.538500	0.418000
H1991	H199	0.601500	0.548200	0.428500
H2001	H200	0.608600	0.540500	0.380700
N411	N41	0.534300	0.431200	0.496600
H2011	H201	0.546300	0.439800	0.473600
H2021	H202	0.537800	0.456500	0.518200
N421	N42	0.503900	0.344100	0.520800
H2031	H203	0.504100	0.330000	0.550000
H2041	H204	0.495300	0.321900	0.494200
N431	N43	0.883500	0.313600	0.695600
H2051	H205	0.898800	0.333500	0.725100
H2061	H206	0.882400	0.328600	0.666500
N441	N44	0.841300	0.230400	0.705200
H2071	H207	0.825300	0.209100	0.677100
H2081	H208	0.834600	0.220900	0.732000
N451	N45	0.727100	0.499400	0.485600
H2091	H209	0.747100	0.488600	0.471300
H2101	H210	0.744300	0.491700	0.522000
C691	C69	0.735300	0.285400	0.551300
C701	C70	0.726000	0.262100	0.498900
H2111	H211	0.697400	0.238400	0.487700
H2121	H212	0.712700	0.286400	0.470000
C711	C71	0.689600	0.229900	0.873600
H2131	H213	0.728500	0.227000	0.898800
H2141	H214	0.672500	0.201900	0.879000
C721	C72	0.478800	0.416600	0.465100
H2151	H215	0.455500	0.444700	0.453300
H2161	H216	0.472600	0.399600	0.432000
C731	C73	0.539400	0.287700	0.683200
C741	C74	0.901700	0.228800	0.728400
H2171	H217	0.911600	0.199700	0.716600
H2181	H218	0.920900	0.229400	0.768800
C751	C75	0.915400	0.268700	0.708500
H2191	H219	0.952900	0.276700	0.735600
H2201	H220	0.914700	0.259000	0.674700
C761	C76	0.685000	0.276500	0.949300
H2211	H221	0.721100	0.289700	0.971400
H2221	H222	0.659100	0.298300	0.949300
H2231	H223	0.683300	0.246300	0.964800
C771	C77	0.007000	0.450400	0.732000
H2241	H224	0.047000	0.453000	0.755000
C781	C78	0.999000	0.400100	0.721000
H2251	H225	0.964000	0.391300	0.689200
H2261	H226	0.028700	0.383200	0.721100
C791	C79	0.721000	0.547800	0.479000
H2271	H227	0.730000	0.546000	0.450000
C801	C80	0.765500	0.583100	0.510000
H2281	H228	0.750400	0.614800	0.504400
H2291	H229	0.784500	0.575600	0.549100
H2301	H230	0.790400	0.581800	0.496500
C811	C81	0.672300	0.567200	0.443400
H2311	H231	0.665900	0.592800	0.462900
H2321	H232	0.675500	0.582000	0.413700
C821	C82	0.672300	0.268800	0.887700
H2331	H233	0.635000	0.257000	0.874000
C831	C83	0.463800	0.384200	0.498900
H2341	H234	0.480000	0.404000	0.533000
C841	C84	0.415300	0.381500	0.491000
H2351	H235	0.413200	0.354700	0.511700
H2361	H236	0.407100	0.410600	0.504200
H2371	H237	0.389500	0.377300	0.452300
C851	C85	0.481000	0.274100	0.667000
H2381	H238	0.481100	0.242400	0.680700
H2391	H239	0.467800	0.296700	0.683300
H2401	H240	0.458300	0.274600	0.627300
W761	W76	0.355070	0.872070	0.800080
W771	W77	0.272360	0.871960	0.853120
W781	W78	0.306570	0.921580	0.661500
W791	W79	0.232370	0.088650	0.646360
W801	W80	0.135150	0.920320	0.771460
W811	W81	0.141050	0.088060	0.704530
W821	W82	0.089570	0.963520	0.643150
W831	W83	0.358590	0.045500	0.723000
W841	W84	0.179550	0.964300	0.585920
W851	W85	0.184490	0.044550	0.832540
W861	W86	0.406730	0.995830	0.863800
W871	W87	0.387700	0.128450	0.840000
W881	W88	0.302100	0.128730	0.891970
W891	W89	0.324360	0.996590	0.915800
W901	W90	0.258640	0.171380	0.761570
Ni361	Ni36	0.078890	0.873900	0.545250
Ni371	Ni37	0.306820	0.795350	0.676850
Ni381	Ni38	0.150230	0.968780	0.444160
Ni391	Ni39	0.237070	0.799160	0.735190
Ni401	Ni40	0.119820	0.838300	0.665540
Ni411	Ni41	0.196690	0.838320	0.616670
Ni421	Ni42	0.153800	0.795110	0.776810
P111	P11	0.221110	0.914480	0.716790
P121	P12	0.277080	0.048730	0.784160
O2611	O261	0.160200	0.901900	0.577100
O2621	O262	0.152800	0.989100	0.796700
O2631	O263	0.330200	0.989900	0.685000
O2641	O264	0.331400	0.068000	0.920500
O2651	O265	0.120300	0.820000	0.596000
O2661	O266	0.236900	0.823800	0.805300
O2671	O267	0.200000	0.863800	0.690500
O2681	O268	0.336800	0.178800	0.796600
O2691	O269	0.375900	0.101800	0.772600
O2701	O270	0.237200	0.229400	0.735600
O2711	O271	0.280700	0.044300	0.731900
O2721	O272	0.348900	0.908800	0.740000
O2731	O273	0.314700	0.011000	0.829300
O2741	O274	0.159600	0.780500	0.709800
O2751	O275	0.297900	0.099400	0.808700
O2761	O276	0.271300	0.178800	0.836700
O2771	O277	0.236800	0.942400	0.678700
O2781	O278	0.274600	0.864100	0.648100
O2791	O279	0.340700	0.857000	0.858800
O2801	O280	0.175400	0.941500	0.720000
O2811	O281	0.131300	0.982800	0.608700
O2821	O282	0.173900	0.086700	0.660300
O2831	O283	0.136200	0.083000	0.771000
O2841	O284	0.196800	0.808400	0.550200
O2851	O285	0.207700	0.909500	0.828800
O2861	O286	0.214700	0.029900	0.615200
O2871	O287	0.145000	0.982900	0.516400
O2881	O288	0.314700	0.823900	0.757000
O2891	O289	0.270700	0.907900	0.775500
O2901	O290	0.391500	0.011100	0.791100
O2911	O291	0.218900	0.044300	0.771100
O2921	O292	0.233000	0.100700	0.861500
O2931	O293	0.193200	0.141200	0.742600
O2941	O294	0.257600	0.141800	0.702200
O2951	O295	0.408400	0.067500	0.871500
O2961	O296	0.311100	0.935200	0.890200
O2971	O297	0.384000	0.934600	0.844200
O2981	O298	0.112600	0.029400	0.681400
O2991	O299	0.077100	0.947600	0.702800
O3001	O300	0.249300	0.948700	0.594200
O3011	O301	0.130100	0.862500	0.739800
O3021	O302	0.414700	0.052000	0.715300
O3031	O303	0.233000	0.780900	0.664300
O3041	O304	0.371100	0.145900	0.897100
O3051	O305	0.395900	0.994900	0.926200
O3061	O306	0.157500	0.050200	0.875400
O3071	O307	0.281000	0.777600	0.594800
O3081	O308	0.072900	0.778000	0.734300
O3091	O309	0.048200	0.808800	0.646200
O3101	O310	0.250300	0.010600	0.881400
O3111	O311	0.086700	0.901700	0.621300
O3121	O312	0.307200	0.084800	0.664300
N461	N46	0.155100	0.811800	0.848500
H2411	H241	0.121800	0.821500	0.840400
H2421	H242	0.178500	0.836200	0.865700
N471	N47	0.493600	0.993800	0.697600
H2431	H243	0.516800	0.998000	0.685200
H2441	H244	0.459500	0.991900	0.668100
N481	N48	0.178600	0.729400	0.816500
H2451	H245	0.209000	0.720300	0.816800
H2461	H246	0.152600	0.707500	0.796800
N491	N49	0.125100	0.038500	0.418000
H2471	H247	0.101500	0.048200	0.428500
H2481	H248	0.108600	0.040500	0.380700
N501	N50	0.034300	0.931200	0.496600
H2491	H249	0.046300	0.939800	0.473600
H2501	H250	0.037800	0.956500	0.518200
N511	N51	0.003900	0.844100	0.520800
H2511	H251	0.004100	0.830000	0.550000
H2521	H252	0.995300	0.821900	0.494200
N521	N52	0.383500	0.813600	0.695600
H2531	H253	0.398800	0.833500	0.725100
H2541	H254	0.382400	0.828600	0.666500
N531	N53	0.341300	0.730400	0.705200
H2551	H255	0.325300	0.709100	0.677100
H2561	H256	0.334600	0.720900	0.732000
N541	N54	0.227100	0.999400	0.485600
H2571	H257	0.247100	0.988600	0.471300
H2581	H258	0.244300	0.991700	0.522000
C861	C86	0.235300	0.785400	0.551300
C871	C87	0.226000	0.762100	0.498900
H2591	H259	0.197400	0.738400	0.487700
H2601	H260	0.212700	0.786400	0.470000
C881	C88	0.189600	0.729900	0.873600
H2611	H261	0.228500	0.727000	0.898800
H2621	H262	0.172500	0.701900	0.879000
C891	C89	0.978800	0.916600	0.465100
H2631	H263	0.955500	0.944700	0.453300
H2641	H264	0.972600	0.899600	0.432000
C901	C90	0.039400	0.787700	0.683200
C911	C91	0.401700	0.728800	0.728400
H2651	H265	0.411600	0.699700	0.716600
H2661	H266	0.420900	0.729400	0.768800
C921	C92	0.415400	0.768700	0.708500
H2671	H267	0.452900	0.776700	0.735600
H2681	H268	0.414700	0.759000	0.674700
C931	C93	0.185000	0.776500	0.949300
H2691	H269	0.221100	0.789700	0.971400
H2701	H270	0.159100	0.798300	0.949300
H2711	H271	0.183300	0.746300	0.964800
C941	C94	0.507000	0.950400	0.732000
H2721	H272	0.547000	0.953000	0.755000
C951	C95	0.499000	0.900100	0.721000
H2731	H273	0.464000	0.891300	0.689200
H2741	H274	0.528700	0.883200	0.721100
C961	C96	0.221000	0.047800	0.479000
H2751	H275	0.230000	0.046000	0.450000
C971	C97	0.265500	0.083100	0.510000
H2761	H276	0.250400	0.114800	0.504400
H2771	H277	0.284500	0.075600	0.549100
H2781	H278	0.290400	0.081800	0.496500
C981	C98	0.172300	0.067200	0.443400
H2791	H279	0.165900	0.092800	0.462900
H2801	H280	0.175500	0.082000	0.413700
C991	C99	0.172300	0.768800	0.887700
H2811	H281	0.135000	0.757000	0.874000
C1001	C100	0.963800	0.884200	0.498900
H2821	H282	0.980000	0.904000	0.533000
C1011	C101	0.915300	0.881500	0.491000
H2831	H283	0.913200	0.854700	0.511700
H2841	H284	0.907100	0.910600	0.504200
H2851	H285	0.889500	0.877300	0.452300
C1021	C102	0.981000	0.774100	0.667000
H2861	H286	0.981100	0.742400	0.680700
H2871	H287	0.967800	0.796700	0.683300
H2881	H288	0.958300	0.774600	0.627300
W911	W91	0.144930	0.372070	0.699920
W921	W92	0.227640	0.371960	0.646880
W931	W93	0.193430	0.421580	0.838500
W941	W94	0.267630	0.588650	0.853640
W951	W95	0.364850	0.420320	0.728540
W961	W96	0.358950	0.588060	0.795470
W971	W97	0.410430	0.463520	0.856850
W981	W98	0.141410	0.545500	0.777000
W991	W99	0.320450	0.464300	0.914080
W1001	W100	0.315510	0.544550	0.667460
W1011	W101	0.093270	0.495830	0.636200
W1021	W102	0.112300	0.628450	0.660000
W1031	W103	0.197900	0.628730	0.608030
W1041	W104	0.175640	0.496590	0.584200
W1051	W105	0.241360	0.671380	0.738430
Ni431	Ni43	0.421110	0.373900	0.954750
Ni441	Ni44	0.193180	0.295350	0.823150
Ni451	Ni45	0.349770	0.468780	0.055840
Ni461	Ni46	0.262930	0.299160	0.764810
Ni471	Ni47	0.380180	0.338300	0.834460
Ni481	Ni48	0.303310	0.338320	0.883330
Ni491	Ni49	0.346200	0.295110	0.723190
P131	P13	0.278890	0.414480	0.783210
P141	P14	0.222920	0.548730	0.715840
O3131	O313	0.339800	0.401900	0.922900
O3141	O314	0.347200	0.489100	0.703300
O3151	O315	0.169800	0.489900	0.815000
O3161	O316	0.168600	0.568000	0.579500
O3171	O317	0.379700	0.320000	0.904000
O3181	O318	0.263100	0.323800	0.694700
O3191	O319	0.300000	0.363800	0.809500
O3201	O320	0.163200	0.678800	0.703400
O3211	O321	0.124100	0.601800	0.727400
O3221	O322	0.262800	0.729400	0.764400
O3231	O323	0.219300	0.544300	0.768100
O3241	O324	0.151100	0.408800	0.760000
O3251	O325	0.185300	0.511000	0.670700
O3261	O326	0.340400	0.280500	0.790200
O3271	O327	0.202100	0.599400	0.691300
O3281	O328	0.228700	0.678800	0.663300
O3291	O329	0.263200	0.442400	0.821300
O3301	O330	0.225400	0.364100	0.851900
O3311	O331	0.159300	0.357000	0.641200
O3321	O332	0.324600	0.441500	0.780000
O3331	O333	0.368700	0.482800	0.891300
O3341	O334	0.326100	0.586700	0.839700
O3351	O335	0.363800	0.583000	0.729000
O3361	O336	0.303200	0.308400	0.949800
O3371	O337	0.292300	0.409500	0.671200
O3381	O338	0.285300	0.529900	0.884800
O3391	O339	0.355000	0.482900	0.983600
O3401	O340	0.185300	0.323900	0.743000
O3411	O341	0.229300	0.407900	0.724500
O3421	O342	0.108500	0.511100	0.708900
O3431	O343	0.281100	0.544300	0.728900
O3441	O344	0.267000	0.600700	0.638500
O3451	O345	0.306800	0.641200	0.757400
O3461	O346	0.242400	0.641800	0.797800
O3471	O347	0.091600	0.567500	0.628500
O3481	O348	0.188900	0.435200	0.609800
O3491	O349	0.116000	0.434600	0.655800
O3501	O350	0.387400	0.529400	0.818600
O3511	O351	0.422900	0.447600	0.797200
O3521	O352	0.250700	0.448700	0.905800
O3531	O353	0.369900	0.362500	0.760200
O3541	O354	0.085300	0.552000	0.784700
O3551	O355	0.267000	0.280900	0.835700
O3561	O356	0.128900	0.645900	0.602900
O3571	O357	0.104100	0.494900	0.573800
O3581	O358	0.342500	0.550200	0.624600
O3591	O359	0.219000	0.277600	0.905200
O3601	O360	0.427100	0.278000	0.765700
O3611	O361	0.451800	0.308800	0.853800
O3621	O362	0.249700	0.510600	0.618600
O3631	O363	0.413300	0.401700	0.878700
O3641	O364	0.192800	0.584800	0.835700
N551	N55	0.344900	0.311800	0.651500
H2891	H289	0.378200	0.321500	0.659600
H2901	H290	0.321500	0.336200	0.634300
N561	N56	0.006400	0.493800	0.802400
H2911	H291	0.983200	0.498000	0.814800
H2921	H292	0.040500	0.491900	0.831900
N571	N57	0.321400	0.229400	0.683500
H2931	H293	0.291000	0.220300	0.683200
H2941	H294	0.347400	0.207500	0.703200
N581	N58	0.374900	0.538500	0.082000
H2951	H295	0.398500	0.548200	0.071500
H2961	H296	0.391400	0.540500	0.119300
N591	N59	0.465700	0.431200	0.003400
H2971	H297	0.453700	0.439800	0.026400
H2981	H298	0.462200	0.456500	0.981800
N601	N60	0.496100	0.344100	0.979200
H2991	H299	0.495900	0.330000	0.950000
H3001	H300	0.504700	0.321900	0.005800
N611	N61	0.116500	0.313600	0.804400
H3011	H301	0.101200	0.333500	0.774900
H3021	H302	0.117600	0.328600	0.833500
N621	N62	0.158700	0.230400	0.794800
H3031	H303	0.174700	0.209100	0.822900
H3041	H304	0.165400	0.220900	0.768000
N631	N63	0.272900	0.499400	0.014400
H3051	H305	0.252900	0.488600	0.028700
H3061	H306	0.255700	0.491700	0.978000
C1031	C103	0.264700	0.285400	0.948700
C1041	C104	0.274000	0.262100	0.001100
H3071	H307	0.302600	0.238400	0.012300
H3081	H308	0.287300	0.286400	0.030000
C1051	C105	0.310400	0.229900	0.626400
H3091	H309	0.271500	0.227000	0.601200
H3101	H310	0.327500	0.201900	0.621000
C1061	C106	0.521200	0.416600	0.034900
H3111	H311	0.544500	0.444700	0.046700
H3121	H312	0.527400	0.399600	0.068000
C1071	C107	0.460600	0.287700	0.816800
C1081	C108	0.098300	0.228800	0.771600
H3131	H313	0.088400	0.199700	0.783400
H3141	H314	0.079100	0.229400	0.731200
C1091	C109	0.084600	0.268700	0.791500
H3151	H315	0.047100	0.276700	0.764400
H3161	H316	0.085300	0.259000	0.825300
C1101	C110	0.315000	0.276500	0.550700
H3171	H317	0.278900	0.289700	0.528600
H3181	H318	0.340900	0.298300	0.550700
H3191	H319	0.316700	0.246300	0.535200
C1111	C111	0.993000	0.450400	0.768000
H3201	H320	0.953000	0.453000	0.745000
C1121	C112	0.001000	0.400100	0.779000
H3211	H321	0.036000	0.391300	0.810800
H3221	H322	0.971300	0.383200	0.778900
C1131	C113	0.279000	0.547800	0.021000
H3231	H323	0.270000	0.546000	0.050000
C1141	C114	0.234500	0.583100	0.990000
H3241	H324	0.249600	0.614800	0.995600
H3251	H325	0.215500	0.575600	0.950900
H3261	H326	0.209600	0.581800	0.003500
C1151	C115	0.327700	0.567200	0.056600
H3271	H327	0.334100	0.592800	0.037100
H3281	H328	0.324500	0.582000	0.086300
C1161	C116	0.327700	0.268800	0.612300
H3291	H329	0.365000	0.257000	0.626000
C1171	C117	0.536200	0.384200	0.001100
H3301	H330	0.520000	0.404000	0.967000
C1181	C118	0.584700	0.381500	0.009000
H3311	H331	0.586800	0.354700	0.988300
H3321	H332	0.592900	0.410600	0.995800
H3331	H333	0.610500	0.377300	0.047700
C1191	C119	0.519000	0.274100	0.833000
H3341	H334	0.518900	0.242400	0.819300
H3351	H335	0.532200	0.296700	0.816700
H3361	H336	0.541700	0.274600	0.872700
W1061	W106	0.644930	0.872070	0.699920
W1071	W107	0.727640	0.871960	0.646880
W1081	W108	0.693430	0.921580	0.838500
W1091	W109	0.767630	0.088650	0.853640
W1101	W110	0.864850	0.920320	0.728540
W1111	W111	0.858950	0.088060	0.795470
W1121	W112	0.910430	0.963520	0.856850
W1131	W113	0.641410	0.045500	0.777000
W1141	W114	0.820450	0.964300	0.914080
W1151	W115	0.815510	0.044550	0.667460
W1161	W116	0.593270	0.995830	0.636200
W1171	W117	0.612300	0.128450	0.660000
W1181	W118	0.697900	0.128730	0.608030
W1191	W119	0.675640	0.996590	0.584200
W1201	W120	0.741360	0.171380	0.738430
Ni501	Ni50	0.921110	0.873900	0.954750
Ni511	Ni51	0.693180	0.795350	0.823150
Ni521	Ni52	0.849770	0.968780	0.055840
Ni531	Ni53	0.762930	0.799160	0.764810
Ni541	Ni54	0.880180	0.838300	0.834460
Ni551	Ni55	0.803310	0.838320	0.883330
Ni561	Ni56	0.846200	0.795110	0.723190
P151	P15	0.778890	0.914480	0.783210
P161	P16	0.722920	0.048730	0.715840
O3651	O365	0.839800	0.901900	0.922900
O3661	O366	0.847200	0.989100	0.703300
O3671	O367	0.669800	0.989900	0.815000
O3681	O368	0.668600	0.068000	0.579500
O3691	O369	0.879700	0.820000	0.904000
O3701	O370	0.763100	0.823800	0.694700
O3711	O371	0.800000	0.863800	0.809500
O3721	O372	0.663200	0.178800	0.703400
O3731	O373	0.624100	0.101800	0.727400
O3741	O374	0.762800	0.229400	0.764400
O3751	O375	0.719300	0.044300	0.768100
O3761	O376	0.651100	0.908800	0.760000
O3771	O377	0.685300	0.011000	0.670700
O3781	O378	0.840400	0.780500	0.790200
O3791	O379	0.702100	0.099400	0.691300
O3801	O380	0.728700	0.178800	0.663300
O3811	O381	0.763200	0.942400	0.821300
O3821	O382	0.725400	0.864100	0.851900
O3831	O383	0.659300	0.857000	0.641200
O3841	O384	0.824600	0.941500	0.780000
O3851	O385	0.868700	0.982800	0.891300
O3861	O386	0.826100	0.086700	0.839700
O3871	O387	0.863800	0.083000	0.729000
O3881	O388	0.803200	0.808400	0.949800
O3891	O389	0.792300	0.909500	0.671200
O3901	O390	0.785300	0.029900	0.884800
O3911	O391	0.855000	0.982900	0.983600
O3921	O392	0.685300	0.823900	0.743000
O3931	O393	0.729300	0.907900	0.724500
O3941	O394	0.608500	0.011100	0.708900
O3951	O395	0.781100	0.044300	0.728900
O3961	O396	0.767000	0.100700	0.638500
O3971	O397	0.806800	0.141200	0.757400
O3981	O398	0.742400	0.141800	0.797800
O3991	O399	0.591600	0.067500	0.628500
O4001	O400	0.688900	0.935200	0.609800
O4011	O401	0.616000	0.934600	0.655800
O4021	O402	0.887400	0.029400	0.818600
O4031	O403	0.922900	0.947600	0.797200
O4041	O404	0.750700	0.948700	0.905800
O4051	O405	0.869900	0.862500	0.760200
O4061	O406	0.585300	0.052000	0.784700
O4071	O407	0.767000	0.780900	0.835700
O4081	O408	0.628900	0.145900	0.602900
O4091	O409	0.604100	0.994900	0.573800
O4101	O410	0.842500	0.050200	0.624600
O4111	O411	0.719000	0.777600	0.905200
O4121	O412	0.927100	0.778000	0.765700
O4131	O413	0.951800	0.808800	0.853800
O4141	O414	0.749700	0.010600	0.618600
O4151	O415	0.913300	0.901700	0.878700
O4161	O416	0.692800	0.084800	0.835700
N641	N64	0.844900	0.811800	0.651500
H3371	H337	0.878200	0.821500	0.659600
H3381	H338	0.821500	0.836200	0.634300
N651	N65	0.506400	0.993800	0.802400
H3391	H339	0.483200	0.998000	0.814800
H3401	H340	0.540500	0.991900	0.831900
N661	N66	0.821400	0.729400	0.683500
H3411	H341	0.791000	0.720300	0.683200
H3421	H342	0.847400	0.707500	0.703200
N671	N67	0.874900	0.038500	0.082000
H3431	H343	0.898500	0.048200	0.071500
H3441	H344	0.891400	0.040500	0.119300
N681	N68	0.965700	0.931200	0.003400
H3451	H345	0.953700	0.939800	0.026400
H3461	H346	0.962200	0.956500	0.981800
N691	N69	0.996100	0.844100	0.979200
H3471	H347	0.995900	0.830000	0.950000
H3481	H348	0.004700	0.821900	0.005800
N701	N70	0.616500	0.813600	0.804400
H3491	H349	0.601200	0.833500	0.774900
H3501	H350	0.617600	0.828600	0.833500
N711	N71	0.658700	0.730400	0.794800
H3511	H351	0.674700	0.709100	0.822900
H3521	H352	0.665400	0.720900	0.768000
N721	N72	0.772900	0.999400	0.014400
H3531	H353	0.752900	0.988600	0.028700
H3541	H354	0.755700	0.991700	0.978000
C1201	C120	0.764700	0.785400	0.948700
C1211	C121	0.774000	0.762100	0.001100
H3551	H355	0.802600	0.738400	0.012300
H3561	H356	0.787300	0.786400	0.030000
C1221	C122	0.810400	0.729900	0.626400
H3571	H357	0.771500	0.727000	0.601200
H3581	H358	0.827500	0.701900	0.621000
C1231	C123	0.021200	0.916600	0.034900
H3591	H359	0.044500	0.944700	0.046700
H3601	H360	0.027400	0.899600	0.068000
C1241	C124	0.960600	0.787700	0.816800
C1251	C125	0.598300	0.728800	0.771600
H3611	H361	0.588400	0.699700	0.783400
H3621	H362	0.579100	0.729400	0.731200
C1261	C126	0.584600	0.768700	0.791500
H3631	H363	0.547100	0.776700	0.764400
H3641	H364	0.585300	0.759000	0.825300
C1271	C127	0.815000	0.776500	0.550700
H3651	H365	0.778900	0.789700	0.528600
H3661	H366	0.840900	0.798300	0.550700
H3671	H367	0.816700	0.746300	0.535200
C1281	C128	0.493000	0.950400	0.768000
H3681	H368	0.453000	0.953000	0.745000
C1291	C129	0.501000	0.900100	0.779000
H3691	H369	0.536000	0.891300	0.810800
H3701	H370	0.471300	0.883200	0.778900
C1301	C130	0.779000	0.047800	0.021000
H3711	H371	0.770000	0.046000	0.050000
C1311	C131	0.734500	0.083100	0.990000
H3721	H372	0.749600	0.114800	0.995600
H3731	H373	0.715500	0.075600	0.950900
H3741	H374	0.709600	0.081800	0.003500
C1321	C132	0.827700	0.067200	0.056600
H3751	H375	0.834100	0.092800	0.037100
H3761	H376	0.824500	0.082000	0.086300
C1331	C133	0.827700	0.768800	0.612300
H3771	H377	0.865000	0.757000	0.626000
C1341	C134	0.036200	0.884200	0.001100
H3781	H378	0.020000	0.904000	0.967000
C1351	C135	0.084700	0.881500	0.009000
H3791	H379	0.086800	0.854700	0.988300
H3801	H380	0.092900	0.910600	0.995800
H3811	H381	0.110500	0.877300	0.047700
C1361	C136	0.019000	0.774100	0.833000
H3821	H382	0.018900	0.742400	0.819300
H3831	H383	0.032200	0.796700	0.816700
H3841	H384	0.041700	0.774600	0.872700
Ni571	Ni57	0.000000	0.449800	0.250000
Ni581	Ni58	0.500000	0.949800	0.250000
Ni591	Ni59	0.000000	0.550200	0.750000
Ni601	Ni60	0.500000	0.050200	0.750000
