data_DOWQIP_clean_PM
_symmetry_space_group_name_H-M	'P1'
_cell_length_a	15.934600
_cell_length_b	7.403900
_cell_length_c	16.209200
_cell_angle_alpha	90.000000
_cell_angle_beta	111.885000
_cell_angle_gamma	90.000000
_symmetry_Int_Tables_number 1

loop_
_symmetry_equiv_pos_as_xyz
'x,y,z'

loop_
_atom_site_label
_atom_site_type_symbol
_atom_site_fract_x
_atom_site_fract_y
_atom_site_fract_z
P11	P1	0.137000	0.276600	0.690000
P21	P2	0.416600	0.318700	0.666300
P31	P3	0.433900	0.249200	0.389300
P41	P4	0.218900	0.832300	0.468300
O11	O1	0.410600	0.436600	0.412300
O21	O2	0.281100	0.728100	0.432900
O31	O3	0.357100	0.465900	0.601100
O41	O4	0.463700	0.777800	0.560000
O51	O5	0.356800	0.215200	0.703600
O61	O6	0.156000	0.096400	0.653700
O71	O7	0.191800	0.282000	0.791900
O81	O8	0.277800	0.981000	0.533700
O91	O9	0.165000	0.438500	0.648900
O101	O10	0.180500	0.710200	0.522300
O111	O11	0.459200	0.199800	0.616300
O121	O12	0.383400	0.099500	0.414400
O131	O13	0.411000	0.236400	0.289500
O141	O14	0.036300	0.295200	0.671800
O151	O15	0.491300	0.410200	0.742200
O161	O16	0.143600	0.926400	0.394200
Zn11	Zn1	0.382390	0.569500	0.499100
Zn21	Zn2	0.271520	0.023300	0.653190
Zn31	Zn3	0.244940	0.074100	0.872770
Zn41	Zn4	0.401920	0.014000	0.531710
Zn51	Zn5	0.959240	0.147400	0.711480
P51	P5	0.363000	0.776600	0.810000
P61	P6	0.083400	0.818700	0.833700
P71	P7	0.066100	0.749200	0.110700
P81	P8	0.281100	0.332300	0.031700
O171	O17	0.089400	0.936600	0.087700
O181	O18	0.218900	0.228100	0.067100
O191	O19	0.142900	0.965900	0.898900
O201	O20	0.036300	0.277800	0.940000
O211	O21	0.143200	0.715200	0.796400
O221	O22	0.344000	0.596400	0.846300
O231	O23	0.308200	0.782000	0.708100
O241	O24	0.222200	0.481000	0.966300
O251	O25	0.335000	0.938500	0.851100
O261	O26	0.319500	0.210200	0.977700
O271	O27	0.040800	0.699800	0.883700
O281	O28	0.116600	0.599500	0.085600
O291	O29	0.089000	0.736400	0.210500
O301	O30	0.463700	0.795200	0.828200
O311	O31	0.008700	0.910200	0.757800
O321	O32	0.356400	0.426400	0.105800
Zn61	Zn6	0.117610	0.069500	0.000900
Zn71	Zn7	0.228480	0.523300	0.846810
Zn81	Zn8	0.255060	0.574100	0.627230
Zn91	Zn9	0.098080	0.514000	0.968290
Zn101	Zn10	0.540760	0.647400	0.788520
P91	P9	0.863000	0.723400	0.310000
P101	P10	0.583400	0.681300	0.333700
P111	P11	0.566100	0.750800	0.610700
P121	P12	0.781100	0.167700	0.531700
O331	O33	0.589400	0.563400	0.587700
O341	O34	0.718900	0.271900	0.567100
O351	O35	0.642900	0.534100	0.398900
O361	O36	0.536300	0.222200	0.440000
O371	O37	0.643200	0.784800	0.296400
O381	O38	0.844000	0.903600	0.346300
O391	O39	0.808200	0.718000	0.208100
O401	O40	0.722200	0.019000	0.466300
O411	O41	0.835000	0.561500	0.351100
O421	O42	0.819500	0.289800	0.477700
O431	O43	0.540800	0.800200	0.383700
O441	O44	0.616600	0.900500	0.585600
O451	O45	0.589000	0.763600	0.710500
O461	O46	0.963700	0.704800	0.328200
O471	O47	0.508700	0.589800	0.257800
O481	O48	0.856400	0.073600	0.605800
Zn111	Zn11	0.617610	0.430500	0.500900
Zn121	Zn12	0.728480	0.976700	0.346810
Zn131	Zn13	0.755060	0.925900	0.127230
Zn141	Zn14	0.598080	0.986000	0.468290
Zn151	Zn15	0.040760	0.852600	0.288520
P131	P13	0.637000	0.223400	0.190000
P141	P14	0.916600	0.181300	0.166300
P151	P15	0.933900	0.250800	0.889300
P161	P16	0.718900	0.667700	0.968300
O491	O49	0.910600	0.063400	0.912300
O501	O50	0.781100	0.771900	0.932900
O511	O51	0.857100	0.034100	0.101100
O521	O52	0.963700	0.722200	0.060000
O531	O53	0.856800	0.284800	0.203600
O541	O54	0.656000	0.403600	0.153700
O551	O55	0.691800	0.218000	0.291900
O561	O56	0.777800	0.519000	0.033700
O571	O57	0.665000	0.061500	0.148900
O581	O58	0.680500	0.789800	0.022300
O591	O59	0.959200	0.300200	0.116300
O601	O60	0.883400	0.400500	0.914400
O611	O61	0.911000	0.263600	0.789500
O621	O62	0.536300	0.204800	0.171800
O631	O63	0.991300	0.089800	0.242200
O641	O64	0.643600	0.573600	0.894200
Zn161	Zn16	0.882390	0.930500	0.999100
Zn171	Zn17	0.771520	0.476700	0.153190
Zn181	Zn18	0.744940	0.425900	0.372770
Zn191	Zn19	0.901920	0.486000	0.031710
Zn201	Zn20	0.459240	0.352600	0.211480
