data_DUBWON_clean_PM
_symmetry_space_group_name_H-M	'P1'
_cell_length_a	9.119000
_cell_length_b	14.471100
_cell_length_c	14.735500
_cell_angle_alpha	90.000000
_cell_angle_beta	90.000000
_cell_angle_gamma	107.752000
_symmetry_Int_Tables_number 1

loop_
_symmetry_equiv_pos_as_xyz
'x,y,z'

loop_
_atom_site_label
_atom_site_type_symbol
_atom_site_fract_x
_atom_site_fract_y
_atom_site_fract_z
Zn11	Zn1	0.277240	0.364370	0.349060
Zn21	Zn2	0.183110	0.134190	0.252610
Zn31	Zn3	0.222760	0.135630	0.849060
Zn41	Zn4	0.316890	0.365810	0.752610
Zn51	Zn5	0.722760	0.635630	0.650940
Zn61	Zn6	0.816890	0.865810	0.747390
Zn71	Zn7	0.777240	0.864370	0.150940
Zn81	Zn8	0.683110	0.634190	0.247390
H11	H1	0.858100	0.394500	0.298000
H21	H2	0.701300	0.102400	0.277900
H31	H3	0.450500	0.106700	0.286100
H41	H4	0.261100	0.410700	0.553300
H51	H5	0.641900	0.105500	0.798000
H61	H6	0.798700	0.397600	0.777900
H71	H7	0.049500	0.393300	0.786100
H81	H8	0.238900	0.089300	0.053300
H91	H9	0.141900	0.605500	0.702000
H101	H10	0.298700	0.897600	0.722100
H111	H11	0.549500	0.893300	0.713900
H121	H12	0.738900	0.589300	0.446700
H131	H13	0.358100	0.894500	0.202000
H141	H14	0.201300	0.602400	0.222100
H151	H15	0.950500	0.606700	0.213900
H161	H16	0.761100	0.910700	0.946700
C11	C1	0.497800	0.254600	0.295400
C21	C2	0.624300	0.341600	0.298500
C31	C3	0.774600	0.336100	0.295200
C41	C4	0.806000	0.248400	0.287900
C51	C5	0.682200	0.163000	0.283700
C61	C6	0.532500	0.165800	0.288000
C71	C7	0.606300	0.441300	0.301200
C81	C8	0.967500	0.244900	0.284400
C91	C9	0.278200	0.349300	0.549900
C101	C10	0.002200	0.245400	0.795400
C111	C11	0.875700	0.158400	0.798500
C121	C12	0.725400	0.163900	0.795200
C131	C13	0.694000	0.251600	0.787900
C141	C14	0.817800	0.337000	0.783700
C151	C15	0.967500	0.334200	0.788000
C161	C16	0.893700	0.058700	0.801200
C171	C17	0.532500	0.255100	0.784400
C181	C18	0.221800	0.150700	0.049900
C191	C19	0.502200	0.745400	0.704600
C201	C20	0.375700	0.658400	0.701500
C211	C21	0.225400	0.663900	0.704800
C221	C22	0.194000	0.751600	0.712100
C231	C23	0.317800	0.837000	0.716300
C241	C24	0.467500	0.834200	0.712000
C251	C25	0.393700	0.558700	0.698800
C261	C26	0.032500	0.755100	0.715600
C271	C27	0.721800	0.650700	0.450100
C281	C28	0.997800	0.754600	0.204600
C291	C29	0.124300	0.841600	0.201500
C301	C30	0.274600	0.836100	0.204800
C311	C31	0.306000	0.748400	0.212100
C321	C32	0.182200	0.663000	0.216300
C331	C33	0.032500	0.665800	0.212000
C341	C34	0.106300	0.941300	0.198800
C351	C35	0.467500	0.744900	0.215600
C361	C36	0.778200	0.849300	0.950100
O11	O1	0.351800	0.252640	0.296760
O21	O2	0.476100	0.454650	0.309580
O31	O3	0.726200	0.512260	0.293500
O41	O4	0.074300	0.324370	0.290900
O51	O5	0.987500	0.162450	0.276000
O61	O6	0.280400	0.312600	0.473000
O71	O7	0.297100	0.309600	0.622000
O81	O8	0.148200	0.247360	0.796760
O91	O9	0.023900	0.045350	0.809580
O101	O10	0.773800	0.987740	0.793500
O111	O11	0.425700	0.175630	0.790900
O121	O12	0.512500	0.337550	0.776000
O131	O13	0.219600	0.187400	0.973000
O141	O14	0.202900	0.190400	0.122000
O151	O15	0.648200	0.747360	0.703240
O161	O16	0.523900	0.545350	0.690420
O171	O17	0.273800	0.487740	0.706500
O181	O18	0.925700	0.675630	0.709100
O191	O19	0.012500	0.837550	0.724000
O201	O20	0.719600	0.687400	0.527000
O211	O21	0.702900	0.690400	0.378000
O221	O22	0.851800	0.752640	0.203240
O231	O23	0.976100	0.954650	0.190420
O241	O24	0.226200	0.012260	0.206500
O251	O25	0.574300	0.824370	0.209100
O261	O26	0.487500	0.662450	0.224000
O271	O27	0.780400	0.812600	0.027000
O281	O28	0.797100	0.809600	0.878000
