data_DUCHEP_clean_PM
_symmetry_space_group_name_H-M	'P1'
_cell_length_a	8.180000
_cell_length_b	8.890000
_cell_length_c	29.900000
_cell_angle_alpha	90.000000
_cell_angle_beta	90.000000
_cell_angle_gamma	104.060000
_symmetry_Int_Tables_number 1

loop_
_symmetry_equiv_pos_as_xyz
'x,y,z'

loop_
_atom_site_label
_atom_site_type_symbol
_atom_site_fract_x
_atom_site_fract_y
_atom_site_fract_z
Zn11	Zn1	0.940020	0.498960	0.909550
Zn21	Zn2	0.559980	0.501040	0.409550
Zn31	Zn3	0.059980	0.501040	0.090450
Zn41	Zn4	0.440020	0.498960	0.590450
Mo11	Mo1	0.756360	0.062360	0.922030
Mo21	Mo2	0.954600	0.086810	0.043920
Mo31	Mo3	0.551190	0.824870	0.997550
Mo41	Mo4	0.743640	0.937640	0.422030
Mo51	Mo5	0.545400	0.913190	0.543920
Mo61	Mo6	0.948810	0.175130	0.497550
Mo71	Mo7	0.243640	0.937640	0.077970
Mo81	Mo8	0.045400	0.913190	0.956080
Mo91	Mo9	0.448810	0.175130	0.002450
Mo101	Mo10	0.256360	0.062360	0.577970
Mo111	Mo11	0.454600	0.086810	0.456080
Mo121	Mo12	0.051190	0.824870	0.502450
H11	H1	0.872500	0.425500	0.801400
H21	H2	0.785000	0.660000	0.646000
H31	H3	0.747200	0.747100	0.870600
H41	H4	0.507700	0.728500	0.774800
H51	H5	0.577200	0.851700	0.812000
H61	H6	0.841200	0.062100	0.794000
H71	H7	0.972000	0.233400	0.739700
H81	H8	0.724200	0.950500	0.645400
H91	H9	0.594500	0.779300	0.699500
H101	H10	0.052000	0.275000	0.658700
H111	H11	0.940200	0.169300	0.622600
H121	H12	0.633900	0.236600	0.611700
H131	H13	0.627500	0.574500	0.301400
H141	H14	0.715000	0.340000	0.146000
H151	H15	0.752800	0.252900	0.370600
H161	H16	0.992300	0.271500	0.274800
H171	H17	0.922800	0.148300	0.312000
H181	H18	0.658800	0.937900	0.294000
H191	H19	0.528000	0.766600	0.239700
H201	H20	0.775800	0.049500	0.145400
H211	H21	0.905500	0.220700	0.199500
H221	H22	0.448000	0.725000	0.158700
H231	H23	0.559800	0.830700	0.122600
H241	H24	0.866100	0.763400	0.111700
H251	H25	0.127500	0.574500	0.198600
H261	H26	0.215000	0.340000	0.354000
H271	H27	0.252800	0.252900	0.129400
H281	H28	0.492300	0.271500	0.225200
H291	H29	0.422800	0.148300	0.188000
H301	H30	0.158800	0.937900	0.206000
H311	H31	0.028000	0.766600	0.260300
H321	H32	0.275800	0.049500	0.354600
H331	H33	0.405500	0.220700	0.300500
H341	H34	0.948000	0.725000	0.341300
H351	H35	0.059800	0.830700	0.377400
H361	H36	0.366100	0.763400	0.388300
H371	H37	0.372500	0.425500	0.698600
H381	H38	0.285000	0.660000	0.854000
H391	H39	0.247200	0.747100	0.629400
H401	H40	0.007700	0.728500	0.725200
H411	H41	0.077200	0.851700	0.688000
H421	H42	0.341200	0.062100	0.706000
H431	H43	0.472000	0.233400	0.760300
H441	H44	0.224200	0.950500	0.854600
H451	H45	0.094500	0.779300	0.800500
H461	H46	0.552000	0.275000	0.841300
H471	H47	0.440200	0.169300	0.877400
H481	H48	0.133900	0.236600	0.888300
C11	C1	0.829400	0.509600	0.809200
C21	C2	0.778100	0.554700	0.642400
C31	C3	0.763300	0.682800	0.847300
C41	C4	0.609700	0.792500	0.787800
C51	C5	0.702500	0.902600	0.752800
C61	C6	0.816700	0.039100	0.764100
C71	C7	0.895100	0.142400	0.731400
C81	C8	0.859900	0.111200	0.686300
C91	C9	0.748000	0.974300	0.675400
C101	C10	0.669900	0.871100	0.707900
C111	C11	0.937000	0.224500	0.650500
C121	C12	0.695900	0.328100	0.624500
C131	C13	0.670600	0.490400	0.309200
C141	C14	0.721900	0.445300	0.142400
C151	C15	0.736700	0.317200	0.347300
C161	C16	0.890300	0.207500	0.287800
C171	C17	0.797500	0.097400	0.252800
C181	C18	0.683300	0.960900	0.264100
C191	C19	0.604900	0.857600	0.231400
C201	C20	0.640100	0.888800	0.186300
C211	C21	0.752000	0.025700	0.175400
C221	C22	0.830100	0.128900	0.207900
C231	C23	0.563000	0.775500	0.150500
C241	C24	0.804100	0.671900	0.124500
C251	C25	0.170600	0.490400	0.190800
C261	C26	0.221900	0.445300	0.357600
C271	C27	0.236700	0.317200	0.152700
C281	C28	0.390300	0.207500	0.212200
C291	C29	0.297500	0.097400	0.247200
C301	C30	0.183300	0.960900	0.235900
C311	C31	0.104900	0.857600	0.268600
C321	C32	0.140100	0.888800	0.313700
C331	C33	0.252000	0.025700	0.324600
C341	C34	0.330100	0.128900	0.292100
C351	C35	0.063000	0.775500	0.349500
C361	C36	0.304100	0.671900	0.375500
C371	C37	0.329400	0.509600	0.690800
C381	C38	0.278100	0.554700	0.857600
C391	C39	0.263300	0.682800	0.652700
C401	C40	0.109700	0.792500	0.712200
C411	C41	0.202500	0.902600	0.747200
C421	C42	0.316700	0.039100	0.735900
C431	C43	0.395100	0.142400	0.768600
C441	C44	0.359900	0.111200	0.813700
C451	C45	0.248000	0.974300	0.824600
C461	C46	0.169900	0.871100	0.792100
C471	C47	0.437000	0.224500	0.849500
C481	C48	0.195900	0.328100	0.875500
N11	N1	0.840300	0.568900	0.851130
N21	N2	0.712300	0.692400	0.805740
N31	N3	0.648000	0.458200	0.625000
N41	N4	0.840100	0.342200	0.644020
N51	N5	0.752700	0.581000	0.780410
N61	N6	0.899400	0.488100	0.654400
N71	N7	0.659700	0.431100	0.351130
N81	N8	0.787700	0.307600	0.305740
N91	N9	0.852000	0.541800	0.125000
N101	N10	0.659900	0.657800	0.144020
N111	N11	0.747300	0.419000	0.280410
N121	N12	0.600600	0.511900	0.154400
N131	N13	0.159700	0.431100	0.148870
N141	N14	0.287700	0.307600	0.194260
N151	N15	0.352000	0.541800	0.375000
N161	N16	0.159900	0.657800	0.355980
N171	N17	0.247300	0.419000	0.219590
N181	N18	0.100600	0.511900	0.345600
N191	N19	0.340300	0.568900	0.648870
N201	N20	0.212300	0.692400	0.694260
N211	N21	0.148000	0.458200	0.875000
N221	N22	0.340100	0.342200	0.855980
N231	N23	0.252700	0.581000	0.719590
N241	N24	0.399400	0.488100	0.845600
O11	O1	0.966000	0.120400	0.982690
O21	O2	0.746300	0.989400	0.049710
O31	O3	0.746400	0.849800	0.961440
O41	O4	0.810400	0.258200	0.908870
O51	O5	0.595700	0.060600	0.969900
O61	O6	0.965500	0.267200	0.066860
O71	O7	0.952600	0.002500	0.904650
O81	O8	0.534000	0.879600	0.482690
O91	O9	0.753700	0.010600	0.549710
O101	O10	0.753600	0.150200	0.461440
O111	O11	0.689600	0.741800	0.408870
O121	O12	0.904300	0.939400	0.469900
O131	O13	0.534500	0.732800	0.566860
O141	O14	0.547400	0.997500	0.404650
O151	O15	0.034000	0.879600	0.017310
O161	O16	0.253700	0.010600	0.950290
O171	O17	0.253600	0.150200	0.038560
O181	O18	0.189600	0.741800	0.091130
O191	O19	0.404300	0.939400	0.030100
O201	O20	0.034500	0.732800	0.933140
O211	O21	0.047400	0.997500	0.095350
O221	O22	0.466000	0.120400	0.517310
O231	O23	0.246300	0.989400	0.450290
O241	O24	0.246400	0.849800	0.538560
O251	O25	0.310400	0.258200	0.591130
O261	O26	0.095700	0.060600	0.530100
O271	O27	0.465500	0.267200	0.433140
O281	O28	0.452600	0.002500	0.595350
