data_DUDKUK_clean_PM
_symmetry_space_group_name_H-M	'P1'
_cell_length_a	14.422500
_cell_length_b	14.260100
_cell_length_c	22.510600
_cell_angle_alpha	90.000000
_cell_angle_beta	100.154000
_cell_angle_gamma	90.000000
_symmetry_Int_Tables_number 1

loop_
_symmetry_equiv_pos_as_xyz
'x,y,z'

loop_
_atom_site_label
_atom_site_type_symbol
_atom_site_fract_x
_atom_site_fract_y
_atom_site_fract_z
Cd11	Cd1	0.256050	0.751130	0.240170
Cd21	Cd2	0.184550	0.624090	0.360430
O11	O1	0.097600	0.603300	0.268000
O21	O2	0.315500	0.652500	0.316900
O31	O3	0.616900	0.360600	0.248700
O41	O4	0.847600	0.357900	0.237900
O51	O5	0.693900	0.321400	0.339100
O61	O6	0.375500	0.618200	0.236300
O71	O7	0.821500	0.283200	0.150500
N11	N1	0.523500	0.471000	0.488000
N21	N2	0.972100	0.473500	0.009700
C11	C1	0.629700	0.366000	0.305500
C21	C2	0.032200	0.542600	0.172700
C31	C3	0.439400	0.539800	0.327500
C41	C4	0.512000	0.479500	0.423600
C51	C5	0.499100	0.484100	0.299700
H11	H1	0.494200	0.485400	0.258000
C61	C6	0.572300	0.425100	0.396700
H21	H2	0.617100	0.387300	0.420200
C71	C7	0.444900	0.536700	0.389500
H31	H3	0.404200	0.572400	0.408100
C81	C8	0.975700	0.479500	0.073500
C91	C9	0.919300	0.417000	0.097500
H41	H4	0.881800	0.374800	0.072500
C101	C10	0.565500	0.427300	0.333900
C111	C11	0.974800	0.480000	0.196600
H51	H5	0.974000	0.480200	0.237800
C121	C12	0.032200	0.542800	0.111100
H61	H6	0.070000	0.585100	0.094800
C131	C13	0.097600	0.608700	0.212700
C141	C14	0.918600	0.417200	0.159300
C151	C15	0.372700	0.605300	0.289800
C161	C16	0.858200	0.346800	0.184200
O81	O8	0.146200	0.662300	0.187600
Cd31	Cd3	0.743950	0.251130	0.259830
Cd41	Cd4	0.815450	0.124090	0.139570
O91	O9	0.902400	0.103300	0.232000
O101	O10	0.684500	0.152500	0.183100
O111	O11	0.383100	0.860600	0.251300
O121	O12	0.152400	0.857900	0.262100
O131	O13	0.306100	0.821400	0.160900
O141	O14	0.624500	0.118200	0.263700
O151	O15	0.178500	0.783200	0.349500
N31	N3	0.476500	0.971000	0.012000
N41	N4	0.027900	0.973500	0.490300
C171	C17	0.370300	0.866000	0.194500
C181	C18	0.967800	0.042600	0.327300
C191	C19	0.560600	0.039800	0.172500
C201	C20	0.488000	0.979500	0.076400
C211	C21	0.500900	0.984100	0.200300
H71	H7	0.505800	0.985400	0.242000
C221	C22	0.427700	0.925100	0.103300
H81	H8	0.382900	0.887300	0.079800
C231	C23	0.555100	0.036700	0.110500
H91	H9	0.595800	0.072400	0.091900
C241	C24	0.024300	0.979500	0.426500
C251	C25	0.080700	0.917000	0.402500
H101	H10	0.118200	0.874800	0.427500
C261	C26	0.434500	0.927300	0.166100
C271	C27	0.025200	0.980000	0.303400
H111	H11	0.026000	0.980200	0.262200
C281	C28	0.967800	0.042800	0.388900
H121	H12	0.930000	0.085100	0.405200
C291	C29	0.902400	0.108700	0.287300
C301	C30	0.081400	0.917200	0.340700
C311	C31	0.627300	0.105300	0.210200
C321	C32	0.141800	0.846800	0.315800
O161	O16	0.853800	0.162300	0.312400
Cd51	Cd5	0.743950	0.248870	0.759830
Cd61	Cd6	0.815450	0.375910	0.639570
O171	O17	0.902400	0.396700	0.732000
O181	O18	0.684500	0.347500	0.683100
O191	O19	0.383100	0.639400	0.751300
O201	O20	0.152400	0.642100	0.762100
O211	O21	0.306100	0.678600	0.660900
O221	O22	0.624500	0.381800	0.763700
O231	O23	0.178500	0.716800	0.849500
N51	N5	0.476500	0.529000	0.512000
N61	N6	0.027900	0.526500	0.990300
C331	C33	0.370300	0.634000	0.694500
C341	C34	0.967800	0.457400	0.827300
C351	C35	0.560600	0.460200	0.672500
C361	C36	0.488000	0.520500	0.576400
C371	C37	0.500900	0.515900	0.700300
H131	H13	0.505800	0.514600	0.742000
C381	C38	0.427700	0.574900	0.603300
H141	H14	0.382900	0.612700	0.579800
C391	C39	0.555100	0.463300	0.610500
H151	H15	0.595800	0.427600	0.591900
C401	C40	0.024300	0.520500	0.926500
C411	C41	0.080700	0.583000	0.902500
H161	H16	0.118200	0.625200	0.927500
C421	C42	0.434500	0.572700	0.666100
C431	C43	0.025200	0.520000	0.803400
H171	H17	0.026000	0.519800	0.762200
C441	C44	0.967800	0.457200	0.888900
H181	H18	0.930000	0.414900	0.905200
C451	C45	0.902400	0.391300	0.787300
C461	C46	0.081400	0.582800	0.840700
C471	C47	0.627300	0.394700	0.710200
C481	C48	0.141800	0.653200	0.815800
O241	O24	0.853800	0.337700	0.812400
Cd71	Cd7	0.256050	0.748870	0.740170
Cd81	Cd8	0.184550	0.875910	0.860430
O251	O25	0.097600	0.896700	0.768000
O261	O26	0.315500	0.847500	0.816900
O271	O27	0.616900	0.139400	0.748700
O281	O28	0.847600	0.142100	0.737900
O291	O29	0.693900	0.178600	0.839100
O301	O30	0.375500	0.881800	0.736300
O311	O31	0.821500	0.216800	0.650500
N71	N7	0.523500	0.029000	0.988000
N81	N8	0.972100	0.026500	0.509700
C491	C49	0.629700	0.134000	0.805500
C501	C50	0.032200	0.957400	0.672700
C511	C51	0.439400	0.960200	0.827500
C521	C52	0.512000	0.020500	0.923600
C531	C53	0.499100	0.015900	0.799700
H191	H19	0.494200	0.014600	0.758000
C541	C54	0.572300	0.074900	0.896700
H201	H20	0.617100	0.112700	0.920200
C551	C55	0.444900	0.963300	0.889500
H211	H21	0.404200	0.927600	0.908100
C561	C56	0.975700	0.020500	0.573500
C571	C57	0.919300	0.083000	0.597500
H221	H22	0.881800	0.125200	0.572500
C581	C58	0.565500	0.072700	0.833900
C591	C59	0.974800	0.020000	0.696600
H231	H23	0.974000	0.019800	0.737800
C601	C60	0.032200	0.957200	0.611100
H241	H24	0.070000	0.914900	0.594800
C611	C61	0.097600	0.891300	0.712700
C621	C62	0.918600	0.082800	0.659300
C631	C63	0.372700	0.894700	0.789800
C641	C64	0.858200	0.153200	0.684200
O321	O32	0.146200	0.837700	0.687600
