data_DUGMOJ_clean_PM
_symmetry_space_group_name_H-M	'P1'
_cell_length_a	29.535000
_cell_length_b	29.535000
_cell_length_c	28.099300
_cell_angle_alpha	90.000000
_cell_angle_beta	90.000000
_cell_angle_gamma	90.000000
_symmetry_Int_Tables_number 1

loop_
_symmetry_equiv_pos_as_xyz
'x,y,z'

loop_
_atom_site_label
_atom_site_type_symbol
_atom_site_fract_x
_atom_site_fract_y
_atom_site_fract_z
Cu11	Cu1	0.187870	0.173810	0.234790
Cu21	Cu2	0.141910	0.131180	0.302000
O11	O1	0.055260	0.277620	0.451060
O21	O2	0.057860	0.352950	0.450230
O31	O3	0.167100	0.387600	0.315310
O41	O4	0.147650	0.597430	0.331240
O51	O5	0.160250	0.759450	0.274750
O61	O6	0.123920	0.798530	0.330490
O71	O7	0.037040	0.718460	0.451820
O81	O8	0.034250	0.642250	0.451140
O91	O9	0.137640	0.191550	0.330720
O101	O10	0.176420	0.227650	0.273590
O111	O11	0.191940	0.112850	0.208220
O121	O12	0.152570	0.077140	0.264540
O131	O13	0.145360	0.911340	0.264460
O141	O14	0.181660	0.872890	0.207800
O151	O15	0.252200	0.992110	0.104500
C11	C1	0.113460	0.272250	0.373340
H11	H1	0.101300	0.244900	0.385700
C21	C2	0.168000	0.908700	0.226300
C31	C3	0.143120	0.270560	0.334530
C41	C4	0.160450	0.310650	0.317100
H21	H2	0.181200	0.309900	0.291300
C51	C5	0.148100	0.352250	0.336600
C61	C6	0.119260	0.353140	0.375600
H31	H3	0.111300	0.381100	0.390000
C71	C7	0.101860	0.312370	0.393590
C81	C8	0.154400	0.428700	0.330400
H41	H4	0.166700	0.434100	0.362700
H51	H5	0.121000	0.430200	0.332200
C91	C9	0.172200	0.465680	0.295800
C101	C10	0.194900	0.455200	0.257500
H61	H6	0.198700	0.424200	0.249300
C111	C11	0.213800	0.488300	0.228300
H71	H7	0.232900	0.480000	0.202500
C121	C12	0.204700	0.532700	0.237400
H81	H8	0.215700	0.555600	0.216700
C131	C13	0.179500	0.544400	0.276400
C141	C14	0.164300	0.510800	0.305100
H91	H9	0.147500	0.518600	0.332700
C151	C15	0.171900	0.594500	0.288100
H101	H10	0.201400	0.610200	0.291300
H111	H11	0.154600	0.609300	0.262200
C161	C16	0.132600	0.638950	0.343900
C171	C17	0.145180	0.678790	0.322200
H121	H12	0.166300	0.678600	0.296700
C181	C18	0.126630	0.719280	0.338000
C191	C19	0.096410	0.719610	0.374900
H131	H13	0.083900	0.747500	0.385300
C201	C20	0.083890	0.679980	0.397100
C211	C21	0.101500	0.638300	0.381000
H141	H14	0.092300	0.610500	0.395200
C221	C22	0.153550	0.227120	0.312200
C231	C23	0.069890	0.314230	0.434400
C241	C24	0.138250	0.761360	0.313200
C251	C25	0.049770	0.679700	0.435680
C261	C26	0.186100	0.033100	0.203200
C271	C27	0.213100	0.031300	0.163300
H151	H15	0.223400	0.058600	0.149000
C281	C28	0.225100	0.990400	0.144300
C291	C29	0.208600	0.950400	0.163700
H161	H16	0.216300	0.922100	0.149900
C301	C30	0.181000	0.951900	0.203200
C311	C31	0.170100	0.992790	0.223200
H171	H17	0.151500	0.993800	0.250800
C321	C32	0.270800	0.953500	0.087600
H181	H18	0.246900	0.930700	0.081200
H191	H19	0.292300	0.940700	0.111100
C331	C33	0.296100	0.966200	0.040500
C341	C34	0.340800	0.968200	0.042600
H201	H20	0.356800	0.967600	0.072000
C351	C35	0.176400	0.077640	0.226700
C361	C36	0.231900	0.173000	0.140900
H211	H21	0.225900	0.141800	0.146100
C371	C37	0.251300	0.187000	0.098300
H221	H22	0.258500	0.165400	0.074400
C381	C38	0.260100	0.232700	0.090700
H231	H23	0.273400	0.242300	0.061500
C391	C39	0.249600	0.264300	0.125600
H241	H24	0.255600	0.295500	0.120400
C401	C40	0.230200	0.250200	0.168200
H251	H25	0.223000	0.271800	0.192000
N11	N1	0.221340	0.204600	0.175800
Cu31	Cu3	0.812130	0.826190	0.234790
Cu41	Cu4	0.858090	0.868820	0.302000
O161	O16	0.944740	0.722380	0.451060
O171	O17	0.942140	0.647050	0.450230
O181	O18	0.832900	0.612400	0.315310
O191	O19	0.852350	0.402570	0.331240
O201	O20	0.839750	0.240550	0.274750
O211	O21	0.876080	0.201470	0.330490
O221	O22	0.962960	0.281540	0.451820
O231	O23	0.965750	0.357750	0.451140
O241	O24	0.862360	0.808450	0.330720
O251	O25	0.823580	0.772350	0.273590
O261	O26	0.808060	0.887150	0.208220
O271	O27	0.847430	0.922860	0.264540
O281	O28	0.854640	0.088660	0.264460
O291	O29	0.818340	0.127110	0.207800
O301	O30	0.747800	0.007890	0.104500
C411	C41	0.886540	0.727750	0.373340
H261	H26	0.898700	0.755100	0.385700
C421	C42	0.832000	0.091300	0.226300
C431	C43	0.856880	0.729440	0.334530
C441	C44	0.839550	0.689350	0.317100
H271	H27	0.818800	0.690100	0.291300
C451	C45	0.851900	0.647750	0.336600
C461	C46	0.880740	0.646860	0.375600
H281	H28	0.888700	0.618900	0.390000
C471	C47	0.898140	0.687630	0.393590
C481	C48	0.845600	0.571300	0.330400
H291	H29	0.833300	0.565900	0.362700
H301	H30	0.879000	0.569800	0.332200
C491	C49	0.827800	0.534320	0.295800
C501	C50	0.805100	0.544800	0.257500
H311	H31	0.801300	0.575800	0.249300
C511	C51	0.786200	0.511700	0.228300
H321	H32	0.767100	0.520000	0.202500
C521	C52	0.795300	0.467300	0.237400
H331	H33	0.784300	0.444400	0.216700
C531	C53	0.820500	0.455600	0.276400
C541	C54	0.835700	0.489200	0.305100
H341	H34	0.852500	0.481400	0.332700
C551	C55	0.828100	0.405500	0.288100
H351	H35	0.798600	0.389800	0.291300
H361	H36	0.845400	0.390700	0.262200
C561	C56	0.867400	0.361050	0.343900
C571	C57	0.854820	0.321210	0.322200
H371	H37	0.833700	0.321400	0.296700
C581	C58	0.873370	0.280720	0.338000
C591	C59	0.903590	0.280390	0.374900
H381	H38	0.916100	0.252500	0.385300
C601	C60	0.916110	0.320020	0.397100
C611	C61	0.898500	0.361700	0.381000
H391	H39	0.907700	0.389500	0.395200
C621	C62	0.846450	0.772880	0.312200
C631	C63	0.930110	0.685770	0.434400
C641	C64	0.861750	0.238640	0.313200
C651	C65	0.950230	0.320300	0.435680
C661	C66	0.813900	0.966900	0.203200
C671	C67	0.786900	0.968700	0.163300
H401	H40	0.776600	0.941400	0.149000
C681	C68	0.774900	0.009600	0.144300
C691	C69	0.791400	0.049600	0.163700
H411	H41	0.783700	0.077900	0.149900
C701	C70	0.819000	0.048100	0.203200
C711	C71	0.829900	0.007210	0.223200
H421	H42	0.848500	0.006200	0.250800
C721	C72	0.729200	0.046500	0.087600
H431	H43	0.753100	0.069300	0.081200
H441	H44	0.707700	0.059300	0.111100
C731	C73	0.703900	0.033800	0.040500
C741	C74	0.659200	0.031800	0.042600
H451	H45	0.643200	0.032400	0.072000
C751	C75	0.823600	0.922360	0.226700
C761	C76	0.768100	0.827000	0.140900
H461	H46	0.774100	0.858200	0.146100
C771	C77	0.748700	0.813000	0.098300
H471	H47	0.741500	0.834600	0.074400
C781	C78	0.739900	0.767300	0.090700
H481	H48	0.726600	0.757700	0.061500
C791	C79	0.750400	0.735700	0.125600
H491	H49	0.744400	0.704500	0.120400
C801	C80	0.769800	0.749800	0.168200
H501	H50	0.777000	0.728200	0.192000
N21	N2	0.778660	0.795400	0.175800
Cu51	Cu5	0.826190	0.187870	0.234790
Cu61	Cu6	0.868820	0.141910	0.302000
O311	O31	0.722380	0.055260	0.451060
O321	O32	0.647050	0.057860	0.450230
O331	O33	0.612400	0.167100	0.315310
O341	O34	0.402570	0.147650	0.331240
O351	O35	0.240550	0.160250	0.274750
O361	O36	0.201470	0.123920	0.330490
O371	O37	0.281540	0.037040	0.451820
O381	O38	0.357750	0.034250	0.451140
O391	O39	0.808450	0.137640	0.330720
O401	O40	0.772350	0.176420	0.273590
O411	O41	0.887150	0.191940	0.208220
O421	O42	0.922860	0.152570	0.264540
O431	O43	0.088660	0.145360	0.264460
O441	O44	0.127110	0.181660	0.207800
O451	O45	0.007890	0.252200	0.104500
C811	C81	0.727750	0.113460	0.373340
H511	H51	0.755100	0.101300	0.385700
C821	C82	0.091300	0.168000	0.226300
C831	C83	0.729440	0.143120	0.334530
C841	C84	0.689350	0.160450	0.317100
H521	H52	0.690100	0.181200	0.291300
C851	C85	0.647750	0.148100	0.336600
C861	C86	0.646860	0.119260	0.375600
H531	H53	0.618900	0.111300	0.390000
C871	C87	0.687630	0.101860	0.393590
C881	C88	0.571300	0.154400	0.330400
H541	H54	0.565900	0.166700	0.362700
H551	H55	0.569800	0.121000	0.332200
C891	C89	0.534320	0.172200	0.295800
C901	C90	0.544800	0.194900	0.257500
H561	H56	0.575800	0.198700	0.249300
C911	C91	0.511700	0.213800	0.228300
H571	H57	0.520000	0.232900	0.202500
C921	C92	0.467300	0.204700	0.237400
H581	H58	0.444400	0.215700	0.216700
C931	C93	0.455600	0.179500	0.276400
C941	C94	0.489200	0.164300	0.305100
H591	H59	0.481400	0.147500	0.332700
C951	C95	0.405500	0.171900	0.288100
H601	H60	0.389800	0.201400	0.291300
H611	H61	0.390700	0.154600	0.262200
C961	C96	0.361050	0.132600	0.343900
C971	C97	0.321210	0.145180	0.322200
H621	H62	0.321400	0.166300	0.296700
C981	C98	0.280720	0.126630	0.338000
C991	C99	0.280390	0.096410	0.374900
H631	H63	0.252500	0.083900	0.385300
C1001	C100	0.320020	0.083890	0.397100
C1011	C101	0.361700	0.101500	0.381000
H641	H64	0.389500	0.092300	0.395200
C1021	C102	0.772880	0.153550	0.312200
C1031	C103	0.685770	0.069890	0.434400
C1041	C104	0.238640	0.138250	0.313200
C1051	C105	0.320300	0.049770	0.435680
C1061	C106	0.966900	0.186100	0.203200
C1071	C107	0.968700	0.213100	0.163300
H651	H65	0.941400	0.223400	0.149000
C1081	C108	0.009600	0.225100	0.144300
C1091	C109	0.049600	0.208600	0.163700
H661	H66	0.077900	0.216300	0.149900
C1101	C110	0.048100	0.181000	0.203200
C1111	C111	0.007210	0.170100	0.223200
H671	H67	0.006200	0.151500	0.250800
C1121	C112	0.046500	0.270800	0.087600
H681	H68	0.069300	0.246900	0.081200
H691	H69	0.059300	0.292300	0.111100
C1131	C113	0.033800	0.296100	0.040500
C1141	C114	0.031800	0.340800	0.042600
H701	H70	0.032400	0.356800	0.072000
C1151	C115	0.922360	0.176400	0.226700
C1161	C116	0.827000	0.231900	0.140900
H711	H71	0.858200	0.225900	0.146100
C1171	C117	0.813000	0.251300	0.098300
H721	H72	0.834600	0.258500	0.074400
C1181	C118	0.767300	0.260100	0.090700
H731	H73	0.757700	0.273400	0.061500
C1191	C119	0.735700	0.249600	0.125600
H741	H74	0.704500	0.255600	0.120400
C1201	C120	0.749800	0.230200	0.168200
H751	H75	0.728200	0.223000	0.192000
N31	N3	0.795400	0.221340	0.175800
Cu71	Cu7	0.173810	0.812130	0.234790
Cu81	Cu8	0.131180	0.858090	0.302000
O461	O46	0.277620	0.944740	0.451060
O471	O47	0.352950	0.942140	0.450230
O481	O48	0.387600	0.832900	0.315310
O491	O49	0.597430	0.852350	0.331240
O501	O50	0.759450	0.839750	0.274750
O511	O51	0.798530	0.876080	0.330490
O521	O52	0.718460	0.962960	0.451820
O531	O53	0.642250	0.965750	0.451140
O541	O54	0.191550	0.862360	0.330720
O551	O55	0.227650	0.823580	0.273590
O561	O56	0.112850	0.808060	0.208220
O571	O57	0.077140	0.847430	0.264540
O581	O58	0.911340	0.854640	0.264460
O591	O59	0.872890	0.818340	0.207800
O601	O60	0.992110	0.747800	0.104500
C1211	C121	0.272250	0.886540	0.373340
H761	H76	0.244900	0.898700	0.385700
C1221	C122	0.908700	0.832000	0.226300
C1231	C123	0.270560	0.856880	0.334530
C1241	C124	0.310650	0.839550	0.317100
H771	H77	0.309900	0.818800	0.291300
C1251	C125	0.352250	0.851900	0.336600
C1261	C126	0.353140	0.880740	0.375600
H781	H78	0.381100	0.888700	0.390000
C1271	C127	0.312370	0.898140	0.393590
C1281	C128	0.428700	0.845600	0.330400
H791	H79	0.434100	0.833300	0.362700
H801	H80	0.430200	0.879000	0.332200
C1291	C129	0.465680	0.827800	0.295800
C1301	C130	0.455200	0.805100	0.257500
H811	H81	0.424200	0.801300	0.249300
C1311	C131	0.488300	0.786200	0.228300
H821	H82	0.480000	0.767100	0.202500
C1321	C132	0.532700	0.795300	0.237400
H831	H83	0.555600	0.784300	0.216700
C1331	C133	0.544400	0.820500	0.276400
C1341	C134	0.510800	0.835700	0.305100
H841	H84	0.518600	0.852500	0.332700
C1351	C135	0.594500	0.828100	0.288100
H851	H85	0.610200	0.798600	0.291300
H861	H86	0.609300	0.845400	0.262200
C1361	C136	0.638950	0.867400	0.343900
C1371	C137	0.678790	0.854820	0.322200
H871	H87	0.678600	0.833700	0.296700
C1381	C138	0.719280	0.873370	0.338000
C1391	C139	0.719610	0.903590	0.374900
H881	H88	0.747500	0.916100	0.385300
C1401	C140	0.679980	0.916110	0.397100
C1411	C141	0.638300	0.898500	0.381000
H891	H89	0.610500	0.907700	0.395200
C1421	C142	0.227120	0.846450	0.312200
C1431	C143	0.314230	0.930110	0.434400
C1441	C144	0.761360	0.861750	0.313200
C1451	C145	0.679700	0.950230	0.435680
C1461	C146	0.033100	0.813900	0.203200
C1471	C147	0.031300	0.786900	0.163300
H901	H90	0.058600	0.776600	0.149000
C1481	C148	0.990400	0.774900	0.144300
C1491	C149	0.950400	0.791400	0.163700
H911	H91	0.922100	0.783700	0.149900
C1501	C150	0.951900	0.819000	0.203200
C1511	C151	0.992790	0.829900	0.223200
H921	H92	0.993800	0.848500	0.250800
C1521	C152	0.953500	0.729200	0.087600
H931	H93	0.930700	0.753100	0.081200
H941	H94	0.940700	0.707700	0.111100
C1531	C153	0.966200	0.703900	0.040500
C1541	C154	0.968200	0.659200	0.042600
H951	H95	0.967600	0.643200	0.072000
C1551	C155	0.077640	0.823600	0.226700
C1561	C156	0.173000	0.768100	0.140900
H961	H96	0.141800	0.774100	0.146100
C1571	C157	0.187000	0.748700	0.098300
H971	H97	0.165400	0.741500	0.074400
C1581	C158	0.232700	0.739900	0.090700
H981	H98	0.242300	0.726600	0.061500
C1591	C159	0.264300	0.750400	0.125600
H991	H99	0.295500	0.744400	0.120400
C1601	C160	0.250200	0.769800	0.168200
H1001	H100	0.271800	0.777000	0.192000
N41	N4	0.204600	0.778660	0.175800
Cu91	Cu9	0.812130	0.826190	0.765210
Cu101	Cu10	0.858090	0.868820	0.698000
O611	O61	0.944740	0.722380	0.548940
O621	O62	0.942140	0.647050	0.549770
O631	O63	0.832900	0.612400	0.684690
O641	O64	0.852350	0.402570	0.668760
O651	O65	0.839750	0.240550	0.725250
O661	O66	0.876080	0.201470	0.669510
O671	O67	0.962960	0.281540	0.548180
O681	O68	0.965750	0.357750	0.548860
O691	O69	0.862360	0.808450	0.669280
O701	O70	0.823580	0.772350	0.726410
O711	O71	0.808060	0.887150	0.791780
O721	O72	0.847430	0.922860	0.735460
O731	O73	0.854640	0.088660	0.735540
O741	O74	0.818340	0.127110	0.792200
O751	O75	0.747800	0.007890	0.895500
C1611	C161	0.886540	0.727750	0.626660
H1011	H101	0.898700	0.755100	0.614300
C1621	C162	0.832000	0.091300	0.773700
C1631	C163	0.856880	0.729440	0.665470
C1641	C164	0.839550	0.689350	0.682900
H1021	H102	0.818800	0.690100	0.708700
C1651	C165	0.851900	0.647750	0.663400
C1661	C166	0.880740	0.646860	0.624400
H1031	H103	0.888700	0.618900	0.610000
C1671	C167	0.898140	0.687630	0.606410
C1681	C168	0.845600	0.571300	0.669600
H1041	H104	0.833300	0.565900	0.637300
H1051	H105	0.879000	0.569800	0.667800
C1691	C169	0.827800	0.534320	0.704200
C1701	C170	0.805100	0.544800	0.742500
H1061	H106	0.801300	0.575800	0.750700
C1711	C171	0.786200	0.511700	0.771700
H1071	H107	0.767100	0.520000	0.797500
C1721	C172	0.795300	0.467300	0.762600
H1081	H108	0.784300	0.444400	0.783300
C1731	C173	0.820500	0.455600	0.723600
C1741	C174	0.835700	0.489200	0.694900
H1091	H109	0.852500	0.481400	0.667300
C1751	C175	0.828100	0.405500	0.711900
H1101	H110	0.798600	0.389800	0.708700
H1111	H111	0.845400	0.390700	0.737800
C1761	C176	0.867400	0.361050	0.656100
C1771	C177	0.854820	0.321210	0.677800
H1121	H112	0.833700	0.321400	0.703300
C1781	C178	0.873370	0.280720	0.662000
C1791	C179	0.903590	0.280390	0.625100
H1131	H113	0.916100	0.252500	0.614700
C1801	C180	0.916110	0.320020	0.602900
C1811	C181	0.898500	0.361700	0.619000
H1141	H114	0.907700	0.389500	0.604800
C1821	C182	0.846450	0.772880	0.687800
C1831	C183	0.930110	0.685770	0.565600
C1841	C184	0.861750	0.238640	0.686800
C1851	C185	0.950230	0.320300	0.564320
C1861	C186	0.813900	0.966900	0.796800
C1871	C187	0.786900	0.968700	0.836700
H1151	H115	0.776600	0.941400	0.851000
C1881	C188	0.774900	0.009600	0.855700
C1891	C189	0.791400	0.049600	0.836300
H1161	H116	0.783700	0.077900	0.850100
C1901	C190	0.819000	0.048100	0.796800
C1911	C191	0.829900	0.007210	0.776800
H1171	H117	0.848500	0.006200	0.749200
C1921	C192	0.729200	0.046500	0.912400
H1181	H118	0.753100	0.069300	0.918800
H1191	H119	0.707700	0.059300	0.888900
C1931	C193	0.703900	0.033800	0.959500
C1941	C194	0.659200	0.031800	0.957400
H1201	H120	0.643200	0.032400	0.928000
C1951	C195	0.823600	0.922360	0.773300
C1961	C196	0.768100	0.827000	0.859100
H1211	H121	0.774100	0.858200	0.853900
C1971	C197	0.748700	0.813000	0.901700
H1221	H122	0.741500	0.834600	0.925600
C1981	C198	0.739900	0.767300	0.909300
H1231	H123	0.726600	0.757700	0.938500
C1991	C199	0.750400	0.735700	0.874400
H1241	H124	0.744400	0.704500	0.879600
C2001	C200	0.769800	0.749800	0.831800
H1251	H125	0.777000	0.728200	0.808000
N51	N5	0.778660	0.795400	0.824200
Cu111	Cu11	0.187870	0.173810	0.765210
Cu121	Cu12	0.141910	0.131180	0.698000
O761	O76	0.055260	0.277620	0.548940
O771	O77	0.057860	0.352950	0.549770
O781	O78	0.167100	0.387600	0.684690
O791	O79	0.147650	0.597430	0.668760
O801	O80	0.160250	0.759450	0.725250
O811	O81	0.123920	0.798530	0.669510
O821	O82	0.037040	0.718460	0.548180
O831	O83	0.034250	0.642250	0.548860
O841	O84	0.137640	0.191550	0.669280
O851	O85	0.176420	0.227650	0.726410
O861	O86	0.191940	0.112850	0.791780
O871	O87	0.152570	0.077140	0.735460
O881	O88	0.145360	0.911340	0.735540
O891	O89	0.181660	0.872890	0.792200
O901	O90	0.252200	0.992110	0.895500
C2011	C201	0.113460	0.272250	0.626660
H1261	H126	0.101300	0.244900	0.614300
C2021	C202	0.168000	0.908700	0.773700
C2031	C203	0.143120	0.270560	0.665470
C2041	C204	0.160450	0.310650	0.682900
H1271	H127	0.181200	0.309900	0.708700
C2051	C205	0.148100	0.352250	0.663400
C2061	C206	0.119260	0.353140	0.624400
H1281	H128	0.111300	0.381100	0.610000
C2071	C207	0.101860	0.312370	0.606410
C2081	C208	0.154400	0.428700	0.669600
H1291	H129	0.166700	0.434100	0.637300
H1301	H130	0.121000	0.430200	0.667800
C2091	C209	0.172200	0.465680	0.704200
C2101	C210	0.194900	0.455200	0.742500
H1311	H131	0.198700	0.424200	0.750700
C2111	C211	0.213800	0.488300	0.771700
H1321	H132	0.232900	0.480000	0.797500
C2121	C212	0.204700	0.532700	0.762600
H1331	H133	0.215700	0.555600	0.783300
C2131	C213	0.179500	0.544400	0.723600
C2141	C214	0.164300	0.510800	0.694900
H1341	H134	0.147500	0.518600	0.667300
C2151	C215	0.171900	0.594500	0.711900
H1351	H135	0.201400	0.610200	0.708700
H1361	H136	0.154600	0.609300	0.737800
C2161	C216	0.132600	0.638950	0.656100
C2171	C217	0.145180	0.678790	0.677800
H1371	H137	0.166300	0.678600	0.703300
C2181	C218	0.126630	0.719280	0.662000
C2191	C219	0.096410	0.719610	0.625100
H1381	H138	0.083900	0.747500	0.614700
C2201	C220	0.083890	0.679980	0.602900
C2211	C221	0.101500	0.638300	0.619000
H1391	H139	0.092300	0.610500	0.604800
C2221	C222	0.153550	0.227120	0.687800
C2231	C223	0.069890	0.314230	0.565600
C2241	C224	0.138250	0.761360	0.686800
C2251	C225	0.049770	0.679700	0.564320
C2261	C226	0.186100	0.033100	0.796800
C2271	C227	0.213100	0.031300	0.836700
H1401	H140	0.223400	0.058600	0.851000
C2281	C228	0.225100	0.990400	0.855700
C2291	C229	0.208600	0.950400	0.836300
H1411	H141	0.216300	0.922100	0.850100
C2301	C230	0.181000	0.951900	0.796800
C2311	C231	0.170100	0.992790	0.776800
H1421	H142	0.151500	0.993800	0.749200
C2321	C232	0.270800	0.953500	0.912400
H1431	H143	0.246900	0.930700	0.918800
H1441	H144	0.292300	0.940700	0.888900
C2331	C233	0.296100	0.966200	0.959500
C2341	C234	0.340800	0.968200	0.957400
H1451	H145	0.356800	0.967600	0.928000
C2351	C235	0.176400	0.077640	0.773300
C2361	C236	0.231900	0.173000	0.859100
H1461	H146	0.225900	0.141800	0.853900
C2371	C237	0.251300	0.187000	0.901700
H1471	H147	0.258500	0.165400	0.925600
C2381	C238	0.260100	0.232700	0.909300
H1481	H148	0.273400	0.242300	0.938500
C2391	C239	0.249600	0.264300	0.874400
H1491	H149	0.255600	0.295500	0.879600
C2401	C240	0.230200	0.250200	0.831800
H1501	H150	0.223000	0.271800	0.808000
N61	N6	0.221340	0.204600	0.824200
Cu131	Cu13	0.173810	0.812130	0.765210
Cu141	Cu14	0.131180	0.858090	0.698000
O911	O91	0.277620	0.944740	0.548940
O921	O92	0.352950	0.942140	0.549770
O931	O93	0.387600	0.832900	0.684690
O941	O94	0.597430	0.852350	0.668760
O951	O95	0.759450	0.839750	0.725250
O961	O96	0.798530	0.876080	0.669510
O971	O97	0.718460	0.962960	0.548180
O981	O98	0.642250	0.965750	0.548860
O991	O99	0.191550	0.862360	0.669280
O1001	O100	0.227650	0.823580	0.726410
O1011	O101	0.112850	0.808060	0.791780
O1021	O102	0.077140	0.847430	0.735460
O1031	O103	0.911340	0.854640	0.735540
O1041	O104	0.872890	0.818340	0.792200
O1051	O105	0.992110	0.747800	0.895500
C2411	C241	0.272250	0.886540	0.626660
H1511	H151	0.244900	0.898700	0.614300
C2421	C242	0.908700	0.832000	0.773700
C2431	C243	0.270560	0.856880	0.665470
C2441	C244	0.310650	0.839550	0.682900
H1521	H152	0.309900	0.818800	0.708700
C2451	C245	0.352250	0.851900	0.663400
C2461	C246	0.353140	0.880740	0.624400
H1531	H153	0.381100	0.888700	0.610000
C2471	C247	0.312370	0.898140	0.606410
C2481	C248	0.428700	0.845600	0.669600
H1541	H154	0.434100	0.833300	0.637300
H1551	H155	0.430200	0.879000	0.667800
C2491	C249	0.465680	0.827800	0.704200
C2501	C250	0.455200	0.805100	0.742500
H1561	H156	0.424200	0.801300	0.750700
C2511	C251	0.488300	0.786200	0.771700
H1571	H157	0.480000	0.767100	0.797500
C2521	C252	0.532700	0.795300	0.762600
H1581	H158	0.555600	0.784300	0.783300
C2531	C253	0.544400	0.820500	0.723600
C2541	C254	0.510800	0.835700	0.694900
H1591	H159	0.518600	0.852500	0.667300
C2551	C255	0.594500	0.828100	0.711900
H1601	H160	0.610200	0.798600	0.708700
H1611	H161	0.609300	0.845400	0.737800
C2561	C256	0.638950	0.867400	0.656100
C2571	C257	0.678790	0.854820	0.677800
H1621	H162	0.678600	0.833700	0.703300
C2581	C258	0.719280	0.873370	0.662000
C2591	C259	0.719610	0.903590	0.625100
H1631	H163	0.747500	0.916100	0.614700
C2601	C260	0.679980	0.916110	0.602900
C2611	C261	0.638300	0.898500	0.619000
H1641	H164	0.610500	0.907700	0.604800
C2621	C262	0.227120	0.846450	0.687800
C2631	C263	0.314230	0.930110	0.565600
C2641	C264	0.761360	0.861750	0.686800
C2651	C265	0.679700	0.950230	0.564320
C2661	C266	0.033100	0.813900	0.796800
C2671	C267	0.031300	0.786900	0.836700
H1651	H165	0.058600	0.776600	0.851000
C2681	C268	0.990400	0.774900	0.855700
C2691	C269	0.950400	0.791400	0.836300
H1661	H166	0.922100	0.783700	0.850100
C2701	C270	0.951900	0.819000	0.796800
C2711	C271	0.992790	0.829900	0.776800
H1671	H167	0.993800	0.848500	0.749200
C2721	C272	0.953500	0.729200	0.912400
H1681	H168	0.930700	0.753100	0.918800
H1691	H169	0.940700	0.707700	0.888900
C2731	C273	0.966200	0.703900	0.959500
C2741	C274	0.968200	0.659200	0.957400
H1701	H170	0.967600	0.643200	0.928000
C2751	C275	0.077640	0.823600	0.773300
C2761	C276	0.173000	0.768100	0.859100
H1711	H171	0.141800	0.774100	0.853900
C2771	C277	0.187000	0.748700	0.901700
H1721	H172	0.165400	0.741500	0.925600
C2781	C278	0.232700	0.739900	0.909300
H1731	H173	0.242300	0.726600	0.938500
C2791	C279	0.264300	0.750400	0.874400
H1741	H174	0.295500	0.744400	0.879600
C2801	C280	0.250200	0.769800	0.831800
H1751	H175	0.271800	0.777000	0.808000
N71	N7	0.204600	0.778660	0.824200
Cu151	Cu15	0.826190	0.187870	0.765210
Cu161	Cu16	0.868820	0.141910	0.698000
O1061	O106	0.722380	0.055260	0.548940
O1071	O107	0.647050	0.057860	0.549770
O1081	O108	0.612400	0.167100	0.684690
O1091	O109	0.402570	0.147650	0.668760
O1101	O110	0.240550	0.160250	0.725250
O1111	O111	0.201470	0.123920	0.669510
O1121	O112	0.281540	0.037040	0.548180
O1131	O113	0.357750	0.034250	0.548860
O1141	O114	0.808450	0.137640	0.669280
O1151	O115	0.772350	0.176420	0.726410
O1161	O116	0.887150	0.191940	0.791780
O1171	O117	0.922860	0.152570	0.735460
O1181	O118	0.088660	0.145360	0.735540
O1191	O119	0.127110	0.181660	0.792200
O1201	O120	0.007890	0.252200	0.895500
C2811	C281	0.727750	0.113460	0.626660
H1761	H176	0.755100	0.101300	0.614300
C2821	C282	0.091300	0.168000	0.773700
C2831	C283	0.729440	0.143120	0.665470
C2841	C284	0.689350	0.160450	0.682900
H1771	H177	0.690100	0.181200	0.708700
C2851	C285	0.647750	0.148100	0.663400
C2861	C286	0.646860	0.119260	0.624400
H1781	H178	0.618900	0.111300	0.610000
C2871	C287	0.687630	0.101860	0.606410
C2881	C288	0.571300	0.154400	0.669600
H1791	H179	0.565900	0.166700	0.637300
H1801	H180	0.569800	0.121000	0.667800
C2891	C289	0.534320	0.172200	0.704200
C2901	C290	0.544800	0.194900	0.742500
H1811	H181	0.575800	0.198700	0.750700
C2911	C291	0.511700	0.213800	0.771700
H1821	H182	0.520000	0.232900	0.797500
C2921	C292	0.467300	0.204700	0.762600
H1831	H183	0.444400	0.215700	0.783300
C2931	C293	0.455600	0.179500	0.723600
C2941	C294	0.489200	0.164300	0.694900
H1841	H184	0.481400	0.147500	0.667300
C2951	C295	0.405500	0.171900	0.711900
H1851	H185	0.389800	0.201400	0.708700
H1861	H186	0.390700	0.154600	0.737800
C2961	C296	0.361050	0.132600	0.656100
C2971	C297	0.321210	0.145180	0.677800
H1871	H187	0.321400	0.166300	0.703300
C2981	C298	0.280720	0.126630	0.662000
C2991	C299	0.280390	0.096410	0.625100
H1881	H188	0.252500	0.083900	0.614700
C3001	C300	0.320020	0.083890	0.602900
C3011	C301	0.361700	0.101500	0.619000
H1891	H189	0.389500	0.092300	0.604800
C3021	C302	0.772880	0.153550	0.687800
C3031	C303	0.685770	0.069890	0.565600
C3041	C304	0.238640	0.138250	0.686800
C3051	C305	0.320300	0.049770	0.564320
C3061	C306	0.966900	0.186100	0.796800
C3071	C307	0.968700	0.213100	0.836700
H1901	H190	0.941400	0.223400	0.851000
C3081	C308	0.009600	0.225100	0.855700
C3091	C309	0.049600	0.208600	0.836300
H1911	H191	0.077900	0.216300	0.850100
C3101	C310	0.048100	0.181000	0.796800
C3111	C311	0.007210	0.170100	0.776800
H1921	H192	0.006200	0.151500	0.749200
C3121	C312	0.046500	0.270800	0.912400
H1931	H193	0.069300	0.246900	0.918800
H1941	H194	0.059300	0.292300	0.888900
C3131	C313	0.033800	0.296100	0.959500
C3141	C314	0.031800	0.340800	0.957400
H1951	H195	0.032400	0.356800	0.928000
C3151	C315	0.922360	0.176400	0.773300
C3161	C316	0.827000	0.231900	0.859100
H1961	H196	0.858200	0.225900	0.853900
C3171	C317	0.813000	0.251300	0.901700
H1971	H197	0.834600	0.258500	0.925600
C3181	C318	0.767300	0.260100	0.909300
H1981	H198	0.757700	0.273400	0.938500
C3191	C319	0.735700	0.249600	0.874400
H1991	H199	0.704500	0.255600	0.879600
C3201	C320	0.749800	0.230200	0.831800
H2001	H200	0.728200	0.223000	0.808000
N81	N8	0.795400	0.221340	0.824200
Cu171	Cu17	0.012310	0.361760	0.500000
Cu181	Cu18	0.009250	0.273160	0.500000
Cu191	Cu19	0.987690	0.638240	0.500000
Cu201	Cu20	0.990750	0.726840	0.500000
Cu211	Cu21	0.638240	0.012310	0.500000
Cu221	Cu22	0.726840	0.009250	0.500000
Cu231	Cu23	0.361760	0.987690	0.500000
Cu241	Cu24	0.273160	0.990750	0.500000
C3211	C321	0.362600	0.971400	0.000000
H2011	H201	0.394400	0.976000	0.000000
C3221	C322	0.271400	0.968400	0.000000
H2021	H202	0.239300	0.971300	0.000000
C3231	C323	0.637400	0.028600	0.000000
H2031	H203	0.605600	0.024000	0.000000
C3241	C324	0.728600	0.031600	0.000000
H2041	H204	0.760700	0.028700	0.000000
C3251	C325	0.028600	0.362600	0.000000
H2051	H205	0.024000	0.394400	0.000000
C3261	C326	0.031600	0.271400	0.000000
H2061	H206	0.028700	0.239300	0.000000
C3271	C327	0.971400	0.637400	0.000000
H2071	H207	0.976000	0.605600	0.000000
C3281	C328	0.968400	0.728600	0.000000
H2081	H208	0.971300	0.760700	0.000000
Cu251	Cu25	0.687870	0.673810	0.734790
Cu261	Cu26	0.641910	0.631180	0.802000
O1211	O121	0.555260	0.777620	0.951060
O1221	O122	0.557860	0.852950	0.950230
O1231	O123	0.667100	0.887600	0.815310
O1241	O124	0.647650	0.097430	0.831240
O1251	O125	0.660250	0.259450	0.774750
O1261	O126	0.623920	0.298530	0.830490
O1271	O127	0.537040	0.218460	0.951820
O1281	O128	0.534250	0.142250	0.951140
O1291	O129	0.637640	0.691550	0.830720
O1301	O130	0.676420	0.727650	0.773590
O1311	O131	0.691940	0.612850	0.708220
O1321	O132	0.652570	0.577140	0.764540
O1331	O133	0.645360	0.411340	0.764460
O1341	O134	0.681660	0.372890	0.707800
O1351	O135	0.752200	0.492110	0.604500
C3291	C329	0.613460	0.772250	0.873340
H2091	H209	0.601300	0.744900	0.885700
C3301	C330	0.668000	0.408700	0.726300
C3311	C331	0.643120	0.770560	0.834530
C3321	C332	0.660450	0.810650	0.817100
H2101	H210	0.681200	0.809900	0.791300
C3331	C333	0.648100	0.852250	0.836600
C3341	C334	0.619260	0.853140	0.875600
H2111	H211	0.611300	0.881100	0.890000
C3351	C335	0.601860	0.812370	0.893590
C3361	C336	0.654400	0.928700	0.830400
H2121	H212	0.666700	0.934100	0.862700
H2131	H213	0.621000	0.930200	0.832200
C3371	C337	0.672200	0.965680	0.795800
C3381	C338	0.694900	0.955200	0.757500
H2141	H214	0.698700	0.924200	0.749300
C3391	C339	0.713800	0.988300	0.728300
H2151	H215	0.732900	0.980000	0.702500
C3401	C340	0.704700	0.032700	0.737400
H2161	H216	0.715700	0.055600	0.716700
C3411	C341	0.679500	0.044400	0.776400
C3421	C342	0.664300	0.010800	0.805100
H2171	H217	0.647500	0.018600	0.832700
C3431	C343	0.671900	0.094500	0.788100
H2181	H218	0.701400	0.110200	0.791300
H2191	H219	0.654600	0.109300	0.762200
C3441	C344	0.632600	0.138950	0.843900
C3451	C345	0.645180	0.178790	0.822200
H2201	H220	0.666300	0.178600	0.796700
C3461	C346	0.626630	0.219280	0.838000
C3471	C347	0.596410	0.219610	0.874900
H2211	H221	0.583900	0.247500	0.885300
C3481	C348	0.583890	0.179980	0.897100
C3491	C349	0.601500	0.138300	0.881000
H2221	H222	0.592300	0.110500	0.895200
C3501	C350	0.653550	0.727120	0.812200
C3511	C351	0.569890	0.814230	0.934400
C3521	C352	0.638250	0.261360	0.813200
C3531	C353	0.549770	0.179700	0.935680
C3541	C354	0.686100	0.533100	0.703200
C3551	C355	0.713100	0.531300	0.663300
H2231	H223	0.723400	0.558600	0.649000
C3561	C356	0.725100	0.490400	0.644300
C3571	C357	0.708600	0.450400	0.663700
H2241	H224	0.716300	0.422100	0.649900
C3581	C358	0.681000	0.451900	0.703200
C3591	C359	0.670100	0.492790	0.723200
H2251	H225	0.651500	0.493800	0.750800
C3601	C360	0.770800	0.453500	0.587600
H2261	H226	0.746900	0.430700	0.581200
H2271	H227	0.792300	0.440700	0.611100
C3611	C361	0.796100	0.466200	0.540500
C3621	C362	0.840800	0.468200	0.542600
H2281	H228	0.856800	0.467600	0.572000
C3631	C363	0.676400	0.577640	0.726700
C3641	C364	0.731900	0.673000	0.640900
H2291	H229	0.725900	0.641800	0.646100
C3651	C365	0.751300	0.687000	0.598300
H2301	H230	0.758500	0.665400	0.574400
C3661	C366	0.760100	0.732700	0.590700
H2311	H231	0.773400	0.742300	0.561500
C3671	C367	0.749600	0.764300	0.625600
H2321	H232	0.755600	0.795500	0.620400
C3681	C368	0.730200	0.750200	0.668200
H2331	H233	0.723000	0.771800	0.692000
N91	N9	0.721340	0.704600	0.675800
Cu271	Cu27	0.312130	0.326190	0.734790
Cu281	Cu28	0.358090	0.368820	0.802000
O1361	O136	0.444740	0.222380	0.951060
O1371	O137	0.442140	0.147050	0.950230
O1381	O138	0.332900	0.112400	0.815310
O1391	O139	0.352350	0.902570	0.831240
O1401	O140	0.339750	0.740550	0.774750
O1411	O141	0.376080	0.701470	0.830490
O1421	O142	0.462960	0.781540	0.951820
O1431	O143	0.465750	0.857750	0.951140
O1441	O144	0.362360	0.308450	0.830720
O1451	O145	0.323580	0.272350	0.773590
O1461	O146	0.308060	0.387150	0.708220
O1471	O147	0.347430	0.422860	0.764540
O1481	O148	0.354640	0.588660	0.764460
O1491	O149	0.318340	0.627110	0.707800
O1501	O150	0.247800	0.507890	0.604500
C3691	C369	0.386540	0.227750	0.873340
H2341	H234	0.398700	0.255100	0.885700
C3701	C370	0.332000	0.591300	0.726300
C3711	C371	0.356880	0.229440	0.834530
C3721	C372	0.339550	0.189350	0.817100
H2351	H235	0.318800	0.190100	0.791300
C3731	C373	0.351900	0.147750	0.836600
C3741	C374	0.380740	0.146860	0.875600
H2361	H236	0.388700	0.118900	0.890000
C3751	C375	0.398140	0.187630	0.893590
C3761	C376	0.345600	0.071300	0.830400
H2371	H237	0.333300	0.065900	0.862700
H2381	H238	0.379000	0.069800	0.832200
C3771	C377	0.327800	0.034320	0.795800
C3781	C378	0.305100	0.044800	0.757500
H2391	H239	0.301300	0.075800	0.749300
C3791	C379	0.286200	0.011700	0.728300
H2401	H240	0.267100	0.020000	0.702500
C3801	C380	0.295300	0.967300	0.737400
H2411	H241	0.284300	0.944400	0.716700
C3811	C381	0.320500	0.955600	0.776400
C3821	C382	0.335700	0.989200	0.805100
H2421	H242	0.352500	0.981400	0.832700
C3831	C383	0.328100	0.905500	0.788100
H2431	H243	0.298600	0.889800	0.791300
H2441	H244	0.345400	0.890700	0.762200
C3841	C384	0.367400	0.861050	0.843900
C3851	C385	0.354820	0.821210	0.822200
H2451	H245	0.333700	0.821400	0.796700
C3861	C386	0.373370	0.780720	0.838000
C3871	C387	0.403590	0.780390	0.874900
H2461	H246	0.416100	0.752500	0.885300
C3881	C388	0.416110	0.820020	0.897100
C3891	C389	0.398500	0.861700	0.881000
H2471	H247	0.407700	0.889500	0.895200
C3901	C390	0.346450	0.272880	0.812200
C3911	C391	0.430110	0.185770	0.934400
C3921	C392	0.361750	0.738640	0.813200
C3931	C393	0.450230	0.820300	0.935680
C3941	C394	0.313900	0.466900	0.703200
C3951	C395	0.286900	0.468700	0.663300
H2481	H248	0.276600	0.441400	0.649000
C3961	C396	0.274900	0.509600	0.644300
C3971	C397	0.291400	0.549600	0.663700
H2491	H249	0.283700	0.577900	0.649900
C3981	C398	0.319000	0.548100	0.703200
C3991	C399	0.329900	0.507210	0.723200
H2501	H250	0.348500	0.506200	0.750800
C4001	C400	0.229200	0.546500	0.587600
H2511	H251	0.253100	0.569300	0.581200
H2521	H252	0.207700	0.559300	0.611100
C4011	C401	0.203900	0.533800	0.540500
C4021	C402	0.159200	0.531800	0.542600
H2531	H253	0.143200	0.532400	0.572000
C4031	C403	0.323600	0.422360	0.726700
C4041	C404	0.268100	0.327000	0.640900
H2541	H254	0.274100	0.358200	0.646100
C4051	C405	0.248700	0.313000	0.598300
H2551	H255	0.241500	0.334600	0.574400
C4061	C406	0.239900	0.267300	0.590700
H2561	H256	0.226600	0.257700	0.561500
C4071	C407	0.250400	0.235700	0.625600
H2571	H257	0.244400	0.204500	0.620400
C4081	C408	0.269800	0.249800	0.668200
H2581	H258	0.277000	0.228200	0.692000
N101	N10	0.278660	0.295400	0.675800
Cu291	Cu29	0.326190	0.687870	0.734790
Cu301	Cu30	0.368820	0.641910	0.802000
O1511	O151	0.222380	0.555260	0.951060
O1521	O152	0.147050	0.557860	0.950230
O1531	O153	0.112400	0.667100	0.815310
O1541	O154	0.902570	0.647650	0.831240
O1551	O155	0.740550	0.660250	0.774750
O1561	O156	0.701470	0.623920	0.830490
O1571	O157	0.781540	0.537040	0.951820
O1581	O158	0.857750	0.534250	0.951140
O1591	O159	0.308450	0.637640	0.830720
O1601	O160	0.272350	0.676420	0.773590
O1611	O161	0.387150	0.691940	0.708220
O1621	O162	0.422860	0.652570	0.764540
O1631	O163	0.588660	0.645360	0.764460
O1641	O164	0.627110	0.681660	0.707800
O1651	O165	0.507890	0.752200	0.604500
C4091	C409	0.227750	0.613460	0.873340
H2591	H259	0.255100	0.601300	0.885700
C4101	C410	0.591300	0.668000	0.726300
C4111	C411	0.229440	0.643120	0.834530
C4121	C412	0.189350	0.660450	0.817100
H2601	H260	0.190100	0.681200	0.791300
C4131	C413	0.147750	0.648100	0.836600
C4141	C414	0.146860	0.619260	0.875600
H2611	H261	0.118900	0.611300	0.890000
C4151	C415	0.187630	0.601860	0.893590
C4161	C416	0.071300	0.654400	0.830400
H2621	H262	0.065900	0.666700	0.862700
H2631	H263	0.069800	0.621000	0.832200
C4171	C417	0.034320	0.672200	0.795800
C4181	C418	0.044800	0.694900	0.757500
H2641	H264	0.075800	0.698700	0.749300
C4191	C419	0.011700	0.713800	0.728300
H2651	H265	0.020000	0.732900	0.702500
C4201	C420	0.967300	0.704700	0.737400
H2661	H266	0.944400	0.715700	0.716700
C4211	C421	0.955600	0.679500	0.776400
C4221	C422	0.989200	0.664300	0.805100
H2671	H267	0.981400	0.647500	0.832700
C4231	C423	0.905500	0.671900	0.788100
H2681	H268	0.889800	0.701400	0.791300
H2691	H269	0.890700	0.654600	0.762200
C4241	C424	0.861050	0.632600	0.843900
C4251	C425	0.821210	0.645180	0.822200
H2701	H270	0.821400	0.666300	0.796700
C4261	C426	0.780720	0.626630	0.838000
C4271	C427	0.780390	0.596410	0.874900
H2711	H271	0.752500	0.583900	0.885300
C4281	C428	0.820020	0.583890	0.897100
C4291	C429	0.861700	0.601500	0.881000
H2721	H272	0.889500	0.592300	0.895200
C4301	C430	0.272880	0.653550	0.812200
C4311	C431	0.185770	0.569890	0.934400
C4321	C432	0.738640	0.638250	0.813200
C4331	C433	0.820300	0.549770	0.935680
C4341	C434	0.466900	0.686100	0.703200
C4351	C435	0.468700	0.713100	0.663300
H2731	H273	0.441400	0.723400	0.649000
C4361	C436	0.509600	0.725100	0.644300
C4371	C437	0.549600	0.708600	0.663700
H2741	H274	0.577900	0.716300	0.649900
C4381	C438	0.548100	0.681000	0.703200
C4391	C439	0.507210	0.670100	0.723200
H2751	H275	0.506200	0.651500	0.750800
C4401	C440	0.546500	0.770800	0.587600
H2761	H276	0.569300	0.746900	0.581200
H2771	H277	0.559300	0.792300	0.611100
C4411	C441	0.533800	0.796100	0.540500
C4421	C442	0.531800	0.840800	0.542600
H2781	H278	0.532400	0.856800	0.572000
C4431	C443	0.422360	0.676400	0.726700
C4441	C444	0.327000	0.731900	0.640900
H2791	H279	0.358200	0.725900	0.646100
C4451	C445	0.313000	0.751300	0.598300
H2801	H280	0.334600	0.758500	0.574400
C4461	C446	0.267300	0.760100	0.590700
H2811	H281	0.257700	0.773400	0.561500
C4471	C447	0.235700	0.749600	0.625600
H2821	H282	0.204500	0.755600	0.620400
C4481	C448	0.249800	0.730200	0.668200
H2831	H283	0.228200	0.723000	0.692000
N111	N11	0.295400	0.721340	0.675800
Cu311	Cu31	0.673810	0.312130	0.734790
Cu321	Cu32	0.631180	0.358090	0.802000
O1661	O166	0.777620	0.444740	0.951060
O1671	O167	0.852950	0.442140	0.950230
O1681	O168	0.887600	0.332900	0.815310
O1691	O169	0.097430	0.352350	0.831240
O1701	O170	0.259450	0.339750	0.774750
O1711	O171	0.298530	0.376080	0.830490
O1721	O172	0.218460	0.462960	0.951820
O1731	O173	0.142250	0.465750	0.951140
O1741	O174	0.691550	0.362360	0.830720
O1751	O175	0.727650	0.323580	0.773590
O1761	O176	0.612850	0.308060	0.708220
O1771	O177	0.577140	0.347430	0.764540
O1781	O178	0.411340	0.354640	0.764460
O1791	O179	0.372890	0.318340	0.707800
O1801	O180	0.492110	0.247800	0.604500
C4491	C449	0.772250	0.386540	0.873340
H2841	H284	0.744900	0.398700	0.885700
C4501	C450	0.408700	0.332000	0.726300
C4511	C451	0.770560	0.356880	0.834530
C4521	C452	0.810650	0.339550	0.817100
H2851	H285	0.809900	0.318800	0.791300
C4531	C453	0.852250	0.351900	0.836600
C4541	C454	0.853140	0.380740	0.875600
H2861	H286	0.881100	0.388700	0.890000
C4551	C455	0.812370	0.398140	0.893590
C4561	C456	0.928700	0.345600	0.830400
H2871	H287	0.934100	0.333300	0.862700
H2881	H288	0.930200	0.379000	0.832200
C4571	C457	0.965680	0.327800	0.795800
C4581	C458	0.955200	0.305100	0.757500
H2891	H289	0.924200	0.301300	0.749300
C4591	C459	0.988300	0.286200	0.728300
H2901	H290	0.980000	0.267100	0.702500
C4601	C460	0.032700	0.295300	0.737400
H2911	H291	0.055600	0.284300	0.716700
C4611	C461	0.044400	0.320500	0.776400
C4621	C462	0.010800	0.335700	0.805100
H2921	H292	0.018600	0.352500	0.832700
C4631	C463	0.094500	0.328100	0.788100
H2931	H293	0.110200	0.298600	0.791300
H2941	H294	0.109300	0.345400	0.762200
C4641	C464	0.138950	0.367400	0.843900
C4651	C465	0.178790	0.354820	0.822200
H2951	H295	0.178600	0.333700	0.796700
C4661	C466	0.219280	0.373370	0.838000
C4671	C467	0.219610	0.403590	0.874900
H2961	H296	0.247500	0.416100	0.885300
C4681	C468	0.179980	0.416110	0.897100
C4691	C469	0.138300	0.398500	0.881000
H2971	H297	0.110500	0.407700	0.895200
C4701	C470	0.727120	0.346450	0.812200
C4711	C471	0.814230	0.430110	0.934400
C4721	C472	0.261360	0.361750	0.813200
C4731	C473	0.179700	0.450230	0.935680
C4741	C474	0.533100	0.313900	0.703200
C4751	C475	0.531300	0.286900	0.663300
H2981	H298	0.558600	0.276600	0.649000
C4761	C476	0.490400	0.274900	0.644300
C4771	C477	0.450400	0.291400	0.663700
H2991	H299	0.422100	0.283700	0.649900
C4781	C478	0.451900	0.319000	0.703200
C4791	C479	0.492790	0.329900	0.723200
H3001	H300	0.493800	0.348500	0.750800
C4801	C480	0.453500	0.229200	0.587600
H3011	H301	0.430700	0.253100	0.581200
H3021	H302	0.440700	0.207700	0.611100
C4811	C481	0.466200	0.203900	0.540500
C4821	C482	0.468200	0.159200	0.542600
H3031	H303	0.467600	0.143200	0.572000
C4831	C483	0.577640	0.323600	0.726700
C4841	C484	0.673000	0.268100	0.640900
H3041	H304	0.641800	0.274100	0.646100
C4851	C485	0.687000	0.248700	0.598300
H3051	H305	0.665400	0.241500	0.574400
C4861	C486	0.732700	0.239900	0.590700
H3061	H306	0.742300	0.226600	0.561500
C4871	C487	0.764300	0.250400	0.625600
H3071	H307	0.795500	0.244400	0.620400
C4881	C488	0.750200	0.269800	0.668200
H3081	H308	0.771800	0.277000	0.692000
N121	N12	0.704600	0.278660	0.675800
Cu331	Cu33	0.312130	0.326190	0.265210
Cu341	Cu34	0.358090	0.368820	0.198000
O1811	O181	0.444740	0.222380	0.048940
O1821	O182	0.442140	0.147050	0.049770
O1831	O183	0.332900	0.112400	0.184690
O1841	O184	0.352350	0.902570	0.168760
O1851	O185	0.339750	0.740550	0.225250
O1861	O186	0.376080	0.701470	0.169510
O1871	O187	0.462960	0.781540	0.048180
O1881	O188	0.465750	0.857750	0.048860
O1891	O189	0.362360	0.308450	0.169280
O1901	O190	0.323580	0.272350	0.226410
O1911	O191	0.308060	0.387150	0.291780
O1921	O192	0.347430	0.422860	0.235460
O1931	O193	0.354640	0.588660	0.235540
O1941	O194	0.318340	0.627110	0.292200
O1951	O195	0.247800	0.507890	0.395500
C4891	C489	0.386540	0.227750	0.126660
H3091	H309	0.398700	0.255100	0.114300
C4901	C490	0.332000	0.591300	0.273700
C4911	C491	0.356880	0.229440	0.165470
C4921	C492	0.339550	0.189350	0.182900
H3101	H310	0.318800	0.190100	0.208700
C4931	C493	0.351900	0.147750	0.163400
C4941	C494	0.380740	0.146860	0.124400
H3111	H311	0.388700	0.118900	0.110000
C4951	C495	0.398140	0.187630	0.106410
C4961	C496	0.345600	0.071300	0.169600
H3121	H312	0.333300	0.065900	0.137300
H3131	H313	0.379000	0.069800	0.167800
C4971	C497	0.327800	0.034320	0.204200
C4981	C498	0.305100	0.044800	0.242500
H3141	H314	0.301300	0.075800	0.250700
C4991	C499	0.286200	0.011700	0.271700
H3151	H315	0.267100	0.020000	0.297500
C5001	C500	0.295300	0.967300	0.262600
H3161	H316	0.284300	0.944400	0.283300
C5011	C501	0.320500	0.955600	0.223600
C5021	C502	0.335700	0.989200	0.194900
H3171	H317	0.352500	0.981400	0.167300
C5031	C503	0.328100	0.905500	0.211900
H3181	H318	0.298600	0.889800	0.208700
H3191	H319	0.345400	0.890700	0.237800
C5041	C504	0.367400	0.861050	0.156100
C5051	C505	0.354820	0.821210	0.177800
H3201	H320	0.333700	0.821400	0.203300
C5061	C506	0.373370	0.780720	0.162000
C5071	C507	0.403590	0.780390	0.125100
H3211	H321	0.416100	0.752500	0.114700
C5081	C508	0.416110	0.820020	0.102900
C5091	C509	0.398500	0.861700	0.119000
H3221	H322	0.407700	0.889500	0.104800
C5101	C510	0.346450	0.272880	0.187800
C5111	C511	0.430110	0.185770	0.065600
C5121	C512	0.361750	0.738640	0.186800
C5131	C513	0.450230	0.820300	0.064320
C5141	C514	0.313900	0.466900	0.296800
C5151	C515	0.286900	0.468700	0.336700
H3231	H323	0.276600	0.441400	0.351000
C5161	C516	0.274900	0.509600	0.355700
C5171	C517	0.291400	0.549600	0.336300
H3241	H324	0.283700	0.577900	0.350100
C5181	C518	0.319000	0.548100	0.296800
C5191	C519	0.329900	0.507210	0.276800
H3251	H325	0.348500	0.506200	0.249200
C5201	C520	0.229200	0.546500	0.412400
H3261	H326	0.253100	0.569300	0.418800
H3271	H327	0.207700	0.559300	0.388900
C5211	C521	0.203900	0.533800	0.459500
C5221	C522	0.159200	0.531800	0.457400
H3281	H328	0.143200	0.532400	0.428000
C5231	C523	0.323600	0.422360	0.273300
C5241	C524	0.268100	0.327000	0.359100
H3291	H329	0.274100	0.358200	0.353900
C5251	C525	0.248700	0.313000	0.401700
H3301	H330	0.241500	0.334600	0.425600
C5261	C526	0.239900	0.267300	0.409300
H3311	H331	0.226600	0.257700	0.438500
C5271	C527	0.250400	0.235700	0.374400
H3321	H332	0.244400	0.204500	0.379600
C5281	C528	0.269800	0.249800	0.331800
H3331	H333	0.277000	0.228200	0.308000
N131	N13	0.278660	0.295400	0.324200
Cu351	Cu35	0.687870	0.673810	0.265210
Cu361	Cu36	0.641910	0.631180	0.198000
O1961	O196	0.555260	0.777620	0.048940
O1971	O197	0.557860	0.852950	0.049770
O1981	O198	0.667100	0.887600	0.184690
O1991	O199	0.647650	0.097430	0.168760
O2001	O200	0.660250	0.259450	0.225250
O2011	O201	0.623920	0.298530	0.169510
O2021	O202	0.537040	0.218460	0.048180
O2031	O203	0.534250	0.142250	0.048860
O2041	O204	0.637640	0.691550	0.169280
O2051	O205	0.676420	0.727650	0.226410
O2061	O206	0.691940	0.612850	0.291780
O2071	O207	0.652570	0.577140	0.235460
O2081	O208	0.645360	0.411340	0.235540
O2091	O209	0.681660	0.372890	0.292200
O2101	O210	0.752200	0.492110	0.395500
C5291	C529	0.613460	0.772250	0.126660
H3341	H334	0.601300	0.744900	0.114300
C5301	C530	0.668000	0.408700	0.273700
C5311	C531	0.643120	0.770560	0.165470
C5321	C532	0.660450	0.810650	0.182900
H3351	H335	0.681200	0.809900	0.208700
C5331	C533	0.648100	0.852250	0.163400
C5341	C534	0.619260	0.853140	0.124400
H3361	H336	0.611300	0.881100	0.110000
C5351	C535	0.601860	0.812370	0.106410
C5361	C536	0.654400	0.928700	0.169600
H3371	H337	0.666700	0.934100	0.137300
H3381	H338	0.621000	0.930200	0.167800
C5371	C537	0.672200	0.965680	0.204200
C5381	C538	0.694900	0.955200	0.242500
H3391	H339	0.698700	0.924200	0.250700
C5391	C539	0.713800	0.988300	0.271700
H3401	H340	0.732900	0.980000	0.297500
C5401	C540	0.704700	0.032700	0.262600
H3411	H341	0.715700	0.055600	0.283300
C5411	C541	0.679500	0.044400	0.223600
C5421	C542	0.664300	0.010800	0.194900
H3421	H342	0.647500	0.018600	0.167300
C5431	C543	0.671900	0.094500	0.211900
H3431	H343	0.701400	0.110200	0.208700
H3441	H344	0.654600	0.109300	0.237800
C5441	C544	0.632600	0.138950	0.156100
C5451	C545	0.645180	0.178790	0.177800
H3451	H345	0.666300	0.178600	0.203300
C5461	C546	0.626630	0.219280	0.162000
C5471	C547	0.596410	0.219610	0.125100
H3461	H346	0.583900	0.247500	0.114700
C5481	C548	0.583890	0.179980	0.102900
C5491	C549	0.601500	0.138300	0.119000
H3471	H347	0.592300	0.110500	0.104800
C5501	C550	0.653550	0.727120	0.187800
C5511	C551	0.569890	0.814230	0.065600
C5521	C552	0.638250	0.261360	0.186800
C5531	C553	0.549770	0.179700	0.064320
C5541	C554	0.686100	0.533100	0.296800
C5551	C555	0.713100	0.531300	0.336700
H3481	H348	0.723400	0.558600	0.351000
C5561	C556	0.725100	0.490400	0.355700
C5571	C557	0.708600	0.450400	0.336300
H3491	H349	0.716300	0.422100	0.350100
C5581	C558	0.681000	0.451900	0.296800
C5591	C559	0.670100	0.492790	0.276800
H3501	H350	0.651500	0.493800	0.249200
C5601	C560	0.770800	0.453500	0.412400
H3511	H351	0.746900	0.430700	0.418800
H3521	H352	0.792300	0.440700	0.388900
C5611	C561	0.796100	0.466200	0.459500
C5621	C562	0.840800	0.468200	0.457400
H3531	H353	0.856800	0.467600	0.428000
C5631	C563	0.676400	0.577640	0.273300
C5641	C564	0.731900	0.673000	0.359100
H3541	H354	0.725900	0.641800	0.353900
C5651	C565	0.751300	0.687000	0.401700
H3551	H355	0.758500	0.665400	0.425600
C5661	C566	0.760100	0.732700	0.409300
H3561	H356	0.773400	0.742300	0.438500
C5671	C567	0.749600	0.764300	0.374400
H3571	H357	0.755600	0.795500	0.379600
C5681	C568	0.730200	0.750200	0.331800
H3581	H358	0.723000	0.771800	0.308000
N141	N14	0.721340	0.704600	0.324200
Cu371	Cu37	0.673810	0.312130	0.265210
Cu381	Cu38	0.631180	0.358090	0.198000
O2111	O211	0.777620	0.444740	0.048940
O2121	O212	0.852950	0.442140	0.049770
O2131	O213	0.887600	0.332900	0.184690
O2141	O214	0.097430	0.352350	0.168760
O2151	O215	0.259450	0.339750	0.225250
O2161	O216	0.298530	0.376080	0.169510
O2171	O217	0.218460	0.462960	0.048180
O2181	O218	0.142250	0.465750	0.048860
O2191	O219	0.691550	0.362360	0.169280
O2201	O220	0.727650	0.323580	0.226410
O2211	O221	0.612850	0.308060	0.291780
O2221	O222	0.577140	0.347430	0.235460
O2231	O223	0.411340	0.354640	0.235540
O2241	O224	0.372890	0.318340	0.292200
O2251	O225	0.492110	0.247800	0.395500
C5691	C569	0.772250	0.386540	0.126660
H3591	H359	0.744900	0.398700	0.114300
C5701	C570	0.408700	0.332000	0.273700
C5711	C571	0.770560	0.356880	0.165470
C5721	C572	0.810650	0.339550	0.182900
H3601	H360	0.809900	0.318800	0.208700
C5731	C573	0.852250	0.351900	0.163400
C5741	C574	0.853140	0.380740	0.124400
H3611	H361	0.881100	0.388700	0.110000
C5751	C575	0.812370	0.398140	0.106410
C5761	C576	0.928700	0.345600	0.169600
H3621	H362	0.934100	0.333300	0.137300
H3631	H363	0.930200	0.379000	0.167800
C5771	C577	0.965680	0.327800	0.204200
C5781	C578	0.955200	0.305100	0.242500
H3641	H364	0.924200	0.301300	0.250700
C5791	C579	0.988300	0.286200	0.271700
H3651	H365	0.980000	0.267100	0.297500
C5801	C580	0.032700	0.295300	0.262600
H3661	H366	0.055600	0.284300	0.283300
C5811	C581	0.044400	0.320500	0.223600
C5821	C582	0.010800	0.335700	0.194900
H3671	H367	0.018600	0.352500	0.167300
C5831	C583	0.094500	0.328100	0.211900
H3681	H368	0.110200	0.298600	0.208700
H3691	H369	0.109300	0.345400	0.237800
C5841	C584	0.138950	0.367400	0.156100
C5851	C585	0.178790	0.354820	0.177800
H3701	H370	0.178600	0.333700	0.203300
C5861	C586	0.219280	0.373370	0.162000
C5871	C587	0.219610	0.403590	0.125100
H3711	H371	0.247500	0.416100	0.114700
C5881	C588	0.179980	0.416110	0.102900
C5891	C589	0.138300	0.398500	0.119000
H3721	H372	0.110500	0.407700	0.104800
C5901	C590	0.727120	0.346450	0.187800
C5911	C591	0.814230	0.430110	0.065600
C5921	C592	0.261360	0.361750	0.186800
C5931	C593	0.179700	0.450230	0.064320
C5941	C594	0.533100	0.313900	0.296800
C5951	C595	0.531300	0.286900	0.336700
H3731	H373	0.558600	0.276600	0.351000
C5961	C596	0.490400	0.274900	0.355700
C5971	C597	0.450400	0.291400	0.336300
H3741	H374	0.422100	0.283700	0.350100
C5981	C598	0.451900	0.319000	0.296800
C5991	C599	0.492790	0.329900	0.276800
H3751	H375	0.493800	0.348500	0.249200
C6001	C600	0.453500	0.229200	0.412400
H3761	H376	0.430700	0.253100	0.418800
H3771	H377	0.440700	0.207700	0.388900
C6011	C601	0.466200	0.203900	0.459500
C6021	C602	0.468200	0.159200	0.457400
H3781	H378	0.467600	0.143200	0.428000
C6031	C603	0.577640	0.323600	0.273300
C6041	C604	0.673000	0.268100	0.359100
H3791	H379	0.641800	0.274100	0.353900
C6051	C605	0.687000	0.248700	0.401700
H3801	H380	0.665400	0.241500	0.425600
C6061	C606	0.732700	0.239900	0.409300
H3811	H381	0.742300	0.226600	0.438500
C6071	C607	0.764300	0.250400	0.374400
H3821	H382	0.795500	0.244400	0.379600
C6081	C608	0.750200	0.269800	0.331800
H3831	H383	0.771800	0.277000	0.308000
N151	N15	0.704600	0.278660	0.324200
Cu391	Cu39	0.326190	0.687870	0.265210
Cu401	Cu40	0.368820	0.641910	0.198000
O2261	O226	0.222380	0.555260	0.048940
O2271	O227	0.147050	0.557860	0.049770
O2281	O228	0.112400	0.667100	0.184690
O2291	O229	0.902570	0.647650	0.168760
O2301	O230	0.740550	0.660250	0.225250
O2311	O231	0.701470	0.623920	0.169510
O2321	O232	0.781540	0.537040	0.048180
O2331	O233	0.857750	0.534250	0.048860
O2341	O234	0.308450	0.637640	0.169280
O2351	O235	0.272350	0.676420	0.226410
O2361	O236	0.387150	0.691940	0.291780
O2371	O237	0.422860	0.652570	0.235460
O2381	O238	0.588660	0.645360	0.235540
O2391	O239	0.627110	0.681660	0.292200
O2401	O240	0.507890	0.752200	0.395500
C6091	C609	0.227750	0.613460	0.126660
H3841	H384	0.255100	0.601300	0.114300
C6101	C610	0.591300	0.668000	0.273700
C6111	C611	0.229440	0.643120	0.165470
C6121	C612	0.189350	0.660450	0.182900
H3851	H385	0.190100	0.681200	0.208700
C6131	C613	0.147750	0.648100	0.163400
C6141	C614	0.146860	0.619260	0.124400
H3861	H386	0.118900	0.611300	0.110000
C6151	C615	0.187630	0.601860	0.106410
C6161	C616	0.071300	0.654400	0.169600
H3871	H387	0.065900	0.666700	0.137300
H3881	H388	0.069800	0.621000	0.167800
C6171	C617	0.034320	0.672200	0.204200
C6181	C618	0.044800	0.694900	0.242500
H3891	H389	0.075800	0.698700	0.250700
C6191	C619	0.011700	0.713800	0.271700
H3901	H390	0.020000	0.732900	0.297500
C6201	C620	0.967300	0.704700	0.262600
H3911	H391	0.944400	0.715700	0.283300
C6211	C621	0.955600	0.679500	0.223600
C6221	C622	0.989200	0.664300	0.194900
H3921	H392	0.981400	0.647500	0.167300
C6231	C623	0.905500	0.671900	0.211900
H3931	H393	0.889800	0.701400	0.208700
H3941	H394	0.890700	0.654600	0.237800
C6241	C624	0.861050	0.632600	0.156100
C6251	C625	0.821210	0.645180	0.177800
H3951	H395	0.821400	0.666300	0.203300
C6261	C626	0.780720	0.626630	0.162000
C6271	C627	0.780390	0.596410	0.125100
H3961	H396	0.752500	0.583900	0.114700
C6281	C628	0.820020	0.583890	0.102900
C6291	C629	0.861700	0.601500	0.119000
H3971	H397	0.889500	0.592300	0.104800
C6301	C630	0.272880	0.653550	0.187800
C6311	C631	0.185770	0.569890	0.065600
C6321	C632	0.738640	0.638250	0.186800
C6331	C633	0.820300	0.549770	0.064320
C6341	C634	0.466900	0.686100	0.296800
C6351	C635	0.468700	0.713100	0.336700
H3981	H398	0.441400	0.723400	0.351000
C6361	C636	0.509600	0.725100	0.355700
C6371	C637	0.549600	0.708600	0.336300
H3991	H399	0.577900	0.716300	0.350100
C6381	C638	0.548100	0.681000	0.296800
C6391	C639	0.507210	0.670100	0.276800
H4001	H400	0.506200	0.651500	0.249200
C6401	C640	0.546500	0.770800	0.412400
H4011	H401	0.569300	0.746900	0.418800
H4021	H402	0.559300	0.792300	0.388900
C6411	C641	0.533800	0.796100	0.459500
C6421	C642	0.531800	0.840800	0.457400
H4031	H403	0.532400	0.856800	0.428000
C6431	C643	0.422360	0.676400	0.273300
C6441	C644	0.327000	0.731900	0.359100
H4041	H404	0.358200	0.725900	0.353900
C6451	C645	0.313000	0.751300	0.401700
H4051	H405	0.334600	0.758500	0.425600
C6461	C646	0.267300	0.760100	0.409300
H4061	H406	0.257700	0.773400	0.438500
C6471	C647	0.235700	0.749600	0.374400
H4071	H407	0.204500	0.755600	0.379600
C6481	C648	0.249800	0.730200	0.331800
H4081	H408	0.228200	0.723000	0.308000
N161	N16	0.295400	0.721340	0.324200
Cu411	Cu41	0.512310	0.861760	0.000000
Cu421	Cu42	0.509250	0.773160	0.000000
Cu431	Cu43	0.487690	0.138240	0.000000
Cu441	Cu44	0.490750	0.226840	0.000000
Cu451	Cu45	0.138240	0.512310	0.000000
Cu461	Cu46	0.226840	0.509250	0.000000
Cu471	Cu47	0.861760	0.487690	0.000000
Cu481	Cu48	0.773160	0.490750	0.000000
C6491	C649	0.862600	0.471400	0.500000
H4091	H409	0.894400	0.476000	0.500000
C6501	C650	0.771400	0.468400	0.500000
H4101	H410	0.739300	0.471300	0.500000
C6511	C651	0.137400	0.528600	0.500000
H4111	H411	0.105600	0.524000	0.500000
C6521	C652	0.228600	0.531600	0.500000
H4121	H412	0.260700	0.528700	0.500000
C6531	C653	0.528600	0.862600	0.500000
H4131	H413	0.524000	0.894400	0.500000
C6541	C654	0.531600	0.771400	0.500000
H4141	H414	0.528700	0.739300	0.500000
C6551	C655	0.471400	0.137400	0.500000
H4151	H415	0.476000	0.105600	0.500000
C6561	C656	0.468400	0.228600	0.500000
H4161	H416	0.471300	0.260700	0.500000
