data_DUHXIP_clean_PM
_symmetry_space_group_name_H-M	'P1'
_cell_length_a	13.991400
_cell_length_b	20.256100
_cell_length_c	23.370300
_cell_angle_alpha	90.000000
_cell_angle_beta	90.000000
_cell_angle_gamma	90.000000
_symmetry_Int_Tables_number 1

loop_
_symmetry_equiv_pos_as_xyz
'x,y,z'

loop_
_atom_site_label
_atom_site_type_symbol
_atom_site_fract_x
_atom_site_fract_y
_atom_site_fract_z
Zn11	Zn1	0.822470	0.195150	0.247020
Zn21	Zn2	0.633040	0.226590	0.996100
Zn31	Zn3	0.792880	0.314950	0.779210
N11	N1	0.950300	0.205300	0.211500
N21	N2	0.092200	0.182000	0.176200
N31	N3	0.265900	0.975800	0.162600
N41	N4	0.232500	0.877800	0.198900
N51	N5	0.421800	0.185000	0.114500
N61	N6	0.548500	0.216200	0.064500
N71	N7	0.527900	0.244400	0.937800
N81	N8	0.398900	0.287400	0.898200
N91	N9	0.063600	0.320600	0.854700
N101	N10	0.921200	0.303100	0.818400
N111	N11	0.277400	0.510200	0.860100
N121	N12	0.261400	0.609300	0.824500
O11	O1	0.832600	0.331200	0.231200
O21	O2	0.719400	0.258400	0.242700
O31	O3	0.595900	0.090400	0.987000
O41	O4	0.712800	0.156600	0.966400
O51	O5	0.805100	0.840200	0.824100
O61	O6	0.932700	0.906600	0.809100
O71	O7	0.754000	0.278200	0.076700
O81	O8	0.704500	0.305400	0.992900
O91	O9	0.752600	0.228000	0.789700
O101	O10	0.613200	0.271500	0.770200
H11	H1	0.647000	0.303400	0.762800
C11	C1	0.745600	0.313900	0.234500
C21	C2	0.674500	0.368200	0.231300
C31	C3	0.576700	0.356700	0.239600
H21	H2	0.555800	0.313400	0.244000
C41	C4	0.510400	0.406700	0.241500
H31	H3	0.447900	0.396500	0.251800
C51	C5	0.533700	0.474400	0.228300
C61	C6	0.633300	0.485500	0.216700
H41	H4	0.653700	0.527800	0.207200
C71	C7	0.699800	0.434900	0.219200
H51	H5	0.763700	0.444900	0.212600
C81	C8	0.025900	0.169200	0.214700
H61	H6	0.033200	0.136500	0.242300
C91	C9	0.965800	0.245600	0.166400
H71	H7	0.922000	0.275800	0.151700
C101	C10	0.056000	0.235000	0.145500
H81	H8	0.086700	0.258500	0.116600
C111	C11	0.178700	0.151600	0.164800
C121	C12	0.180600	0.081100	0.169000
H91	H9	0.126400	0.057600	0.179900
C131	C13	0.265900	0.048800	0.156400
C141	C14	0.346300	0.078600	0.138300
H101	H10	0.401400	0.055200	0.129200
C151	C15	0.340700	0.151100	0.134000
C161	C16	0.258400	0.185300	0.147100
H111	H11	0.256900	0.231000	0.144000
C171	C17	0.217000	0.943800	0.204100
H121	H12	0.178900	0.963700	0.231700
C181	C18	0.291700	0.873200	0.152700
H131	H13	0.313300	0.833000	0.138500
C191	C19	0.317100	0.933300	0.128600
H141	H14	0.357400	0.942300	0.098000
C201	C20	0.457100	0.243300	0.138700
H151	H15	0.430800	0.265500	0.169800
C211	C21	0.536600	0.262200	0.109100
H161	H16	0.575400	0.298400	0.116900
C221	C22	0.478200	0.169200	0.070900
H171	H17	0.471200	0.132000	0.048100
C231	C23	0.671400	0.096600	0.967800
C241	C24	0.727900	0.044800	0.937800
C251	C25	0.686700	0.980400	0.937900
H181	H18	0.631600	0.971500	0.958800
C261	C26	0.732600	0.929900	0.905000
H191	H19	0.705100	0.888200	0.903300
C271	C27	0.817500	0.941800	0.875400
C281	C28	0.861200	0.006600	0.880000
H201	H20	0.919700	0.015400	0.862700
C291	C29	0.814100	0.055100	0.910800
H211	H21	0.841900	0.096700	0.913300
C301	C30	0.856100	0.891600	0.834700
C311	C31	0.754700	0.315600	0.032500
C321	C32	0.826500	0.371600	0.031700
C331	C33	0.869000	0.392900	0.086100
H221	H22	0.853700	0.373500	0.121000
C341	C34	0.936000	0.445800	0.080800
H231	H23	0.964000	0.461700	0.114200
C351	C35	0.962100	0.474900	0.030400
C361	C36	0.933700	0.443100	0.978200
H241	H24	0.960800	0.455400	0.943400
C371	C37	0.859300	0.389800	0.980700
H251	H25	0.836700	0.369900	0.947500
C381	C38	0.489200	0.199700	0.900900
H261	H26	0.514300	0.158000	0.893600
C391	C39	0.407800	0.224800	0.875800
H271	H27	0.367700	0.204000	0.849700
C401	C40	0.471800	0.295900	0.936200
H281	H28	0.480500	0.333600	0.958300
C411	C41	0.320600	0.331700	0.886900
C421	C42	0.232900	0.304100	0.879400
H291	H29	0.224100	0.258800	0.883300
C431	C43	0.156600	0.345500	0.865700
C441	C44	0.170100	0.415200	0.862000
H301	H30	0.119100	0.443900	0.856100
C451	C45	0.260700	0.437500	0.867600
C461	C46	0.341500	0.400400	0.881500
H311	H31	0.402000	0.418400	0.886700
C471	C47	0.024500	0.268300	0.884800
H321	H32	0.053000	0.244900	0.914400
C481	C48	0.936400	0.258100	0.862300
H331	H33	0.893100	0.226100	0.874400
C491	C49	0.001300	0.338200	0.814000
H341	H34	0.012400	0.370400	0.786500
C501	C50	0.224000	0.545200	0.824100
H351	H35	0.172200	0.530100	0.802900
C511	C51	0.339500	0.604700	0.860300
H361	H36	0.381100	0.639700	0.866700
C521	C52	0.349400	0.550000	0.883400
H371	H37	0.395000	0.538000	0.910500
C531	C53	0.665500	0.222000	0.781100
C541	C54	0.613700	0.156500	0.780500
C551	C55	0.666300	0.100900	0.794800
H381	H38	0.730200	0.104800	0.805500
C561	C56	0.621200	0.037300	0.793000
H391	H39	0.656300	0.999300	0.800500
C571	C57	0.523000	0.033000	0.779900
C581	C58	0.475100	0.090700	0.763300
H401	H40	0.411800	0.087400	0.751500
C591	C59	0.517700	0.152200	0.763700
H411	H41	0.483700	0.189700	0.753100
H421	H42	0.777100	0.405900	0.032500
Zn41	Zn4	0.177530	0.804850	0.247020
Zn51	Zn5	0.366960	0.773410	0.996100
Zn61	Zn6	0.207120	0.685050	0.779210
N131	N13	0.049700	0.794700	0.211500
N141	N14	0.907800	0.818000	0.176200
N151	N15	0.734100	0.024200	0.162600
N161	N16	0.767500	0.122200	0.198900
N171	N17	0.578200	0.815000	0.114500
N181	N18	0.451500	0.783800	0.064500
N191	N19	0.472100	0.755600	0.937800
N201	N20	0.601100	0.712600	0.898200
N211	N21	0.936400	0.679400	0.854700
N221	N22	0.078800	0.696900	0.818400
N231	N23	0.722600	0.489800	0.860100
N241	N24	0.738600	0.390700	0.824500
O111	O11	0.167400	0.668800	0.231200
O121	O12	0.280600	0.741600	0.242700
O131	O13	0.404100	0.909600	0.987000
O141	O14	0.287200	0.843400	0.966400
O151	O15	0.194900	0.159800	0.824100
O161	O16	0.067300	0.093400	0.809100
O171	O17	0.246000	0.721800	0.076700
O181	O18	0.295500	0.694600	0.992900
O191	O19	0.247400	0.772000	0.789700
O201	O20	0.386800	0.728500	0.770200
H431	H43	0.353000	0.696600	0.762800
C601	C60	0.254400	0.686100	0.234500
C611	C61	0.325500	0.631800	0.231300
C621	C62	0.423300	0.643300	0.239600
H441	H44	0.444200	0.686600	0.244000
C631	C63	0.489600	0.593300	0.241500
H451	H45	0.552100	0.603500	0.251800
C641	C64	0.466300	0.525600	0.228300
C651	C65	0.366700	0.514500	0.216700
H461	H46	0.346300	0.472200	0.207200
C661	C66	0.300200	0.565100	0.219200
H471	H47	0.236300	0.555100	0.212600
C671	C67	0.974100	0.830800	0.214700
H481	H48	0.966800	0.863500	0.242300
C681	C68	0.034200	0.754400	0.166400
H491	H49	0.078000	0.724200	0.151700
C691	C69	0.944000	0.765000	0.145500
H501	H50	0.913300	0.741500	0.116600
C701	C70	0.821300	0.848400	0.164800
C711	C71	0.819400	0.918900	0.169000
H511	H51	0.873600	0.942400	0.179900
C721	C72	0.734100	0.951200	0.156400
C731	C73	0.653700	0.921400	0.138300
H521	H52	0.598600	0.944800	0.129200
C741	C74	0.659300	0.848900	0.134000
C751	C75	0.741600	0.814700	0.147100
H531	H53	0.743100	0.769000	0.144000
C761	C76	0.783000	0.056200	0.204100
H541	H54	0.821100	0.036300	0.231700
C771	C77	0.708300	0.126800	0.152700
H551	H55	0.686700	0.167000	0.138500
C781	C78	0.682900	0.066700	0.128600
H561	H56	0.642600	0.057700	0.098000
C791	C79	0.542900	0.756700	0.138700
H571	H57	0.569200	0.734500	0.169800
C801	C80	0.463400	0.737800	0.109100
H581	H58	0.424600	0.701600	0.116900
C811	C81	0.521800	0.830800	0.070900
H591	H59	0.528800	0.868000	0.048100
C821	C82	0.328600	0.903400	0.967800
C831	C83	0.272100	0.955200	0.937800
C841	C84	0.313300	0.019600	0.937900
H601	H60	0.368400	0.028500	0.958800
C851	C85	0.267400	0.070100	0.905000
H611	H61	0.294900	0.111800	0.903300
C861	C86	0.182500	0.058200	0.875400
C871	C87	0.138800	0.993400	0.880000
H621	H62	0.080300	0.984600	0.862700
C881	C88	0.185900	0.944900	0.910800
H631	H63	0.158100	0.903300	0.913300
C891	C89	0.143900	0.108400	0.834700
C901	C90	0.245300	0.684400	0.032500
C911	C91	0.173500	0.628400	0.031700
C921	C92	0.131000	0.607100	0.086100
H641	H64	0.146300	0.626500	0.121000
C931	C93	0.064000	0.554200	0.080800
H651	H65	0.036000	0.538300	0.114200
C941	C94	0.037900	0.525100	0.030400
C951	C95	0.066300	0.556900	0.978200
H661	H66	0.039200	0.544600	0.943400
C961	C96	0.140700	0.610200	0.980700
H671	H67	0.163300	0.630100	0.947500
C971	C97	0.510800	0.800300	0.900900
H681	H68	0.485700	0.842000	0.893600
C981	C98	0.592200	0.775200	0.875800
H691	H69	0.632300	0.796000	0.849700
C991	C99	0.528200	0.704100	0.936200
H701	H70	0.519500	0.666400	0.958300
C1001	C100	0.679400	0.668300	0.886900
C1011	C101	0.767100	0.695900	0.879400
H711	H71	0.775900	0.741200	0.883300
C1021	C102	0.843400	0.654500	0.865700
C1031	C103	0.829900	0.584800	0.862000
H721	H72	0.880900	0.556100	0.856100
C1041	C104	0.739300	0.562500	0.867600
C1051	C105	0.658500	0.599600	0.881500
H731	H73	0.598000	0.581600	0.886700
C1061	C106	0.975500	0.731700	0.884800
H741	H74	0.947000	0.755100	0.914400
C1071	C107	0.063600	0.741900	0.862300
H751	H75	0.106900	0.773900	0.874400
C1081	C108	0.998700	0.661800	0.814000
H761	H76	0.987600	0.629600	0.786500
C1091	C109	0.776000	0.454800	0.824100
H771	H77	0.827800	0.469900	0.802900
C1101	C110	0.660500	0.395300	0.860300
H781	H78	0.618900	0.360300	0.866700
C1111	C111	0.650600	0.450000	0.883400
H791	H79	0.605000	0.462000	0.910500
C1121	C112	0.334500	0.778000	0.781100
C1131	C113	0.386300	0.843500	0.780500
C1141	C114	0.333700	0.899100	0.794800
H801	H80	0.269800	0.895200	0.805500
C1151	C115	0.378800	0.962700	0.793000
H811	H81	0.343700	0.000700	0.800500
C1161	C116	0.477000	0.967000	0.779900
C1171	C117	0.524900	0.909300	0.763300
H821	H82	0.588200	0.912600	0.751500
C1181	C118	0.482300	0.847800	0.763700
H831	H83	0.516300	0.810300	0.753100
H841	H84	0.222900	0.594100	0.032500
Zn71	Zn7	0.822470	0.804850	0.747020
Zn81	Zn8	0.633040	0.773410	0.496100
Zn91	Zn9	0.792880	0.685050	0.279210
N251	N25	0.950300	0.794700	0.711500
N261	N26	0.092200	0.818000	0.676200
N271	N27	0.265900	0.024200	0.662600
N281	N28	0.232500	0.122200	0.698900
N291	N29	0.421800	0.815000	0.614500
N301	N30	0.548500	0.783800	0.564500
N311	N31	0.527900	0.755600	0.437800
N321	N32	0.398900	0.712600	0.398200
N331	N33	0.063600	0.679400	0.354700
N341	N34	0.921200	0.696900	0.318400
N351	N35	0.277400	0.489800	0.360100
N361	N36	0.261400	0.390700	0.324500
O211	O21	0.832600	0.668800	0.731200
O221	O22	0.719400	0.741600	0.742700
O231	O23	0.595900	0.909600	0.487000
O241	O24	0.712800	0.843400	0.466400
O251	O25	0.805100	0.159800	0.324100
O261	O26	0.932700	0.093400	0.309100
O271	O27	0.754000	0.721800	0.576700
O281	O28	0.704500	0.694600	0.492900
O291	O29	0.752600	0.772000	0.289700
O301	O30	0.613200	0.728500	0.270200
H851	H85	0.647000	0.696600	0.262800
C1191	C119	0.745600	0.686100	0.734500
C1201	C120	0.674500	0.631800	0.731300
C1211	C121	0.576700	0.643300	0.739600
H861	H86	0.555800	0.686600	0.744000
C1221	C122	0.510400	0.593300	0.741500
H871	H87	0.447900	0.603500	0.751800
C1231	C123	0.533700	0.525600	0.728300
C1241	C124	0.633300	0.514500	0.716700
H881	H88	0.653700	0.472200	0.707200
C1251	C125	0.699800	0.565100	0.719200
H891	H89	0.763700	0.555100	0.712600
C1261	C126	0.025900	0.830800	0.714700
H901	H90	0.033200	0.863500	0.742300
C1271	C127	0.965800	0.754400	0.666400
H911	H91	0.922000	0.724200	0.651700
C1281	C128	0.056000	0.765000	0.645500
H921	H92	0.086700	0.741500	0.616600
C1291	C129	0.178700	0.848400	0.664800
C1301	C130	0.180600	0.918900	0.669000
H931	H93	0.126400	0.942400	0.679900
C1311	C131	0.265900	0.951200	0.656400
C1321	C132	0.346300	0.921400	0.638300
H941	H94	0.401400	0.944800	0.629200
C1331	C133	0.340700	0.848900	0.634000
C1341	C134	0.258400	0.814700	0.647100
H951	H95	0.256900	0.769000	0.644000
C1351	C135	0.217000	0.056200	0.704100
H961	H96	0.178900	0.036300	0.731700
C1361	C136	0.291700	0.126800	0.652700
H971	H97	0.313300	0.167000	0.638500
C1371	C137	0.317100	0.066700	0.628600
H981	H98	0.357400	0.057700	0.598000
C1381	C138	0.457100	0.756700	0.638700
H991	H99	0.430800	0.734500	0.669800
C1391	C139	0.536600	0.737800	0.609100
H1001	H100	0.575400	0.701600	0.616900
C1401	C140	0.478200	0.830800	0.570900
H1011	H101	0.471200	0.868000	0.548100
C1411	C141	0.671400	0.903400	0.467800
C1421	C142	0.727900	0.955200	0.437800
C1431	C143	0.686700	0.019600	0.437900
H1021	H102	0.631600	0.028500	0.458800
C1441	C144	0.732600	0.070100	0.405000
H1031	H103	0.705100	0.111800	0.403300
C1451	C145	0.817500	0.058200	0.375400
C1461	C146	0.861200	0.993400	0.380000
H1041	H104	0.919700	0.984600	0.362700
C1471	C147	0.814100	0.944900	0.410800
H1051	H105	0.841900	0.903300	0.413300
C1481	C148	0.856100	0.108400	0.334700
C1491	C149	0.754700	0.684400	0.532500
C1501	C150	0.826500	0.628400	0.531700
C1511	C151	0.869000	0.607100	0.586100
H1061	H106	0.853700	0.626500	0.621000
C1521	C152	0.936000	0.554200	0.580800
H1071	H107	0.964000	0.538300	0.614200
C1531	C153	0.962100	0.525100	0.530400
C1541	C154	0.933700	0.556900	0.478200
H1081	H108	0.960800	0.544600	0.443400
C1551	C155	0.859300	0.610200	0.480700
H1091	H109	0.836700	0.630100	0.447500
C1561	C156	0.489200	0.800300	0.400900
H1101	H110	0.514300	0.842000	0.393600
C1571	C157	0.407800	0.775200	0.375800
H1111	H111	0.367700	0.796000	0.349700
C1581	C158	0.471800	0.704100	0.436200
H1121	H112	0.480500	0.666400	0.458300
C1591	C159	0.320600	0.668300	0.386900
C1601	C160	0.232900	0.695900	0.379400
H1131	H113	0.224100	0.741200	0.383300
C1611	C161	0.156600	0.654500	0.365700
C1621	C162	0.170100	0.584800	0.362000
H1141	H114	0.119100	0.556100	0.356100
C1631	C163	0.260700	0.562500	0.367600
C1641	C164	0.341500	0.599600	0.381500
H1151	H115	0.402000	0.581600	0.386700
C1651	C165	0.024500	0.731700	0.384800
H1161	H116	0.053000	0.755100	0.414400
C1661	C166	0.936400	0.741900	0.362300
H1171	H117	0.893100	0.773900	0.374400
C1671	C167	0.001300	0.661800	0.314000
H1181	H118	0.012400	0.629600	0.286500
C1681	C168	0.224000	0.454800	0.324100
H1191	H119	0.172200	0.469900	0.302900
C1691	C169	0.339500	0.395300	0.360300
H1201	H120	0.381100	0.360300	0.366700
C1701	C170	0.349400	0.450000	0.383400
H1211	H121	0.395000	0.462000	0.410500
C1711	C171	0.665500	0.778000	0.281100
C1721	C172	0.613700	0.843500	0.280500
C1731	C173	0.666300	0.899100	0.294800
H1221	H122	0.730200	0.895200	0.305500
C1741	C174	0.621200	0.962700	0.293000
H1231	H123	0.656300	0.000700	0.300500
C1751	C175	0.523000	0.967000	0.279900
C1761	C176	0.475100	0.909300	0.263300
H1241	H124	0.411800	0.912600	0.251500
C1771	C177	0.517700	0.847800	0.263700
H1251	H125	0.483700	0.810300	0.253100
H1261	H126	0.777100	0.594100	0.532500
Zn101	Zn10	0.177530	0.195150	0.747020
Zn111	Zn11	0.366960	0.226590	0.496100
Zn121	Zn12	0.207120	0.314950	0.279210
N371	N37	0.049700	0.205300	0.711500
N381	N38	0.907800	0.182000	0.676200
N391	N39	0.734100	0.975800	0.662600
N401	N40	0.767500	0.877800	0.698900
N411	N41	0.578200	0.185000	0.614500
N421	N42	0.451500	0.216200	0.564500
N431	N43	0.472100	0.244400	0.437800
N441	N44	0.601100	0.287400	0.398200
N451	N45	0.936400	0.320600	0.354700
N461	N46	0.078800	0.303100	0.318400
N471	N47	0.722600	0.510200	0.360100
N481	N48	0.738600	0.609300	0.324500
O311	O31	0.167400	0.331200	0.731200
O321	O32	0.280600	0.258400	0.742700
O331	O33	0.404100	0.090400	0.487000
O341	O34	0.287200	0.156600	0.466400
O351	O35	0.194900	0.840200	0.324100
O361	O36	0.067300	0.906600	0.309100
O371	O37	0.246000	0.278200	0.576700
O381	O38	0.295500	0.305400	0.492900
O391	O39	0.247400	0.228000	0.289700
O401	O40	0.386800	0.271500	0.270200
H1271	H127	0.353000	0.303400	0.262800
C1781	C178	0.254400	0.313900	0.734500
C1791	C179	0.325500	0.368200	0.731300
C1801	C180	0.423300	0.356700	0.739600
H1281	H128	0.444200	0.313400	0.744000
C1811	C181	0.489600	0.406700	0.741500
H1291	H129	0.552100	0.396500	0.751800
C1821	C182	0.466300	0.474400	0.728300
C1831	C183	0.366700	0.485500	0.716700
H1301	H130	0.346300	0.527800	0.707200
C1841	C184	0.300200	0.434900	0.719200
H1311	H131	0.236300	0.444900	0.712600
C1851	C185	0.974100	0.169200	0.714700
H1321	H132	0.966800	0.136500	0.742300
C1861	C186	0.034200	0.245600	0.666400
H1331	H133	0.078000	0.275800	0.651700
C1871	C187	0.944000	0.235000	0.645500
H1341	H134	0.913300	0.258500	0.616600
C1881	C188	0.821300	0.151600	0.664800
C1891	C189	0.819400	0.081100	0.669000
H1351	H135	0.873600	0.057600	0.679900
C1901	C190	0.734100	0.048800	0.656400
C1911	C191	0.653700	0.078600	0.638300
H1361	H136	0.598600	0.055200	0.629200
C1921	C192	0.659300	0.151100	0.634000
C1931	C193	0.741600	0.185300	0.647100
H1371	H137	0.743100	0.231000	0.644000
C1941	C194	0.783000	0.943800	0.704100
H1381	H138	0.821100	0.963700	0.731700
C1951	C195	0.708300	0.873200	0.652700
H1391	H139	0.686700	0.833000	0.638500
C1961	C196	0.682900	0.933300	0.628600
H1401	H140	0.642600	0.942300	0.598000
C1971	C197	0.542900	0.243300	0.638700
H1411	H141	0.569200	0.265500	0.669800
C1981	C198	0.463400	0.262200	0.609100
H1421	H142	0.424600	0.298400	0.616900
C1991	C199	0.521800	0.169200	0.570900
H1431	H143	0.528800	0.132000	0.548100
C2001	C200	0.328600	0.096600	0.467800
C2011	C201	0.272100	0.044800	0.437800
C2021	C202	0.313300	0.980400	0.437900
H1441	H144	0.368400	0.971500	0.458800
C2031	C203	0.267400	0.929900	0.405000
H1451	H145	0.294900	0.888200	0.403300
C2041	C204	0.182500	0.941800	0.375400
C2051	C205	0.138800	0.006600	0.380000
H1461	H146	0.080300	0.015400	0.362700
C2061	C206	0.185900	0.055100	0.410800
H1471	H147	0.158100	0.096700	0.413300
C2071	C207	0.143900	0.891600	0.334700
C2081	C208	0.245300	0.315600	0.532500
C2091	C209	0.173500	0.371600	0.531700
C2101	C210	0.131000	0.392900	0.586100
H1481	H148	0.146300	0.373500	0.621000
C2111	C211	0.064000	0.445800	0.580800
H1491	H149	0.036000	0.461700	0.614200
C2121	C212	0.037900	0.474900	0.530400
C2131	C213	0.066300	0.443100	0.478200
H1501	H150	0.039200	0.455400	0.443400
C2141	C214	0.140700	0.389800	0.480700
H1511	H151	0.163300	0.369900	0.447500
C2151	C215	0.510800	0.199700	0.400900
H1521	H152	0.485700	0.158000	0.393600
C2161	C216	0.592200	0.224800	0.375800
H1531	H153	0.632300	0.204000	0.349700
C2171	C217	0.528200	0.295900	0.436200
H1541	H154	0.519500	0.333600	0.458300
C2181	C218	0.679400	0.331700	0.386900
C2191	C219	0.767100	0.304100	0.379400
H1551	H155	0.775900	0.258800	0.383300
C2201	C220	0.843400	0.345500	0.365700
C2211	C221	0.829900	0.415200	0.362000
H1561	H156	0.880900	0.443900	0.356100
C2221	C222	0.739300	0.437500	0.367600
C2231	C223	0.658500	0.400400	0.381500
H1571	H157	0.598000	0.418400	0.386700
C2241	C224	0.975500	0.268300	0.384800
H1581	H158	0.947000	0.244900	0.414400
C2251	C225	0.063600	0.258100	0.362300
H1591	H159	0.106900	0.226100	0.374400
C2261	C226	0.998700	0.338200	0.314000
H1601	H160	0.987600	0.370400	0.286500
C2271	C227	0.776000	0.545200	0.324100
H1611	H161	0.827800	0.530100	0.302900
C2281	C228	0.660500	0.604700	0.360300
H1621	H162	0.618900	0.639700	0.366700
C2291	C229	0.650600	0.550000	0.383400
H1631	H163	0.605000	0.538000	0.410500
C2301	C230	0.334500	0.222000	0.281100
C2311	C231	0.386300	0.156500	0.280500
C2321	C232	0.333700	0.100900	0.294800
H1641	H164	0.269800	0.104800	0.305500
C2331	C233	0.378800	0.037300	0.293000
H1651	H165	0.343700	0.999300	0.300500
C2341	C234	0.477000	0.033000	0.279900
C2351	C235	0.524900	0.090700	0.263300
H1661	H166	0.588200	0.087400	0.251500
C2361	C236	0.482300	0.152200	0.263700
H1671	H167	0.516300	0.189700	0.253100
H1681	H168	0.222900	0.405900	0.532500
