data_DUKNII_clean_PM
_symmetry_space_group_name_H-M	'P1'
_cell_length_a	46.108000
_cell_length_b	10.675800
_cell_length_c	23.633000
_cell_angle_alpha	90.000000
_cell_angle_beta	95.274000
_cell_angle_gamma	90.000000
_symmetry_Int_Tables_number 1

loop_
_symmetry_equiv_pos_as_xyz
'x,y,z'

loop_
_atom_site_label
_atom_site_type_symbol
_atom_site_fract_x
_atom_site_fract_y
_atom_site_fract_z
C11	C1	0.188850	0.100300	0.049830
C21	C2	0.170830	0.203100	0.067560
C31	C3	0.152680	0.188400	0.109670
H11	H1	0.151800	0.110700	0.127200
C41	C4	0.135340	0.286700	0.127360
H21	H2	0.122700	0.274900	0.155400
C51	C5	0.137830	0.399600	0.101730
C61	C6	0.155870	0.416200	0.060740
H31	H3	0.157700	0.495200	0.044900
C71	C7	0.171570	0.317500	0.042110
H41	H4	0.182800	0.328800	0.011800
C81	C8	0.103160	0.563100	0.086210
C91	C9	0.088910	0.506700	0.040550
H51	H5	0.093800	0.425500	0.030700
C101	C10	0.067240	0.570100	0.009040
H61	H6	0.057200	0.531200	0.977900
C111	C11	0.060070	0.690500	0.022900
C121	C12	0.075140	0.748100	0.067450
H71	H7	0.070900	0.830700	0.076200
C131	C13	0.096870	0.683800	0.100000
H81	H8	0.107100	0.722500	0.131000
C141	C14	0.034590	0.750400	0.990500
C151	C15	0.288120	0.713100	0.150570
C161	C16	0.303430	0.777000	0.193790
H91	H9	0.297100	0.856100	0.203700
C171	C17	0.328530	0.726300	0.223580
H101	H10	0.338600	0.770800	0.253000
C181	C18	0.338110	0.608200	0.208310
C191	C19	0.323620	0.545300	0.165060
H111	H11	0.330200	0.467600	0.154000
C201	C20	0.298540	0.598300	0.136970
H121	H12	0.288500	0.553300	0.107700
C211	C21	0.387350	0.550400	0.214600
C221	C22	0.393130	0.613600	0.167100
H131	H13	0.378500	0.660900	0.147700
C231	C23	0.420190	0.609000	0.147140
H141	H14	0.423600	0.654900	0.115000
C241	C24	0.442410	0.537500	0.173890
C251	C25	0.436000	0.469700	0.221180
H151	H15	0.450200	0.417800	0.239100
C261	C26	0.408730	0.477000	0.242750
H161	H16	0.405100	0.433200	0.275400
C271	C27	0.472150	0.536600	0.151910
C281	C28	0.177510	0.833200	0.171790
H171	H17	0.176300	0.919200	0.165700
C291	C29	0.161380	0.783700	0.212670
H181	H18	0.149500	0.834500	0.232700
C301	C30	0.163290	0.655900	0.223050
C311	C31	0.181500	0.588000	0.191420
H191	H19	0.183400	0.502100	0.196900
C321	C32	0.196660	0.646400	0.152070
H201	H20	0.209200	0.598200	0.132300
C331	C33	0.193280	0.330000	0.483960
H211	H21	0.212800	0.353500	0.488200
C341	C34	0.175170	0.396200	0.444750
H221	H22	0.182200	0.461700	0.424000
C351	C35	0.146530	0.361800	0.437600
C361	C36	0.137420	0.266200	0.470080
H231	H23	0.118100	0.240500	0.466400
C371	C37	0.157210	0.209600	0.507790
H241	H24	0.150500	0.145900	0.530000
C381	C38	0.050230	0.227600	0.171530
H251	H25	0.050400	0.141100	0.176000
C391	C39	0.066830	0.295800	0.211000
H261	H26	0.078100	0.255900	0.240400
C401	C40	0.066830	0.421900	0.207070
C411	C41	0.049520	0.474100	0.161910
H271	H27	0.048300	0.560600	0.157700
C421	C42	0.034130	0.396400	0.123370
H281	H28	0.023300	0.433100	0.092600
C431	C43	0.064510	0.842800	0.511170
H291	H29	0.070700	0.892000	0.542400
C441	C44	0.084210	0.814700	0.473700
H301	H30	0.103400	0.842200	0.479800
C451	C45	0.075160	0.745200	0.427090
C461	C46	0.046610	0.707200	0.418490
H311	H31	0.039700	0.660700	0.386800
C471	C47	0.028980	0.741700	0.459320
H321	H32	0.009500	0.718500	0.453700
C481	C48	0.086750	0.614000	0.350340
H331	H33	0.073000	0.649800	0.321300
H341	H34	0.077100	0.546900	0.368900
C491	C49	0.101010	0.453300	0.286680
H351	H35	0.116800	0.408600	0.271300
H361	H36	0.090800	0.395400	0.309400
C501	C50	0.136290	0.516700	0.367090
H371	H37	0.153000	0.489100	0.348400
H381	H38	0.142500	0.585600	0.392200
C511	C51	0.126920	0.657600	0.288080
H391	H39	0.112500	0.695900	0.261000
H401	H40	0.136000	0.722700	0.312300
C521	C52	0.261620	0.766100	0.121410
C531	C53	0.112940	0.561900	0.323030
N11	N1	0.194660	0.767800	0.140230
N21	N2	0.033890	0.273600	0.127430
N31	N3	0.185580	0.237500	0.515740
N41	N4	0.037230	0.805300	0.506160
Ni11	Ni1	0.214950	0.846120	0.073970
Ni21	Ni2	0.991500	0.831310	0.930030
O11	O1	0.191480	0.004900	0.080520
O21	O2	0.201310	0.112400	0.005680
O31	O3	0.252770	0.873800	0.133890
O41	O4	0.247140	0.703500	0.081680
O51	O5	0.477980	0.634200	0.124780
O61	O6	0.488370	0.445500	0.162620
O71	O7	0.028700	0.865000	0.996850
O81	O8	0.018440	0.683700	0.956220
O91	O9	0.361980	0.558900	0.240190
O101	O10	0.123090	0.500700	0.123780
O111	O11	0.096260	0.709400	0.391640
O121	O12	0.081550	0.502200	0.241660
O131	O13	0.126170	0.415400	0.400130
O141	O14	0.148290	0.593100	0.259150
C541	C54	0.688850	0.600300	0.049830
C551	C55	0.670830	0.703100	0.067560
C561	C56	0.652680	0.688400	0.109670
H411	H41	0.651800	0.610700	0.127200
C571	C57	0.635340	0.786700	0.127360
H421	H42	0.622700	0.774900	0.155400
C581	C58	0.637830	0.899600	0.101730
C591	C59	0.655870	0.916200	0.060740
H431	H43	0.657700	0.995200	0.044900
C601	C60	0.671570	0.817500	0.042110
H441	H44	0.682800	0.828800	0.011800
C611	C61	0.603160	0.063100	0.086210
C621	C62	0.588910	0.006700	0.040550
H451	H45	0.593800	0.925500	0.030700
C631	C63	0.567240	0.070100	0.009040
H461	H46	0.557200	0.031200	0.977900
C641	C64	0.560070	0.190500	0.022900
C651	C65	0.575140	0.248100	0.067450
H471	H47	0.570900	0.330700	0.076200
C661	C66	0.596870	0.183800	0.100000
H481	H48	0.607100	0.222500	0.131000
C671	C67	0.534590	0.250400	0.990500
C681	C68	0.788120	0.213100	0.150570
C691	C69	0.803430	0.277000	0.193790
H491	H49	0.797100	0.356100	0.203700
C701	C70	0.828530	0.226300	0.223580
H501	H50	0.838600	0.270800	0.253000
C711	C71	0.838110	0.108200	0.208310
C721	C72	0.823620	0.045300	0.165060
H511	H51	0.830200	0.967600	0.154000
C731	C73	0.798540	0.098300	0.136970
H521	H52	0.788500	0.053300	0.107700
C741	C74	0.887350	0.050400	0.214600
C751	C75	0.893130	0.113600	0.167100
H531	H53	0.878500	0.160900	0.147700
C761	C76	0.920190	0.109000	0.147140
H541	H54	0.923600	0.154900	0.115000
C771	C77	0.942410	0.037500	0.173890
C781	C78	0.936000	0.969700	0.221180
H551	H55	0.950200	0.917800	0.239100
C791	C79	0.908730	0.977000	0.242750
H561	H56	0.905100	0.933200	0.275400
C801	C80	0.972150	0.036600	0.151910
C811	C81	0.677510	0.333200	0.171790
H571	H57	0.676300	0.419200	0.165700
C821	C82	0.661380	0.283700	0.212670
H581	H58	0.649500	0.334500	0.232700
C831	C83	0.663290	0.155900	0.223050
C841	C84	0.681500	0.088000	0.191420
H591	H59	0.683400	0.002100	0.196900
C851	C85	0.696660	0.146400	0.152070
H601	H60	0.709200	0.098200	0.132300
C861	C86	0.693280	0.830000	0.483960
H611	H61	0.712800	0.853500	0.488200
C871	C87	0.675170	0.896200	0.444750
H621	H62	0.682200	0.961700	0.424000
C881	C88	0.646530	0.861800	0.437600
C891	C89	0.637420	0.766200	0.470080
H631	H63	0.618100	0.740500	0.466400
C901	C90	0.657210	0.709600	0.507790
H641	H64	0.650500	0.645900	0.530000
C911	C91	0.550230	0.727600	0.171530
H651	H65	0.550400	0.641100	0.176000
C921	C92	0.566830	0.795800	0.211000
H661	H66	0.578100	0.755900	0.240400
C931	C93	0.566830	0.921900	0.207070
C941	C94	0.549520	0.974100	0.161910
H671	H67	0.548300	0.060600	0.157700
C951	C95	0.534130	0.896400	0.123370
H681	H68	0.523300	0.933100	0.092600
C961	C96	0.564510	0.342800	0.511170
H691	H69	0.570700	0.392000	0.542400
C971	C97	0.584210	0.314700	0.473700
H701	H70	0.603400	0.342200	0.479800
C981	C98	0.575160	0.245200	0.427090
C991	C99	0.546610	0.207200	0.418490
H711	H71	0.539700	0.160700	0.386800
C1001	C100	0.528980	0.241700	0.459320
H721	H72	0.509500	0.218500	0.453700
C1011	C101	0.586750	0.114000	0.350340
H731	H73	0.573000	0.149800	0.321300
H741	H74	0.577100	0.046900	0.368900
C1021	C102	0.601010	0.953300	0.286680
H751	H75	0.616800	0.908600	0.271300
H761	H76	0.590800	0.895400	0.309400
C1031	C103	0.636290	0.016700	0.367090
H771	H77	0.653000	0.989100	0.348400
H781	H78	0.642500	0.085600	0.392200
C1041	C104	0.626920	0.157600	0.288080
H791	H79	0.612500	0.195900	0.261000
H801	H80	0.636000	0.222700	0.312300
C1051	C105	0.761620	0.266100	0.121410
C1061	C106	0.612940	0.061900	0.323030
N51	N5	0.694660	0.267800	0.140230
N61	N6	0.533890	0.773600	0.127430
N71	N7	0.685580	0.737500	0.515740
N81	N8	0.537230	0.305300	0.506160
Ni31	Ni3	0.714950	0.346120	0.073970
Ni41	Ni4	0.491500	0.331310	0.930030
O151	O15	0.691480	0.504900	0.080520
O161	O16	0.701310	0.612400	0.005680
O171	O17	0.752770	0.373800	0.133890
O181	O18	0.747140	0.203500	0.081680
O191	O19	0.977980	0.134200	0.124780
O201	O20	0.988370	0.945500	0.162620
O211	O21	0.528700	0.365000	0.996850
O221	O22	0.518440	0.183700	0.956220
O231	O23	0.861980	0.058900	0.240190
O241	O24	0.623090	0.000700	0.123780
O251	O25	0.596260	0.209400	0.391640
O261	O26	0.581550	0.002200	0.241660
O271	O27	0.626170	0.915400	0.400130
O281	O28	0.648290	0.093100	0.259150
C1071	C107	0.811150	0.100300	0.450170
C1081	C108	0.829170	0.203100	0.432440
C1091	C109	0.847320	0.188400	0.390330
H811	H81	0.848200	0.110700	0.372800
C1101	C110	0.864660	0.286700	0.372640
H821	H82	0.877300	0.274900	0.344600
C1111	C111	0.862170	0.399600	0.398270
C1121	C112	0.844130	0.416200	0.439260
H831	H83	0.842300	0.495200	0.455100
C1131	C113	0.828430	0.317500	0.457890
H841	H84	0.817200	0.328800	0.488200
C1141	C114	0.896840	0.563100	0.413790
C1151	C115	0.911090	0.506700	0.459450
H851	H85	0.906200	0.425500	0.469300
C1161	C116	0.932760	0.570100	0.490960
H861	H86	0.942800	0.531200	0.522100
C1171	C117	0.939930	0.690500	0.477100
C1181	C118	0.924860	0.748100	0.432550
H871	H87	0.929100	0.830700	0.423800
C1191	C119	0.903130	0.683800	0.400000
H881	H88	0.892900	0.722500	0.369000
C1201	C120	0.965410	0.750400	0.509500
C1211	C121	0.711880	0.713100	0.349430
C1221	C122	0.696570	0.777000	0.306210
H891	H89	0.702900	0.856100	0.296300
C1231	C123	0.671470	0.726300	0.276420
H901	H90	0.661400	0.770800	0.247000
C1241	C124	0.661890	0.608200	0.291690
C1251	C125	0.676380	0.545300	0.334940
H911	H91	0.669800	0.467600	0.346000
C1261	C126	0.701460	0.598300	0.363030
H921	H92	0.711500	0.553300	0.392300
C1271	C127	0.612650	0.550400	0.285400
C1281	C128	0.606870	0.613600	0.332900
H931	H93	0.621500	0.660900	0.352300
C1291	C129	0.579810	0.609000	0.352860
H941	H94	0.576400	0.654900	0.385000
C1301	C130	0.557590	0.537500	0.326110
C1311	C131	0.564000	0.469700	0.278820
H951	H95	0.549800	0.417800	0.260900
C1321	C132	0.591270	0.477000	0.257250
H961	H96	0.594900	0.433200	0.224600
C1331	C133	0.527850	0.536600	0.348090
C1341	C134	0.822490	0.833200	0.328210
H971	H97	0.823700	0.919200	0.334300
C1351	C135	0.838620	0.783700	0.287330
H981	H98	0.850500	0.834500	0.267300
C1361	C136	0.836710	0.655900	0.276950
C1371	C137	0.818500	0.588000	0.308580
H991	H99	0.816600	0.502100	0.303100
C1381	C138	0.803340	0.646400	0.347930
H1001	H100	0.790800	0.598200	0.367700
C1391	C139	0.806720	0.330000	0.016040
H1011	H101	0.787200	0.353500	0.011800
C1401	C140	0.824830	0.396200	0.055250
H1021	H102	0.817800	0.461700	0.076000
C1411	C141	0.853470	0.361800	0.062400
C1421	C142	0.862580	0.266200	0.029920
H1031	H103	0.881900	0.240500	0.033600
C1431	C143	0.842790	0.209600	0.992210
H1041	H104	0.849500	0.145900	0.970000
C1441	C144	0.949770	0.227600	0.328470
H1051	H105	0.949600	0.141100	0.324000
C1451	C145	0.933170	0.295800	0.289000
H1061	H106	0.921900	0.255900	0.259600
C1461	C146	0.933170	0.421900	0.292930
C1471	C147	0.950480	0.474100	0.338090
H1071	H107	0.951700	0.560600	0.342300
C1481	C148	0.965870	0.396400	0.376630
H1081	H108	0.976700	0.433100	0.407400
C1491	C149	0.935490	0.842800	0.988830
H1091	H109	0.929300	0.892000	0.957600
C1501	C150	0.915790	0.814700	0.026300
H1101	H110	0.896600	0.842200	0.020200
C1511	C151	0.924840	0.745200	0.072910
C1521	C152	0.953390	0.707200	0.081510
H1111	H111	0.960300	0.660700	0.113200
C1531	C153	0.971020	0.741700	0.040680
H1121	H112	0.990500	0.718500	0.046300
C1541	C154	0.913250	0.614000	0.149660
H1131	H113	0.927000	0.649800	0.178700
H1141	H114	0.922900	0.546900	0.131100
C1551	C155	0.898990	0.453300	0.213320
H1151	H115	0.883200	0.408600	0.228700
H1161	H116	0.909200	0.395400	0.190600
C1561	C156	0.863710	0.516700	0.132910
H1171	H117	0.847000	0.489100	0.151600
H1181	H118	0.857500	0.585600	0.107800
C1571	C157	0.873080	0.657600	0.211920
H1191	H119	0.887500	0.695900	0.239000
H1201	H120	0.864000	0.722700	0.187700
C1581	C158	0.738380	0.766100	0.378590
C1591	C159	0.887060	0.561900	0.176970
N91	N9	0.805340	0.767800	0.359770
N101	N10	0.966110	0.273600	0.372570
N111	N11	0.814420	0.237500	0.984260
N121	N12	0.962770	0.805300	0.993840
Ni51	Ni5	0.785050	0.846120	0.426030
Ni61	Ni6	0.008500	0.831310	0.569970
O291	O29	0.808520	0.004900	0.419480
O301	O30	0.798690	0.112400	0.494320
O311	O31	0.747230	0.873800	0.366110
O321	O32	0.752860	0.703500	0.418320
O331	O33	0.522020	0.634200	0.375220
O341	O34	0.511630	0.445500	0.337380
O351	O35	0.971300	0.865000	0.503150
O361	O36	0.981560	0.683700	0.543780
O371	O37	0.638020	0.558900	0.259810
O381	O38	0.876910	0.500700	0.376220
O391	O39	0.903740	0.709400	0.108360
O401	O40	0.918450	0.502200	0.258340
O411	O41	0.873830	0.415400	0.099870
O421	O42	0.851710	0.593100	0.240850
C1601	C160	0.311150	0.600300	0.450170
C1611	C161	0.329170	0.703100	0.432440
C1621	C162	0.347320	0.688400	0.390330
H1211	H121	0.348200	0.610700	0.372800
C1631	C163	0.364660	0.786700	0.372640
H1221	H122	0.377300	0.774900	0.344600
C1641	C164	0.362170	0.899600	0.398270
C1651	C165	0.344130	0.916200	0.439260
H1231	H123	0.342300	0.995200	0.455100
C1661	C166	0.328430	0.817500	0.457890
H1241	H124	0.317200	0.828800	0.488200
C1671	C167	0.396840	0.063100	0.413790
C1681	C168	0.411090	0.006700	0.459450
H1251	H125	0.406200	0.925500	0.469300
C1691	C169	0.432760	0.070100	0.490960
H1261	H126	0.442800	0.031200	0.522100
C1701	C170	0.439930	0.190500	0.477100
C1711	C171	0.424860	0.248100	0.432550
H1271	H127	0.429100	0.330700	0.423800
C1721	C172	0.403130	0.183800	0.400000
H1281	H128	0.392900	0.222500	0.369000
C1731	C173	0.465410	0.250400	0.509500
C1741	C174	0.211880	0.213100	0.349430
C1751	C175	0.196570	0.277000	0.306210
H1291	H129	0.202900	0.356100	0.296300
C1761	C176	0.171470	0.226300	0.276420
H1301	H130	0.161400	0.270800	0.247000
C1771	C177	0.161890	0.108200	0.291690
C1781	C178	0.176380	0.045300	0.334940
H1311	H131	0.169800	0.967600	0.346000
C1791	C179	0.201460	0.098300	0.363030
H1321	H132	0.211500	0.053300	0.392300
C1801	C180	0.112650	0.050400	0.285400
C1811	C181	0.106870	0.113600	0.332900
H1331	H133	0.121500	0.160900	0.352300
C1821	C182	0.079810	0.109000	0.352860
H1341	H134	0.076400	0.154900	0.385000
C1831	C183	0.057590	0.037500	0.326110
C1841	C184	0.064000	0.969700	0.278820
H1351	H135	0.049800	0.917800	0.260900
C1851	C185	0.091270	0.977000	0.257250
H1361	H136	0.094900	0.933200	0.224600
C1861	C186	0.027850	0.036600	0.348090
C1871	C187	0.322490	0.333200	0.328210
H1371	H137	0.323700	0.419200	0.334300
C1881	C188	0.338620	0.283700	0.287330
H1381	H138	0.350500	0.334500	0.267300
C1891	C189	0.336710	0.155900	0.276950
C1901	C190	0.318500	0.088000	0.308580
H1391	H139	0.316600	0.002100	0.303100
C1911	C191	0.303340	0.146400	0.347930
H1401	H140	0.290800	0.098200	0.367700
C1921	C192	0.306720	0.830000	0.016040
H1411	H141	0.287200	0.853500	0.011800
C1931	C193	0.324830	0.896200	0.055250
H1421	H142	0.317800	0.961700	0.076000
C1941	C194	0.353470	0.861800	0.062400
C1951	C195	0.362580	0.766200	0.029920
H1431	H143	0.381900	0.740500	0.033600
C1961	C196	0.342790	0.709600	0.992210
H1441	H144	0.349500	0.645900	0.970000
C1971	C197	0.449770	0.727600	0.328470
H1451	H145	0.449600	0.641100	0.324000
C1981	C198	0.433170	0.795800	0.289000
H1461	H146	0.421900	0.755900	0.259600
C1991	C199	0.433170	0.921900	0.292930
C2001	C200	0.450480	0.974100	0.338090
H1471	H147	0.451700	0.060600	0.342300
C2011	C201	0.465870	0.896400	0.376630
H1481	H148	0.476700	0.933100	0.407400
C2021	C202	0.435490	0.342800	0.988830
H1491	H149	0.429300	0.392000	0.957600
C2031	C203	0.415790	0.314700	0.026300
H1501	H150	0.396600	0.342200	0.020200
C2041	C204	0.424840	0.245200	0.072910
C2051	C205	0.453390	0.207200	0.081510
H1511	H151	0.460300	0.160700	0.113200
C2061	C206	0.471020	0.241700	0.040680
H1521	H152	0.490500	0.218500	0.046300
C2071	C207	0.413250	0.114000	0.149660
H1531	H153	0.427000	0.149800	0.178700
H1541	H154	0.422900	0.046900	0.131100
C2081	C208	0.398990	0.953300	0.213320
H1551	H155	0.383200	0.908600	0.228700
H1561	H156	0.409200	0.895400	0.190600
C2091	C209	0.363710	0.016700	0.132910
H1571	H157	0.347000	0.989100	0.151600
H1581	H158	0.357500	0.085600	0.107800
C2101	C210	0.373080	0.157600	0.211920
H1591	H159	0.387500	0.195900	0.239000
H1601	H160	0.364000	0.222700	0.187700
C2111	C211	0.238380	0.266100	0.378590
C2121	C212	0.387060	0.061900	0.176970
N131	N13	0.305340	0.267800	0.359770
N141	N14	0.466110	0.773600	0.372570
N151	N15	0.314420	0.737500	0.984260
N161	N16	0.462770	0.305300	0.993840
Ni71	Ni7	0.285050	0.346120	0.426030
Ni81	Ni8	0.508500	0.331310	0.569970
O431	O43	0.308520	0.504900	0.419480
O441	O44	0.298690	0.612400	0.494320
O451	O45	0.247230	0.373800	0.366110
O461	O46	0.252860	0.203500	0.418320
O471	O47	0.022020	0.134200	0.375220
O481	O48	0.011630	0.945500	0.337380
O491	O49	0.471300	0.365000	0.503150
O501	O50	0.481560	0.183700	0.543780
O511	O51	0.138020	0.058900	0.259810
O521	O52	0.376910	0.000700	0.376220
O531	O53	0.403740	0.209400	0.108360
O541	O54	0.418450	0.002200	0.258340
O551	O55	0.373830	0.915400	0.099870
O561	O56	0.351710	0.093100	0.240850
C2131	C213	0.811150	0.899700	0.950170
C2141	C214	0.829170	0.796900	0.932440
C2151	C215	0.847320	0.811600	0.890330
H1611	H161	0.848200	0.889300	0.872800
C2161	C216	0.864660	0.713300	0.872640
H1621	H162	0.877300	0.725100	0.844600
C2171	C217	0.862170	0.600400	0.898270
C2181	C218	0.844130	0.583800	0.939260
H1631	H163	0.842300	0.504800	0.955100
C2191	C219	0.828430	0.682500	0.957890
H1641	H164	0.817200	0.671200	0.988200
C2201	C220	0.896840	0.436900	0.913790
C2211	C221	0.911090	0.493300	0.959450
H1651	H165	0.906200	0.574500	0.969300
C2221	C222	0.932760	0.429900	0.990960
H1661	H166	0.942800	0.468800	0.022100
C2231	C223	0.939930	0.309500	0.977100
C2241	C224	0.924860	0.251900	0.932550
H1671	H167	0.929100	0.169300	0.923800
C2251	C225	0.903130	0.316200	0.900000
H1681	H168	0.892900	0.277500	0.869000
C2261	C226	0.965410	0.249600	0.009500
C2271	C227	0.711880	0.286900	0.849430
C2281	C228	0.696570	0.223000	0.806210
H1691	H169	0.702900	0.143900	0.796300
C2291	C229	0.671470	0.273700	0.776420
H1701	H170	0.661400	0.229200	0.747000
C2301	C230	0.661890	0.391800	0.791690
C2311	C231	0.676380	0.454700	0.834940
H1711	H171	0.669800	0.532400	0.846000
C2321	C232	0.701460	0.401700	0.863030
H1721	H172	0.711500	0.446700	0.892300
C2331	C233	0.612650	0.449600	0.785400
C2341	C234	0.606870	0.386400	0.832900
H1731	H173	0.621500	0.339100	0.852300
C2351	C235	0.579810	0.391000	0.852860
H1741	H174	0.576400	0.345100	0.885000
C2361	C236	0.557590	0.462500	0.826110
C2371	C237	0.564000	0.530300	0.778820
H1751	H175	0.549800	0.582200	0.760900
C2381	C238	0.591270	0.523000	0.757250
H1761	H176	0.594900	0.566800	0.724600
C2391	C239	0.527850	0.463400	0.848090
C2401	C240	0.822490	0.166800	0.828210
H1771	H177	0.823700	0.080800	0.834300
C2411	C241	0.838620	0.216300	0.787330
H1781	H178	0.850500	0.165500	0.767300
C2421	C242	0.836710	0.344100	0.776950
C2431	C243	0.818500	0.412000	0.808580
H1791	H179	0.816600	0.497900	0.803100
C2441	C244	0.803340	0.353600	0.847930
H1801	H180	0.790800	0.401800	0.867700
C2451	C245	0.806720	0.670000	0.516040
H1811	H181	0.787200	0.646500	0.511800
C2461	C246	0.824830	0.603800	0.555250
H1821	H182	0.817800	0.538300	0.576000
C2471	C247	0.853470	0.638200	0.562400
C2481	C248	0.862580	0.733800	0.529920
H1831	H183	0.881900	0.759500	0.533600
C2491	C249	0.842790	0.790400	0.492210
H1841	H184	0.849500	0.854100	0.470000
C2501	C250	0.949770	0.772400	0.828470
H1851	H185	0.949600	0.858900	0.824000
C2511	C251	0.933170	0.704200	0.789000
H1861	H186	0.921900	0.744100	0.759600
C2521	C252	0.933170	0.578100	0.792930
C2531	C253	0.950480	0.525900	0.838090
H1871	H187	0.951700	0.439400	0.842300
C2541	C254	0.965870	0.603600	0.876630
H1881	H188	0.976700	0.566900	0.907400
C2551	C255	0.935490	0.157200	0.488830
H1891	H189	0.929300	0.108000	0.457600
C2561	C256	0.915790	0.185300	0.526300
H1901	H190	0.896600	0.157800	0.520200
C2571	C257	0.924840	0.254800	0.572910
C2581	C258	0.953390	0.292800	0.581510
H1911	H191	0.960300	0.339300	0.613200
C2591	C259	0.971020	0.258300	0.540680
H1921	H192	0.990500	0.281500	0.546300
C2601	C260	0.913250	0.386000	0.649660
H1931	H193	0.927000	0.350200	0.678700
H1941	H194	0.922900	0.453100	0.631100
C2611	C261	0.898990	0.546700	0.713320
H1951	H195	0.883200	0.591400	0.728700
H1961	H196	0.909200	0.604600	0.690600
C2621	C262	0.863710	0.483300	0.632910
H1971	H197	0.847000	0.510900	0.651600
H1981	H198	0.857500	0.414400	0.607800
C2631	C263	0.873080	0.342400	0.711920
H1991	H199	0.887500	0.304100	0.739000
H2001	H200	0.864000	0.277300	0.687700
C2641	C264	0.738380	0.233900	0.878590
C2651	C265	0.887060	0.438100	0.676970
N171	N17	0.805340	0.232200	0.859770
N181	N18	0.966110	0.726400	0.872570
N191	N19	0.814420	0.762500	0.484260
N201	N20	0.962770	0.194700	0.493840
Ni91	Ni9	0.785050	0.153880	0.926030
Ni101	Ni10	0.008500	0.168690	0.069970
O571	O57	0.808520	0.995100	0.919480
O581	O58	0.798690	0.887600	0.994320
O591	O59	0.747230	0.126200	0.866110
O601	O60	0.752860	0.296500	0.918320
O611	O61	0.522020	0.365800	0.875220
O621	O62	0.511630	0.554500	0.837380
O631	O63	0.971300	0.135000	0.003150
O641	O64	0.981560	0.316300	0.043780
O651	O65	0.638020	0.441100	0.759810
O661	O66	0.876910	0.499300	0.876220
O671	O67	0.903740	0.290600	0.608360
O681	O68	0.918450	0.497800	0.758340
O691	O69	0.873830	0.584600	0.599870
O701	O70	0.851710	0.406900	0.740850
C2661	C266	0.311150	0.399700	0.950170
C2671	C267	0.329170	0.296900	0.932440
C2681	C268	0.347320	0.311600	0.890330
H2011	H201	0.348200	0.389300	0.872800
C2691	C269	0.364660	0.213300	0.872640
H2021	H202	0.377300	0.225100	0.844600
C2701	C270	0.362170	0.100400	0.898270
C2711	C271	0.344130	0.083800	0.939260
H2031	H203	0.342300	0.004800	0.955100
C2721	C272	0.328430	0.182500	0.957890
H2041	H204	0.317200	0.171200	0.988200
C2731	C273	0.396840	0.936900	0.913790
C2741	C274	0.411090	0.993300	0.959450
H2051	H205	0.406200	0.074500	0.969300
C2751	C275	0.432760	0.929900	0.990960
H2061	H206	0.442800	0.968800	0.022100
C2761	C276	0.439930	0.809500	0.977100
C2771	C277	0.424860	0.751900	0.932550
H2071	H207	0.429100	0.669300	0.923800
C2781	C278	0.403130	0.816200	0.900000
H2081	H208	0.392900	0.777500	0.869000
C2791	C279	0.465410	0.749600	0.009500
C2801	C280	0.211880	0.786900	0.849430
C2811	C281	0.196570	0.723000	0.806210
H2091	H209	0.202900	0.643900	0.796300
C2821	C282	0.171470	0.773700	0.776420
H2101	H210	0.161400	0.729200	0.747000
C2831	C283	0.161890	0.891800	0.791690
C2841	C284	0.176380	0.954700	0.834940
H2111	H211	0.169800	0.032400	0.846000
C2851	C285	0.201460	0.901700	0.863030
H2121	H212	0.211500	0.946700	0.892300
C2861	C286	0.112650	0.949600	0.785400
C2871	C287	0.106870	0.886400	0.832900
H2131	H213	0.121500	0.839100	0.852300
C2881	C288	0.079810	0.891000	0.852860
H2141	H214	0.076400	0.845100	0.885000
C2891	C289	0.057590	0.962500	0.826110
C2901	C290	0.064000	0.030300	0.778820
H2151	H215	0.049800	0.082200	0.760900
C2911	C291	0.091270	0.023000	0.757250
H2161	H216	0.094900	0.066800	0.724600
C2921	C292	0.027850	0.963400	0.848090
C2931	C293	0.322490	0.666800	0.828210
H2171	H217	0.323700	0.580800	0.834300
C2941	C294	0.338620	0.716300	0.787330
H2181	H218	0.350500	0.665500	0.767300
C2951	C295	0.336710	0.844100	0.776950
C2961	C296	0.318500	0.912000	0.808580
H2191	H219	0.316600	0.997900	0.803100
C2971	C297	0.303340	0.853600	0.847930
H2201	H220	0.290800	0.901800	0.867700
C2981	C298	0.306720	0.170000	0.516040
H2211	H221	0.287200	0.146500	0.511800
C2991	C299	0.324830	0.103800	0.555250
H2221	H222	0.317800	0.038300	0.576000
C3001	C300	0.353470	0.138200	0.562400
C3011	C301	0.362580	0.233800	0.529920
H2231	H223	0.381900	0.259500	0.533600
C3021	C302	0.342790	0.290400	0.492210
H2241	H224	0.349500	0.354100	0.470000
C3031	C303	0.449770	0.272400	0.828470
H2251	H225	0.449600	0.358900	0.824000
C3041	C304	0.433170	0.204200	0.789000
H2261	H226	0.421900	0.244100	0.759600
C3051	C305	0.433170	0.078100	0.792930
C3061	C306	0.450480	0.025900	0.838090
H2271	H227	0.451700	0.939400	0.842300
C3071	C307	0.465870	0.103600	0.876630
H2281	H228	0.476700	0.066900	0.907400
C3081	C308	0.435490	0.657200	0.488830
H2291	H229	0.429300	0.608000	0.457600
C3091	C309	0.415790	0.685300	0.526300
H2301	H230	0.396600	0.657800	0.520200
C3101	C310	0.424840	0.754800	0.572910
C3111	C311	0.453390	0.792800	0.581510
H2311	H231	0.460300	0.839300	0.613200
C3121	C312	0.471020	0.758300	0.540680
H2321	H232	0.490500	0.781500	0.546300
C3131	C313	0.413250	0.886000	0.649660
H2331	H233	0.427000	0.850200	0.678700
H2341	H234	0.422900	0.953100	0.631100
C3141	C314	0.398990	0.046700	0.713320
H2351	H235	0.383200	0.091400	0.728700
H2361	H236	0.409200	0.104600	0.690600
C3151	C315	0.363710	0.983300	0.632910
H2371	H237	0.347000	0.010900	0.651600
H2381	H238	0.357500	0.914400	0.607800
C3161	C316	0.373080	0.842400	0.711920
H2391	H239	0.387500	0.804100	0.739000
H2401	H240	0.364000	0.777300	0.687700
C3171	C317	0.238380	0.733900	0.878590
C3181	C318	0.387060	0.938100	0.676970
N211	N21	0.305340	0.732200	0.859770
N221	N22	0.466110	0.226400	0.872570
N231	N23	0.314420	0.262500	0.484260
N241	N24	0.462770	0.694700	0.493840
Ni111	Ni11	0.285050	0.653880	0.926030
Ni121	Ni12	0.508500	0.668690	0.069970
O711	O71	0.308520	0.495100	0.919480
O721	O72	0.298690	0.387600	0.994320
O731	O73	0.247230	0.626200	0.866110
O741	O74	0.252860	0.796500	0.918320
O751	O75	0.022020	0.865800	0.875220
O761	O76	0.011630	0.054500	0.837380
O771	O77	0.471300	0.635000	0.003150
O781	O78	0.481560	0.816300	0.043780
O791	O79	0.138020	0.941100	0.759810
O801	O80	0.376910	0.999300	0.876220
O811	O81	0.403740	0.790600	0.608360
O821	O82	0.418450	0.997800	0.758340
O831	O83	0.373830	0.084600	0.599870
O841	O84	0.351710	0.906900	0.740850
C3191	C319	0.188850	0.899700	0.549830
C3201	C320	0.170830	0.796900	0.567560
C3211	C321	0.152680	0.811600	0.609670
H2411	H241	0.151800	0.889300	0.627200
C3221	C322	0.135340	0.713300	0.627360
H2421	H242	0.122700	0.725100	0.655400
C3231	C323	0.137830	0.600400	0.601730
C3241	C324	0.155870	0.583800	0.560740
H2431	H243	0.157700	0.504800	0.544900
C3251	C325	0.171570	0.682500	0.542110
H2441	H244	0.182800	0.671200	0.511800
C3261	C326	0.103160	0.436900	0.586210
C3271	C327	0.088910	0.493300	0.540550
H2451	H245	0.093800	0.574500	0.530700
C3281	C328	0.067240	0.429900	0.509040
H2461	H246	0.057200	0.468800	0.477900
C3291	C329	0.060070	0.309500	0.522900
C3301	C330	0.075140	0.251900	0.567450
H2471	H247	0.070900	0.169300	0.576200
C3311	C331	0.096870	0.316200	0.600000
H2481	H248	0.107100	0.277500	0.631000
C3321	C332	0.034590	0.249600	0.490500
C3331	C333	0.288120	0.286900	0.650570
C3341	C334	0.303430	0.223000	0.693790
H2491	H249	0.297100	0.143900	0.703700
C3351	C335	0.328530	0.273700	0.723580
H2501	H250	0.338600	0.229200	0.753000
C3361	C336	0.338110	0.391800	0.708310
C3371	C337	0.323620	0.454700	0.665060
H2511	H251	0.330200	0.532400	0.654000
C3381	C338	0.298540	0.401700	0.636970
H2521	H252	0.288500	0.446700	0.607700
C3391	C339	0.387350	0.449600	0.714600
C3401	C340	0.393130	0.386400	0.667100
H2531	H253	0.378500	0.339100	0.647700
C3411	C341	0.420190	0.391000	0.647140
H2541	H254	0.423600	0.345100	0.615000
C3421	C342	0.442410	0.462500	0.673890
C3431	C343	0.436000	0.530300	0.721180
H2551	H255	0.450200	0.582200	0.739100
C3441	C344	0.408730	0.523000	0.742750
H2561	H256	0.405100	0.566800	0.775400
C3451	C345	0.472150	0.463400	0.651910
C3461	C346	0.177510	0.166800	0.671790
H2571	H257	0.176300	0.080800	0.665700
C3471	C347	0.161380	0.216300	0.712670
H2581	H258	0.149500	0.165500	0.732700
C3481	C348	0.163290	0.344100	0.723050
C3491	C349	0.181500	0.412000	0.691420
H2591	H259	0.183400	0.497900	0.696900
C3501	C350	0.196660	0.353600	0.652070
H2601	H260	0.209200	0.401800	0.632300
C3511	C351	0.193280	0.670000	0.983960
H2611	H261	0.212800	0.646500	0.988200
C3521	C352	0.175170	0.603800	0.944750
H2621	H262	0.182200	0.538300	0.924000
C3531	C353	0.146530	0.638200	0.937600
C3541	C354	0.137420	0.733800	0.970080
H2631	H263	0.118100	0.759500	0.966400
C3551	C355	0.157210	0.790400	0.007790
H2641	H264	0.150500	0.854100	0.030000
C3561	C356	0.050230	0.772400	0.671530
H2651	H265	0.050400	0.858900	0.676000
C3571	C357	0.066830	0.704200	0.711000
H2661	H266	0.078100	0.744100	0.740400
C3581	C358	0.066830	0.578100	0.707070
C3591	C359	0.049520	0.525900	0.661910
H2671	H267	0.048300	0.439400	0.657700
C3601	C360	0.034130	0.603600	0.623370
H2681	H268	0.023300	0.566900	0.592600
C3611	C361	0.064510	0.157200	0.011170
H2691	H269	0.070700	0.108000	0.042400
C3621	C362	0.084210	0.185300	0.973700
H2701	H270	0.103400	0.157800	0.979800
C3631	C363	0.075160	0.254800	0.927090
C3641	C364	0.046610	0.292800	0.918490
H2711	H271	0.039700	0.339300	0.886800
C3651	C365	0.028980	0.258300	0.959320
H2721	H272	0.009500	0.281500	0.953700
C3661	C366	0.086750	0.386000	0.850340
H2731	H273	0.073000	0.350200	0.821300
H2741	H274	0.077100	0.453100	0.868900
C3671	C367	0.101010	0.546700	0.786680
H2751	H275	0.116800	0.591400	0.771300
H2761	H276	0.090800	0.604600	0.809400
C3681	C368	0.136290	0.483300	0.867090
H2771	H277	0.153000	0.510900	0.848400
H2781	H278	0.142500	0.414400	0.892200
C3691	C369	0.126920	0.342400	0.788080
H2791	H279	0.112500	0.304100	0.761000
H2801	H280	0.136000	0.277300	0.812300
C3701	C370	0.261620	0.233900	0.621410
C3711	C371	0.112940	0.438100	0.823030
N251	N25	0.194660	0.232200	0.640230
N261	N26	0.033890	0.726400	0.627430
N271	N27	0.185580	0.762500	0.015740
N281	N28	0.037230	0.194700	0.006160
Ni131	Ni13	0.214950	0.153880	0.573970
Ni141	Ni14	0.991500	0.168690	0.430030
O851	O85	0.191480	0.995100	0.580520
O861	O86	0.201310	0.887600	0.505680
O871	O87	0.252770	0.126200	0.633890
O881	O88	0.247140	0.296500	0.581680
O891	O89	0.477980	0.365800	0.624780
O901	O90	0.488370	0.554500	0.662620
O911	O91	0.028700	0.135000	0.496850
O921	O92	0.018440	0.316300	0.456220
O931	O93	0.361980	0.441100	0.740190
O941	O94	0.123090	0.499300	0.623780
O951	O95	0.096260	0.290600	0.891640
O961	O96	0.081550	0.497800	0.741660
O971	O97	0.126170	0.584600	0.900130
O981	O98	0.148290	0.406900	0.759150
C3721	C372	0.688850	0.399700	0.549830
C3731	C373	0.670830	0.296900	0.567560
C3741	C374	0.652680	0.311600	0.609670
H2811	H281	0.651800	0.389300	0.627200
C3751	C375	0.635340	0.213300	0.627360
H2821	H282	0.622700	0.225100	0.655400
C3761	C376	0.637830	0.100400	0.601730
C3771	C377	0.655870	0.083800	0.560740
H2831	H283	0.657700	0.004800	0.544900
C3781	C378	0.671570	0.182500	0.542110
H2841	H284	0.682800	0.171200	0.511800
C3791	C379	0.603160	0.936900	0.586210
C3801	C380	0.588910	0.993300	0.540550
H2851	H285	0.593800	0.074500	0.530700
C3811	C381	0.567240	0.929900	0.509040
H2861	H286	0.557200	0.968800	0.477900
C3821	C382	0.560070	0.809500	0.522900
C3831	C383	0.575140	0.751900	0.567450
H2871	H287	0.570900	0.669300	0.576200
C3841	C384	0.596870	0.816200	0.600000
H2881	H288	0.607100	0.777500	0.631000
C3851	C385	0.534590	0.749600	0.490500
C3861	C386	0.788120	0.786900	0.650570
C3871	C387	0.803430	0.723000	0.693790
H2891	H289	0.797100	0.643900	0.703700
C3881	C388	0.828530	0.773700	0.723580
H2901	H290	0.838600	0.729200	0.753000
C3891	C389	0.838110	0.891800	0.708310
C3901	C390	0.823620	0.954700	0.665060
H2911	H291	0.830200	0.032400	0.654000
C3911	C391	0.798540	0.901700	0.636970
H2921	H292	0.788500	0.946700	0.607700
C3921	C392	0.887350	0.949600	0.714600
C3931	C393	0.893130	0.886400	0.667100
H2931	H293	0.878500	0.839100	0.647700
C3941	C394	0.920190	0.891000	0.647140
H2941	H294	0.923600	0.845100	0.615000
C3951	C395	0.942410	0.962500	0.673890
C3961	C396	0.936000	0.030300	0.721180
H2951	H295	0.950200	0.082200	0.739100
C3971	C397	0.908730	0.023000	0.742750
H2961	H296	0.905100	0.066800	0.775400
C3981	C398	0.972150	0.963400	0.651910
C3991	C399	0.677510	0.666800	0.671790
H2971	H297	0.676300	0.580800	0.665700
C4001	C400	0.661380	0.716300	0.712670
H2981	H298	0.649500	0.665500	0.732700
C4011	C401	0.663290	0.844100	0.723050
C4021	C402	0.681500	0.912000	0.691420
H2991	H299	0.683400	0.997900	0.696900
C4031	C403	0.696660	0.853600	0.652070
H3001	H300	0.709200	0.901800	0.632300
C4041	C404	0.693280	0.170000	0.983960
H3011	H301	0.712800	0.146500	0.988200
C4051	C405	0.675170	0.103800	0.944750
H3021	H302	0.682200	0.038300	0.924000
C4061	C406	0.646530	0.138200	0.937600
C4071	C407	0.637420	0.233800	0.970080
H3031	H303	0.618100	0.259500	0.966400
C4081	C408	0.657210	0.290400	0.007790
H3041	H304	0.650500	0.354100	0.030000
C4091	C409	0.550230	0.272400	0.671530
H3051	H305	0.550400	0.358900	0.676000
C4101	C410	0.566830	0.204200	0.711000
H3061	H306	0.578100	0.244100	0.740400
C4111	C411	0.566830	0.078100	0.707070
C4121	C412	0.549520	0.025900	0.661910
H3071	H307	0.548300	0.939400	0.657700
C4131	C413	0.534130	0.103600	0.623370
H3081	H308	0.523300	0.066900	0.592600
C4141	C414	0.564510	0.657200	0.011170
H3091	H309	0.570700	0.608000	0.042400
C4151	C415	0.584210	0.685300	0.973700
H3101	H310	0.603400	0.657800	0.979800
C4161	C416	0.575160	0.754800	0.927090
C4171	C417	0.546610	0.792800	0.918490
H3111	H311	0.539700	0.839300	0.886800
C4181	C418	0.528980	0.758300	0.959320
H3121	H312	0.509500	0.781500	0.953700
C4191	C419	0.586750	0.886000	0.850340
H3131	H313	0.573000	0.850200	0.821300
H3141	H314	0.577100	0.953100	0.868900
C4201	C420	0.601010	0.046700	0.786680
H3151	H315	0.616800	0.091400	0.771300
H3161	H316	0.590800	0.104600	0.809400
C4211	C421	0.636290	0.983300	0.867090
H3171	H317	0.653000	0.010900	0.848400
H3181	H318	0.642500	0.914400	0.892200
C4221	C422	0.626920	0.842400	0.788080
H3191	H319	0.612500	0.804100	0.761000
H3201	H320	0.636000	0.777300	0.812300
C4231	C423	0.761620	0.733900	0.621410
C4241	C424	0.612940	0.938100	0.823030
N291	N29	0.694660	0.732200	0.640230
N301	N30	0.533890	0.226400	0.627430
N311	N31	0.685580	0.262500	0.015740
N321	N32	0.537230	0.694700	0.006160
Ni151	Ni15	0.714950	0.653880	0.573970
Ni161	Ni16	0.491500	0.668690	0.430030
O991	O99	0.691480	0.495100	0.580520
O1001	O100	0.701310	0.387600	0.505680
O1011	O101	0.752770	0.626200	0.633890
O1021	O102	0.747140	0.796500	0.581680
O1031	O103	0.977980	0.865800	0.624780
O1041	O104	0.988370	0.054500	0.662620
O1051	O105	0.528700	0.635000	0.496850
O1061	O106	0.518440	0.816300	0.456220
O1071	O107	0.861980	0.941100	0.740190
O1081	O108	0.623090	0.999300	0.623780
O1091	O109	0.596260	0.790600	0.891640
O1101	O110	0.581550	0.997800	0.741660
O1111	O111	0.626170	0.084600	0.900130
O1121	O112	0.648290	0.906900	0.759150
