data_DUMXEQ_clean_PM
_symmetry_space_group_name_H-M	'P1'
_cell_length_a	10.135300
_cell_length_b	17.350100
_cell_length_c	11.359400
_cell_angle_alpha	90.000000
_cell_angle_beta	109.798000
_cell_angle_gamma	90.000000
_symmetry_Int_Tables_number 1

loop_
_symmetry_equiv_pos_as_xyz
'x,y,z'

loop_
_atom_site_label
_atom_site_type_symbol
_atom_site_fract_x
_atom_site_fract_y
_atom_site_fract_z
Dy11	Dy1	0.008010	0.493120	0.680180
O11	O1	0.227600	0.514990	0.655200
O21	O2	0.855900	0.583070	0.724600
O31	O3	0.209200	0.547370	0.458500
O41	O4	0.911000	0.432430	0.816800
N11	N1	0.230800	0.530400	0.908300
O51	O5	0.059900	0.139470	0.158300
O61	O6	0.145000	0.581420	0.843500
O71	O7	0.027000	0.084010	0.976300
N21	N2	0.717000	0.575140	0.690000
O81	O8	0.334600	0.547830	0.995500
N31	N3	0.945900	0.363400	0.869400
C11	C1	0.634900	0.601600	0.576000
H11	H1	0.674800	0.626600	0.523900
C21	C2	0.037400	0.143500	0.042400
C31	C3	0.518300	0.531900	0.734700
H21	H2	0.480100	0.509700	0.790400
C41	C4	0.492500	0.590900	0.538600
H31	H3	0.436400	0.607900	0.459900
C51	C5	0.936800	0.228200	0.852800
H41	H4	0.909800	0.184200	0.803600
C61	C6	0.430300	0.555100	0.616400
C71	C7	0.276400	0.537900	0.574100
O91	O9	0.201100	0.460790	0.876900
C81	C8	0.660700	0.541800	0.769000
H51	H5	0.718700	0.525300	0.847300
C91	C9	0.010200	0.221200	0.980100
C101	C10	0.019300	0.358800	0.992800
H61	H6	0.048800	0.403600	0.039100
C111	C11	0.050900	0.288200	0.050500
H71	H7	0.099100	0.285200	0.136100
C121	C12	0.904200	0.299100	0.799800
H81	H8	0.852800	0.303400	0.715000
Dy21	Dy2	0.991990	0.993120	0.819820
O101	O10	0.772400	0.014990	0.844800
O111	O11	0.144100	0.083070	0.775400
O121	O12	0.790800	0.047370	0.041500
O131	O13	0.089000	0.932430	0.683200
N41	N4	0.769200	0.030400	0.591700
O141	O14	0.940100	0.639470	0.341700
O151	O15	0.855000	0.081420	0.656500
O161	O16	0.973000	0.584010	0.523700
N51	N5	0.283000	0.075140	0.810000
O171	O17	0.665400	0.047830	0.504500
N61	N6	0.054100	0.863400	0.630600
C131	C13	0.365100	0.101600	0.924000
H91	H9	0.325200	0.126600	0.976100
C141	C14	0.962600	0.643500	0.457600
C151	C15	0.481700	0.031900	0.765300
H101	H10	0.519900	0.009700	0.709600
C161	C16	0.507500	0.090900	0.961400
H111	H11	0.563600	0.107900	0.040100
C171	C17	0.063200	0.728200	0.647200
H121	H12	0.090200	0.684200	0.696400
C181	C18	0.569700	0.055100	0.883600
C191	C19	0.723600	0.037900	0.925900
O181	O18	0.798900	0.960790	0.623100
C201	C20	0.339300	0.041800	0.731000
H131	H13	0.281300	0.025300	0.652700
C211	C21	0.989800	0.721200	0.519900
C221	C22	0.980700	0.858800	0.507200
H141	H14	0.951200	0.903600	0.460900
C231	C23	0.949100	0.788200	0.449500
H151	H15	0.900900	0.785200	0.363900
C241	C24	0.095800	0.799100	0.700200
H161	H16	0.147200	0.803400	0.785000
Dy31	Dy3	0.991990	0.506880	0.319820
O191	O19	0.772400	0.485010	0.344800
O201	O20	0.144100	0.416930	0.275400
O211	O21	0.790800	0.452630	0.541500
O221	O22	0.089000	0.567570	0.183200
N71	N7	0.769200	0.469600	0.091700
O231	O23	0.940100	0.860530	0.841700
O241	O24	0.855000	0.418580	0.156500
O251	O25	0.973000	0.915990	0.023700
N81	N8	0.283000	0.424860	0.310000
O261	O26	0.665400	0.452170	0.004500
N91	N9	0.054100	0.636600	0.130600
C251	C25	0.365100	0.398400	0.424000
H171	H17	0.325200	0.373400	0.476100
C261	C26	0.962600	0.856500	0.957600
C271	C27	0.481700	0.468100	0.265300
H181	H18	0.519900	0.490300	0.209600
C281	C28	0.507500	0.409100	0.461400
H191	H19	0.563600	0.392100	0.540100
C291	C29	0.063200	0.771800	0.147200
H201	H20	0.090200	0.815800	0.196400
C301	C30	0.569700	0.444900	0.383600
C311	C31	0.723600	0.462100	0.425900
O271	O27	0.798900	0.539210	0.123100
C321	C32	0.339300	0.458200	0.231000
H211	H21	0.281300	0.474700	0.152700
C331	C33	0.989800	0.778800	0.019900
C341	C34	0.980700	0.641200	0.007200
H221	H22	0.951200	0.596400	0.960900
C351	C35	0.949100	0.711800	0.949500
H231	H23	0.900900	0.714800	0.863900
C361	C36	0.095800	0.700900	0.200200
H241	H24	0.147200	0.696600	0.285000
Dy41	Dy4	0.008010	0.006880	0.180180
O281	O28	0.227600	0.985010	0.155200
O291	O29	0.855900	0.916930	0.224600
O301	O30	0.209200	0.952630	0.958500
O311	O31	0.911000	0.067570	0.316800
N101	N10	0.230800	0.969600	0.408300
O321	O32	0.059900	0.360530	0.658300
O331	O33	0.145000	0.918580	0.343500
O341	O34	0.027000	0.415990	0.476300
N111	N11	0.717000	0.924860	0.190000
O351	O35	0.334600	0.952170	0.495500
N121	N12	0.945900	0.136600	0.369400
C371	C37	0.634900	0.898400	0.076000
H251	H25	0.674800	0.873400	0.023900
C381	C38	0.037400	0.356500	0.542400
C391	C39	0.518300	0.968100	0.234700
H261	H26	0.480100	0.990300	0.290400
C401	C40	0.492500	0.909100	0.038600
H271	H27	0.436400	0.892100	0.959900
C411	C41	0.936800	0.271800	0.352800
H281	H28	0.909800	0.315800	0.303600
C421	C42	0.430300	0.944900	0.116400
C431	C43	0.276400	0.962100	0.074100
O361	O36	0.201100	0.039210	0.376900
C441	C44	0.660700	0.958200	0.269000
H291	H29	0.718700	0.974700	0.347300
C451	C45	0.010200	0.278800	0.480100
C461	C46	0.019300	0.141200	0.492800
H301	H30	0.048800	0.096400	0.539100
C471	C47	0.050900	0.211800	0.550500
H311	H31	0.099100	0.214800	0.636100
C481	C48	0.904200	0.200900	0.299800
H321	H32	0.852800	0.196600	0.215000
