data_DUNXUH05_clean_PM
_symmetry_space_group_name_H-M	'P1'
_cell_length_a	11.258200
_cell_length_b	11.881200
_cell_length_c	16.212200
_cell_angle_alpha	90.000000
_cell_angle_beta	129.572000
_cell_angle_gamma	90.000000
_symmetry_Int_Tables_number 1

loop_
_symmetry_equiv_pos_as_xyz
'x,y,z'

loop_
_atom_site_label
_atom_site_type_symbol
_atom_site_fract_x
_atom_site_fract_y
_atom_site_fract_z
Zn11	Zn1	0.322810	0.025970	0.482060
S11	S1	0.477790	0.969530	0.715200
O11	O1	0.433410	0.928220	0.612990
O21	O2	0.440000	0.085930	0.708990
O31	O3	0.634130	0.939360	0.803590
O41	O4	0.893760	0.984280	0.555820
O51	O5	0.859580	0.852900	0.632350
O61	O6	0.525110	0.646460	0.965360
O71	O7	0.285590	0.579300	0.873810
C11	C1	0.358200	0.893730	0.731720
C21	C2	0.204400	0.925350	0.670740
H11	H1	0.165300	0.984800	0.621400
C31	C3	0.109100	0.868440	0.683290
C41	C4	0.944200	0.903470	0.620060
C51	C5	0.166900	0.779110	0.754860
H21	H2	0.101900	0.740100	0.762600
C61	C6	0.320500	0.747320	0.814970
C71	C7	0.416800	0.805600	0.803690
H31	H3	0.521000	0.785100	0.844800
C81	C8	0.382100	0.650350	0.890530
Zn21	Zn2	0.677190	0.525970	0.017940
S21	S2	0.522210	0.469530	0.784800
O81	O8	0.566590	0.428220	0.887010
O91	O9	0.560000	0.585930	0.791010
O101	O10	0.365870	0.439360	0.696410
O111	O11	0.106240	0.484280	0.944180
O121	O12	0.140420	0.352900	0.867650
O131	O13	0.474890	0.146460	0.534640
O141	O14	0.714410	0.079300	0.626190
C91	C9	0.641800	0.393730	0.768280
C101	C10	0.795600	0.425350	0.829260
H41	H4	0.834700	0.484800	0.878600
C111	C11	0.890900	0.368440	0.816710
C121	C12	0.055800	0.403470	0.879940
C131	C13	0.833100	0.279110	0.745140
H51	H5	0.898100	0.240100	0.737400
C141	C14	0.679500	0.247320	0.685030
C151	C15	0.583200	0.305600	0.696310
H61	H6	0.479000	0.285100	0.655200
C161	C16	0.617900	0.150350	0.609470
Zn31	Zn3	0.677190	0.974030	0.517940
S31	S3	0.522210	0.030470	0.284800
O151	O15	0.566590	0.071780	0.387010
O161	O16	0.560000	0.914070	0.291010
O171	O17	0.365870	0.060640	0.196410
O181	O18	0.106240	0.015720	0.444180
O191	O19	0.140420	0.147100	0.367650
O201	O20	0.474890	0.353540	0.034640
O211	O21	0.714410	0.420700	0.126190
C171	C17	0.641800	0.106270	0.268280
C181	C18	0.795600	0.074650	0.329260
H71	H7	0.834700	0.015200	0.378600
C191	C19	0.890900	0.131560	0.316710
C201	C20	0.055800	0.096530	0.379940
C211	C21	0.833100	0.220890	0.245140
H81	H8	0.898100	0.259900	0.237400
C221	C22	0.679500	0.252680	0.185030
C231	C23	0.583200	0.194400	0.196310
H91	H9	0.479000	0.214900	0.155200
C241	C24	0.617900	0.349650	0.109470
Zn41	Zn4	0.322810	0.474030	0.982060
S41	S4	0.477790	0.530470	0.215200
O221	O22	0.433410	0.571780	0.112990
O231	O23	0.440000	0.414070	0.208990
O241	O24	0.634130	0.560640	0.303590
O251	O25	0.893760	0.515720	0.055820
O261	O26	0.859580	0.647100	0.132350
O271	O27	0.525110	0.853540	0.465360
O281	O28	0.285590	0.920700	0.373810
C251	C25	0.358200	0.606270	0.231720
C261	C26	0.204400	0.574650	0.170740
H101	H10	0.165300	0.515200	0.121400
C271	C27	0.109100	0.631560	0.183290
C281	C28	0.944200	0.596530	0.120060
C291	C29	0.166900	0.720890	0.254860
H111	H11	0.101900	0.759900	0.262600
C301	C30	0.320500	0.752680	0.314970
C311	C31	0.416800	0.694400	0.303690
H121	H12	0.521000	0.714900	0.344800
C321	C32	0.382100	0.849650	0.390530
