data_DUNXUH15_clean_PM
_symmetry_space_group_name_H-M	'P1'
_cell_length_a	11.289600
_cell_length_b	12.104900
_cell_length_c	16.157900
_cell_angle_alpha	90.000000
_cell_angle_beta	129.914000
_cell_angle_gamma	90.000000
_symmetry_Int_Tables_number 1

loop_
_symmetry_equiv_pos_as_xyz
'x,y,z'

loop_
_atom_site_label
_atom_site_type_symbol
_atom_site_fract_x
_atom_site_fract_y
_atom_site_fract_z
C11	C1	0.142400	0.887600	0.768170
C21	C2	0.084100	0.799810	0.697410
H11	H1	0.981300	0.778900	0.657300
C31	C3	0.180600	0.742800	0.686700
C41	C4	0.118800	0.646970	0.611390
C51	C5	0.333200	0.775950	0.745950
H21	H2	0.397500	0.738200	0.738300
C61	C6	0.390600	0.864660	0.816280
C71	C7	0.295200	0.920080	0.828200
H31	H3	0.333400	0.978800	0.876200
C81	C8	0.554800	0.900910	0.878080
O11	O1	0.072750	0.925550	0.889270
O21	O2	0.866900	0.929500	0.697470
O31	O3	0.055500	0.076360	0.785500
O41	O4	0.215770	0.578550	0.627420
O51	O5	0.976000	0.641360	0.537370
O61	O6	0.638010	0.854210	0.864780
O71	O7	0.605500	0.980050	0.942400
S11	S1	0.022880	0.962450	0.784180
Zn11	Zn1	0.178680	0.024710	0.019030
C91	C9	0.857600	0.387600	0.731830
C101	C10	0.915900	0.299810	0.802590
H41	H4	0.018700	0.278900	0.842700
C111	C11	0.819400	0.242800	0.813300
C121	C12	0.881200	0.146970	0.888610
C131	C13	0.666800	0.275950	0.754050
H51	H5	0.602500	0.238200	0.761700
C141	C14	0.609400	0.364660	0.683720
C151	C15	0.704800	0.420080	0.671800
H61	H6	0.666600	0.478800	0.623800
C161	C16	0.445200	0.400910	0.621920
O81	O8	0.927250	0.425550	0.610730
O91	O9	0.133100	0.429500	0.802530
O101	O10	0.944500	0.576360	0.714500
O111	O11	0.784230	0.078550	0.872580
O121	O12	0.024000	0.141360	0.962630
O131	O13	0.361990	0.354210	0.635220
O141	O14	0.394500	0.480050	0.557600
S21	S2	0.977120	0.462450	0.715820
Zn21	Zn2	0.821320	0.524710	0.480970
C171	C17	0.857600	0.112400	0.231830
C181	C18	0.915900	0.200190	0.302590
H71	H7	0.018700	0.221100	0.342700
C191	C19	0.819400	0.257200	0.313300
C201	C20	0.881200	0.353030	0.388610
C211	C21	0.666800	0.224050	0.254050
H81	H8	0.602500	0.261800	0.261700
C221	C22	0.609400	0.135340	0.183720
C231	C23	0.704800	0.079920	0.171800
H91	H9	0.666600	0.021200	0.123800
C241	C24	0.445200	0.099090	0.121920
O151	O15	0.927250	0.074450	0.110730
O161	O16	0.133100	0.070500	0.302530
O171	O17	0.944500	0.923640	0.214500
O181	O18	0.784230	0.421450	0.372580
O191	O19	0.024000	0.358640	0.462630
O201	O20	0.361990	0.145790	0.135220
O211	O21	0.394500	0.019950	0.057600
S31	S3	0.977120	0.037550	0.215820
Zn31	Zn3	0.821320	0.975290	0.980970
C251	C25	0.142400	0.612400	0.268170
C261	C26	0.084100	0.700190	0.197410
H101	H10	0.981300	0.721100	0.157300
C271	C27	0.180600	0.757200	0.186700
C281	C28	0.118800	0.853030	0.111390
C291	C29	0.333200	0.724050	0.245950
H111	H11	0.397500	0.761800	0.238300
C301	C30	0.390600	0.635340	0.316280
C311	C31	0.295200	0.579920	0.328200
H121	H12	0.333400	0.521200	0.376200
C321	C32	0.554800	0.599090	0.378080
O221	O22	0.072750	0.574450	0.389270
O231	O23	0.866900	0.570500	0.197470
O241	O24	0.055500	0.423640	0.285500
O251	O25	0.215770	0.921450	0.127420
O261	O26	0.976000	0.858640	0.037370
O271	O27	0.638010	0.645790	0.364780
O281	O28	0.605500	0.519950	0.442400
S41	S4	0.022880	0.537550	0.284180
Zn41	Zn4	0.178680	0.475290	0.519030
