data_DUNXUH03_clean_PM
_symmetry_space_group_name_H-M	'P1'
_cell_length_a	11.220800
_cell_length_b	11.757500
_cell_length_c	16.201400
_cell_angle_alpha	90.000000
_cell_angle_beta	129.170000
_cell_angle_gamma	90.000000
_symmetry_Int_Tables_number 1

loop_
_symmetry_equiv_pos_as_xyz
'x,y,z'

loop_
_atom_site_label
_atom_site_type_symbol
_atom_site_fract_x
_atom_site_fract_y
_atom_site_fract_z
Zn11	Zn1	0.176590	0.027190	0.017620
S11	S1	0.021690	0.973790	0.785170
O11	O1	0.062690	0.929630	0.885870
O21	O2	0.865550	0.945950	0.695960
O31	O3	0.062600	0.091570	0.794610
O41	O4	0.213500	0.579760	0.625360
O51	O5	0.974980	0.649710	0.533420
O61	O6	0.641560	0.852110	0.868780
O71	O7	0.607340	0.985900	0.945630
C11	C1	0.141600	0.897820	0.768060
C21	C2	0.082800	0.809470	0.695520
H11	H1	0.977400	0.789300	0.653700
C31	C3	0.179500	0.750240	0.684150
C41	C4	0.117300	0.652660	0.608380
C51	C5	0.333200	0.781140	0.744680
H21	H2	0.398900	0.741100	0.736700
C61	C6	0.391300	0.870610	0.817030
C71	C7	0.295900	0.928570	0.829670
H31	H3	0.335500	0.988700	0.879900
C81	C8	0.556300	0.904310	0.880790
Zn21	Zn2	0.823410	0.527190	0.482380
S21	S2	0.978310	0.473790	0.714830
O81	O8	0.937310	0.429630	0.614130
O91	O9	0.134450	0.445950	0.804040
O101	O10	0.937400	0.591570	0.705390
O111	O11	0.786500	0.079760	0.874640
O121	O12	0.025020	0.149710	0.966580
O131	O13	0.358440	0.352110	0.631220
O141	O14	0.392660	0.485900	0.554370
C91	C9	0.858400	0.397820	0.731940
C101	C10	0.917200	0.309470	0.804480
H41	H4	0.022600	0.289300	0.846300
C111	C11	0.820500	0.250240	0.815850
C121	C12	0.882700	0.152660	0.891620
C131	C13	0.666800	0.281140	0.755320
H51	H5	0.601100	0.241100	0.763300
C141	C14	0.608700	0.370610	0.682970
C151	C15	0.704100	0.428570	0.670330
H61	H6	0.664500	0.488700	0.620100
C161	C16	0.443700	0.404310	0.619210
Zn31	Zn3	0.823410	0.972810	0.982380
S31	S3	0.978310	0.026210	0.214830
O151	O15	0.937310	0.070370	0.114130
O161	O16	0.134450	0.054050	0.304040
O171	O17	0.937400	0.908430	0.205390
O181	O18	0.786500	0.420240	0.374640
O191	O19	0.025020	0.350290	0.466580
O201	O20	0.358440	0.147890	0.131220
O211	O21	0.392660	0.014100	0.054370
C171	C17	0.858400	0.102180	0.231940
C181	C18	0.917200	0.190530	0.304480
H71	H7	0.022600	0.210700	0.346300
C191	C19	0.820500	0.249760	0.315850
C201	C20	0.882700	0.347340	0.391620
C211	C21	0.666800	0.218860	0.255320
H81	H8	0.601100	0.258900	0.263300
C221	C22	0.608700	0.129390	0.182970
C231	C23	0.704100	0.071430	0.170330
H91	H9	0.664500	0.011300	0.120100
C241	C24	0.443700	0.095690	0.119210
Zn41	Zn4	0.176590	0.472810	0.517620
S41	S4	0.021690	0.526210	0.285170
O221	O22	0.062690	0.570370	0.385870
O231	O23	0.865550	0.554050	0.195960
O241	O24	0.062600	0.408430	0.294610
O251	O25	0.213500	0.920240	0.125360
O261	O26	0.974980	0.850290	0.033420
O271	O27	0.641560	0.647890	0.368780
O281	O28	0.607340	0.514100	0.445630
C251	C25	0.141600	0.602180	0.268060
C261	C26	0.082800	0.690530	0.195520
H101	H10	0.977400	0.710700	0.153700
C271	C27	0.179500	0.749760	0.184150
C281	C28	0.117300	0.847340	0.108380
C291	C29	0.333200	0.718860	0.244680
H111	H11	0.398900	0.758900	0.236700
C301	C30	0.391300	0.629390	0.317030
C311	C31	0.295900	0.571430	0.329670
H121	H12	0.335500	0.511300	0.379900
C321	C32	0.556300	0.595690	0.380790
