data_DUNXUH13_clean_PM
_symmetry_space_group_name_H-M	'P1'
_cell_length_a	11.249900
_cell_length_b	11.788800
_cell_length_c	16.227100
_cell_angle_alpha	90.000000
_cell_angle_beta	129.399000
_cell_angle_gamma	90.000000
_symmetry_Int_Tables_number 1

loop_
_symmetry_equiv_pos_as_xyz
'x,y,z'

loop_
_atom_site_label
_atom_site_type_symbol
_atom_site_fract_x
_atom_site_fract_y
_atom_site_fract_z
C11	C1	0.141760	0.896490	0.768240
C21	C2	0.082920	0.808270	0.695810
H11	H1	0.977500	0.788000	0.654000
C31	C3	0.179240	0.749180	0.684470
C41	C4	0.117320	0.651860	0.608590
C51	C5	0.333050	0.780570	0.744810
H21	H2	0.398500	0.740900	0.736700
C61	C6	0.391130	0.869870	0.816980
C71	C7	0.295900	0.927670	0.829700
H31	H3	0.335600	0.987800	0.879800
C81	C8	0.556140	0.904370	0.880580
O11	O1	0.063940	0.929050	0.885940
O21	O2	0.865690	0.944400	0.695720
O31	O3	0.062500	0.090010	0.793740
O41	O4	0.213820	0.579680	0.625530
O51	O5	0.974880	0.648630	0.533780
O61	O6	0.641310	0.852390	0.868920
O71	O7	0.606750	0.985940	0.944950
S11	S1	0.022220	0.972590	0.785040
Zn11	Zn1	0.176680	0.026490	0.017450
C91	C9	0.858240	0.396490	0.731760
C101	C10	0.917080	0.308270	0.804190
H41	H4	0.022500	0.288000	0.846000
C111	C11	0.820760	0.249180	0.815530
C121	C12	0.882680	0.151860	0.891410
C131	C13	0.666950	0.280570	0.755190
H51	H5	0.601500	0.240900	0.763300
C141	C14	0.608870	0.369870	0.683020
C151	C15	0.704100	0.427670	0.670300
H61	H6	0.664400	0.487800	0.620200
C161	C16	0.443860	0.404370	0.619420
O81	O8	0.936060	0.429050	0.614060
O91	O9	0.134310	0.444400	0.804280
O101	O10	0.937500	0.590010	0.706260
O111	O11	0.786180	0.079680	0.874470
O121	O12	0.025120	0.148630	0.966220
O131	O13	0.358690	0.352390	0.631080
O141	O14	0.393250	0.485940	0.555050
S21	S2	0.977780	0.472590	0.714960
Zn21	Zn2	0.823320	0.526490	0.482550
C171	C17	0.858240	0.103510	0.231760
C181	C18	0.917080	0.191730	0.304190
H71	H7	0.022500	0.212000	0.346000
C191	C19	0.820760	0.250820	0.315530
C201	C20	0.882680	0.348140	0.391410
C211	C21	0.666950	0.219430	0.255190
H81	H8	0.601500	0.259100	0.263300
C221	C22	0.608870	0.130130	0.183020
C231	C23	0.704100	0.072330	0.170300
H91	H9	0.664400	0.012200	0.120200
C241	C24	0.443860	0.095630	0.119420
O151	O15	0.936060	0.070950	0.114060
O161	O16	0.134310	0.055600	0.304280
O171	O17	0.937500	0.909990	0.206260
O181	O18	0.786180	0.420320	0.374470
O191	O19	0.025120	0.351370	0.466220
O201	O20	0.358690	0.147610	0.131080
O211	O21	0.393250	0.014060	0.055050
S31	S3	0.977780	0.027410	0.214960
Zn31	Zn3	0.823320	0.973510	0.982550
C251	C25	0.141760	0.603510	0.268240
C261	C26	0.082920	0.691730	0.195810
H101	H10	0.977500	0.712000	0.154000
C271	C27	0.179240	0.750820	0.184470
C281	C28	0.117320	0.848140	0.108590
C291	C29	0.333050	0.719430	0.244810
H111	H11	0.398500	0.759100	0.236700
C301	C30	0.391130	0.630130	0.316980
C311	C31	0.295900	0.572330	0.329700
H121	H12	0.335600	0.512200	0.379800
C321	C32	0.556140	0.595630	0.380580
O221	O22	0.063940	0.570950	0.385940
O231	O23	0.865690	0.555600	0.195720
O241	O24	0.062500	0.409990	0.293740
O251	O25	0.213820	0.920320	0.125530
O261	O26	0.974880	0.851370	0.033780
O271	O27	0.641310	0.647610	0.368920
O281	O28	0.606750	0.514060	0.444950
S41	S4	0.022220	0.527410	0.285040
Zn41	Zn4	0.176680	0.473510	0.517450
