data_DUNXUH21_clean_PM
_symmetry_space_group_name_H-M	'P1'
_cell_length_a	11.350400
_cell_length_b	12.192300
_cell_length_c	16.182700
_cell_angle_alpha	90.000000
_cell_angle_beta	130.491000
_cell_angle_gamma	90.000000
_symmetry_Int_Tables_number 1

loop_
_symmetry_equiv_pos_as_xyz
'x,y,z'

loop_
_atom_site_label
_atom_site_type_symbol
_atom_site_fract_x
_atom_site_fract_y
_atom_site_fract_z
C11	C1	0.142700	0.884820	0.768060
C21	C2	0.085200	0.796960	0.698170
H11	H1	0.982600	0.775400	0.658300
C31	C3	0.181200	0.740740	0.687640
C41	C4	0.119600	0.645020	0.612180
C51	C5	0.333900	0.774560	0.746810
H21	H2	0.398300	0.737300	0.739600
C61	C6	0.390400	0.863530	0.816380
C71	C7	0.295100	0.918240	0.827870
H31	H3	0.333100	0.977200	0.875500
C81	C8	0.554200	0.900600	0.878000
O11	O1	0.075000	0.923860	0.889260
O21	O2	0.867400	0.926000	0.696680
O31	O3	0.055100	0.072840	0.784100
O41	O4	0.217060	0.578360	0.628120
O51	O5	0.976300	0.638490	0.538210
O61	O6	0.637700	0.854590	0.865890
O71	O7	0.604200	0.980070	0.941230
S11	S1	0.023500	0.959350	0.783610
Zn11	Zn1	0.179310	0.023690	0.018830
C91	C9	0.857300	0.384820	0.731940
C101	C10	0.914800	0.296960	0.801830
H41	H4	0.017400	0.275400	0.841700
C111	C11	0.818800	0.240740	0.812360
C121	C12	0.880400	0.145020	0.887820
C131	C13	0.666100	0.274560	0.753190
H51	H5	0.601700	0.237300	0.760400
C141	C14	0.609600	0.363530	0.683620
C151	C15	0.704900	0.418240	0.672130
H61	H6	0.666900	0.477200	0.624500
C161	C16	0.445800	0.400600	0.622000
O81	O8	0.925000	0.423860	0.610740
O91	O9	0.132600	0.426000	0.803320
O101	O10	0.944900	0.572840	0.715900
O111	O11	0.782940	0.078360	0.871880
O121	O12	0.023700	0.138490	0.961790
O131	O13	0.362300	0.354590	0.634110
O141	O14	0.395800	0.480070	0.558770
S21	S2	0.976500	0.459350	0.716390
Zn21	Zn2	0.820690	0.523690	0.481170
C171	C17	0.857300	0.115180	0.231940
C181	C18	0.914800	0.203040	0.301830
H71	H7	0.017400	0.224600	0.341700
C191	C19	0.818800	0.259260	0.312360
C201	C20	0.880400	0.354980	0.387820
C211	C21	0.666100	0.225440	0.253190
H81	H8	0.601700	0.262700	0.260400
C221	C22	0.609600	0.136470	0.183620
C231	C23	0.704900	0.081760	0.172130
H91	H9	0.666900	0.022800	0.124500
C241	C24	0.445800	0.099400	0.122000
O151	O15	0.925000	0.076140	0.110740
O161	O16	0.132600	0.074000	0.303320
O171	O17	0.944900	0.927160	0.215900
O181	O18	0.782940	0.421640	0.371880
O191	O19	0.023700	0.361510	0.461790
O201	O20	0.362300	0.145410	0.134110
O211	O21	0.395800	0.019930	0.058770
S31	S3	0.976500	0.040650	0.216390
Zn31	Zn3	0.820690	0.976310	0.981170
C251	C25	0.142700	0.615180	0.268060
C261	C26	0.085200	0.703040	0.198170
H101	H10	0.982600	0.724600	0.158300
C271	C27	0.181200	0.759260	0.187640
C281	C28	0.119600	0.854980	0.112180
C291	C29	0.333900	0.725440	0.246810
H111	H11	0.398300	0.762700	0.239600
C301	C30	0.390400	0.636470	0.316380
C311	C31	0.295100	0.581760	0.327870
H121	H12	0.333100	0.522800	0.375500
C321	C32	0.554200	0.599400	0.378000
O221	O22	0.075000	0.576140	0.389260
O231	O23	0.867400	0.574000	0.196680
O241	O24	0.055100	0.427160	0.284100
O251	O25	0.217060	0.921640	0.128120
O261	O26	0.976300	0.861510	0.038210
O271	O27	0.637700	0.645410	0.365890
O281	O28	0.604200	0.519930	0.441230
S41	S4	0.023500	0.540650	0.283610
Zn41	Zn4	0.179310	0.476310	0.518830
