data_DUPJAB_clean_PM
_symmetry_space_group_name_H-M	'P1'
_cell_length_a	20.747100
_cell_length_b	26.276400
_cell_length_c	36.894300
_cell_angle_alpha	90.000000
_cell_angle_beta	90.000000
_cell_angle_gamma	90.000000
_symmetry_Int_Tables_number 1

loop_
_symmetry_equiv_pos_as_xyz
'x,y,z'

loop_
_atom_site_label
_atom_site_type_symbol
_atom_site_fract_x
_atom_site_fract_y
_atom_site_fract_z
Cd11	Cd1	0.202510	0.939400	0.151260
Cd21	Cd2	0.079230	0.163440	0.150470
O11	O1	0.098300	0.191110	0.219220
O21	O2	0.268000	0.421550	0.279000
N11	N1	0.126900	0.093100	0.169850
O31	O3	0.226500	0.382100	0.326680
N21	N2	0.882100	0.112200	0.168360
N31	N3	0.162100	0.012400	0.172070
O41	O4	0.332700	0.012000	0.221220
C11	C1	0.133600	0.047500	0.152370
H11	H1	0.119300	0.041900	0.128800
O51	O5	0.146700	0.961000	0.095230
N41	N4	0.175300	0.035700	0.204650
C21	C2	0.153400	0.269700	0.227140
N51	N5	0.979100	0.147600	0.168430
C31	C3	0.466600	0.999800	0.217500
H21	H2	0.444200	0.999400	0.195700
C41	C4	0.153500	0.082600	0.201920
H31	H3	0.156400	0.106300	0.220600
O61	O6	0.052500	0.117900	0.094600
O71	O7	0.130900	0.231700	0.170690
C51	C5	0.936400	0.120400	0.150600
H41	H4	0.943900	0.108000	0.127400
O81	O8	0.228900	0.909900	0.094500
C61	C6	0.186800	0.934600	0.078490
O91	O9	0.097000	0.188900	0.094800
C71	C7	0.183500	0.932000	0.038000
C81	C8	0.126000	0.228700	0.204700
N61	N6	0.950100	0.158700	0.201030
C91	C9	0.199700	0.352600	0.232700
H51	H5	0.214100	0.382500	0.221900
C101	C10	0.184000	0.302900	0.285000
H61	H6	0.186300	0.299100	0.310100
C111	C11	0.173100	0.314600	0.211500
H71	H7	0.168600	0.319400	0.186600
C121	C12	0.159200	0.264000	0.263900
H81	H8	0.146300	0.233700	0.274800
C131	C13	0.204900	0.346600	0.269330
C141	C14	0.047500	0.112100	0.018930
H91	H9	0.028300	0.085300	0.031400
C151	C15	0.134300	0.958300	0.018900
H101	H10	0.102200	0.975400	0.031500
C161	C16	0.227600	0.903800	0.019100
H111	H11	0.257900	0.884500	0.031600
C171	C17	0.075500	0.151100	0.037800
C181	C18	0.233900	0.386500	0.293110
C191	C19	0.893400	0.137200	0.199700
H121	H12	0.863600	0.139000	0.218600
C201	C20	0.077500	0.151200	0.078600
C211	C21	0.106300	0.188200	0.019900
H131	H13	0.127600	0.213800	0.032500
Cd31	Cd3	0.702510	0.439400	0.151260
Cd41	Cd4	0.579230	0.663440	0.150470
O101	O10	0.598300	0.691110	0.219220
O111	O11	0.768000	0.921550	0.279000
N71	N7	0.626900	0.593100	0.169850
O121	O12	0.726500	0.882100	0.326680
N81	N8	0.382100	0.612200	0.168360
N91	N9	0.662100	0.512400	0.172070
O131	O13	0.832700	0.512000	0.221220
C221	C22	0.633600	0.547500	0.152370
H141	H14	0.619300	0.541900	0.128800
O141	O14	0.646700	0.461000	0.095230
N101	N10	0.675300	0.535700	0.204650
C231	C23	0.653400	0.769700	0.227140
N111	N11	0.479100	0.647600	0.168430
C241	C24	0.966600	0.499800	0.217500
H151	H15	0.944200	0.499400	0.195700
C251	C25	0.653500	0.582600	0.201920
H161	H16	0.656400	0.606300	0.220600
O151	O15	0.552500	0.617900	0.094600
O161	O16	0.630900	0.731700	0.170690
C261	C26	0.436400	0.620400	0.150600
H171	H17	0.443900	0.608000	0.127400
O171	O17	0.728900	0.409900	0.094500
C271	C27	0.686800	0.434600	0.078490
O181	O18	0.597000	0.688900	0.094800
C281	C28	0.683500	0.432000	0.038000
C291	C29	0.626000	0.728700	0.204700
N121	N12	0.450100	0.658700	0.201030
C301	C30	0.699700	0.852600	0.232700
H181	H18	0.714100	0.882500	0.221900
C311	C31	0.684000	0.802900	0.285000
H191	H19	0.686300	0.799100	0.310100
C321	C32	0.673100	0.814600	0.211500
H201	H20	0.668600	0.819400	0.186600
C331	C33	0.659200	0.764000	0.263900
H211	H21	0.646300	0.733700	0.274800
C341	C34	0.704900	0.846600	0.269330
C351	C35	0.547500	0.612100	0.018930
H221	H22	0.528300	0.585300	0.031400
C361	C36	0.634300	0.458300	0.018900
H231	H23	0.602200	0.475400	0.031500
C371	C37	0.727600	0.403800	0.019100
H241	H24	0.757900	0.384500	0.031600
C381	C38	0.575500	0.651100	0.037800
C391	C39	0.733900	0.886500	0.293110
C401	C40	0.393400	0.637200	0.199700
H251	H25	0.363600	0.639000	0.218600
C411	C41	0.577500	0.651200	0.078600
C421	C42	0.606300	0.688200	0.019900
H261	H26	0.627600	0.713800	0.032500
Cd51	Cd5	0.797490	0.060600	0.151260
Cd61	Cd6	0.920770	0.836560	0.150470
O191	O19	0.901700	0.808890	0.219220
O201	O20	0.732000	0.578450	0.279000
N131	N13	0.873100	0.906900	0.169850
O211	O21	0.773500	0.617900	0.326680
N141	N14	0.117900	0.887800	0.168360
N151	N15	0.837900	0.987600	0.172070
O221	O22	0.667300	0.988000	0.221220
C431	C43	0.866400	0.952500	0.152370
H271	H27	0.880700	0.958100	0.128800
O231	O23	0.853300	0.039000	0.095230
N161	N16	0.824700	0.964300	0.204650
C441	C44	0.846600	0.730300	0.227140
N171	N17	0.020900	0.852400	0.168430
C451	C45	0.533400	0.000200	0.217500
H281	H28	0.555800	0.000600	0.195700
C461	C46	0.846500	0.917400	0.201920
H291	H29	0.843600	0.893700	0.220600
O241	O24	0.947500	0.882100	0.094600
O251	O25	0.869100	0.768300	0.170690
C471	C47	0.063600	0.879600	0.150600
H301	H30	0.056100	0.892000	0.127400
O261	O26	0.771100	0.090100	0.094500
C481	C48	0.813200	0.065400	0.078490
O271	O27	0.903000	0.811100	0.094800
C491	C49	0.816500	0.068000	0.038000
C501	C50	0.874000	0.771300	0.204700
N181	N18	0.049900	0.841300	0.201030
C511	C51	0.800300	0.647400	0.232700
H311	H31	0.785900	0.617500	0.221900
C521	C52	0.816000	0.697100	0.285000
H321	H32	0.813700	0.700900	0.310100
C531	C53	0.826900	0.685400	0.211500
H331	H33	0.831400	0.680600	0.186600
C541	C54	0.840800	0.736000	0.263900
H341	H34	0.853700	0.766300	0.274800
C551	C55	0.795100	0.653400	0.269330
C561	C56	0.952500	0.887900	0.018930
H351	H35	0.971700	0.914700	0.031400
C571	C57	0.865700	0.041700	0.018900
H361	H36	0.897800	0.024600	0.031500
C581	C58	0.772400	0.096200	0.019100
H371	H37	0.742100	0.115500	0.031600
C591	C59	0.924500	0.848900	0.037800
C601	C60	0.766100	0.613500	0.293110
C611	C61	0.106600	0.862800	0.199700
H381	H38	0.136400	0.861000	0.218600
C621	C62	0.922500	0.848800	0.078600
C631	C63	0.893700	0.811800	0.019900
H391	H39	0.872400	0.786200	0.032500
Cd71	Cd7	0.297490	0.560600	0.151260
Cd81	Cd8	0.420770	0.336560	0.150470
O281	O28	0.401700	0.308890	0.219220
O291	O29	0.232000	0.078450	0.279000
N191	N19	0.373100	0.406900	0.169850
O301	O30	0.273500	0.117900	0.326680
N201	N20	0.617900	0.387800	0.168360
N211	N21	0.337900	0.487600	0.172070
O311	O31	0.167300	0.488000	0.221220
C641	C64	0.366400	0.452500	0.152370
H401	H40	0.380700	0.458100	0.128800
O321	O32	0.353300	0.539000	0.095230
N221	N22	0.324700	0.464300	0.204650
C651	C65	0.346600	0.230300	0.227140
N231	N23	0.520900	0.352400	0.168430
C661	C66	0.033400	0.500200	0.217500
H411	H41	0.055800	0.500600	0.195700
C671	C67	0.346500	0.417400	0.201920
H421	H42	0.343600	0.393700	0.220600
O331	O33	0.447500	0.382100	0.094600
O341	O34	0.369100	0.268300	0.170690
C681	C68	0.563600	0.379600	0.150600
H431	H43	0.556100	0.392000	0.127400
O351	O35	0.271100	0.590100	0.094500
C691	C69	0.313200	0.565400	0.078490
O361	O36	0.403000	0.311100	0.094800
C701	C70	0.316500	0.568000	0.038000
C711	C71	0.374000	0.271300	0.204700
N241	N24	0.549900	0.341300	0.201030
C721	C72	0.300300	0.147400	0.232700
H441	H44	0.285900	0.117500	0.221900
C731	C73	0.316000	0.197100	0.285000
H451	H45	0.313700	0.200900	0.310100
C741	C74	0.326900	0.185400	0.211500
H461	H46	0.331400	0.180600	0.186600
C751	C75	0.340800	0.236000	0.263900
H471	H47	0.353700	0.266300	0.274800
C761	C76	0.295100	0.153400	0.269330
C771	C77	0.452500	0.387900	0.018930
H481	H48	0.471700	0.414700	0.031400
C781	C78	0.365700	0.541700	0.018900
H491	H49	0.397800	0.524600	0.031500
C791	C79	0.272400	0.596200	0.019100
H501	H50	0.242100	0.615500	0.031600
C801	C80	0.424500	0.348900	0.037800
C811	C81	0.266100	0.113500	0.293110
C821	C82	0.606600	0.362800	0.199700
H511	H51	0.636400	0.361000	0.218600
C831	C83	0.422500	0.348800	0.078600
C841	C84	0.393700	0.311800	0.019900
H521	H52	0.372400	0.286200	0.032500
Cd91	Cd9	0.797490	0.939400	0.348740
Cd101	Cd10	0.920770	0.163440	0.349530
O371	O37	0.901700	0.191110	0.280780
O381	O38	0.732000	0.421550	0.221000
N251	N25	0.873100	0.093100	0.330150
O391	O39	0.773500	0.382100	0.173320
N261	N26	0.117900	0.112200	0.331640
N271	N27	0.837900	0.012400	0.327930
O401	O40	0.667300	0.012000	0.278780
C851	C85	0.866400	0.047500	0.347630
H531	H53	0.880700	0.041900	0.371200
O411	O41	0.853300	0.961000	0.404770
N281	N28	0.824700	0.035700	0.295350
C861	C86	0.846600	0.269700	0.272860
N291	N29	0.020900	0.147600	0.331570
C871	C87	0.533400	0.999800	0.282500
H541	H54	0.555800	0.999400	0.304300
C881	C88	0.846500	0.082600	0.298080
H551	H55	0.843600	0.106300	0.279400
O421	O42	0.947500	0.117900	0.405400
O431	O43	0.869100	0.231700	0.329310
C891	C89	0.063600	0.120400	0.349400
H561	H56	0.056100	0.108000	0.372600
O441	O44	0.771100	0.909900	0.405500
C901	C90	0.813200	0.934600	0.421510
O451	O45	0.903000	0.188900	0.405200
C911	C91	0.816500	0.932000	0.462000
C921	C92	0.874000	0.228700	0.295300
N301	N30	0.049900	0.158700	0.298970
C931	C93	0.800300	0.352600	0.267300
H571	H57	0.785900	0.382500	0.278100
C941	C94	0.816000	0.302900	0.215000
H581	H58	0.813700	0.299100	0.189900
C951	C95	0.826900	0.314600	0.288500
H591	H59	0.831400	0.319400	0.313400
C961	C96	0.840800	0.264000	0.236100
H601	H60	0.853700	0.233700	0.225200
C971	C97	0.795100	0.346600	0.230670
C981	C98	0.952500	0.112100	0.481070
H611	H61	0.971700	0.085300	0.468600
C991	C99	0.865700	0.958300	0.481100
H621	H62	0.897800	0.975400	0.468500
C1001	C100	0.772400	0.903800	0.480900
H631	H63	0.742100	0.884500	0.468400
C1011	C101	0.924500	0.151100	0.462200
C1021	C102	0.766100	0.386500	0.206890
C1031	C103	0.106600	0.137200	0.300300
H641	H64	0.136400	0.139000	0.281400
C1041	C104	0.922500	0.151200	0.421400
C1051	C105	0.893700	0.188200	0.480100
H651	H65	0.872400	0.213800	0.467500
Cd111	Cd11	0.297490	0.439400	0.348740
Cd121	Cd12	0.420770	0.663440	0.349530
O461	O46	0.401700	0.691110	0.280780
O471	O47	0.232000	0.921550	0.221000
N311	N31	0.373100	0.593100	0.330150
O481	O48	0.273500	0.882100	0.173320
N321	N32	0.617900	0.612200	0.331640
N331	N33	0.337900	0.512400	0.327930
O491	O49	0.167300	0.512000	0.278780
C1061	C106	0.366400	0.547500	0.347630
H661	H66	0.380700	0.541900	0.371200
O501	O50	0.353300	0.461000	0.404770
N341	N34	0.324700	0.535700	0.295350
C1071	C107	0.346600	0.769700	0.272860
N351	N35	0.520900	0.647600	0.331570
C1081	C108	0.033400	0.499800	0.282500
H671	H67	0.055800	0.499400	0.304300
C1091	C109	0.346500	0.582600	0.298080
H681	H68	0.343600	0.606300	0.279400
O511	O51	0.447500	0.617900	0.405400
O521	O52	0.369100	0.731700	0.329310
C1101	C110	0.563600	0.620400	0.349400
H691	H69	0.556100	0.608000	0.372600
O531	O53	0.271100	0.409900	0.405500
C1111	C111	0.313200	0.434600	0.421510
O541	O54	0.403000	0.688900	0.405200
C1121	C112	0.316500	0.432000	0.462000
C1131	C113	0.374000	0.728700	0.295300
N361	N36	0.549900	0.658700	0.298970
C1141	C114	0.300300	0.852600	0.267300
H701	H70	0.285900	0.882500	0.278100
C1151	C115	0.316000	0.802900	0.215000
H711	H71	0.313700	0.799100	0.189900
C1161	C116	0.326900	0.814600	0.288500
H721	H72	0.331400	0.819400	0.313400
C1171	C117	0.340800	0.764000	0.236100
H731	H73	0.353700	0.733700	0.225200
C1181	C118	0.295100	0.846600	0.230670
C1191	C119	0.452500	0.612100	0.481070
H741	H74	0.471700	0.585300	0.468600
C1201	C120	0.365700	0.458300	0.481100
H751	H75	0.397800	0.475400	0.468500
C1211	C121	0.272400	0.403800	0.480900
H761	H76	0.242100	0.384500	0.468400
C1221	C122	0.424500	0.651100	0.462200
C1231	C123	0.266100	0.886500	0.206890
C1241	C124	0.606600	0.637200	0.300300
H771	H77	0.636400	0.639000	0.281400
C1251	C125	0.422500	0.651200	0.421400
C1261	C126	0.393700	0.688200	0.480100
H781	H78	0.372400	0.713800	0.467500
Cd131	Cd13	0.202510	0.060600	0.348740
Cd141	Cd14	0.079230	0.836560	0.349530
O551	O55	0.098300	0.808890	0.280780
O561	O56	0.268000	0.578450	0.221000
N371	N37	0.126900	0.906900	0.330150
O571	O57	0.226500	0.617900	0.173320
N381	N38	0.882100	0.887800	0.331640
N391	N39	0.162100	0.987600	0.327930
O581	O58	0.332700	0.988000	0.278780
C1271	C127	0.133600	0.952500	0.347630
H791	H79	0.119300	0.958100	0.371200
O591	O59	0.146700	0.039000	0.404770
N401	N40	0.175300	0.964300	0.295350
C1281	C128	0.153400	0.730300	0.272860
N411	N41	0.979100	0.852400	0.331570
C1291	C129	0.466600	0.000200	0.282500
H801	H80	0.444200	0.000600	0.304300
C1301	C130	0.153500	0.917400	0.298080
H811	H81	0.156400	0.893700	0.279400
O601	O60	0.052500	0.882100	0.405400
O611	O61	0.130900	0.768300	0.329310
C1311	C131	0.936400	0.879600	0.349400
H821	H82	0.943900	0.892000	0.372600
O621	O62	0.228900	0.090100	0.405500
C1321	C132	0.186800	0.065400	0.421510
O631	O63	0.097000	0.811100	0.405200
C1331	C133	0.183500	0.068000	0.462000
C1341	C134	0.126000	0.771300	0.295300
N421	N42	0.950100	0.841300	0.298970
C1351	C135	0.199700	0.647400	0.267300
H831	H83	0.214100	0.617500	0.278100
C1361	C136	0.184000	0.697100	0.215000
H841	H84	0.186300	0.700900	0.189900
C1371	C137	0.173100	0.685400	0.288500
H851	H85	0.168600	0.680600	0.313400
C1381	C138	0.159200	0.736000	0.236100
H861	H86	0.146300	0.766300	0.225200
C1391	C139	0.204900	0.653400	0.230670
C1401	C140	0.047500	0.887900	0.481070
H871	H87	0.028300	0.914700	0.468600
C1411	C141	0.134300	0.041700	0.481100
H881	H88	0.102200	0.024600	0.468500
C1421	C142	0.227600	0.096200	0.480900
H891	H89	0.257900	0.115500	0.468400
C1431	C143	0.075500	0.848900	0.462200
C1441	C144	0.233900	0.613500	0.206890
C1451	C145	0.893400	0.862800	0.300300
H901	H90	0.863600	0.861000	0.281400
C1461	C146	0.077500	0.848800	0.421400
C1471	C147	0.106300	0.811800	0.480100
H911	H91	0.127600	0.786200	0.467500
Cd151	Cd15	0.702510	0.560600	0.348740
Cd161	Cd16	0.579230	0.336560	0.349530
O641	O64	0.598300	0.308890	0.280780
O651	O65	0.768000	0.078450	0.221000
N431	N43	0.626900	0.406900	0.330150
O661	O66	0.726500	0.117900	0.173320
N441	N44	0.382100	0.387800	0.331640
N451	N45	0.662100	0.487600	0.327930
O671	O67	0.832700	0.488000	0.278780
C1481	C148	0.633600	0.452500	0.347630
H921	H92	0.619300	0.458100	0.371200
O681	O68	0.646700	0.539000	0.404770
N461	N46	0.675300	0.464300	0.295350
C1491	C149	0.653400	0.230300	0.272860
N471	N47	0.479100	0.352400	0.331570
C1501	C150	0.966600	0.500200	0.282500
H931	H93	0.944200	0.500600	0.304300
C1511	C151	0.653500	0.417400	0.298080
H941	H94	0.656400	0.393700	0.279400
O691	O69	0.552500	0.382100	0.405400
O701	O70	0.630900	0.268300	0.329310
C1521	C152	0.436400	0.379600	0.349400
H951	H95	0.443900	0.392000	0.372600
O711	O71	0.728900	0.590100	0.405500
C1531	C153	0.686800	0.565400	0.421510
O721	O72	0.597000	0.311100	0.405200
C1541	C154	0.683500	0.568000	0.462000
C1551	C155	0.626000	0.271300	0.295300
N481	N48	0.450100	0.341300	0.298970
C1561	C156	0.699700	0.147400	0.267300
H961	H96	0.714100	0.117500	0.278100
C1571	C157	0.684000	0.197100	0.215000
H971	H97	0.686300	0.200900	0.189900
C1581	C158	0.673100	0.185400	0.288500
H981	H98	0.668600	0.180600	0.313400
C1591	C159	0.659200	0.236000	0.236100
H991	H99	0.646300	0.266300	0.225200
C1601	C160	0.704900	0.153400	0.230670
C1611	C161	0.547500	0.387900	0.481070
H1001	H100	0.528300	0.414700	0.468600
C1621	C162	0.634300	0.541700	0.481100
H1011	H101	0.602200	0.524600	0.468500
C1631	C163	0.727600	0.596200	0.480900
H1021	H102	0.757900	0.615500	0.468400
C1641	C164	0.575500	0.348900	0.462200
C1651	C165	0.733900	0.113500	0.206890
C1661	C166	0.393400	0.362800	0.300300
H1031	H103	0.363600	0.361000	0.281400
C1671	C167	0.577500	0.348800	0.421400
C1681	C168	0.606300	0.311800	0.480100
H1041	H104	0.627600	0.286200	0.467500
Cd171	Cd17	0.797490	0.060600	0.848740
Cd181	Cd18	0.920770	0.836560	0.849530
O731	O73	0.901700	0.808890	0.780780
O741	O74	0.732000	0.578450	0.721000
N491	N49	0.873100	0.906900	0.830150
O751	O75	0.773500	0.617900	0.673320
N501	N50	0.117900	0.887800	0.831640
N511	N51	0.837900	0.987600	0.827930
O761	O76	0.667300	0.988000	0.778780
C1691	C169	0.866400	0.952500	0.847630
H1051	H105	0.880700	0.958100	0.871200
O771	O77	0.853300	0.039000	0.904770
N521	N52	0.824700	0.964300	0.795350
C1701	C170	0.846600	0.730300	0.772860
N531	N53	0.020900	0.852400	0.831570
C1711	C171	0.533400	0.000200	0.782500
H1061	H106	0.555800	0.000600	0.804300
C1721	C172	0.846500	0.917400	0.798080
H1071	H107	0.843600	0.893700	0.779400
O781	O78	0.947500	0.882100	0.905400
O791	O79	0.869100	0.768300	0.829310
C1731	C173	0.063600	0.879600	0.849400
H1081	H108	0.056100	0.892000	0.872600
O801	O80	0.771100	0.090100	0.905500
C1741	C174	0.813200	0.065400	0.921510
O811	O81	0.903000	0.811100	0.905200
C1751	C175	0.816500	0.068000	0.962000
C1761	C176	0.874000	0.771300	0.795300
N541	N54	0.049900	0.841300	0.798970
C1771	C177	0.800300	0.647400	0.767300
H1091	H109	0.785900	0.617500	0.778100
C1781	C178	0.816000	0.697100	0.715000
H1101	H110	0.813700	0.700900	0.689900
C1791	C179	0.826900	0.685400	0.788500
H1111	H111	0.831400	0.680600	0.813400
C1801	C180	0.840800	0.736000	0.736100
H1121	H112	0.853700	0.766300	0.725200
C1811	C181	0.795100	0.653400	0.730670
C1821	C182	0.952500	0.887900	0.981070
H1131	H113	0.971700	0.914700	0.968600
C1831	C183	0.865700	0.041700	0.981100
H1141	H114	0.897800	0.024600	0.968500
C1841	C184	0.772400	0.096200	0.980900
H1151	H115	0.742100	0.115500	0.968400
C1851	C185	0.924500	0.848900	0.962200
C1861	C186	0.766100	0.613500	0.706890
C1871	C187	0.106600	0.862800	0.800300
H1161	H116	0.136400	0.861000	0.781400
C1881	C188	0.922500	0.848800	0.921400
C1891	C189	0.893700	0.811800	0.980100
H1171	H117	0.872400	0.786200	0.967500
Cd191	Cd19	0.297490	0.560600	0.848740
Cd201	Cd20	0.420770	0.336560	0.849530
O821	O82	0.401700	0.308890	0.780780
O831	O83	0.232000	0.078450	0.721000
N551	N55	0.373100	0.406900	0.830150
O841	O84	0.273500	0.117900	0.673320
N561	N56	0.617900	0.387800	0.831640
N571	N57	0.337900	0.487600	0.827930
O851	O85	0.167300	0.488000	0.778780
C1901	C190	0.366400	0.452500	0.847630
H1181	H118	0.380700	0.458100	0.871200
O861	O86	0.353300	0.539000	0.904770
N581	N58	0.324700	0.464300	0.795350
C1911	C191	0.346600	0.230300	0.772860
N591	N59	0.520900	0.352400	0.831570
C1921	C192	0.033400	0.500200	0.782500
H1191	H119	0.055800	0.500600	0.804300
C1931	C193	0.346500	0.417400	0.798080
H1201	H120	0.343600	0.393700	0.779400
O871	O87	0.447500	0.382100	0.905400
O881	O88	0.369100	0.268300	0.829310
C1941	C194	0.563600	0.379600	0.849400
H1211	H121	0.556100	0.392000	0.872600
O891	O89	0.271100	0.590100	0.905500
C1951	C195	0.313200	0.565400	0.921510
O901	O90	0.403000	0.311100	0.905200
C1961	C196	0.316500	0.568000	0.962000
C1971	C197	0.374000	0.271300	0.795300
N601	N60	0.549900	0.341300	0.798970
C1981	C198	0.300300	0.147400	0.767300
H1221	H122	0.285900	0.117500	0.778100
C1991	C199	0.316000	0.197100	0.715000
H1231	H123	0.313700	0.200900	0.689900
C2001	C200	0.326900	0.185400	0.788500
H1241	H124	0.331400	0.180600	0.813400
C2011	C201	0.340800	0.236000	0.736100
H1251	H125	0.353700	0.266300	0.725200
C2021	C202	0.295100	0.153400	0.730670
C2031	C203	0.452500	0.387900	0.981070
H1261	H126	0.471700	0.414700	0.968600
C2041	C204	0.365700	0.541700	0.981100
H1271	H127	0.397800	0.524600	0.968500
C2051	C205	0.272400	0.596200	0.980900
H1281	H128	0.242100	0.615500	0.968400
C2061	C206	0.424500	0.348900	0.962200
C2071	C207	0.266100	0.113500	0.706890
C2081	C208	0.606600	0.362800	0.800300
H1291	H129	0.636400	0.361000	0.781400
C2091	C209	0.422500	0.348800	0.921400
C2101	C210	0.393700	0.311800	0.980100
H1301	H130	0.372400	0.286200	0.967500
Cd211	Cd21	0.202510	0.939400	0.848740
Cd221	Cd22	0.079230	0.163440	0.849530
O911	O91	0.098300	0.191110	0.780780
O921	O92	0.268000	0.421550	0.721000
N611	N61	0.126900	0.093100	0.830150
O931	O93	0.226500	0.382100	0.673320
N621	N62	0.882100	0.112200	0.831640
N631	N63	0.162100	0.012400	0.827930
O941	O94	0.332700	0.012000	0.778780
C2111	C211	0.133600	0.047500	0.847630
H1311	H131	0.119300	0.041900	0.871200
O951	O95	0.146700	0.961000	0.904770
N641	N64	0.175300	0.035700	0.795350
C2121	C212	0.153400	0.269700	0.772860
N651	N65	0.979100	0.147600	0.831570
C2131	C213	0.466600	0.999800	0.782500
H1321	H132	0.444200	0.999400	0.804300
C2141	C214	0.153500	0.082600	0.798080
H1331	H133	0.156400	0.106300	0.779400
O961	O96	0.052500	0.117900	0.905400
O971	O97	0.130900	0.231700	0.829310
C2151	C215	0.936400	0.120400	0.849400
H1341	H134	0.943900	0.108000	0.872600
O981	O98	0.228900	0.909900	0.905500
C2161	C216	0.186800	0.934600	0.921510
O991	O99	0.097000	0.188900	0.905200
C2171	C217	0.183500	0.932000	0.962000
C2181	C218	0.126000	0.228700	0.795300
N661	N66	0.950100	0.158700	0.798970
C2191	C219	0.199700	0.352600	0.767300
H1351	H135	0.214100	0.382500	0.778100
C2201	C220	0.184000	0.302900	0.715000
H1361	H136	0.186300	0.299100	0.689900
C2211	C221	0.173100	0.314600	0.788500
H1371	H137	0.168600	0.319400	0.813400
C2221	C222	0.159200	0.264000	0.736100
H1381	H138	0.146300	0.233700	0.725200
C2231	C223	0.204900	0.346600	0.730670
C2241	C224	0.047500	0.112100	0.981070
H1391	H139	0.028300	0.085300	0.968600
C2251	C225	0.134300	0.958300	0.981100
H1401	H140	0.102200	0.975400	0.968500
C2261	C226	0.227600	0.903800	0.980900
H1411	H141	0.257900	0.884500	0.968400
C2271	C227	0.075500	0.151100	0.962200
C2281	C228	0.233900	0.386500	0.706890
C2291	C229	0.893400	0.137200	0.800300
H1421	H142	0.863600	0.139000	0.781400
C2301	C230	0.077500	0.151200	0.921400
C2311	C231	0.106300	0.188200	0.980100
H1431	H143	0.127600	0.213800	0.967500
Cd231	Cd23	0.702510	0.439400	0.848740
Cd241	Cd24	0.579230	0.663440	0.849530
O1001	O100	0.598300	0.691110	0.780780
O1011	O101	0.768000	0.921550	0.721000
N671	N67	0.626900	0.593100	0.830150
O1021	O102	0.726500	0.882100	0.673320
N681	N68	0.382100	0.612200	0.831640
N691	N69	0.662100	0.512400	0.827930
O1031	O103	0.832700	0.512000	0.778780
C2321	C232	0.633600	0.547500	0.847630
H1441	H144	0.619300	0.541900	0.871200
O1041	O104	0.646700	0.461000	0.904770
N701	N70	0.675300	0.535700	0.795350
C2331	C233	0.653400	0.769700	0.772860
N711	N71	0.479100	0.647600	0.831570
C2341	C234	0.966600	0.499800	0.782500
H1451	H145	0.944200	0.499400	0.804300
C2351	C235	0.653500	0.582600	0.798080
H1461	H146	0.656400	0.606300	0.779400
O1051	O105	0.552500	0.617900	0.905400
O1061	O106	0.630900	0.731700	0.829310
C2361	C236	0.436400	0.620400	0.849400
H1471	H147	0.443900	0.608000	0.872600
O1071	O107	0.728900	0.409900	0.905500
C2371	C237	0.686800	0.434600	0.921510
O1081	O108	0.597000	0.688900	0.905200
C2381	C238	0.683500	0.432000	0.962000
C2391	C239	0.626000	0.728700	0.795300
N721	N72	0.450100	0.658700	0.798970
C2401	C240	0.699700	0.852600	0.767300
H1481	H148	0.714100	0.882500	0.778100
C2411	C241	0.684000	0.802900	0.715000
H1491	H149	0.686300	0.799100	0.689900
C2421	C242	0.673100	0.814600	0.788500
H1501	H150	0.668600	0.819400	0.813400
C2431	C243	0.659200	0.764000	0.736100
H1511	H151	0.646300	0.733700	0.725200
C2441	C244	0.704900	0.846600	0.730670
C2451	C245	0.547500	0.612100	0.981070
H1521	H152	0.528300	0.585300	0.968600
C2461	C246	0.634300	0.458300	0.981100
H1531	H153	0.602200	0.475400	0.968500
C2471	C247	0.727600	0.403800	0.980900
H1541	H154	0.757900	0.384500	0.968400
C2481	C248	0.575500	0.651100	0.962200
C2491	C249	0.733900	0.886500	0.706890
C2501	C250	0.393400	0.637200	0.800300
H1551	H155	0.363600	0.639000	0.781400
C2511	C251	0.577500	0.651200	0.921400
C2521	C252	0.606300	0.688200	0.980100
H1561	H156	0.627600	0.713800	0.967500
Cd251	Cd25	0.202510	0.060600	0.651260
Cd261	Cd26	0.079230	0.836560	0.650470
O1091	O109	0.098300	0.808890	0.719220
O1101	O110	0.268000	0.578450	0.779000
N731	N73	0.126900	0.906900	0.669850
O1111	O111	0.226500	0.617900	0.826680
N741	N74	0.882100	0.887800	0.668360
N751	N75	0.162100	0.987600	0.672070
O1121	O112	0.332700	0.988000	0.721220
C2531	C253	0.133600	0.952500	0.652370
H1571	H157	0.119300	0.958100	0.628800
O1131	O113	0.146700	0.039000	0.595230
N761	N76	0.175300	0.964300	0.704650
C2541	C254	0.153400	0.730300	0.727140
N771	N77	0.979100	0.852400	0.668430
C2551	C255	0.466600	0.000200	0.717500
H1581	H158	0.444200	0.000600	0.695700
C2561	C256	0.153500	0.917400	0.701920
H1591	H159	0.156400	0.893700	0.720600
O1141	O114	0.052500	0.882100	0.594600
O1151	O115	0.130900	0.768300	0.670690
C2571	C257	0.936400	0.879600	0.650600
H1601	H160	0.943900	0.892000	0.627400
O1161	O116	0.228900	0.090100	0.594500
C2581	C258	0.186800	0.065400	0.578490
O1171	O117	0.097000	0.811100	0.594800
C2591	C259	0.183500	0.068000	0.538000
C2601	C260	0.126000	0.771300	0.704700
N781	N78	0.950100	0.841300	0.701030
C2611	C261	0.199700	0.647400	0.732700
H1611	H161	0.214100	0.617500	0.721900
C2621	C262	0.184000	0.697100	0.785000
H1621	H162	0.186300	0.700900	0.810100
C2631	C263	0.173100	0.685400	0.711500
H1631	H163	0.168600	0.680600	0.686600
C2641	C264	0.159200	0.736000	0.763900
H1641	H164	0.146300	0.766300	0.774800
C2651	C265	0.204900	0.653400	0.769330
C2661	C266	0.047500	0.887900	0.518930
H1651	H165	0.028300	0.914700	0.531400
C2671	C267	0.134300	0.041700	0.518900
H1661	H166	0.102200	0.024600	0.531500
C2681	C268	0.227600	0.096200	0.519100
H1671	H167	0.257900	0.115500	0.531600
C2691	C269	0.075500	0.848900	0.537800
C2701	C270	0.233900	0.613500	0.793110
C2711	C271	0.893400	0.862800	0.699700
H1681	H168	0.863600	0.861000	0.718600
C2721	C272	0.077500	0.848800	0.578600
C2731	C273	0.106300	0.811800	0.519900
H1691	H169	0.127600	0.786200	0.532500
Cd271	Cd27	0.702510	0.560600	0.651260
Cd281	Cd28	0.579230	0.336560	0.650470
O1181	O118	0.598300	0.308890	0.719220
O1191	O119	0.768000	0.078450	0.779000
N791	N79	0.626900	0.406900	0.669850
O1201	O120	0.726500	0.117900	0.826680
N801	N80	0.382100	0.387800	0.668360
N811	N81	0.662100	0.487600	0.672070
O1211	O121	0.832700	0.488000	0.721220
C2741	C274	0.633600	0.452500	0.652370
H1701	H170	0.619300	0.458100	0.628800
O1221	O122	0.646700	0.539000	0.595230
N821	N82	0.675300	0.464300	0.704650
C2751	C275	0.653400	0.230300	0.727140
N831	N83	0.479100	0.352400	0.668430
C2761	C276	0.966600	0.500200	0.717500
H1711	H171	0.944200	0.500600	0.695700
C2771	C277	0.653500	0.417400	0.701920
H1721	H172	0.656400	0.393700	0.720600
O1231	O123	0.552500	0.382100	0.594600
O1241	O124	0.630900	0.268300	0.670690
C2781	C278	0.436400	0.379600	0.650600
H1731	H173	0.443900	0.392000	0.627400
O1251	O125	0.728900	0.590100	0.594500
C2791	C279	0.686800	0.565400	0.578490
O1261	O126	0.597000	0.311100	0.594800
C2801	C280	0.683500	0.568000	0.538000
C2811	C281	0.626000	0.271300	0.704700
N841	N84	0.450100	0.341300	0.701030
C2821	C282	0.699700	0.147400	0.732700
H1741	H174	0.714100	0.117500	0.721900
C2831	C283	0.684000	0.197100	0.785000
H1751	H175	0.686300	0.200900	0.810100
C2841	C284	0.673100	0.185400	0.711500
H1761	H176	0.668600	0.180600	0.686600
C2851	C285	0.659200	0.236000	0.763900
H1771	H177	0.646300	0.266300	0.774800
C2861	C286	0.704900	0.153400	0.769330
C2871	C287	0.547500	0.387900	0.518930
H1781	H178	0.528300	0.414700	0.531400
C2881	C288	0.634300	0.541700	0.518900
H1791	H179	0.602200	0.524600	0.531500
C2891	C289	0.727600	0.596200	0.519100
H1801	H180	0.757900	0.615500	0.531600
C2901	C290	0.575500	0.348900	0.537800
C2911	C291	0.733900	0.113500	0.793110
C2921	C292	0.393400	0.362800	0.699700
H1811	H181	0.363600	0.361000	0.718600
C2931	C293	0.577500	0.348800	0.578600
C2941	C294	0.606300	0.311800	0.519900
H1821	H182	0.627600	0.286200	0.532500
Cd291	Cd29	0.797490	0.939400	0.651260
Cd301	Cd30	0.920770	0.163440	0.650470
O1271	O127	0.901700	0.191110	0.719220
O1281	O128	0.732000	0.421550	0.779000
N851	N85	0.873100	0.093100	0.669850
O1291	O129	0.773500	0.382100	0.826680
N861	N86	0.117900	0.112200	0.668360
N871	N87	0.837900	0.012400	0.672070
O1301	O130	0.667300	0.012000	0.721220
C2951	C295	0.866400	0.047500	0.652370
H1831	H183	0.880700	0.041900	0.628800
O1311	O131	0.853300	0.961000	0.595230
N881	N88	0.824700	0.035700	0.704650
C2961	C296	0.846600	0.269700	0.727140
N891	N89	0.020900	0.147600	0.668430
C2971	C297	0.533400	0.999800	0.717500
H1841	H184	0.555800	0.999400	0.695700
C2981	C298	0.846500	0.082600	0.701920
H1851	H185	0.843600	0.106300	0.720600
O1321	O132	0.947500	0.117900	0.594600
O1331	O133	0.869100	0.231700	0.670690
C2991	C299	0.063600	0.120400	0.650600
H1861	H186	0.056100	0.108000	0.627400
O1341	O134	0.771100	0.909900	0.594500
C3001	C300	0.813200	0.934600	0.578490
O1351	O135	0.903000	0.188900	0.594800
C3011	C301	0.816500	0.932000	0.538000
C3021	C302	0.874000	0.228700	0.704700
N901	N90	0.049900	0.158700	0.701030
C3031	C303	0.800300	0.352600	0.732700
H1871	H187	0.785900	0.382500	0.721900
C3041	C304	0.816000	0.302900	0.785000
H1881	H188	0.813700	0.299100	0.810100
C3051	C305	0.826900	0.314600	0.711500
H1891	H189	0.831400	0.319400	0.686600
C3061	C306	0.840800	0.264000	0.763900
H1901	H190	0.853700	0.233700	0.774800
C3071	C307	0.795100	0.346600	0.769330
C3081	C308	0.952500	0.112100	0.518930
H1911	H191	0.971700	0.085300	0.531400
C3091	C309	0.865700	0.958300	0.518900
H1921	H192	0.897800	0.975400	0.531500
C3101	C310	0.772400	0.903800	0.519100
H1931	H193	0.742100	0.884500	0.531600
C3111	C311	0.924500	0.151100	0.537800
C3121	C312	0.766100	0.386500	0.793110
C3131	C313	0.106600	0.137200	0.699700
H1941	H194	0.136400	0.139000	0.718600
C3141	C314	0.922500	0.151200	0.578600
C3151	C315	0.893700	0.188200	0.519900
H1951	H195	0.872400	0.213800	0.532500
Cd311	Cd31	0.297490	0.439400	0.651260
Cd321	Cd32	0.420770	0.663440	0.650470
O1361	O136	0.401700	0.691110	0.719220
O1371	O137	0.232000	0.921550	0.779000
N911	N91	0.373100	0.593100	0.669850
O1381	O138	0.273500	0.882100	0.826680
N921	N92	0.617900	0.612200	0.668360
N931	N93	0.337900	0.512400	0.672070
O1391	O139	0.167300	0.512000	0.721220
C3161	C316	0.366400	0.547500	0.652370
H1961	H196	0.380700	0.541900	0.628800
O1401	O140	0.353300	0.461000	0.595230
N941	N94	0.324700	0.535700	0.704650
C3171	C317	0.346600	0.769700	0.727140
N951	N95	0.520900	0.647600	0.668430
C3181	C318	0.033400	0.499800	0.717500
H1971	H197	0.055800	0.499400	0.695700
C3191	C319	0.346500	0.582600	0.701920
H1981	H198	0.343600	0.606300	0.720600
O1411	O141	0.447500	0.617900	0.594600
O1421	O142	0.369100	0.731700	0.670690
C3201	C320	0.563600	0.620400	0.650600
H1991	H199	0.556100	0.608000	0.627400
O1431	O143	0.271100	0.409900	0.594500
C3211	C321	0.313200	0.434600	0.578490
O1441	O144	0.403000	0.688900	0.594800
C3221	C322	0.316500	0.432000	0.538000
C3231	C323	0.374000	0.728700	0.704700
N961	N96	0.549900	0.658700	0.701030
C3241	C324	0.300300	0.852600	0.732700
H2001	H200	0.285900	0.882500	0.721900
C3251	C325	0.316000	0.802900	0.785000
H2011	H201	0.313700	0.799100	0.810100
C3261	C326	0.326900	0.814600	0.711500
H2021	H202	0.331400	0.819400	0.686600
C3271	C327	0.340800	0.764000	0.763900
H2031	H203	0.353700	0.733700	0.774800
C3281	C328	0.295100	0.846600	0.769330
C3291	C329	0.452500	0.612100	0.518930
H2041	H204	0.471700	0.585300	0.531400
C3301	C330	0.365700	0.458300	0.518900
H2051	H205	0.397800	0.475400	0.531500
C3311	C331	0.272400	0.403800	0.519100
H2061	H206	0.242100	0.384500	0.531600
C3321	C332	0.424500	0.651100	0.537800
C3331	C333	0.266100	0.886500	0.793110
C3341	C334	0.606600	0.637200	0.699700
H2071	H207	0.636400	0.639000	0.718600
C3351	C335	0.422500	0.651200	0.578600
C3361	C336	0.393700	0.688200	0.519900
H2081	H208	0.372400	0.713800	0.532500
Cd331	Cd33	0.231510	0.000000	0.250000
C3371	C337	0.358700	0.000000	0.250000
C3381	C338	0.433100	0.000000	0.250000
Cd341	Cd34	0.731510	0.500000	0.250000
C3391	C339	0.858700	0.500000	0.250000
C3401	C340	0.933100	0.500000	0.250000
Cd351	Cd35	0.768490	0.000000	0.250000
C3411	C341	0.641300	0.000000	0.250000
C3421	C342	0.566900	0.000000	0.250000
Cd361	Cd36	0.268490	0.500000	0.250000
C3431	C343	0.141300	0.500000	0.250000
C3441	C344	0.066900	0.500000	0.250000
Cd371	Cd37	0.768490	0.000000	0.750000
C3451	C345	0.641300	0.000000	0.750000
C3461	C346	0.566900	0.000000	0.750000
Cd381	Cd38	0.268490	0.500000	0.750000
C3471	C347	0.141300	0.500000	0.750000
C3481	C348	0.066900	0.500000	0.750000
Cd391	Cd39	0.231510	0.000000	0.750000
C3491	C349	0.358700	0.000000	0.750000
C3501	C350	0.433100	0.000000	0.750000
Cd401	Cd40	0.731510	0.500000	0.750000
C3511	C351	0.858700	0.500000	0.750000
C3521	C352	0.933100	0.500000	0.750000
Cd411	Cd41	0.000000	0.191090	0.250000
Cd421	Cd42	0.500000	0.691090	0.250000
Cd431	Cd43	0.000000	0.808910	0.250000
Cd441	Cd44	0.500000	0.308910	0.250000
Cd451	Cd45	0.000000	0.808910	0.750000
Cd461	Cd46	0.500000	0.308910	0.750000
Cd471	Cd47	0.000000	0.191090	0.750000
Cd481	Cd48	0.500000	0.691090	0.750000
