data_DUPKAC_clean_PM
_symmetry_space_group_name_H-M	'P1'
_cell_length_a	23.452000
_cell_length_b	23.452000
_cell_length_c	79.270000
_cell_angle_alpha	90.000000
_cell_angle_beta	90.000000
_cell_angle_gamma	120.000000
_symmetry_Int_Tables_number 1

loop_
_symmetry_equiv_pos_as_xyz
'x,y,z'

loop_
_atom_site_label
_atom_site_type_symbol
_atom_site_fract_x
_atom_site_fract_y
_atom_site_fract_z
Zn11	Zn1	0.082580	0.070070	0.148300
O11	O1	0.142490	0.130460	0.163620
O21	O2	0.133480	0.041270	0.134490
O31	O3	0.063050	0.116450	0.130480
C11	C1	0.131600	0.123600	0.180000
C21	C2	0.110800	0.986500	0.128330
C31	C3	0.189300	0.177000	0.190700
O41	O4	0.080000	0.085600	0.186510
C41	C4	0.154400	0.977300	0.115120
C51	C5	0.246500	0.218000	0.184630
C61	C6	0.183200	0.179300	0.207670
C71	C7	0.219100	0.024700	0.112840
C81	C8	0.127200	0.918300	0.105390
H11	H1	0.253600	0.215000	0.173200
C91	C9	0.296200	0.264200	0.193590
C101	C10	0.233300	0.224900	0.218140
H21	H2	0.143600	0.148800	0.212600
H31	H3	0.239500	0.062900	0.119300
C111	C11	0.252200	0.011300	0.100130
C121	C12	0.159900	0.911200	0.092520
H41	H4	0.085500	0.883800	0.108100
H51	H5	0.335500	0.291700	0.188000
C131	C13	0.293000	0.273200	0.210170
H61	H6	0.228100	0.223900	0.229800
C141	C14	0.220800	0.957600	0.089340
H71	H7	0.297200	0.039600	0.098800
H81	H8	0.139700	0.873700	0.085800
C151	C15	0.346400	0.320700	0.220530
C161	C16	0.260300	0.945700	0.076150
C171	C17	0.411100	0.336100	0.217520
C181	C18	0.335500	0.355300	0.233560
C191	C19	0.238800	0.880700	0.070780
H91	H9	0.420100	0.310100	0.210300
C201	C20	0.458200	0.386600	0.224800
H101	H10	0.292400	0.344000	0.236200
H111	H11	0.201100	0.844500	0.075000
H121	H12	0.500700	0.397900	0.221600
Zn21	Zn2	0.749240	0.403400	0.481630
O51	O5	0.809160	0.463790	0.496950
O61	O6	0.800150	0.374600	0.467820
O71	O7	0.729720	0.449780	0.463810
C211	C21	0.798270	0.456930	0.513330
C221	C22	0.777470	0.319830	0.461660
C231	C23	0.855970	0.510330	0.524030
O81	O8	0.746670	0.418930	0.519840
C241	C24	0.821070	0.310630	0.448450
C251	C25	0.913170	0.551330	0.517960
C261	C26	0.849870	0.512630	0.541000
C271	C27	0.885770	0.358030	0.446170
C281	C28	0.793870	0.251630	0.438720
H131	H13	0.920270	0.548330	0.506530
C291	C29	0.962870	0.597530	0.526920
C301	C30	0.899970	0.558230	0.551470
H141	H14	0.810270	0.482130	0.545930
H151	H15	0.906170	0.396230	0.452630
C311	C31	0.918870	0.344630	0.433460
C321	C32	0.826570	0.244530	0.425850
H161	H16	0.752170	0.217130	0.441430
H171	H17	0.002170	0.625030	0.521330
C331	C33	0.959670	0.606530	0.543500
H181	H18	0.894770	0.557230	0.563130
C341	C34	0.887470	0.290930	0.422670
H191	H19	0.963870	0.372930	0.432130
H201	H20	0.806370	0.207030	0.419130
C351	C35	0.013070	0.654030	0.553860
C361	C36	0.926970	0.279030	0.409480
C371	C37	0.077770	0.669430	0.550850
C381	C38	0.002170	0.688630	0.566890
C391	C39	0.905470	0.214030	0.404110
H211	H21	0.086770	0.643430	0.543630
C401	C40	0.124870	0.719930	0.558130
H221	H22	0.959070	0.677330	0.569530
H231	H23	0.867770	0.177830	0.408330
H241	H24	0.167370	0.731230	0.554930
Zn31	Zn3	0.415910	0.736740	0.814970
O91	O9	0.475820	0.797130	0.830290
O101	O10	0.466810	0.707940	0.801160
O111	O11	0.396380	0.783120	0.797150
C411	C41	0.464930	0.790270	0.846670
C421	C42	0.444130	0.653170	0.795000
C431	C43	0.522630	0.843670	0.857370
O121	O12	0.413330	0.752270	0.853180
C441	C44	0.487730	0.643970	0.781790
C451	C45	0.579830	0.884670	0.851300
C461	C46	0.516530	0.845970	0.874340
C471	C47	0.552430	0.691370	0.779510
C481	C48	0.460530	0.584970	0.772060
H251	H25	0.586930	0.881670	0.839870
C491	C49	0.629530	0.930870	0.860260
C501	C50	0.566630	0.891570	0.884810
H261	H26	0.476930	0.815470	0.879270
H271	H27	0.572830	0.729570	0.785970
C511	C51	0.585530	0.677970	0.766800
C521	C52	0.493230	0.577870	0.759190
H281	H28	0.418830	0.550470	0.774770
H291	H29	0.668830	0.958370	0.854670
C531	C53	0.626330	0.939870	0.876840
H301	H30	0.561430	0.890570	0.896470
C541	C54	0.554130	0.624270	0.756010
H311	H31	0.630530	0.706270	0.765470
H321	H32	0.473030	0.540370	0.752470
C551	C55	0.679730	0.987370	0.887200
C561	C56	0.593630	0.612370	0.742820
C571	C57	0.744430	0.002770	0.884190
C581	C58	0.668830	0.021970	0.900230
C591	C59	0.572130	0.547370	0.737450
H331	H33	0.753430	0.976770	0.876970
C601	C60	0.791530	0.053270	0.891470
H341	H34	0.625730	0.010670	0.902870
H351	H35	0.534430	0.511170	0.741670
H361	H36	0.834030	0.064570	0.888270
Zn41	Zn4	0.929930	0.012510	0.148300
O131	O13	0.869540	0.012030	0.163620
O141	O14	0.958730	0.092210	0.134490
O151	O15	0.883550	0.946600	0.130480
C611	C61	0.876400	0.008000	0.180000
C621	C62	0.013500	0.124300	0.128330
C631	C63	0.823000	0.012300	0.190700
O161	O16	0.914400	0.994400	0.186510
C641	C64	0.022700	0.177100	0.115120
C651	C65	0.782000	0.028500	0.184630
C661	C66	0.820700	0.003900	0.207670
C671	C67	0.975300	0.194400	0.112840
C681	C68	0.081700	0.208900	0.105390
H371	H37	0.785000	0.038600	0.173200
C691	C69	0.735800	0.032000	0.193590
C701	C70	0.775100	0.008400	0.218140
H381	H38	0.851200	0.994800	0.212600
H391	H39	0.937100	0.176600	0.119300
C711	C71	0.988700	0.240900	0.100130
C721	C72	0.088800	0.248700	0.092520
H401	H40	0.116200	0.201700	0.108100
H411	H41	0.708300	0.043800	0.188000
C731	C73	0.726800	0.019800	0.210170
H421	H42	0.776100	0.004200	0.229800
C741	C74	0.042400	0.263200	0.089340
H431	H43	0.960400	0.257600	0.098800
H441	H44	0.126300	0.266000	0.085800
C751	C75	0.679300	0.025700	0.220530
C761	C76	0.054300	0.314600	0.076150
C771	C77	0.663900	0.075000	0.217520
C781	C78	0.644700	0.980200	0.233560
C791	C79	0.119300	0.358100	0.070780
H451	H45	0.689900	0.110000	0.210300
C801	C80	0.613400	0.071600	0.224800
H461	H46	0.656000	0.948400	0.236200
H471	H47	0.155500	0.356600	0.075000
H481	H48	0.602100	0.102800	0.221600
Zn51	Zn5	0.596600	0.345840	0.481630
O171	O17	0.536210	0.345360	0.496950
O181	O18	0.625400	0.425540	0.467820
O191	O19	0.550220	0.279930	0.463810
C811	C81	0.543070	0.341330	0.513330
C821	C82	0.680170	0.457630	0.461660
C831	C83	0.489670	0.345630	0.524030
O201	O20	0.581070	0.327730	0.519840
C841	C84	0.689370	0.510430	0.448450
C851	C85	0.448670	0.361830	0.517960
C861	C86	0.487370	0.337230	0.541000
C871	C87	0.641970	0.527730	0.446170
C881	C88	0.748370	0.542230	0.438720
H491	H49	0.451670	0.371930	0.506530
C891	C89	0.402470	0.365330	0.526920
C901	C90	0.441770	0.341730	0.551470
H501	H50	0.517870	0.328130	0.545930
H511	H51	0.603770	0.509930	0.452630
C911	C91	0.655370	0.574230	0.433460
C921	C92	0.755470	0.582030	0.425850
H521	H52	0.782870	0.535030	0.441430
H531	H53	0.374970	0.377130	0.521330
C931	C93	0.393470	0.353130	0.543500
H541	H54	0.442770	0.337530	0.563130
C941	C94	0.709070	0.596530	0.422670
H551	H55	0.627070	0.590930	0.432130
H561	H56	0.792970	0.599330	0.419130
C951	C95	0.345970	0.359030	0.553860
C961	C96	0.720970	0.647930	0.409480
C971	C97	0.330570	0.408330	0.550850
C981	C98	0.311370	0.313530	0.566890
C991	C99	0.785970	0.691430	0.404110
H571	H57	0.356570	0.443330	0.543630
C1001	C100	0.280070	0.404930	0.558130
H581	H58	0.322670	0.281730	0.569530
H591	H59	0.822170	0.689930	0.408330
H601	H60	0.268770	0.436130	0.554930
Zn61	Zn6	0.263260	0.679170	0.814970
O211	O21	0.202870	0.678700	0.830290
O221	O22	0.292060	0.758880	0.801160
O231	O23	0.216880	0.613270	0.797150
C1011	C101	0.209730	0.674670	0.846670
C1021	C102	0.346830	0.790970	0.795000
C1031	C103	0.156330	0.678970	0.857370
O241	O24	0.247730	0.661070	0.853180
C1041	C104	0.356030	0.843770	0.781790
C1051	C105	0.115330	0.695170	0.851300
C1061	C106	0.154030	0.670570	0.874340
C1071	C107	0.308630	0.861070	0.779510
C1081	C108	0.415030	0.875570	0.772060
H611	H61	0.118330	0.705270	0.839870
C1091	C109	0.069130	0.698670	0.860260
C1101	C110	0.108430	0.675070	0.884810
H621	H62	0.184530	0.661470	0.879270
H631	H63	0.270430	0.843270	0.785970
C1111	C111	0.322030	0.907570	0.766800
C1121	C112	0.422130	0.915370	0.759190
H641	H64	0.449530	0.868370	0.774770
H651	H65	0.041630	0.710470	0.854670
C1131	C113	0.060130	0.686470	0.876840
H661	H66	0.109430	0.670870	0.896470
C1141	C114	0.375730	0.929870	0.756010
H671	H67	0.293730	0.924270	0.765470
H681	H68	0.459630	0.932670	0.752470
C1151	C115	0.012630	0.692370	0.887200
C1161	C116	0.387630	0.981270	0.742820
C1171	C117	0.997230	0.741670	0.884190
C1181	C118	0.978030	0.646870	0.900230
C1191	C119	0.452630	0.024770	0.737450
H691	H69	0.023230	0.776670	0.876970
C1201	C120	0.946730	0.738270	0.891470
H701	H70	0.989330	0.615070	0.902870
H711	H71	0.488830	0.023270	0.741670
H721	H72	0.935430	0.769470	0.888270
Zn71	Zn7	0.987490	0.917420	0.148300
O251	O25	0.987970	0.857510	0.163620
O261	O26	0.907790	0.866520	0.134490
O271	O27	0.053400	0.936950	0.130480
C1211	C121	0.992000	0.868400	0.180000
C1221	C122	0.875700	0.889200	0.128330
C1231	C123	0.987700	0.810700	0.190700
O281	O28	0.005600	0.920000	0.186510
C1241	C124	0.822900	0.845600	0.115120
C1251	C125	0.971500	0.753500	0.184630
C1261	C126	0.996100	0.816800	0.207670
C1271	C127	0.805600	0.780900	0.112840
C1281	C128	0.791100	0.872800	0.105390
H731	H73	0.961400	0.746400	0.173200
C1291	C129	0.968000	0.703800	0.193590
C1301	C130	0.991600	0.766700	0.218140
H741	H74	0.005200	0.856400	0.212600
H751	H75	0.823400	0.760500	0.119300
C1311	C131	0.759100	0.747800	0.100130
C1321	C132	0.751300	0.840100	0.092520
H761	H76	0.798300	0.914500	0.108100
H771	H77	0.956200	0.664500	0.188000
C1331	C133	0.980200	0.707000	0.210170
H781	H78	0.995800	0.771900	0.229800
C1341	C134	0.736800	0.779200	0.089340
H791	H79	0.742400	0.702800	0.098800
H801	H80	0.734000	0.860300	0.085800
C1351	C135	0.974300	0.653600	0.220530
C1361	C136	0.685400	0.739700	0.076150
C1371	C137	0.925000	0.588900	0.217520
C1381	C138	0.019800	0.664500	0.233560
C1391	C139	0.641900	0.761200	0.070780
H811	H81	0.890000	0.579900	0.210300
C1401	C140	0.928400	0.541800	0.224800
H821	H82	0.051600	0.707600	0.236200
H831	H83	0.643400	0.798900	0.075000
H841	H84	0.897200	0.499300	0.221600
Zn81	Zn8	0.654160	0.250760	0.481630
O291	O29	0.654640	0.190840	0.496950
O301	O30	0.574460	0.199850	0.467820
O311	O31	0.720070	0.270280	0.463810
C1411	C141	0.658670	0.201730	0.513330
C1421	C142	0.542370	0.222530	0.461660
C1431	C143	0.654370	0.144030	0.524030
O321	O32	0.672270	0.253330	0.519840
C1441	C144	0.489570	0.178930	0.448450
C1451	C145	0.638170	0.086830	0.517960
C1461	C146	0.662770	0.150130	0.541000
C1471	C147	0.472270	0.114230	0.446170
C1481	C148	0.457770	0.206130	0.438720
H851	H85	0.628070	0.079730	0.506530
C1491	C149	0.634670	0.037130	0.526920
C1501	C150	0.658270	0.100030	0.551470
H861	H86	0.671870	0.189730	0.545930
H871	H87	0.490070	0.093830	0.452630
C1511	C151	0.425770	0.081130	0.433460
C1521	C152	0.417970	0.173430	0.425850
H881	H88	0.464970	0.247830	0.441430
H891	H89	0.622870	0.997830	0.521330
C1531	C153	0.646870	0.040330	0.543500
H901	H90	0.662470	0.105230	0.563130
C1541	C154	0.403470	0.112530	0.422670
H911	H91	0.409070	0.036130	0.432130
H921	H92	0.400670	0.193630	0.419130
C1551	C155	0.640970	0.986930	0.553860
C1561	C156	0.352070	0.073030	0.409480
C1571	C157	0.591670	0.922230	0.550850
C1581	C158	0.686470	0.997830	0.566890
C1591	C159	0.308570	0.094530	0.404110
H931	H93	0.556670	0.913230	0.543630
C1601	C160	0.595070	0.875130	0.558130
H941	H94	0.718270	0.040930	0.569530
H951	H95	0.310070	0.132230	0.408330
H961	H96	0.563870	0.832630	0.554930
Zn91	Zn9	0.320830	0.584090	0.814970
O331	O33	0.321300	0.524180	0.830290
O341	O34	0.241120	0.533190	0.801160
O351	O35	0.386730	0.603620	0.797150
C1611	C161	0.325330	0.535070	0.846670
C1621	C162	0.209030	0.555870	0.795000
C1631	C163	0.321030	0.477370	0.857370
O361	O36	0.338930	0.586670	0.853180
C1641	C164	0.156230	0.512270	0.781790
C1651	C165	0.304830	0.420170	0.851300
C1661	C166	0.329430	0.483470	0.874340
C1671	C167	0.138930	0.447570	0.779510
C1681	C168	0.124430	0.539470	0.772060
H971	H97	0.294730	0.413070	0.839870
C1691	C169	0.301330	0.370470	0.860260
C1701	C170	0.324930	0.433370	0.884810
H981	H98	0.338530	0.523070	0.879270
H991	H99	0.156730	0.427170	0.785970
C1711	C171	0.092430	0.414470	0.766800
C1721	C172	0.084630	0.506770	0.759190
H1001	H100	0.131630	0.581170	0.774770
H1011	H101	0.289530	0.331170	0.854670
C1731	C173	0.313530	0.373670	0.876840
H1021	H102	0.329130	0.438570	0.896470
C1741	C174	0.070130	0.445870	0.756010
H1031	H103	0.075730	0.369470	0.765470
H1041	H104	0.067330	0.526970	0.752470
C1751	C175	0.307630	0.320270	0.887200
C1761	C176	0.018730	0.406370	0.742820
C1771	C177	0.258330	0.255570	0.884190
C1781	C178	0.353130	0.331170	0.900230
C1791	C179	0.975230	0.427870	0.737450
H1051	H105	0.223330	0.246570	0.876970
C1801	C180	0.261730	0.208470	0.891470
H1061	H106	0.384930	0.374270	0.902870
H1071	H107	0.976730	0.465570	0.741670
H1081	H108	0.230530	0.165970	0.888270
Zn101	Zn10	0.929930	0.917420	0.648300
O371	O37	0.869540	0.857510	0.663620
O381	O38	0.958730	0.866520	0.634490
O391	O39	0.883550	0.936950	0.630480
C1811	C181	0.876400	0.868400	0.680000
C1821	C182	0.013500	0.889200	0.628330
C1831	C183	0.823000	0.810700	0.690700
O401	O40	0.914400	0.920000	0.686510
C1841	C184	0.022700	0.845600	0.615120
C1851	C185	0.782000	0.753500	0.684630
C1861	C186	0.820700	0.816800	0.707670
C1871	C187	0.975300	0.780900	0.612840
C1881	C188	0.081700	0.872800	0.605390
H1091	H109	0.785000	0.746400	0.673200
C1891	C189	0.735800	0.703800	0.693590
C1901	C190	0.775100	0.766700	0.718140
H1101	H110	0.851200	0.856400	0.712600
H1111	H111	0.937100	0.760500	0.619300
C1911	C191	0.988700	0.747800	0.600130
C1921	C192	0.088800	0.840100	0.592520
H1121	H112	0.116200	0.914500	0.608100
H1131	H113	0.708300	0.664500	0.688000
C1931	C193	0.726800	0.707000	0.710170
H1141	H114	0.776100	0.771900	0.729800
C1941	C194	0.042400	0.779200	0.589340
H1151	H115	0.960400	0.702800	0.598800
H1161	H116	0.126300	0.860300	0.585800
C1951	C195	0.679300	0.653600	0.720530
C1961	C196	0.054300	0.739700	0.576150
C1971	C197	0.663900	0.588900	0.717520
C1981	C198	0.644700	0.664500	0.733560
C1991	C199	0.119300	0.761200	0.570780
H1171	H117	0.689900	0.579900	0.710300
C2001	C200	0.613400	0.541800	0.724800
H1181	H118	0.656000	0.707600	0.736200
H1191	H119	0.155500	0.798900	0.575000
H1201	H120	0.602100	0.499300	0.721600
Zn111	Zn11	0.596600	0.250760	0.981630
O411	O41	0.536210	0.190840	0.996950
O421	O42	0.625400	0.199850	0.967820
O431	O43	0.550220	0.270280	0.963810
C2011	C201	0.543070	0.201730	0.013330
C2021	C202	0.680170	0.222530	0.961660
C2031	C203	0.489670	0.144030	0.024030
O441	O44	0.581070	0.253330	0.019840
C2041	C204	0.689370	0.178930	0.948450
C2051	C205	0.448670	0.086830	0.017960
C2061	C206	0.487370	0.150130	0.041000
C2071	C207	0.641970	0.114230	0.946170
C2081	C208	0.748370	0.206130	0.938720
H1211	H121	0.451670	0.079730	0.006530
C2091	C209	0.402470	0.037130	0.026920
C2101	C210	0.441770	0.100030	0.051470
H1221	H122	0.517870	0.189730	0.045930
H1231	H123	0.603770	0.093830	0.952630
C2111	C211	0.655370	0.081130	0.933460
C2121	C212	0.755470	0.173430	0.925850
H1241	H124	0.782870	0.247830	0.941430
H1251	H125	0.374970	0.997830	0.021330
C2131	C213	0.393470	0.040330	0.043500
H1261	H126	0.442770	0.105230	0.063130
C2141	C214	0.709070	0.112530	0.922670
H1271	H127	0.627070	0.036130	0.932130
H1281	H128	0.792970	0.193630	0.919130
C2151	C215	0.345970	0.986930	0.053860
C2161	C216	0.720970	0.073030	0.909480
C2171	C217	0.330570	0.922230	0.050850
C2181	C218	0.311370	0.997830	0.066890
C2191	C219	0.785970	0.094530	0.904110
H1291	H129	0.356570	0.913230	0.043630
C2201	C220	0.280070	0.875130	0.058130
H1301	H130	0.322670	0.040930	0.069530
H1311	H131	0.822170	0.132230	0.908330
H1321	H132	0.268770	0.832630	0.054930
Zn121	Zn12	0.263260	0.584090	0.314970
O451	O45	0.202870	0.524180	0.330290
O461	O46	0.292060	0.533190	0.301160
O471	O47	0.216880	0.603620	0.297150
C2211	C221	0.209730	0.535070	0.346670
C2221	C222	0.346830	0.555870	0.295000
C2231	C223	0.156330	0.477370	0.357370
O481	O48	0.247730	0.586670	0.353180
C2241	C224	0.356030	0.512270	0.281790
C2251	C225	0.115330	0.420170	0.351300
C2261	C226	0.154030	0.483470	0.374340
C2271	C227	0.308630	0.447570	0.279510
C2281	C228	0.415030	0.539470	0.272060
H1331	H133	0.118330	0.413070	0.339870
C2291	C229	0.069130	0.370470	0.360260
C2301	C230	0.108430	0.433370	0.384810
H1341	H134	0.184530	0.523070	0.379270
H1351	H135	0.270430	0.427170	0.285970
C2311	C231	0.322030	0.414470	0.266800
C2321	C232	0.422130	0.506770	0.259190
H1361	H136	0.449530	0.581170	0.274770
H1371	H137	0.041630	0.331170	0.354670
C2331	C233	0.060130	0.373670	0.376840
H1381	H138	0.109430	0.438570	0.396470
C2341	C234	0.375730	0.445870	0.256010
H1391	H139	0.293730	0.369470	0.265470
H1401	H140	0.459630	0.526970	0.252470
C2351	C235	0.012630	0.320270	0.387200
C2361	C236	0.387630	0.406370	0.242820
C2371	C237	0.997230	0.255570	0.384190
C2381	C238	0.978030	0.331170	0.400230
C2391	C239	0.452630	0.427870	0.237450
H1411	H141	0.023230	0.246570	0.376970
C2401	C240	0.946730	0.208470	0.391470
H1421	H142	0.989330	0.374270	0.402870
H1431	H143	0.488830	0.465570	0.241670
H1441	H144	0.935430	0.165970	0.388270
Zn131	Zn13	0.987490	0.070070	0.648300
O491	O49	0.987970	0.130460	0.663620
O501	O50	0.907790	0.041270	0.634490
O511	O51	0.053400	0.116450	0.630480
C2411	C241	0.992000	0.123600	0.680000
C2421	C242	0.875700	0.986500	0.628330
C2431	C243	0.987700	0.177000	0.690700
O521	O52	0.005600	0.085600	0.686510
C2441	C244	0.822900	0.977300	0.615120
C2451	C245	0.971500	0.218000	0.684630
C2461	C246	0.996100	0.179300	0.707670
C2471	C247	0.805600	0.024700	0.612840
C2481	C248	0.791100	0.918300	0.605390
H1451	H145	0.961400	0.215000	0.673200
C2491	C249	0.968000	0.264200	0.693590
C2501	C250	0.991600	0.224900	0.718140
H1461	H146	0.005200	0.148800	0.712600
H1471	H147	0.823400	0.062900	0.619300
C2511	C251	0.759100	0.011300	0.600130
C2521	C252	0.751300	0.911200	0.592520
H1481	H148	0.798300	0.883800	0.608100
H1491	H149	0.956200	0.291700	0.688000
C2531	C253	0.980200	0.273200	0.710170
H1501	H150	0.995800	0.223900	0.729800
C2541	C254	0.736800	0.957600	0.589340
H1511	H151	0.742400	0.039600	0.598800
H1521	H152	0.734000	0.873700	0.585800
C2551	C255	0.974300	0.320700	0.720530
C2561	C256	0.685400	0.945700	0.576150
C2571	C257	0.925000	0.336100	0.717520
C2581	C258	0.019800	0.355300	0.733560
C2591	C259	0.641900	0.880700	0.570780
H1531	H153	0.890000	0.310100	0.710300
C2601	C260	0.928400	0.386600	0.724800
H1541	H154	0.051600	0.344000	0.736200
H1551	H155	0.643400	0.844500	0.575000
H1561	H156	0.897200	0.397900	0.721600
Zn141	Zn14	0.654160	0.403400	0.981630
O531	O53	0.654640	0.463790	0.996950
O541	O54	0.574460	0.374600	0.967820
O551	O55	0.720070	0.449780	0.963810
C2611	C261	0.658670	0.456930	0.013330
C2621	C262	0.542370	0.319830	0.961660
C2631	C263	0.654370	0.510330	0.024030
O561	O56	0.672270	0.418930	0.019840
C2641	C264	0.489570	0.310630	0.948450
C2651	C265	0.638170	0.551330	0.017960
C2661	C266	0.662770	0.512630	0.041000
C2671	C267	0.472270	0.358030	0.946170
C2681	C268	0.457770	0.251630	0.938720
H1571	H157	0.628070	0.548330	0.006530
C2691	C269	0.634670	0.597530	0.026920
C2701	C270	0.658270	0.558230	0.051470
H1581	H158	0.671870	0.482130	0.045930
H1591	H159	0.490070	0.396230	0.952630
C2711	C271	0.425770	0.344630	0.933460
C2721	C272	0.417970	0.244530	0.925850
H1601	H160	0.464970	0.217130	0.941430
H1611	H161	0.622870	0.625030	0.021330
C2731	C273	0.646870	0.606530	0.043500
H1621	H162	0.662470	0.557230	0.063130
C2741	C274	0.403470	0.290930	0.922670
H1631	H163	0.409070	0.372930	0.932130
H1641	H164	0.400670	0.207030	0.919130
C2751	C275	0.640970	0.654030	0.053860
C2761	C276	0.352070	0.279030	0.909480
C2771	C277	0.591670	0.669430	0.050850
C2781	C278	0.686470	0.688630	0.066890
C2791	C279	0.308570	0.214030	0.904110
H1651	H165	0.556670	0.643430	0.043630
C2801	C280	0.595070	0.719930	0.058130
H1661	H166	0.718270	0.677330	0.069530
H1671	H167	0.310070	0.177830	0.908330
H1681	H168	0.563870	0.731230	0.054930
Zn151	Zn15	0.320830	0.736740	0.314970
O571	O57	0.321300	0.797130	0.330290
O581	O58	0.241120	0.707940	0.301160
O591	O59	0.386730	0.783120	0.297150
C2811	C281	0.325330	0.790270	0.346670
C2821	C282	0.209030	0.653170	0.295000
C2831	C283	0.321030	0.843670	0.357370
O601	O60	0.338930	0.752270	0.353180
C2841	C284	0.156230	0.643970	0.281790
C2851	C285	0.304830	0.884670	0.351300
C2861	C286	0.329430	0.845970	0.374340
C2871	C287	0.138930	0.691370	0.279510
C2881	C288	0.124430	0.584970	0.272060
H1691	H169	0.294730	0.881670	0.339870
C2891	C289	0.301330	0.930870	0.360260
C2901	C290	0.324930	0.891570	0.384810
H1701	H170	0.338530	0.815470	0.379270
H1711	H171	0.156730	0.729570	0.285970
C2911	C291	0.092430	0.677970	0.266800
C2921	C292	0.084630	0.577870	0.259190
H1721	H172	0.131630	0.550470	0.274770
H1731	H173	0.289530	0.958370	0.354670
C2931	C293	0.313530	0.939870	0.376840
H1741	H174	0.329130	0.890570	0.396470
C2941	C294	0.070130	0.624270	0.256010
H1751	H175	0.075730	0.706270	0.265470
H1761	H176	0.067330	0.540370	0.252470
C2951	C295	0.307630	0.987370	0.387200
C2961	C296	0.018730	0.612370	0.242820
C2971	C297	0.258330	0.002770	0.384190
C2981	C298	0.353130	0.021970	0.400230
C2991	C299	0.975230	0.547370	0.237450
H1771	H177	0.223330	0.976770	0.376970
C3001	C300	0.261730	0.053270	0.391470
H1781	H178	0.384930	0.010670	0.402870
H1791	H179	0.976730	0.511170	0.241670
H1801	H180	0.230530	0.064570	0.388270
Zn161	Zn16	0.082580	0.012510	0.648300
O611	O61	0.142490	0.012030	0.663620
O621	O62	0.133480	0.092210	0.634490
O631	O63	0.063050	0.946600	0.630480
C3011	C301	0.131600	0.008000	0.680000
C3021	C302	0.110800	0.124300	0.628330
C3031	C303	0.189300	0.012300	0.690700
O641	O64	0.080000	0.994400	0.686510
C3041	C304	0.154400	0.177100	0.615120
C3051	C305	0.246500	0.028500	0.684630
C3061	C306	0.183200	0.003900	0.707670
C3071	C307	0.219100	0.194400	0.612840
C3081	C308	0.127200	0.208900	0.605390
H1811	H181	0.253600	0.038600	0.673200
C3091	C309	0.296200	0.032000	0.693590
C3101	C310	0.233300	0.008400	0.718140
H1821	H182	0.143600	0.994800	0.712600
H1831	H183	0.239500	0.176600	0.619300
C3111	C311	0.252200	0.240900	0.600130
C3121	C312	0.159900	0.248700	0.592520
H1841	H184	0.085500	0.201700	0.608100
H1851	H185	0.335500	0.043800	0.688000
C3131	C313	0.293000	0.019800	0.710170
H1861	H186	0.228100	0.004200	0.729800
C3141	C314	0.220800	0.263200	0.589340
H1871	H187	0.297200	0.257600	0.598800
H1881	H188	0.139700	0.266000	0.585800
C3151	C315	0.346400	0.025700	0.720530
C3161	C316	0.260300	0.314600	0.576150
C3171	C317	0.411100	0.075000	0.717520
C3181	C318	0.335500	0.980200	0.733560
C3191	C319	0.238800	0.358100	0.570780
H1891	H189	0.420100	0.110000	0.710300
C3201	C320	0.458200	0.071600	0.724800
H1901	H190	0.292400	0.948400	0.736200
H1911	H191	0.201100	0.356600	0.575000
H1921	H192	0.500700	0.102800	0.721600
Zn171	Zn17	0.749240	0.345840	0.981630
O651	O65	0.809160	0.345360	0.996950
O661	O66	0.800150	0.425540	0.967820
O671	O67	0.729720	0.279930	0.963810
C3211	C321	0.798270	0.341330	0.013330
C3221	C322	0.777470	0.457630	0.961660
C3231	C323	0.855970	0.345630	0.024030
O681	O68	0.746670	0.327730	0.019840
C3241	C324	0.821070	0.510430	0.948450
C3251	C325	0.913170	0.361830	0.017960
C3261	C326	0.849870	0.337230	0.041000
C3271	C327	0.885770	0.527730	0.946170
C3281	C328	0.793870	0.542230	0.938720
H1931	H193	0.920270	0.371930	0.006530
C3291	C329	0.962870	0.365330	0.026920
C3301	C330	0.899970	0.341730	0.051470
H1941	H194	0.810270	0.328130	0.045930
H1951	H195	0.906170	0.509930	0.952630
C3311	C331	0.918870	0.574230	0.933460
C3321	C332	0.826570	0.582030	0.925850
H1961	H196	0.752170	0.535030	0.941430
H1971	H197	0.002170	0.377130	0.021330
C3331	C333	0.959670	0.353130	0.043500
H1981	H198	0.894770	0.337530	0.063130
C3341	C334	0.887470	0.596530	0.922670
H1991	H199	0.963870	0.590930	0.932130
H2001	H200	0.806370	0.599330	0.919130
C3351	C335	0.013070	0.359030	0.053860
C3361	C336	0.926970	0.647930	0.909480
C3371	C337	0.077770	0.408330	0.050850
C3381	C338	0.002170	0.313530	0.066890
C3391	C339	0.905470	0.691430	0.904110
H2011	H201	0.086770	0.443330	0.043630
C3401	C340	0.124870	0.404930	0.058130
H2021	H202	0.959070	0.281730	0.069530
H2031	H203	0.867770	0.689930	0.908330
H2041	H204	0.167370	0.436130	0.054930
Zn181	Zn18	0.415910	0.679170	0.314970
O691	O69	0.475820	0.678700	0.330290
O701	O70	0.466810	0.758880	0.301160
O711	O71	0.396380	0.613270	0.297150
C3411	C341	0.464930	0.674670	0.346670
C3421	C342	0.444130	0.790970	0.295000
C3431	C343	0.522630	0.678970	0.357370
O721	O72	0.413330	0.661070	0.353180
C3441	C344	0.487730	0.843770	0.281790
C3451	C345	0.579830	0.695170	0.351300
C3461	C346	0.516530	0.670570	0.374340
C3471	C347	0.552430	0.861070	0.279510
C3481	C348	0.460530	0.875570	0.272060
H2051	H205	0.586930	0.705270	0.339870
C3491	C349	0.629530	0.698670	0.360260
C3501	C350	0.566630	0.675070	0.384810
H2061	H206	0.476930	0.661470	0.379270
H2071	H207	0.572830	0.843270	0.285970
C3511	C351	0.585530	0.907570	0.266800
C3521	C352	0.493230	0.915370	0.259190
H2081	H208	0.418830	0.868370	0.274770
H2091	H209	0.668830	0.710470	0.354670
C3531	C353	0.626330	0.686470	0.376840
H2101	H210	0.561430	0.670870	0.396470
C3541	C354	0.554130	0.929870	0.256010
H2111	H211	0.630530	0.924270	0.265470
H2121	H212	0.473030	0.932670	0.252470
C3551	C355	0.679730	0.692370	0.387200
C3561	C356	0.593630	0.981270	0.242820
C3571	C357	0.744430	0.741670	0.384190
C3581	C358	0.668830	0.646870	0.400230
C3591	C359	0.572130	0.024770	0.237450
H2131	H213	0.753430	0.776670	0.376970
C3601	C360	0.791530	0.738270	0.391470
H2141	H214	0.625730	0.615070	0.402870
H2151	H215	0.534430	0.023270	0.241670
H2161	H216	0.834030	0.769470	0.388270
O731	O73	0.000000	0.000000	0.157560
Zn191	Zn19	0.000000	0.000000	0.182390
O741	O74	0.666670	0.333330	0.490890
Zn201	Zn20	0.666670	0.333330	0.515730
O751	O75	0.333330	0.666670	0.824230
Zn211	Zn21	0.333330	0.666670	0.849060
O761	O76	0.000000	0.000000	0.657560
Zn221	Zn22	0.000000	0.000000	0.682390
O771	O77	0.666670	0.333330	0.990890
Zn231	Zn23	0.666670	0.333330	0.015730
O781	O78	0.333330	0.666670	0.324230
Zn241	Zn24	0.333330	0.666670	0.349060
C3611	C361	0.539050	0.313530	0.188570
C3621	C362	0.489130	0.305220	0.175890
C3631	C363	0.447700	0.245780	0.168830
H2171	H217	0.450900	0.209600	0.172400
C3641	C364	0.400900	0.235660	0.156650
H2181	H218	0.375600	0.194300	0.151800
C3651	C365	0.392280	0.287160	0.151740
C3661	C366	0.428750	0.345390	0.159680
H2191	H219	0.421100	0.379900	0.157500
C3671	C367	0.477340	0.354540	0.171060
H2201	H220	0.503300	0.396200	0.175700
C3681	C368	0.341510	0.276250	0.138890
C3691	C369	0.287510	0.214470	0.135900
H2211	H221	0.280900	0.178800	0.142500
C3701	C370	0.243190	0.205740	0.123110
H2221	H222	0.207000	0.164100	0.121400
C3711	C371	0.251260	0.256810	0.112950
H2231	H223	0.222600	0.248700	0.104000
C3721	C372	0.302060	0.320410	0.116060
C3731	C373	0.346550	0.329290	0.129200
H2241	H224	0.380500	0.371700	0.131600
C3741	C374	0.308750	0.376600	0.105720
C3751	C375	0.293520	0.369500	0.088610
H2251	H225	0.283000	0.330300	0.083100
C3761	C376	0.294000	0.419300	0.079920
H2261	H226	0.280900	0.412500	0.068700
C3771	C377	0.313000	0.479400	0.087030
C3781	C378	0.330700	0.490100	0.104570
H2271	H227	0.341600	0.529800	0.109800
C3791	C379	0.331100	0.438700	0.113510
H2281	H228	0.346000	0.445300	0.124600
C3801	C380	0.315000	0.534500	0.077520
O791	O79	0.573420	0.371730	0.194860
O801	O80	0.540740	0.264200	0.193080
O811	O81	0.331540	0.589540	0.085150
O821	O82	0.306480	0.525470	0.061190
Zn251	Zn25	0.653560	0.404390	0.209090
C3811	C381	0.205720	0.646860	0.521900
C3821	C382	0.155800	0.638550	0.509220
C3831	C383	0.114370	0.579110	0.502160
H2291	H229	0.117570	0.542930	0.505730
C3841	C384	0.067570	0.568990	0.489980
H2301	H230	0.042270	0.527630	0.485130
C3851	C385	0.058950	0.620490	0.485070
C3861	C386	0.095420	0.678720	0.493010
H2311	H231	0.087770	0.713230	0.490830
C3871	C387	0.144010	0.687870	0.504390
H2321	H232	0.169970	0.729530	0.509030
C3881	C388	0.008180	0.609580	0.472220
C3891	C389	0.954180	0.547800	0.469230
H2331	H233	0.947570	0.512130	0.475830
C3901	C390	0.909860	0.539070	0.456440
H2341	H234	0.873670	0.497430	0.454730
C3911	C391	0.917930	0.590140	0.446280
H2351	H235	0.889270	0.582030	0.437330
C3921	C392	0.968730	0.653740	0.449390
C3931	C393	0.013220	0.662620	0.462530
H2361	H236	0.047170	0.705030	0.464930
C3941	C394	0.975420	0.709930	0.439050
C3951	C395	0.960190	0.702830	0.421940
H2371	H237	0.949670	0.663630	0.416430
C3961	C396	0.960670	0.752630	0.413250
H2381	H238	0.947570	0.745830	0.402030
C3971	C397	0.979670	0.812730	0.420360
C3981	C398	0.997370	0.823430	0.437900
H2391	H239	0.008270	0.863130	0.443130
C3991	C399	0.997770	0.772030	0.446840
H2401	H240	0.012670	0.778630	0.457930
C4001	C400	0.981670	0.867830	0.410850
O831	O83	0.240090	0.705060	0.528190
O841	O84	0.207410	0.597530	0.526410
O851	O85	0.998210	0.922870	0.418480
O861	O86	0.973150	0.858800	0.394520
Zn261	Zn26	0.320230	0.737720	0.542430
C4011	C401	0.872380	0.980200	0.855240
C4021	C402	0.822460	0.971890	0.842560
C4031	C403	0.781030	0.912450	0.835500
H2411	H241	0.784230	0.876270	0.839070
C4041	C404	0.734230	0.902330	0.823320
H2421	H242	0.708930	0.860970	0.818470
C4051	C405	0.725610	0.953830	0.818410
C4061	C406	0.762080	0.012060	0.826350
H2431	H243	0.754430	0.046570	0.824170
C4071	C407	0.810670	0.021210	0.837730
H2441	H244	0.836630	0.062870	0.842370
C4081	C408	0.674840	0.942920	0.805560
C4091	C409	0.620840	0.881140	0.802570
H2451	H245	0.614230	0.845470	0.809170
C4101	C410	0.576520	0.872410	0.789780
H2461	H246	0.540330	0.830770	0.788070
C4111	C411	0.584590	0.923480	0.779620
H2471	H247	0.555930	0.915370	0.770670
C4121	C412	0.635390	0.987080	0.782730
C4131	C413	0.679880	0.995960	0.795870
H2481	H248	0.713830	0.038370	0.798270
C4141	C414	0.642080	0.043270	0.772390
C4151	C415	0.626850	0.036170	0.755280
H2491	H249	0.616330	0.996970	0.749770
C4161	C416	0.627330	0.085970	0.746590
H2501	H250	0.614230	0.079170	0.735370
C4171	C417	0.646330	0.146070	0.753700
C4181	C418	0.664030	0.156770	0.771240
H2511	H251	0.674930	0.196470	0.776470
C4191	C419	0.664430	0.105370	0.780180
H2521	H252	0.679330	0.111970	0.791270
C4201	C420	0.648330	0.201170	0.744190
O871	O87	0.906750	0.038400	0.861530
O881	O88	0.874070	0.930870	0.859750
O891	O89	0.664870	0.256210	0.751820
O901	O90	0.639810	0.192140	0.727860
Zn271	Zn27	0.986900	0.071050	0.875760
C4211	C421	0.686470	0.225520	0.188570
C4221	C422	0.694780	0.183910	0.175890
C4231	C423	0.754220	0.201920	0.168830
H2531	H253	0.790400	0.241300	0.172400
C4241	C424	0.764340	0.165240	0.156650
H2541	H254	0.805700	0.181300	0.151800
C4251	C425	0.712840	0.105120	0.151740
C4261	C426	0.654610	0.083360	0.159680
H2551	H255	0.620100	0.041200	0.157500
C4271	C427	0.645460	0.122800	0.171060
H2561	H256	0.603800	0.107100	0.175700
C4281	C428	0.723750	0.065260	0.138890
C4291	C429	0.785530	0.073040	0.135900
H2571	H257	0.821200	0.102100	0.142500
C4301	C430	0.794260	0.037450	0.123110
H2581	H258	0.835900	0.042900	0.121400
C4311	C431	0.743190	0.994450	0.112950
H2591	H259	0.751300	0.973900	0.104000
C4321	C432	0.679590	0.981650	0.116060
C4331	C433	0.670710	0.017260	0.129200
H2601	H260	0.628300	0.008800	0.131600
C4341	C434	0.623400	0.932150	0.105720
C4351	C435	0.630500	0.924020	0.088610
H2611	H261	0.669700	0.952700	0.083100
C4361	C436	0.580700	0.874700	0.079920
H2621	H262	0.587500	0.868400	0.068700
C4371	C437	0.520600	0.833600	0.087030
C4381	C438	0.509900	0.840600	0.104570
H2631	H263	0.470200	0.811800	0.109800
C4391	C439	0.561300	0.892400	0.113510
H2641	H264	0.554700	0.900700	0.124600
C4401	C440	0.465500	0.780500	0.077520
O911	O91	0.628270	0.201690	0.194860
O921	O92	0.735800	0.276540	0.193080
O931	O93	0.410460	0.742000	0.085150
O941	O94	0.474530	0.781010	0.061190
Zn281	Zn28	0.595610	0.249180	0.209090
C4411	C441	0.353140	0.558850	0.521900
C4421	C442	0.361450	0.517240	0.509220
C4431	C443	0.420890	0.535250	0.502160
H2651	H265	0.457070	0.574630	0.505730
C4441	C444	0.431010	0.498570	0.489980
H2661	H266	0.472370	0.514630	0.485130
C4451	C445	0.379510	0.438450	0.485070
C4461	C446	0.321280	0.416690	0.493010
H2671	H267	0.286770	0.374530	0.490830
C4471	C447	0.312130	0.456130	0.504390
H2681	H268	0.270470	0.440430	0.509030
C4481	C448	0.390420	0.398590	0.472220
C4491	C449	0.452200	0.406370	0.469230
H2691	H269	0.487870	0.435430	0.475830
C4501	C450	0.460930	0.370780	0.456440
H2701	H270	0.502570	0.376230	0.454730
C4511	C451	0.409860	0.327780	0.446280
H2711	H271	0.417970	0.307230	0.437330
C4521	C452	0.346260	0.314980	0.449390
C4531	C453	0.337380	0.350590	0.462530
H2721	H272	0.294970	0.342130	0.464930
C4541	C454	0.290070	0.265480	0.439050
C4551	C455	0.297170	0.257350	0.421940
H2731	H273	0.336370	0.286030	0.416430
C4561	C456	0.247370	0.208030	0.413250
H2741	H274	0.254170	0.201730	0.402030
C4571	C457	0.187270	0.166930	0.420360
C4581	C458	0.176570	0.173930	0.437900
H2751	H275	0.136870	0.145130	0.443130
C4591	C459	0.227970	0.225730	0.446840
H2761	H276	0.221370	0.234030	0.457930
C4601	C460	0.132170	0.113830	0.410850
O951	O95	0.294940	0.535020	0.528190
O961	O96	0.402470	0.609870	0.526410
O971	O97	0.077130	0.075330	0.418480
O981	O98	0.141200	0.114340	0.394520
Zn291	Zn29	0.262280	0.582510	0.542430
C4611	C461	0.019800	0.892190	0.855240
C4621	C462	0.028110	0.850580	0.842560
C4631	C463	0.087550	0.868590	0.835500
H2771	H277	0.123730	0.907970	0.839070
C4641	C464	0.097670	0.831910	0.823320
H2781	H278	0.139030	0.847970	0.818470
C4651	C465	0.046170	0.771790	0.818410
C4661	C466	0.987940	0.750030	0.826350
H2791	H279	0.953430	0.707870	0.824170
C4671	C467	0.978790	0.789470	0.837730
H2801	H280	0.937130	0.773770	0.842370
C4681	C468	0.057080	0.731930	0.805560
C4691	C469	0.118860	0.739710	0.802570
H2811	H281	0.154530	0.768770	0.809170
C4701	C470	0.127590	0.704120	0.789780
H2821	H282	0.169230	0.709570	0.788070
C4711	C471	0.076520	0.661120	0.779620
H2831	H283	0.084630	0.640570	0.770670
C4721	C472	0.012920	0.648320	0.782730
C4731	C473	0.004040	0.683930	0.795870
H2841	H284	0.961630	0.675470	0.798270
C4741	C474	0.956730	0.598820	0.772390
C4751	C475	0.963830	0.590690	0.755280
H2851	H285	0.003030	0.619370	0.749770
C4761	C476	0.914030	0.541370	0.746590
H2861	H286	0.920830	0.535070	0.735370
C4771	C477	0.853930	0.500270	0.753700
C4781	C478	0.843230	0.507270	0.771240
H2871	H287	0.803530	0.478470	0.776470
C4791	C479	0.894630	0.559070	0.780180
H2881	H288	0.888030	0.567370	0.791270
C4801	C480	0.798830	0.447170	0.744190
O991	O99	0.961600	0.868360	0.861530
O1001	O100	0.069130	0.943210	0.859750
O1011	O101	0.743790	0.408670	0.751820
O1021	O102	0.807860	0.447680	0.727860
Zn301	Zn30	0.928950	0.915840	0.875760
C4811	C481	0.774480	0.460950	0.188570
C4821	C482	0.816090	0.510870	0.175890
C4831	C483	0.798080	0.552300	0.168830
H2891	H289	0.758700	0.549100	0.172400
C4841	C484	0.834760	0.599100	0.156650
H2901	H290	0.818700	0.624400	0.151800
C4851	C485	0.894880	0.607720	0.151740
C4861	C486	0.916640	0.571250	0.159680
H2911	H291	0.958800	0.578900	0.157500
C4871	C487	0.877200	0.522660	0.171060
H2921	H292	0.892900	0.496700	0.175700
C4881	C488	0.934740	0.658490	0.138890
C4891	C489	0.926960	0.712490	0.135900
H2931	H293	0.897900	0.719100	0.142500
C4901	C490	0.962550	0.756810	0.123110
H2941	H294	0.957100	0.793000	0.121400
C4911	C491	0.005550	0.748740	0.112950
H2951	H295	0.026100	0.777400	0.104000
C4921	C492	0.018350	0.697940	0.116060
C4931	C493	0.982740	0.653450	0.129200
H2961	H296	0.991200	0.619500	0.131600
C4941	C494	0.067850	0.691250	0.105720
C4951	C495	0.075980	0.706480	0.088610
H2971	H297	0.047300	0.717000	0.083100
C4961	C496	0.125300	0.706000	0.079920
H2981	H298	0.131600	0.719100	0.068700
C4971	C497	0.166400	0.687000	0.087030
C4981	C498	0.159400	0.669300	0.104570
H2991	H299	0.188200	0.658400	0.109800
C4991	C499	0.107600	0.668900	0.113510
H3001	H300	0.099300	0.654000	0.124600
C5001	C500	0.219500	0.685000	0.077520
O1031	O103	0.798310	0.426580	0.194860
O1041	O104	0.723460	0.459260	0.193080
O1051	O105	0.258000	0.668460	0.085150
O1061	O106	0.218990	0.693520	0.061190
Zn311	Zn31	0.750820	0.346440	0.209090
C5011	C501	0.441150	0.794280	0.521900
C5021	C502	0.482760	0.844200	0.509220
C5031	C503	0.464750	0.885630	0.502160
H3011	H301	0.425370	0.882430	0.505730
C5041	C504	0.501430	0.932430	0.489980
H3021	H302	0.485370	0.957730	0.485130
C5051	C505	0.561550	0.941050	0.485070
C5061	C506	0.583310	0.904580	0.493010
H3031	H303	0.625470	0.912230	0.490830
C5071	C507	0.543870	0.855990	0.504390
H3041	H304	0.559570	0.830030	0.509030
C5081	C508	0.601410	0.991820	0.472220
C5091	C509	0.593630	0.045820	0.469230
H3051	H305	0.564570	0.052430	0.475830
C5101	C510	0.629220	0.090140	0.456440
H3061	H306	0.623770	0.126330	0.454730
C5111	C511	0.672220	0.082070	0.446280
H3071	H307	0.692770	0.110730	0.437330
C5121	C512	0.685020	0.031270	0.449390
C5131	C513	0.649410	0.986780	0.462530
H3081	H308	0.657870	0.952830	0.464930
C5141	C514	0.734520	0.024580	0.439050
C5151	C515	0.742650	0.039810	0.421940
H3091	H309	0.713970	0.050330	0.416430
C5161	C516	0.791970	0.039330	0.413250
H3101	H310	0.798270	0.052430	0.402030
C5171	C517	0.833070	0.020330	0.420360
C5181	C518	0.826070	0.002630	0.437900
H3111	H311	0.854870	0.991730	0.443130
C5191	C519	0.774270	0.002230	0.446840
H3121	H312	0.765970	0.987330	0.457930
C5201	C520	0.886170	0.018330	0.410850
O1071	O107	0.464980	0.759910	0.528190
O1081	O108	0.390130	0.792590	0.526410
O1091	O109	0.924670	0.001790	0.418480
O1101	O110	0.885660	0.026850	0.394520
Zn321	Zn32	0.417490	0.679770	0.542430
C5211	C521	0.107810	0.127620	0.855240
C5221	C522	0.149420	0.177540	0.842560
C5231	C523	0.131410	0.218970	0.835500
H3131	H313	0.092030	0.215770	0.839070
C5241	C524	0.168090	0.265770	0.823320
H3141	H314	0.152030	0.291070	0.818470
C5251	C525	0.228210	0.274390	0.818410
C5261	C526	0.249970	0.237920	0.826350
H3151	H315	0.292130	0.245570	0.824170
C5271	C527	0.210530	0.189330	0.837730
H3161	H316	0.226230	0.163370	0.842370
C5281	C528	0.268070	0.325160	0.805560
C5291	C529	0.260290	0.379160	0.802570
H3171	H317	0.231230	0.385770	0.809170
C5301	C530	0.295880	0.423480	0.789780
H3181	H318	0.290430	0.459670	0.788070
C5311	C531	0.338880	0.415410	0.779620
H3191	H319	0.359430	0.444070	0.770670
C5321	C532	0.351680	0.364610	0.782730
C5331	C533	0.316070	0.320120	0.795870
H3201	H320	0.324530	0.286170	0.798270
C5341	C534	0.401180	0.357920	0.772390
C5351	C535	0.409310	0.373150	0.755280
H3211	H321	0.380630	0.383670	0.749770
C5361	C536	0.458630	0.372670	0.746590
H3221	H322	0.464930	0.385770	0.735370
C5371	C537	0.499730	0.353670	0.753700
C5381	C538	0.492730	0.335970	0.771240
H3231	H323	0.521530	0.325070	0.776470
C5391	C539	0.440930	0.335570	0.780180
H3241	H324	0.432630	0.320670	0.791270
C5401	C540	0.552830	0.351670	0.744190
O1111	O111	0.131640	0.093250	0.861530
O1121	O112	0.056790	0.125930	0.859750
O1131	O113	0.591330	0.335130	0.751820
O1141	O114	0.552320	0.360190	0.727860
Zn331	Zn33	0.084160	0.013100	0.875760
C5411	C541	0.686470	0.460950	0.688570
C5421	C542	0.694780	0.510870	0.675890
C5431	C543	0.754220	0.552300	0.668830
H3251	H325	0.790400	0.549100	0.672400
C5441	C544	0.764340	0.599100	0.656650
H3261	H326	0.805700	0.624400	0.651800
C5451	C545	0.712840	0.607720	0.651740
C5461	C546	0.654610	0.571250	0.659680
H3271	H327	0.620100	0.578900	0.657500
C5471	C547	0.645460	0.522660	0.671060
H3281	H328	0.603800	0.496700	0.675700
C5481	C548	0.723750	0.658490	0.638890
C5491	C549	0.785530	0.712490	0.635900
H3291	H329	0.821200	0.719100	0.642500
C5501	C550	0.794260	0.756810	0.623110
H3301	H330	0.835900	0.793000	0.621400
C5511	C551	0.743190	0.748740	0.612950
H3311	H331	0.751300	0.777400	0.604000
C5521	C552	0.679590	0.697940	0.616060
C5531	C553	0.670710	0.653450	0.629200
H3321	H332	0.628300	0.619500	0.631600
C5541	C554	0.623400	0.691250	0.605720
C5551	C555	0.630500	0.706480	0.588610
H3331	H333	0.669700	0.717000	0.583100
C5561	C556	0.580700	0.706000	0.579920
H3341	H334	0.587500	0.719100	0.568700
C5571	C557	0.520600	0.687000	0.587030
C5581	C558	0.509900	0.669300	0.604570
H3351	H335	0.470200	0.658400	0.609800
C5591	C559	0.561300	0.668900	0.613510
H3361	H336	0.554700	0.654000	0.624600
C5601	C560	0.465500	0.685000	0.577520
O1151	O115	0.628270	0.426580	0.694860
O1161	O116	0.735800	0.459260	0.693080
O1171	O117	0.410460	0.668460	0.585150
O1181	O118	0.474530	0.693520	0.561190
Zn341	Zn34	0.595610	0.346440	0.709090
C5611	C561	0.353140	0.794280	0.021900
C5621	C562	0.361450	0.844200	0.009220
C5631	C563	0.420890	0.885630	0.002160
H3371	H337	0.457070	0.882430	0.005730
C5641	C564	0.431010	0.932430	0.989980
H3381	H338	0.472370	0.957730	0.985130
C5651	C565	0.379510	0.941050	0.985070
C5661	C566	0.321280	0.904580	0.993010
H3391	H339	0.286770	0.912230	0.990830
C5671	C567	0.312130	0.855990	0.004390
H3401	H340	0.270470	0.830030	0.009030
C5681	C568	0.390420	0.991820	0.972220
C5691	C569	0.452200	0.045820	0.969230
H3411	H341	0.487870	0.052430	0.975830
C5701	C570	0.460930	0.090140	0.956440
H3421	H342	0.502570	0.126330	0.954730
C5711	C571	0.409860	0.082070	0.946280
H3431	H343	0.417970	0.110730	0.937330
C5721	C572	0.346260	0.031270	0.949390
C5731	C573	0.337380	0.986780	0.962530
H3441	H344	0.294970	0.952830	0.964930
C5741	C574	0.290070	0.024580	0.939050
C5751	C575	0.297170	0.039810	0.921940
H3451	H345	0.336370	0.050330	0.916430
C5761	C576	0.247370	0.039330	0.913250
H3461	H346	0.254170	0.052430	0.902030
C5771	C577	0.187270	0.020330	0.920360
C5781	C578	0.176570	0.002630	0.937900
H3471	H347	0.136870	0.991730	0.943130
C5791	C579	0.227970	0.002230	0.946840
H3481	H348	0.221370	0.987330	0.957930
C5801	C580	0.132170	0.018330	0.910850
O1191	O119	0.294940	0.759910	0.028190
O1201	O120	0.402470	0.792590	0.026410
O1211	O121	0.077130	0.001790	0.918480
O1221	O122	0.141200	0.026850	0.894520
Zn351	Zn35	0.262280	0.679770	0.042430
C5811	C581	0.019800	0.127620	0.355240
C5821	C582	0.028110	0.177540	0.342560
C5831	C583	0.087550	0.218970	0.335500
H3491	H349	0.123730	0.215770	0.339070
C5841	C584	0.097670	0.265770	0.323320
H3501	H350	0.139030	0.291070	0.318470
C5851	C585	0.046170	0.274390	0.318410
C5861	C586	0.987940	0.237920	0.326350
H3511	H351	0.953430	0.245570	0.324170
C5871	C587	0.978790	0.189330	0.337730
H3521	H352	0.937130	0.163370	0.342370
C5881	C588	0.057080	0.325160	0.305560
C5891	C589	0.118860	0.379160	0.302570
H3531	H353	0.154530	0.385770	0.309170
C5901	C590	0.127590	0.423480	0.289780
H3541	H354	0.169230	0.459670	0.288070
C5911	C591	0.076520	0.415410	0.279620
H3551	H355	0.084630	0.444070	0.270670
C5921	C592	0.012920	0.364610	0.282730
C5931	C593	0.004040	0.320120	0.295870
H3561	H356	0.961630	0.286170	0.298270
C5941	C594	0.956730	0.357920	0.272390
C5951	C595	0.963830	0.373150	0.255280
H3571	H357	0.003030	0.383670	0.249770
C5961	C596	0.914030	0.372670	0.246590
H3581	H358	0.920830	0.385770	0.235370
C5971	C597	0.853930	0.353670	0.253700
C5981	C598	0.843230	0.335970	0.271240
H3591	H359	0.803530	0.325070	0.276470
C5991	C599	0.894630	0.335570	0.280180
H3601	H360	0.888030	0.320670	0.291270
C6001	C600	0.798830	0.351670	0.244190
O1231	O123	0.961600	0.093250	0.361530
O1241	O124	0.069130	0.125930	0.359750
O1251	O125	0.743790	0.335130	0.251820
O1261	O126	0.807860	0.360190	0.227860
Zn361	Zn36	0.928950	0.013100	0.375760
C6011	C601	0.774480	0.313530	0.688570
C6021	C602	0.816090	0.305220	0.675890
C6031	C603	0.798080	0.245780	0.668830
H3611	H361	0.758700	0.209600	0.672400
C6041	C604	0.834760	0.235660	0.656650
H3621	H362	0.818700	0.194300	0.651800
C6051	C605	0.894880	0.287160	0.651740
C6061	C606	0.916640	0.345390	0.659680
H3631	H363	0.958800	0.379900	0.657500
C6071	C607	0.877200	0.354540	0.671060
H3641	H364	0.892900	0.396200	0.675700
C6081	C608	0.934740	0.276250	0.638890
C6091	C609	0.926960	0.214470	0.635900
H3651	H365	0.897900	0.178800	0.642500
C6101	C610	0.962550	0.205740	0.623110
H3661	H366	0.957100	0.164100	0.621400
C6111	C611	0.005550	0.256810	0.612950
H3671	H367	0.026100	0.248700	0.604000
C6121	C612	0.018350	0.320410	0.616060
C6131	C613	0.982740	0.329290	0.629200
H3681	H368	0.991200	0.371700	0.631600
C6141	C614	0.067850	0.376600	0.605720
C6151	C615	0.075980	0.369500	0.588610
H3691	H369	0.047300	0.330300	0.583100
C6161	C616	0.125300	0.419300	0.579920
H3701	H370	0.131600	0.412500	0.568700
C6171	C617	0.166400	0.479400	0.587030
C6181	C618	0.159400	0.490100	0.604570
H3711	H371	0.188200	0.529800	0.609800
C6191	C619	0.107600	0.438700	0.613510
H3721	H372	0.099300	0.445300	0.624600
C6201	C620	0.219500	0.534500	0.577520
O1271	O127	0.798310	0.371730	0.694860
O1281	O128	0.723460	0.264200	0.693080
O1291	O129	0.258000	0.589540	0.585150
O1301	O130	0.218990	0.525470	0.561190
Zn371	Zn37	0.750820	0.404390	0.709090
C6211	C621	0.441150	0.646860	0.021900
C6221	C622	0.482760	0.638550	0.009220
C6231	C623	0.464750	0.579110	0.002160
H3731	H373	0.425370	0.542930	0.005730
C6241	C624	0.501430	0.568990	0.989980
H3741	H374	0.485370	0.527630	0.985130
C6251	C625	0.561550	0.620490	0.985070
C6261	C626	0.583310	0.678720	0.993010
H3751	H375	0.625470	0.713230	0.990830
C6271	C627	0.543870	0.687870	0.004390
H3761	H376	0.559570	0.729530	0.009030
C6281	C628	0.601410	0.609580	0.972220
C6291	C629	0.593630	0.547800	0.969230
H3771	H377	0.564570	0.512130	0.975830
C6301	C630	0.629220	0.539070	0.956440
H3781	H378	0.623770	0.497430	0.954730
C6311	C631	0.672220	0.590140	0.946280
H3791	H379	0.692770	0.582030	0.937330
C6321	C632	0.685020	0.653740	0.949390
C6331	C633	0.649410	0.662620	0.962530
H3801	H380	0.657870	0.705030	0.964930
C6341	C634	0.734520	0.709930	0.939050
C6351	C635	0.742650	0.702830	0.921940
H3811	H381	0.713970	0.663630	0.916430
C6361	C636	0.791970	0.752630	0.913250
H3821	H382	0.798270	0.745830	0.902030
C6371	C637	0.833070	0.812730	0.920360
C6381	C638	0.826070	0.823430	0.937900
H3831	H383	0.854870	0.863130	0.943130
C6391	C639	0.774270	0.772030	0.946840
H3841	H384	0.765970	0.778630	0.957930
C6401	C640	0.886170	0.867830	0.910850
O1311	O131	0.464980	0.705060	0.028190
O1321	O132	0.390130	0.597530	0.026410
O1331	O133	0.924670	0.922870	0.918480
O1341	O134	0.885660	0.858800	0.894520
Zn381	Zn38	0.417490	0.737720	0.042430
C6411	C641	0.107810	0.980200	0.355240
C6421	C642	0.149420	0.971890	0.342560
C6431	C643	0.131410	0.912450	0.335500
H3851	H385	0.092030	0.876270	0.339070
C6441	C644	0.168090	0.902330	0.323320
H3861	H386	0.152030	0.860970	0.318470
C6451	C645	0.228210	0.953830	0.318410
C6461	C646	0.249970	0.012060	0.326350
H3871	H387	0.292130	0.046570	0.324170
C6471	C647	0.210530	0.021210	0.337730
H3881	H388	0.226230	0.062870	0.342370
C6481	C648	0.268070	0.942920	0.305560
C6491	C649	0.260290	0.881140	0.302570
H3891	H389	0.231230	0.845470	0.309170
C6501	C650	0.295880	0.872410	0.289780
H3901	H390	0.290430	0.830770	0.288070
C6511	C651	0.338880	0.923480	0.279620
H3911	H391	0.359430	0.915370	0.270670
C6521	C652	0.351680	0.987080	0.282730
C6531	C653	0.316070	0.995960	0.295870
H3921	H392	0.324530	0.038370	0.298270
C6541	C654	0.401180	0.043270	0.272390
C6551	C655	0.409310	0.036170	0.255280
H3931	H393	0.380630	0.996970	0.249770
C6561	C656	0.458630	0.085970	0.246590
H3941	H394	0.464930	0.079170	0.235370
C6571	C657	0.499730	0.146070	0.253700
C6581	C658	0.492730	0.156770	0.271240
H3951	H395	0.521530	0.196470	0.276470
C6591	C659	0.440930	0.105370	0.280180
H3961	H396	0.432630	0.111970	0.291270
C6601	C660	0.552830	0.201170	0.244190
O1351	O135	0.131640	0.038400	0.361530
O1361	O136	0.056790	0.930870	0.359750
O1371	O137	0.591330	0.256210	0.251820
O1381	O138	0.552320	0.192140	0.227860
Zn391	Zn39	0.084160	0.071050	0.375760
C6611	C661	0.539050	0.225520	0.688570
C6621	C662	0.489130	0.183910	0.675890
C6631	C663	0.447700	0.201920	0.668830
H3971	H397	0.450900	0.241300	0.672400
C6641	C664	0.400900	0.165240	0.656650
H3981	H398	0.375600	0.181300	0.651800
C6651	C665	0.392280	0.105120	0.651740
C6661	C666	0.428750	0.083360	0.659680
H3991	H399	0.421100	0.041200	0.657500
C6671	C667	0.477340	0.122800	0.671060
H4001	H400	0.503300	0.107100	0.675700
C6681	C668	0.341510	0.065260	0.638890
C6691	C669	0.287510	0.073040	0.635900
H4011	H401	0.280900	0.102100	0.642500
C6701	C670	0.243190	0.037450	0.623110
H4021	H402	0.207000	0.042900	0.621400
C6711	C671	0.251260	0.994450	0.612950
H4031	H403	0.222600	0.973900	0.604000
C6721	C672	0.302060	0.981650	0.616060
C6731	C673	0.346550	0.017260	0.629200
H4041	H404	0.380500	0.008800	0.631600
C6741	C674	0.308750	0.932150	0.605720
C6751	C675	0.293520	0.924020	0.588610
H4051	H405	0.283000	0.952700	0.583100
C6761	C676	0.294000	0.874700	0.579920
H4061	H406	0.280900	0.868400	0.568700
C6771	C677	0.313000	0.833600	0.587030
C6781	C678	0.330700	0.840600	0.604570
H4071	H407	0.341600	0.811800	0.609800
C6791	C679	0.331100	0.892400	0.613510
H4081	H408	0.346000	0.900700	0.624600
C6801	C680	0.315000	0.780500	0.577520
O1391	O139	0.573420	0.201690	0.694860
O1401	O140	0.540740	0.276540	0.693080
O1411	O141	0.331540	0.742000	0.585150
O1421	O142	0.306480	0.781010	0.561190
Zn401	Zn40	0.653560	0.249180	0.709090
C6811	C681	0.205720	0.558850	0.021900
C6821	C682	0.155800	0.517240	0.009220
C6831	C683	0.114370	0.535250	0.002160
H4091	H409	0.117570	0.574630	0.005730
C6841	C684	0.067570	0.498570	0.989980
H4101	H410	0.042270	0.514630	0.985130
C6851	C685	0.058950	0.438450	0.985070
C6861	C686	0.095420	0.416690	0.993010
H4111	H411	0.087770	0.374530	0.990830
C6871	C687	0.144010	0.456130	0.004390
H4121	H412	0.169970	0.440430	0.009030
C6881	C688	0.008180	0.398590	0.972220
C6891	C689	0.954180	0.406370	0.969230
H4131	H413	0.947570	0.435430	0.975830
C6901	C690	0.909860	0.370780	0.956440
H4141	H414	0.873670	0.376230	0.954730
C6911	C691	0.917930	0.327780	0.946280
H4151	H415	0.889270	0.307230	0.937330
C6921	C692	0.968730	0.314980	0.949390
C6931	C693	0.013220	0.350590	0.962530
H4161	H416	0.047170	0.342130	0.964930
C6941	C694	0.975420	0.265480	0.939050
C6951	C695	0.960190	0.257350	0.921940
H4171	H417	0.949670	0.286030	0.916430
C6961	C696	0.960670	0.208030	0.913250
H4181	H418	0.947570	0.201730	0.902030
C6971	C697	0.979670	0.166930	0.920360
C6981	C698	0.997370	0.173930	0.937900
H4191	H419	0.008270	0.145130	0.943130
C6991	C699	0.997770	0.225730	0.946840
H4201	H420	0.012670	0.234030	0.957930
C7001	C700	0.981670	0.113830	0.910850
O1431	O143	0.240090	0.535020	0.028190
O1441	O144	0.207410	0.609870	0.026410
O1451	O145	0.998210	0.075330	0.918480
O1461	O146	0.973150	0.114340	0.894520
Zn411	Zn41	0.320230	0.582510	0.042430
C7011	C701	0.872380	0.892190	0.355240
C7021	C702	0.822460	0.850580	0.342560
C7031	C703	0.781030	0.868590	0.335500
H4211	H421	0.784230	0.907970	0.339070
C7041	C704	0.734230	0.831910	0.323320
H4221	H422	0.708930	0.847970	0.318470
C7051	C705	0.725610	0.771790	0.318410
C7061	C706	0.762080	0.750030	0.326350
H4231	H423	0.754430	0.707870	0.324170
C7071	C707	0.810670	0.789470	0.337730
H4241	H424	0.836630	0.773770	0.342370
C7081	C708	0.674840	0.731930	0.305560
C7091	C709	0.620840	0.739710	0.302570
H4251	H425	0.614230	0.768770	0.309170
C7101	C710	0.576520	0.704120	0.289780
H4261	H426	0.540330	0.709570	0.288070
C7111	C711	0.584590	0.661120	0.279620
H4271	H427	0.555930	0.640570	0.270670
C7121	C712	0.635390	0.648320	0.282730
C7131	C713	0.679880	0.683930	0.295870
H4281	H428	0.713830	0.675470	0.298270
C7141	C714	0.642080	0.598820	0.272390
C7151	C715	0.626850	0.590690	0.255280
H4291	H429	0.616330	0.619370	0.249770
C7161	C716	0.627330	0.541370	0.246590
H4301	H430	0.614230	0.535070	0.235370
C7171	C717	0.646330	0.500270	0.253700
C7181	C718	0.664030	0.507270	0.271240
H4311	H431	0.674930	0.478470	0.276470
C7191	C719	0.664430	0.559070	0.280180
H4321	H432	0.679330	0.567370	0.291270
C7201	C720	0.648330	0.447170	0.244190
O1471	O147	0.906750	0.868360	0.361530
O1481	O148	0.874070	0.943210	0.359750
O1491	O149	0.664870	0.408670	0.251820
O1501	O150	0.639810	0.447680	0.227860
Zn421	Zn42	0.986900	0.915840	0.375760
O1511	O151	0.666670	0.333330	0.217230
Zn431	Zn43	0.666670	0.333330	0.241890
O1521	O152	0.333330	0.666670	0.550560
Zn441	Zn44	0.333330	0.666670	0.575220
O1531	O153	0.000000	0.000000	0.883900
Zn451	Zn45	0.000000	0.000000	0.908550
O1541	O154	0.666670	0.333330	0.717230
Zn461	Zn46	0.666670	0.333330	0.741890
O1551	O155	0.333330	0.666670	0.050560
Zn471	Zn47	0.333330	0.666670	0.075220
O1561	O156	0.000000	0.000000	0.383900
Zn481	Zn48	0.000000	0.000000	0.408550
