data_DUPVER_clean_PM
_symmetry_space_group_name_H-M	'P1'
_cell_length_a	14.402200
_cell_length_b	25.920000
_cell_length_c	17.439500
_cell_angle_alpha	90.000000
_cell_angle_beta	107.384000
_cell_angle_gamma	90.000000
_symmetry_Int_Tables_number 1

loop_
_symmetry_equiv_pos_as_xyz
'x,y,z'

loop_
_atom_site_label
_atom_site_type_symbol
_atom_site_fract_x
_atom_site_fract_y
_atom_site_fract_z
Zn11	Zn1	0.834660	0.000720	0.125700
Zn21	Zn2	0.897690	0.065980	0.310730
Zn31	Zn3	0.040640	0.319690	0.773470
O11	O1	0.937900	0.070700	0.427000
O21	O2	0.046400	0.245190	0.757000
O31	O3	0.762400	0.435100	0.483800
O41	O4	0.923200	0.358400	0.744100
O51	O5	0.512700	0.417100	0.779300
C11	C1	0.944200	0.117600	0.449900
C21	C2	0.979100	0.175400	0.568500
H11	H1	0.953600	0.202600	0.533700
O61	O6	0.972500	0.272900	0.633400
O71	O7	0.919400	0.154100	0.402700
O81	O8	0.436300	0.445000	0.656900
C31	C3	0.605500	0.437900	0.610900
H21	H2	0.553400	0.456200	0.577600
C41	C4	0.599500	0.418300	0.683600
O91	O9	0.637200	0.484200	0.474400
C51	C5	0.010300	0.237700	0.681100
C61	C6	0.020800	0.085900	0.590000
H31	H3	0.021900	0.052700	0.570000
C71	C7	0.982400	0.125600	0.537700
C81	C8	0.053600	0.144000	0.703900
H41	H4	0.076700	0.149700	0.758900
C91	C9	0.764200	0.403300	0.638500
H51	H5	0.819500	0.397400	0.622700
C101	C10	0.013900	0.184300	0.651100
C111	C11	0.057800	0.094500	0.671900
C121	C12	0.678200	0.391600	0.733400
H61	H6	0.674200	0.378300	0.781800
C131	C13	0.688500	0.430300	0.588100
C141	C14	0.510300	0.427600	0.708800
C151	C15	0.761300	0.384600	0.712200
O101	O10	0.839500	0.328900	0.819500
C161	C16	0.697100	0.450700	0.509400
C171	C17	0.847600	0.354100	0.765400
N11	N1	0.767900	0.090500	0.246900
N21	N2	0.714000	0.039300	0.124400
N31	N3	0.631300	0.138600	0.229100
N41	N4	0.463400	0.126100	0.070800
H71	H7	0.418300	0.119200	0.027100
H81	H8	0.456400	0.151400	0.100600
C181	C18	0.620100	0.105700	0.164100
C191	C19	0.703800	0.075900	0.175400
N51	N5	0.550900	0.059100	0.043600
C201	C20	0.633100	0.033200	0.061100
H91	H9	0.636100	0.007300	0.025100
C211	C21	0.720200	0.127200	0.276300
H101	H10	0.747600	0.143100	0.325700
C221	C22	0.542700	0.098200	0.091900
C231	C23	0.099500	0.050200	0.727000
O111	O11	0.117700	0.056600	0.801100
O121	O12	0.115800	0.010000	0.695100
Zn41	Zn4	0.665340	0.500720	0.374300
Zn51	Zn5	0.602310	0.565980	0.189270
Zn61	Zn6	0.459360	0.819690	0.726530
O131	O13	0.562100	0.570700	0.073000
O141	O14	0.453600	0.745190	0.743000
O151	O15	0.737600	0.935100	0.016200
O161	O16	0.576800	0.858400	0.755900
O171	O17	0.987300	0.917100	0.720700
C241	C24	0.555800	0.617600	0.050100
C251	C25	0.520900	0.675400	0.931500
H111	H11	0.546400	0.702600	0.966300
O181	O18	0.527500	0.772900	0.866600
O191	O19	0.580600	0.654100	0.097300
O201	O20	0.063700	0.945000	0.843100
C261	C26	0.894500	0.937900	0.889100
H121	H12	0.946600	0.956200	0.922400
C271	C27	0.900500	0.918300	0.816400
O211	O21	0.862800	0.984200	0.025600
C281	C28	0.489700	0.737700	0.818900
C291	C29	0.479200	0.585900	0.910000
H131	H13	0.478100	0.552700	0.930000
C301	C30	0.517600	0.625600	0.962300
C311	C31	0.446400	0.644000	0.796100
H141	H14	0.423300	0.649700	0.741100
C321	C32	0.735800	0.903300	0.861500
H151	H15	0.680500	0.897400	0.877300
C331	C33	0.486100	0.684300	0.848900
C341	C34	0.442200	0.594500	0.828100
C351	C35	0.821800	0.891600	0.766600
H161	H16	0.825800	0.878300	0.718200
C361	C36	0.811500	0.930300	0.911900
C371	C37	0.989700	0.927600	0.791200
C381	C38	0.738700	0.884600	0.787800
O221	O22	0.660500	0.828900	0.680500
C391	C39	0.802900	0.950700	0.990600
C401	C40	0.652400	0.854100	0.734600
N61	N6	0.732100	0.590500	0.253100
N71	N7	0.786000	0.539300	0.375600
N81	N8	0.868700	0.638600	0.270900
N91	N9	0.036600	0.626100	0.429200
H171	H17	0.081700	0.619200	0.472900
H181	H18	0.043600	0.651400	0.399400
C411	C41	0.879900	0.605700	0.335900
C421	C42	0.796200	0.575900	0.324600
N101	N10	0.949100	0.559100	0.456400
C431	C43	0.866900	0.533200	0.438900
H191	H19	0.863900	0.507300	0.474900
C441	C44	0.779800	0.627200	0.223700
H201	H20	0.752400	0.643100	0.174300
C451	C45	0.957300	0.598200	0.408100
C461	C46	0.400500	0.550200	0.773000
O231	O23	0.382300	0.556600	0.698900
O241	O24	0.384200	0.510000	0.804900
Zn71	Zn7	0.165340	0.999280	0.874300
Zn81	Zn8	0.102310	0.934020	0.689270
Zn91	Zn9	0.959360	0.680310	0.226530
O251	O25	0.062100	0.929300	0.573000
O261	O26	0.953600	0.754810	0.243000
O271	O27	0.237600	0.564900	0.516200
O281	O28	0.076800	0.641600	0.255900
O291	O29	0.487300	0.582900	0.220700
C471	C47	0.055800	0.882400	0.550100
C481	C48	0.020900	0.824600	0.431500
H211	H21	0.046400	0.797400	0.466300
O301	O30	0.027500	0.727100	0.366600
O311	O31	0.080600	0.845900	0.597300
O321	O32	0.563700	0.555000	0.343100
C491	C49	0.394500	0.562100	0.389100
H221	H22	0.446600	0.543800	0.422400
C501	C50	0.400500	0.581700	0.316400
O331	O33	0.362800	0.515800	0.525600
C511	C51	0.989700	0.762300	0.318900
C521	C52	0.979200	0.914100	0.410000
H231	H23	0.978100	0.947300	0.430000
C531	C53	0.017600	0.874400	0.462300
C541	C54	0.946400	0.856000	0.296100
H241	H24	0.923300	0.850300	0.241100
C551	C55	0.235800	0.596700	0.361500
H251	H25	0.180500	0.602600	0.377300
C561	C56	0.986100	0.815700	0.348900
C571	C57	0.942200	0.905500	0.328100
C581	C58	0.321800	0.608400	0.266600
H261	H26	0.325800	0.621700	0.218200
C591	C59	0.311500	0.569700	0.411900
C601	C60	0.489700	0.572400	0.291200
C611	C61	0.238700	0.615400	0.287800
O341	O34	0.160500	0.671100	0.180500
C621	C62	0.302900	0.549300	0.490600
C631	C63	0.152400	0.645900	0.234600
N111	N11	0.232100	0.909500	0.753100
N121	N12	0.286000	0.960700	0.875600
N131	N13	0.368700	0.861400	0.770900
N141	N14	0.536600	0.873900	0.929200
H271	H27	0.581700	0.880800	0.972900
H281	H28	0.543600	0.848600	0.899400
C641	C64	0.379900	0.894300	0.835900
C651	C65	0.296200	0.924100	0.824600
N151	N15	0.449100	0.940900	0.956400
C661	C66	0.366900	0.966800	0.938900
H291	H29	0.363900	0.992700	0.974900
C671	C67	0.279800	0.872800	0.723700
H301	H30	0.252400	0.856900	0.674300
C681	C68	0.457300	0.901800	0.908100
C691	C69	0.900500	0.949800	0.273000
O351	O35	0.882300	0.943400	0.198900
O361	O36	0.884200	0.990000	0.304900
Zn101	Zn10	0.334660	0.499280	0.625700
Zn111	Zn11	0.397690	0.434020	0.810730
Zn121	Zn12	0.540640	0.180310	0.273470
O371	O37	0.437900	0.429300	0.927000
O381	O38	0.546400	0.254810	0.257000
O391	O39	0.262400	0.064900	0.983800
O401	O40	0.423200	0.141600	0.244100
O411	O41	0.012700	0.082900	0.279300
C701	C70	0.444200	0.382400	0.949900
C711	C71	0.479100	0.324600	0.068500
H311	H31	0.453600	0.297400	0.033700
O421	O42	0.472500	0.227100	0.133400
O431	O43	0.419400	0.345900	0.902700
O441	O44	0.936300	0.055000	0.156900
C721	C72	0.105500	0.062100	0.110900
H321	H32	0.053400	0.043800	0.077600
C731	C73	0.099500	0.081700	0.183600
O451	O45	0.137200	0.015800	0.974400
C741	C74	0.510300	0.262300	0.181100
C751	C75	0.520800	0.414100	0.090000
H331	H33	0.521900	0.447300	0.070000
C761	C76	0.482400	0.374400	0.037700
C771	C77	0.553600	0.356000	0.203900
H341	H34	0.576700	0.350300	0.258900
C781	C78	0.264200	0.096700	0.138500
H351	H35	0.319500	0.102600	0.122700
C791	C79	0.513900	0.315700	0.151100
C801	C80	0.557800	0.405500	0.171900
C811	C81	0.178200	0.108400	0.233400
H361	H36	0.174200	0.121700	0.281800
C821	C82	0.188500	0.069700	0.088100
C831	C83	0.010300	0.072400	0.208800
C841	C84	0.261300	0.115400	0.212200
O461	O46	0.339500	0.171100	0.319500
C851	C85	0.197100	0.049300	0.009400
C861	C86	0.347600	0.145900	0.265400
N161	N16	0.267900	0.409500	0.746900
N171	N17	0.214000	0.460700	0.624400
N181	N18	0.131300	0.361400	0.729100
N191	N19	0.963400	0.373900	0.570800
H371	H37	0.918300	0.380800	0.527100
H381	H38	0.956400	0.348600	0.600600
C871	C87	0.120100	0.394300	0.664100
C881	C88	0.203800	0.424100	0.675400
N201	N20	0.050900	0.440900	0.543600
C891	C89	0.133100	0.466800	0.561100
H391	H39	0.136100	0.492700	0.525100
C901	C90	0.220200	0.372800	0.776300
H401	H40	0.247600	0.356900	0.825700
C911	C91	0.042700	0.401800	0.591900
C921	C92	0.599500	0.449800	0.227000
O471	O47	0.617700	0.443400	0.301100
O481	O48	0.615800	0.490000	0.195100
