data_DURDAX_clean_PM
_symmetry_space_group_name_H-M	'P1'
_cell_length_a	18.416000
_cell_length_b	10.154000
_cell_length_c	27.010000
_cell_angle_alpha	90.000000
_cell_angle_beta	90.000000
_cell_angle_gamma	90.000000
_symmetry_Int_Tables_number 1

loop_
_symmetry_equiv_pos_as_xyz
'x,y,z'

loop_
_atom_site_label
_atom_site_type_symbol
_atom_site_fract_x
_atom_site_fract_y
_atom_site_fract_z
Zn11	Zn1	0.828340	0.687960	0.967520
Zn21	Zn2	0.687850	0.990960	0.566300
O11	O1	0.413000	0.922200	0.065780
O21	O2	0.430600	0.811500	0.994150
O31	O3	0.764900	0.655400	0.029150
O41	O4	0.668800	0.021100	0.429990
O51	O5	0.658900	0.318100	0.410330
O61	O6	0.679600	0.411200	0.482370
C11	C1	0.574800	0.756400	0.024800
H11	H1	0.568000	0.758900	0.990700
O71	O7	0.677400	0.893300	0.498090
O81	O8	0.697400	0.708400	0.965170
C21	C2	0.529500	0.786400	0.107900
H21	H2	0.493200	0.813700	0.129600
C31	C3	0.648900	0.700800	0.096400
H31	H3	0.692400	0.667400	0.108700
C41	C4	0.659600	0.610300	0.252900
H41	H4	0.689800	0.543800	0.264500
C51	C5	0.605900	0.718800	0.182700
C61	C6	0.448800	0.850800	0.038500
C71	C7	0.642900	0.617800	0.201400
H51	H5	0.658200	0.550600	0.180400
C81	C8	0.595200	0.735800	0.127900
C91	C9	0.577500	0.816200	0.215700
H61	H6	0.551500	0.887900	0.203800
C101	C10	0.638800	0.715200	0.044300
C111	C11	0.631900	0.698800	0.284600
C121	C12	0.669000	0.664900	0.442000
H71	H7	0.678700	0.657700	0.475700
C131	C13	0.670600	0.910800	0.453100
C141	C14	0.660900	0.549800	0.413100
C151	C15	0.589900	0.801000	0.266000
H81	H8	0.569400	0.861100	0.287900
C161	C16	0.650600	0.800500	0.368900
H91	H9	0.646200	0.883300	0.354500
C171	C17	0.704400	0.687900	0.010500
C181	C18	0.645600	0.686400	0.340100
C191	C19	0.662500	0.787700	0.420700
C201	C20	0.517600	0.796400	0.057900
C211	C21	0.652000	0.563800	0.362700
H101	H10	0.650200	0.488600	0.343100
C221	C22	0.668300	0.419900	0.436200
Zn31	Zn3	0.171660	0.312040	0.467520
Zn41	Zn4	0.312150	0.009040	0.066300
O91	O9	0.587000	0.077800	0.565780
O101	O10	0.569400	0.188500	0.494150
O111	O11	0.235100	0.344600	0.529150
O121	O12	0.331200	0.978900	0.929990
O131	O13	0.341100	0.681900	0.910330
O141	O14	0.320400	0.588800	0.982370
C231	C23	0.425200	0.243600	0.524800
H111	H11	0.432000	0.241100	0.490700
O151	O15	0.322600	0.106700	0.998090
O161	O16	0.302600	0.291600	0.465170
C241	C24	0.470500	0.213600	0.607900
H121	H12	0.506800	0.186300	0.629600
C251	C25	0.351100	0.299200	0.596400
H131	H13	0.307600	0.332600	0.608700
C261	C26	0.340400	0.389700	0.752900
H141	H14	0.310200	0.456200	0.764500
C271	C27	0.394100	0.281200	0.682700
C281	C28	0.551200	0.149200	0.538500
C291	C29	0.357100	0.382200	0.701400
H151	H15	0.341800	0.449400	0.680400
C301	C30	0.404800	0.264200	0.627900
C311	C31	0.422500	0.183800	0.715700
H161	H16	0.448500	0.112100	0.703800
C321	C32	0.361200	0.284800	0.544300
C331	C33	0.368100	0.301200	0.784600
C341	C34	0.331000	0.335100	0.942000
H171	H17	0.321300	0.342300	0.975700
C351	C35	0.329400	0.089200	0.953100
C361	C36	0.339100	0.450200	0.913100
C371	C37	0.410100	0.199000	0.766000
H181	H18	0.430600	0.138900	0.787900
C381	C38	0.349400	0.199500	0.868900
H191	H19	0.353800	0.116700	0.854500
C391	C39	0.295600	0.312100	0.510500
C401	C40	0.354400	0.313600	0.840100
C411	C41	0.337500	0.212300	0.920700
C421	C42	0.482400	0.203600	0.557900
C431	C43	0.348000	0.436200	0.862700
H201	H20	0.349800	0.511400	0.843100
C441	C44	0.331700	0.580100	0.936200
Zn51	Zn5	0.328340	0.812040	0.967520
Zn61	Zn6	0.187850	0.509040	0.566300
O171	O17	0.913000	0.577800	0.065780
O181	O18	0.930600	0.688500	0.994150
O191	O19	0.264900	0.844600	0.029150
O201	O20	0.168800	0.478900	0.429990
O211	O21	0.158900	0.181900	0.410330
O221	O22	0.179600	0.088800	0.482370
C451	C45	0.074800	0.743600	0.024800
H211	H21	0.068000	0.741100	0.990700
O231	O23	0.177400	0.606700	0.498090
O241	O24	0.197400	0.791600	0.965170
C461	C46	0.029500	0.713600	0.107900
H221	H22	0.993200	0.686300	0.129600
C471	C47	0.148900	0.799200	0.096400
H231	H23	0.192400	0.832600	0.108700
C481	C48	0.159600	0.889700	0.252900
H241	H24	0.189800	0.956200	0.264500
C491	C49	0.105900	0.781200	0.182700
C501	C50	0.948800	0.649200	0.038500
C511	C51	0.142900	0.882200	0.201400
H251	H25	0.158200	0.949400	0.180400
C521	C52	0.095200	0.764200	0.127900
C531	C53	0.077500	0.683800	0.215700
H261	H26	0.051500	0.612100	0.203800
C541	C54	0.138800	0.784800	0.044300
C551	C55	0.131900	0.801200	0.284600
C561	C56	0.169000	0.835100	0.442000
H271	H27	0.178700	0.842300	0.475700
C571	C57	0.170600	0.589200	0.453100
C581	C58	0.160900	0.950200	0.413100
C591	C59	0.089900	0.699000	0.266000
H281	H28	0.069400	0.638900	0.287900
C601	C60	0.150600	0.699500	0.368900
H291	H29	0.146200	0.616700	0.354500
C611	C61	0.204400	0.812100	0.010500
C621	C62	0.145600	0.813600	0.340100
C631	C63	0.162500	0.712300	0.420700
C641	C64	0.017600	0.703600	0.057900
C651	C65	0.152000	0.936200	0.362700
H301	H30	0.150200	0.011400	0.343100
C661	C66	0.168300	0.080100	0.436200
Zn71	Zn7	0.671660	0.187960	0.467520
Zn81	Zn8	0.812150	0.490960	0.066300
O251	O25	0.087000	0.422200	0.565780
O261	O26	0.069400	0.311500	0.494150
O271	O27	0.735100	0.155400	0.529150
O281	O28	0.831200	0.521100	0.929990
O291	O29	0.841100	0.818100	0.910330
O301	O30	0.820400	0.911200	0.982370
C671	C67	0.925200	0.256400	0.524800
H311	H31	0.932000	0.258900	0.490700
O311	O31	0.822600	0.393300	0.998090
O321	O32	0.802600	0.208400	0.465170
C681	C68	0.970500	0.286400	0.607900
H321	H32	0.006800	0.313700	0.629600
C691	C69	0.851100	0.200800	0.596400
H331	H33	0.807600	0.167400	0.608700
C701	C70	0.840400	0.110300	0.752900
H341	H34	0.810200	0.043800	0.764500
C711	C71	0.894100	0.218800	0.682700
C721	C72	0.051200	0.350800	0.538500
C731	C73	0.857100	0.117800	0.701400
H351	H35	0.841800	0.050600	0.680400
C741	C74	0.904800	0.235800	0.627900
C751	C75	0.922500	0.316200	0.715700
H361	H36	0.948500	0.387900	0.703800
C761	C76	0.861200	0.215200	0.544300
C771	C77	0.868100	0.198800	0.784600
C781	C78	0.831000	0.164900	0.942000
H371	H37	0.821300	0.157700	0.975700
C791	C79	0.829400	0.410800	0.953100
C801	C80	0.839100	0.049800	0.913100
C811	C81	0.910100	0.301000	0.766000
H381	H38	0.930600	0.361100	0.787900
C821	C82	0.849400	0.300500	0.868900
H391	H39	0.853800	0.383300	0.854500
C831	C83	0.795600	0.187900	0.510500
C841	C84	0.854400	0.186400	0.840100
C851	C85	0.837500	0.287700	0.920700
C861	C86	0.982400	0.296400	0.557900
C871	C87	0.848000	0.063800	0.862700
H401	H40	0.849800	0.988600	0.843100
C881	C88	0.831700	0.919900	0.936200
