data_DUVNIS01_charged_PM
_symmetry_space_group_name_H-M	'P1'
_cell_length_a	17.780000
_cell_length_b	24.580000
_cell_length_c	39.386000
_cell_angle_alpha	90.000000
_cell_angle_beta	90.000000
_cell_angle_gamma	111.203000
_symmetry_Int_Tables_number 1

loop_
_symmetry_equiv_pos_as_xyz
'x,y,z'

loop_
_atom_site_label
_atom_site_type_symbol
_atom_site_fract_x
_atom_site_fract_y
_atom_site_fract_z
Co11	Co1	0.478170	0.740960	0.938460
Co21	Co2	0.344280	0.899180	0.629910
Co31	Co3	0.531450	0.921620	0.656270
Co41	Co4	0.276730	0.660880	0.927850
Co51	Co5	0.021830	0.259040	0.938460
Co61	Co6	0.155720	0.100820	0.629910
Co71	Co7	0.968550	0.078380	0.656270
Co81	Co8	0.223270	0.339120	0.927850
Co91	Co9	0.737210	0.259040	0.561540
Co101	Co10	0.445100	0.100820	0.870090
Co111	Co11	0.609830	0.078380	0.843730
Co121	Co12	0.615850	0.339120	0.572150
Co131	Co13	0.762790	0.740960	0.561540
Co141	Co14	0.054900	0.899180	0.870090
Co151	Co15	0.890170	0.921620	0.843730
Co161	Co16	0.884150	0.660880	0.572150
Co171	Co17	0.521830	0.259040	0.061540
Co181	Co18	0.655720	0.100820	0.370090
Co191	Co19	0.468550	0.078380	0.343730
Co201	Co20	0.723270	0.339120	0.072150
Co211	Co21	0.978170	0.740960	0.061540
Co221	Co22	0.844280	0.899180	0.370090
Co231	Co23	0.031450	0.921620	0.343730
Co241	Co24	0.776730	0.660880	0.072150
Co251	Co25	0.262790	0.740960	0.438460
Co261	Co26	0.554900	0.899180	0.129910
Co271	Co27	0.390170	0.921620	0.156270
Co281	Co28	0.384150	0.660880	0.427850
Co291	Co29	0.237210	0.259040	0.438460
Co301	Co30	0.945100	0.100820	0.129910
Co311	Co31	0.109830	0.078380	0.156270
Co321	Co32	0.115850	0.339120	0.427850
Co331	Co33	0.559760	0.619520	0.750000
Co341	Co34	0.471480	0.442960	0.750000
Co351	Co35	0.940240	0.380480	0.750000
Co361	Co36	0.028520	0.557040	0.750000
Co371	Co37	0.440240	0.380480	0.250000
Co381	Co38	0.528520	0.557040	0.250000
Co391	Co39	0.059760	0.619520	0.250000
Co401	Co40	0.971480	0.442960	0.250000
H11	H1	0.492200	0.623600	0.842600
H21	H2	0.371700	0.449800	0.841100
H31	H3	0.347000	0.545400	0.920400
H41	H4	0.470200	0.759600	0.706200
H51	H5	0.240600	0.745400	0.690500
H61	H6	0.288100	0.620800	0.741900
H71	H7	0.740500	0.835800	0.919600
H81	H8	0.704000	0.719400	0.995100
H91	H9	0.929000	0.806000	0.959400
H101	H10	0.475900	0.885800	0.879000
H111	H11	0.330000	0.969600	0.850100
H121	H12	0.235700	0.805200	0.884200
H131	H13	0.314700	0.968200	0.588800
H141	H14	0.343300	0.933400	0.569800
H151	H15	0.608200	0.857600	0.699200
H161	H16	0.661500	0.749600	0.690500
H171	H17	0.732700	0.791200	0.712600
H181	H18	0.643400	0.784400	0.720800
H191	H19	0.797200	0.873600	0.661500
H201	H20	0.754600	0.810000	0.647500
H211	H21	0.728600	0.860800	0.634300
H221	H22	0.145900	0.678400	0.890700
H231	H23	0.069100	0.705000	0.964600
H241	H24	0.983200	0.669200	0.950300
H251	H25	0.017300	0.737400	0.947700
H261	H26	0.009700	0.743000	0.887900
H271	H27	0.983400	0.677200	0.877300
H281	H28	0.067300	0.722000	0.865700
H291	H29	0.499700	0.955000	0.788600
H301	H30	0.471700	0.987000	0.759600
H311	H31	0.433800	0.918800	0.762600
H321	H32	0.553900	0.911200	0.749400
H331	H33	0.596800	0.978200	0.749800
H341	H34	0.602100	0.943000	0.700600
H351	H35	0.007800	0.376400	0.842600
H361	H36	0.128300	0.550200	0.841100
H371	H37	0.153000	0.454600	0.920400
H381	H38	0.029800	0.240400	0.706200
H391	H39	0.259400	0.254600	0.690500
H401	H40	0.211900	0.379200	0.741900
H411	H41	0.759500	0.164200	0.919600
H421	H42	0.796000	0.280600	0.995100
H431	H43	0.571000	0.194000	0.959400
H441	H44	0.024100	0.114200	0.879000
H451	H45	0.170000	0.030400	0.850100
H461	H46	0.264300	0.194800	0.884200
H471	H47	0.185300	0.031800	0.588800
H481	H48	0.156700	0.066600	0.569800
H491	H49	0.891800	0.142400	0.699200
H501	H50	0.838500	0.250400	0.690500
H511	H51	0.767300	0.208800	0.712600
H521	H52	0.856600	0.215600	0.720800
H531	H53	0.702800	0.126400	0.661500
H541	H54	0.745400	0.190000	0.647500
H551	H55	0.771400	0.139200	0.634300
H561	H56	0.354100	0.321600	0.890700
H571	H57	0.430900	0.295000	0.964600
H581	H58	0.516800	0.330800	0.950300
H591	H59	0.482700	0.262600	0.947700
H601	H60	0.490300	0.257000	0.887900
H611	H61	0.516600	0.322800	0.877300
H621	H62	0.432700	0.278000	0.865700
H631	H63	0.000300	0.045000	0.788600
H641	H64	0.028300	0.013000	0.759600
H651	H65	0.066200	0.081200	0.762600
H661	H66	0.946100	0.088800	0.749400
H671	H67	0.903200	0.021800	0.749800
H681	H68	0.897900	0.057000	0.700600
H691	H69	0.868600	0.376400	0.657400
H701	H70	0.921900	0.550200	0.658900
H711	H71	0.801600	0.454600	0.579600
H721	H72	0.710600	0.240400	0.793800
H731	H73	0.495200	0.254600	0.809500
H741	H74	0.667300	0.379200	0.758100
H751	H75	0.904700	0.164200	0.580400
H761	H76	0.984600	0.280600	0.504900
H771	H77	0.123000	0.194000	0.540600
H781	H78	0.590100	0.114200	0.621000
H791	H79	0.360400	0.030400	0.649900
H801	H80	0.430500	0.194800	0.615800
H811	H81	0.346500	0.031800	0.911200
H821	H82	0.409900	0.066600	0.930200
H831	H83	0.750600	0.142400	0.800800
H841	H84	0.911900	0.250400	0.809500
H851	H85	0.941500	0.208800	0.787400
H861	H86	0.859000	0.215600	0.779200
H871	H87	0.923600	0.126400	0.838500
H881	H88	0.944600	0.190000	0.852500
H891	H89	0.867800	0.139200	0.865700
H901	H90	0.467500	0.321600	0.609300
H911	H91	0.364100	0.295000	0.535400
H921	H92	0.314000	0.330800	0.549700
H931	H93	0.279900	0.262600	0.552300
H941	H94	0.266700	0.257000	0.612100
H951	H95	0.306200	0.322800	0.622700
H961	H96	0.345300	0.278000	0.634300
H971	H97	0.544700	0.045000	0.711400
H981	H98	0.484700	0.013000	0.740400
H991	H99	0.515000	0.081200	0.737400
H1001	H100	0.642700	0.088800	0.750600
H1011	H101	0.618600	0.021800	0.750200
H1021	H102	0.659100	0.057000	0.799400
H1031	H103	0.631400	0.623600	0.657400
H1041	H104	0.578100	0.449800	0.658900
H1051	H105	0.698400	0.545400	0.579600
H1061	H106	0.789400	0.759600	0.793800
H1071	H107	0.004800	0.745400	0.809500
H1081	H108	0.832700	0.620800	0.758100
H1091	H109	0.595300	0.835800	0.580400
H1101	H110	0.515400	0.719400	0.504900
H1111	H111	0.377000	0.806000	0.540600
H1121	H112	0.909900	0.885800	0.621000
H1131	H113	0.139600	0.969600	0.649900
H1141	H114	0.069500	0.805200	0.615800
H1151	H115	0.153500	0.968200	0.911200
H1161	H116	0.090100	0.933400	0.930200
H1171	H117	0.749400	0.857600	0.800800
H1181	H118	0.588100	0.749600	0.809500
H1191	H119	0.558500	0.791200	0.787400
H1201	H120	0.641000	0.784400	0.779200
H1211	H121	0.576400	0.873600	0.838500
H1221	H122	0.555400	0.810000	0.852500
H1231	H123	0.632200	0.860800	0.865700
H1241	H124	0.032500	0.678400	0.609300
H1251	H125	0.135900	0.705000	0.535400
H1261	H126	0.186000	0.669200	0.549700
H1271	H127	0.220100	0.737400	0.552300
H1281	H128	0.233300	0.743000	0.612100
H1291	H129	0.193800	0.677200	0.622700
H1301	H130	0.154700	0.722000	0.634300
H1311	H131	0.955300	0.955000	0.711400
H1321	H132	0.015300	0.987000	0.740400
H1331	H133	0.985000	0.918800	0.737400
H1341	H134	0.857300	0.911200	0.750600
H1351	H135	0.881400	0.978200	0.750200
H1361	H136	0.840900	0.943000	0.799400
H1371	H137	0.507800	0.376400	0.157400
H1381	H138	0.628300	0.550200	0.158900
H1391	H139	0.653000	0.454600	0.079600
H1401	H140	0.529800	0.240400	0.293800
H1411	H141	0.759400	0.254600	0.309500
H1421	H142	0.711900	0.379200	0.258100
H1431	H143	0.259500	0.164200	0.080400
H1441	H144	0.296000	0.280600	0.004900
H1451	H145	0.071000	0.194000	0.040600
H1461	H146	0.524100	0.114200	0.121000
H1471	H147	0.670000	0.030400	0.149900
H1481	H148	0.764300	0.194800	0.115800
H1491	H149	0.685300	0.031800	0.411200
H1501	H150	0.656700	0.066600	0.430200
H1511	H151	0.391800	0.142400	0.300800
H1521	H152	0.338500	0.250400	0.309500
H1531	H153	0.267300	0.208800	0.287400
H1541	H154	0.356600	0.215600	0.279200
H1551	H155	0.202800	0.126400	0.338500
H1561	H156	0.245400	0.190000	0.352500
H1571	H157	0.271400	0.139200	0.365700
H1581	H158	0.854100	0.321600	0.109300
H1591	H159	0.930900	0.295000	0.035400
H1601	H160	0.016800	0.330800	0.049700
H1611	H161	0.982700	0.262600	0.052300
H1621	H162	0.990300	0.257000	0.112100
H1631	H163	0.016600	0.322800	0.122700
H1641	H164	0.932700	0.278000	0.134300
H1651	H165	0.500300	0.045000	0.211400
H1661	H166	0.528300	0.013000	0.240400
H1671	H167	0.566200	0.081200	0.237400
H1681	H168	0.446100	0.088800	0.250600
H1691	H169	0.403200	0.021800	0.250200
H1701	H170	0.397900	0.057000	0.299400
H1711	H171	0.992200	0.623600	0.157400
H1721	H172	0.871700	0.449800	0.158900
H1731	H173	0.847000	0.545400	0.079600
H1741	H174	0.970200	0.759600	0.293800
H1751	H175	0.740600	0.745400	0.309500
H1761	H176	0.788100	0.620800	0.258100
H1771	H177	0.240500	0.835800	0.080400
H1781	H178	0.204000	0.719400	0.004900
H1791	H179	0.429000	0.806000	0.040600
H1801	H180	0.975900	0.885800	0.121000
H1811	H181	0.830000	0.969600	0.149900
H1821	H182	0.735700	0.805200	0.115800
H1831	H183	0.814700	0.968200	0.411200
H1841	H184	0.843300	0.933400	0.430200
H1851	H185	0.108200	0.857600	0.300800
H1861	H186	0.161500	0.749600	0.309500
H1871	H187	0.232700	0.791200	0.287400
H1881	H188	0.143400	0.784400	0.279200
H1891	H189	0.297200	0.873600	0.338500
H1901	H190	0.254600	0.810000	0.352500
H1911	H191	0.228600	0.860800	0.365700
H1921	H192	0.645900	0.678400	0.109300
H1931	H193	0.569100	0.705000	0.035400
H1941	H194	0.483200	0.669200	0.049700
H1951	H195	0.517300	0.737400	0.052300
H1961	H196	0.509700	0.743000	0.112100
H1971	H197	0.483400	0.677200	0.122700
H1981	H198	0.567300	0.722000	0.134300
H1991	H199	0.999700	0.955000	0.211400
H2001	H200	0.971700	0.987000	0.240400
H2011	H201	0.933800	0.918800	0.237400
H2021	H202	0.053900	0.911200	0.250600
H2031	H203	0.096800	0.978200	0.250200
H2041	H204	0.102100	0.943000	0.299400
H2051	H205	0.131400	0.623600	0.342600
H2061	H206	0.078100	0.449800	0.341100
H2071	H207	0.198400	0.545400	0.420400
H2081	H208	0.289400	0.759600	0.206200
H2091	H209	0.504800	0.745400	0.190500
H2101	H210	0.332700	0.620800	0.241900
H2111	H211	0.095300	0.835800	0.419600
H2121	H212	0.015400	0.719400	0.495100
H2131	H213	0.877000	0.806000	0.459400
H2141	H214	0.409900	0.885800	0.379000
H2151	H215	0.639600	0.969600	0.350100
H2161	H216	0.569500	0.805200	0.384200
H2171	H217	0.653500	0.968200	0.088800
H2181	H218	0.590100	0.933400	0.069800
H2191	H219	0.249400	0.857600	0.199200
H2201	H220	0.088100	0.749600	0.190500
H2211	H221	0.058500	0.791200	0.212600
H2221	H222	0.141000	0.784400	0.220800
H2231	H223	0.076400	0.873600	0.161500
H2241	H224	0.055400	0.810000	0.147500
H2251	H225	0.132200	0.860800	0.134300
H2261	H226	0.532500	0.678400	0.390700
H2271	H227	0.635900	0.705000	0.464600
H2281	H228	0.686000	0.669200	0.450300
H2291	H229	0.720100	0.737400	0.447700
H2301	H230	0.733300	0.743000	0.387900
H2311	H231	0.693800	0.677200	0.377300
H2321	H232	0.654700	0.722000	0.365700
H2331	H233	0.455300	0.955000	0.288600
H2341	H234	0.515300	0.987000	0.259600
H2351	H235	0.485000	0.918800	0.262600
H2361	H236	0.357300	0.911200	0.249400
H2371	H237	0.381400	0.978200	0.249800
H2381	H238	0.340900	0.943000	0.200600
H2391	H239	0.368600	0.376400	0.342600
H2401	H240	0.421900	0.550200	0.341100
H2411	H241	0.301600	0.454600	0.420400
H2421	H242	0.210600	0.240400	0.206200
H2431	H243	0.995200	0.254600	0.190500
H2441	H244	0.167300	0.379200	0.241900
H2451	H245	0.404700	0.164200	0.419600
H2461	H246	0.484600	0.280600	0.495100
H2471	H247	0.623000	0.194000	0.459400
H2481	H248	0.090100	0.114200	0.379000
H2491	H249	0.860400	0.030400	0.350100
H2501	H250	0.930500	0.194800	0.384200
H2511	H251	0.846500	0.031800	0.088800
H2521	H252	0.909900	0.066600	0.069800
H2531	H253	0.250600	0.142400	0.199200
H2541	H254	0.411900	0.250400	0.190500
H2551	H255	0.441500	0.208800	0.212600
H2561	H256	0.359000	0.215600	0.220800
H2571	H257	0.423600	0.126400	0.161500
H2581	H258	0.444600	0.190000	0.147500
H2591	H259	0.367800	0.139200	0.134300
H2601	H260	0.967500	0.321600	0.390700
H2611	H261	0.864100	0.295000	0.464600
H2621	H262	0.814000	0.330800	0.450300
H2631	H263	0.779900	0.262600	0.447700
H2641	H264	0.766700	0.257000	0.387900
H2651	H265	0.806200	0.322800	0.377300
H2661	H266	0.845300	0.278000	0.365700
H2671	H267	0.044700	0.045000	0.288600
H2681	H268	0.984700	0.013000	0.259600
H2691	H269	0.015000	0.081200	0.262600
H2701	H270	0.142700	0.088800	0.249400
H2711	H271	0.118600	0.021800	0.249800
H2721	H272	0.159100	0.057000	0.200600
C11	C1	0.420280	0.593960	0.883550
C21	C2	0.455770	0.590140	0.852620
C31	C3	0.436890	0.536580	0.836650
C41	C4	0.384370	0.485740	0.851900
C51	C5	0.351290	0.489380	0.883390
C61	C6	0.369120	0.543240	0.899310
C71	C7	0.441400	0.651200	0.901340
C81	C8	0.474600	0.531600	0.802700
C91	C9	0.299020	0.434240	0.900690
C101	C10	0.388460	0.684720	0.725000
C111	C11	0.415190	0.738780	0.708500
C121	C12	0.359720	0.761440	0.695500
C131	C13	0.277630	0.730460	0.699300
C141	C14	0.250200	0.677000	0.716300
C151	C15	0.306070	0.655540	0.729600
C161	C16	0.447600	0.657800	0.736800
C171	C17	0.389740	0.819080	0.677100
C181	C18	0.159900	0.643800	0.720200
C191	C19	0.841570	0.824540	0.934900
C201	C20	0.760530	0.815260	0.934680
C211	C21	0.707970	0.774940	0.957040
C221	C22	0.738860	0.746720	0.980500
C231	C23	0.823090	0.758980	0.982630
C241	C24	0.873780	0.797960	0.958920
C251	C25	0.895660	0.863920	0.908300
C261	C26	0.619600	0.762400	0.954600
C271	C27	0.853900	0.732000	0.010020
C281	C28	0.357870	0.836740	0.883880
C291	C29	0.424250	0.886100	0.875930
C301	C30	0.414550	0.935700	0.863550
C311	C31	0.336740	0.936280	0.858600
C321	C32	0.269940	0.887280	0.866400
C331	C33	0.280570	0.837940	0.878940
C341	C34	0.367860	0.784320	0.899590
C351	C35	0.488060	0.988320	0.856600
C361	C36	0.187270	0.888740	0.864710
C371	C37	0.645530	0.867260	0.681560
C381	C38	0.680730	0.785660	0.702960
C391	C39	0.746950	0.845500	0.653690
C401	C40	0.127310	0.681820	0.912350
C411	C41	0.030910	0.703020	0.946970
C421	C42	0.028330	0.711460	0.883720
C431	C43	0.482250	0.952500	0.765440
C441	C44	0.547880	0.947160	0.742320
C451	C45	0.079720	0.406040	0.883550
C461	C46	0.044230	0.409860	0.852620
C471	C47	0.063110	0.463420	0.836650
C481	C48	0.115630	0.514260	0.851900
C491	C49	0.148710	0.510620	0.883390
C501	C50	0.130880	0.456760	0.899310
C511	C51	0.058600	0.348800	0.901340
C521	C52	0.025400	0.468400	0.802700
C531	C53	0.200980	0.565760	0.900690
C541	C54	0.111540	0.315280	0.725000
C551	C55	0.084810	0.261220	0.708500
C561	C56	0.140280	0.238560	0.695500
C571	C57	0.222370	0.269540	0.699300
C581	C58	0.249800	0.323000	0.716300
C591	C59	0.193930	0.344460	0.729600
C601	C60	0.052400	0.342200	0.736800
C611	C61	0.110260	0.180920	0.677100
C621	C62	0.340100	0.356200	0.720200
C631	C63	0.658430	0.175460	0.934900
C641	C64	0.739470	0.184740	0.934680
C651	C65	0.792030	0.225060	0.957040
C661	C66	0.761140	0.253280	0.980500
C671	C67	0.676910	0.241020	0.982630
C681	C68	0.626220	0.202040	0.958920
C691	C69	0.604340	0.136080	0.908300
C701	C70	0.880400	0.237600	0.954600
C711	C71	0.646100	0.268000	0.010020
C721	C72	0.142130	0.163260	0.883880
C731	C73	0.075750	0.113900	0.875930
C741	C74	0.085450	0.064300	0.863550
C751	C75	0.163260	0.063720	0.858600
C761	C76	0.230060	0.112720	0.866400
C771	C77	0.219430	0.162060	0.878940
C781	C78	0.132140	0.215680	0.899590
C791	C79	0.011940	0.011680	0.856600
C801	C80	0.312730	0.111260	0.864710
C811	C81	0.854470	0.132740	0.681560
C821	C82	0.819270	0.214340	0.702960
C831	C83	0.753050	0.154500	0.653690
C841	C84	0.372690	0.318180	0.912350
C851	C85	0.469090	0.296980	0.946970
C861	C86	0.471670	0.288540	0.883720
C871	C87	0.017750	0.047500	0.765440
C881	C88	0.952120	0.052840	0.742320
C891	C89	0.826320	0.406040	0.616450
C901	C90	0.865630	0.409860	0.647380
C911	C91	0.900310	0.463420	0.663350
C921	C92	0.898630	0.514260	0.648100
C931	C93	0.861910	0.510620	0.616610
C941	C94	0.825880	0.456760	0.600690
C951	C95	0.790200	0.348800	0.598660
C961	C96	0.943000	0.468400	0.697300
C971	C97	0.864780	0.565760	0.599310
C981	C98	0.703740	0.315280	0.775000
C991	C99	0.676410	0.261220	0.791500
C1001	C100	0.598280	0.238560	0.804500
C1011	C101	0.547170	0.269540	0.800700
C1021	C102	0.573200	0.323000	0.783700
C1031	C103	0.650530	0.344460	0.770400
C1041	C104	0.789800	0.342200	0.763200
C1051	C105	0.570660	0.180920	0.822900
C1061	C106	0.516100	0.356200	0.779800
C1071	C107	0.017030	0.175460	0.565100
C1081	C108	0.945270	0.184740	0.565320
C1091	C109	0.933030	0.225060	0.542960
C1101	C110	0.992140	0.253280	0.519500
C1111	C111	0.064110	0.241020	0.517370
C1121	C112	0.075820	0.202040	0.541080
C1131	C113	0.031740	0.136080	0.591700
C1141	C114	0.857200	0.237600	0.545400
C1151	C115	0.121900	0.268000	0.489980
C1161	C116	0.521130	0.163260	0.616120
C1171	C117	0.538150	0.113900	0.624070
C1181	C118	0.478850	0.064300	0.636450
C1191	C119	0.400460	0.063720	0.641400
C1201	C120	0.382660	0.112720	0.633600
C1211	C121	0.442630	0.162060	0.621060
C1221	C122	0.583540	0.215680	0.600410
C1231	C123	0.499740	0.011680	0.643400
C1241	C124	0.298530	0.111260	0.635290
C1251	C125	0.778270	0.132740	0.818440
C1261	C126	0.895070	0.214340	0.797040
C1271	C127	0.901450	0.154500	0.846310
C1281	C128	0.445490	0.318180	0.587650
C1291	C129	0.327890	0.296980	0.553030
C1301	C130	0.316870	0.288540	0.616280
C1311	C131	0.529750	0.047500	0.734560
C1321	C132	0.600720	0.052840	0.757680
C1331	C133	0.673680	0.593960	0.616450
C1341	C134	0.634370	0.590140	0.647380
C1351	C135	0.599690	0.536580	0.663350
C1361	C136	0.601370	0.485740	0.648100
C1371	C137	0.638090	0.489380	0.616610
C1381	C138	0.674120	0.543240	0.600690
C1391	C139	0.709800	0.651200	0.598660
C1401	C140	0.557000	0.531600	0.697300
C1411	C141	0.635220	0.434240	0.599310
C1421	C142	0.796260	0.684720	0.775000
C1431	C143	0.823590	0.738780	0.791500
C1441	C144	0.901720	0.761440	0.804500
C1451	C145	0.952830	0.730460	0.800700
C1461	C146	0.926800	0.677000	0.783700
C1471	C147	0.849470	0.655540	0.770400
C1481	C148	0.710200	0.657800	0.763200
C1491	C149	0.929340	0.819080	0.822900
C1501	C150	0.983900	0.643800	0.779800
C1511	C151	0.482970	0.824540	0.565100
C1521	C152	0.554730	0.815260	0.565320
C1531	C153	0.566970	0.774940	0.542960
C1541	C154	0.507860	0.746720	0.519500
C1551	C155	0.435890	0.758980	0.517370
C1561	C156	0.424180	0.797960	0.541080
C1571	C157	0.468260	0.863920	0.591700
C1581	C158	0.642800	0.762400	0.545400
C1591	C159	0.378100	0.732000	0.489980
C1601	C160	0.978870	0.836740	0.616120
C1611	C161	0.961850	0.886100	0.624070
C1621	C162	0.021150	0.935700	0.636450
C1631	C163	0.099540	0.936280	0.641400
C1641	C164	0.117340	0.887280	0.633600
C1651	C165	0.057370	0.837940	0.621060
C1661	C166	0.916460	0.784320	0.600410
C1671	C167	0.000260	0.988320	0.643400
C1681	C168	0.201470	0.888740	0.635290
C1691	C169	0.721730	0.867260	0.818440
C1701	C170	0.604930	0.785660	0.797040
C1711	C171	0.598550	0.845500	0.846310
C1721	C172	0.054510	0.681820	0.587650
C1731	C173	0.172110	0.703020	0.553030
C1741	C174	0.183130	0.711460	0.616280
C1751	C175	0.970250	0.952500	0.734560
C1761	C176	0.899280	0.947160	0.757680
C1771	C177	0.579720	0.406040	0.116450
C1781	C178	0.544230	0.409860	0.147380
C1791	C179	0.563110	0.463420	0.163350
C1801	C180	0.615630	0.514260	0.148100
C1811	C181	0.648710	0.510620	0.116610
C1821	C182	0.630880	0.456760	0.100690
C1831	C183	0.558600	0.348800	0.098660
C1841	C184	0.525400	0.468400	0.197300
C1851	C185	0.700980	0.565760	0.099310
C1861	C186	0.611540	0.315280	0.275000
C1871	C187	0.584810	0.261220	0.291500
C1881	C188	0.640280	0.238560	0.304500
C1891	C189	0.722370	0.269540	0.300700
C1901	C190	0.749800	0.323000	0.283700
C1911	C191	0.693930	0.344460	0.270400
C1921	C192	0.552400	0.342200	0.263200
C1931	C193	0.610260	0.180920	0.322900
C1941	C194	0.840100	0.356200	0.279800
C1951	C195	0.158430	0.175460	0.065100
C1961	C196	0.239470	0.184740	0.065320
C1971	C197	0.292030	0.225060	0.042960
C1981	C198	0.261140	0.253280	0.019500
C1991	C199	0.176910	0.241020	0.017370
C2001	C200	0.126220	0.202040	0.041080
C2011	C201	0.104340	0.136080	0.091700
C2021	C202	0.380400	0.237600	0.045400
C2031	C203	0.146100	0.268000	0.989980
C2041	C204	0.642130	0.163260	0.116120
C2051	C205	0.575750	0.113900	0.124070
C2061	C206	0.585450	0.064300	0.136450
C2071	C207	0.663260	0.063720	0.141400
C2081	C208	0.730060	0.112720	0.133600
C2091	C209	0.719430	0.162060	0.121060
C2101	C210	0.632140	0.215680	0.100410
C2111	C211	0.511940	0.011680	0.143400
C2121	C212	0.812730	0.111260	0.135290
C2131	C213	0.354470	0.132740	0.318440
C2141	C214	0.319270	0.214340	0.297040
C2151	C215	0.253050	0.154500	0.346310
C2161	C216	0.872690	0.318180	0.087650
C2171	C217	0.969090	0.296980	0.053030
C2181	C218	0.971670	0.288540	0.116280
C2191	C219	0.517750	0.047500	0.234560
C2201	C220	0.452120	0.052840	0.257680
C2211	C221	0.920280	0.593960	0.116450
C2221	C222	0.955770	0.590140	0.147380
C2231	C223	0.936890	0.536580	0.163350
C2241	C224	0.884370	0.485740	0.148100
C2251	C225	0.851290	0.489380	0.116610
C2261	C226	0.869120	0.543240	0.100690
C2271	C227	0.941400	0.651200	0.098660
C2281	C228	0.974600	0.531600	0.197300
C2291	C229	0.799020	0.434240	0.099310
C2301	C230	0.888460	0.684720	0.275000
C2311	C231	0.915190	0.738780	0.291500
C2321	C232	0.859720	0.761440	0.304500
C2331	C233	0.777630	0.730460	0.300700
C2341	C234	0.750200	0.677000	0.283700
C2351	C235	0.806070	0.655540	0.270400
C2361	C236	0.947600	0.657800	0.263200
C2371	C237	0.889740	0.819080	0.322900
C2381	C238	0.659900	0.643800	0.279800
C2391	C239	0.341570	0.824540	0.065100
C2401	C240	0.260530	0.815260	0.065320
C2411	C241	0.207970	0.774940	0.042960
C2421	C242	0.238860	0.746720	0.019500
C2431	C243	0.323090	0.758980	0.017370
C2441	C244	0.373780	0.797960	0.041080
C2451	C245	0.395660	0.863920	0.091700
C2461	C246	0.119600	0.762400	0.045400
C2471	C247	0.353900	0.732000	0.989980
C2481	C248	0.857870	0.836740	0.116120
C2491	C249	0.924250	0.886100	0.124070
C2501	C250	0.914550	0.935700	0.136450
C2511	C251	0.836740	0.936280	0.141400
C2521	C252	0.769940	0.887280	0.133600
C2531	C253	0.780570	0.837940	0.121060
C2541	C254	0.867860	0.784320	0.100410
C2551	C255	0.988060	0.988320	0.143400
C2561	C256	0.687270	0.888740	0.135290
C2571	C257	0.145530	0.867260	0.318440
C2581	C258	0.180730	0.785660	0.297040
C2591	C259	0.246950	0.845500	0.346310
C2601	C260	0.627310	0.681820	0.087650
C2611	C261	0.530910	0.703020	0.053030
C2621	C262	0.528330	0.711460	0.116280
C2631	C263	0.982250	0.952500	0.234560
C2641	C264	0.047880	0.947160	0.257680
C2651	C265	0.173680	0.593960	0.383550
C2661	C266	0.134370	0.590140	0.352620
C2671	C267	0.099690	0.536580	0.336650
C2681	C268	0.101370	0.485740	0.351900
C2691	C269	0.138090	0.489380	0.383390
C2701	C270	0.174120	0.543240	0.399310
C2711	C271	0.209800	0.651200	0.401340
C2721	C272	0.057000	0.531600	0.302700
C2731	C273	0.135220	0.434240	0.400690
C2741	C274	0.296260	0.684720	0.225000
C2751	C275	0.323590	0.738780	0.208500
C2761	C276	0.401720	0.761440	0.195500
C2771	C277	0.452830	0.730460	0.199300
C2781	C278	0.426800	0.677000	0.216300
C2791	C279	0.349470	0.655540	0.229600
C2801	C280	0.210200	0.657800	0.236800
C2811	C281	0.429340	0.819080	0.177100
C2821	C282	0.483900	0.643800	0.220200
C2831	C283	0.982970	0.824540	0.434900
C2841	C284	0.054730	0.815260	0.434680
C2851	C285	0.066970	0.774940	0.457040
C2861	C286	0.007860	0.746720	0.480500
C2871	C287	0.935890	0.758980	0.482630
C2881	C288	0.924180	0.797960	0.458920
C2891	C289	0.968260	0.863920	0.408300
C2901	C290	0.142800	0.762400	0.454600
C2911	C291	0.878100	0.732000	0.510020
C2921	C292	0.478870	0.836740	0.383880
C2931	C293	0.461850	0.886100	0.375930
C2941	C294	0.521150	0.935700	0.363550
C2951	C295	0.599540	0.936280	0.358600
C2961	C296	0.617340	0.887280	0.366400
C2971	C297	0.557370	0.837940	0.378940
C2981	C298	0.416460	0.784320	0.399590
C2991	C299	0.500260	0.988320	0.356600
C3001	C300	0.701470	0.888740	0.364710
C3011	C301	0.221730	0.867260	0.181560
C3021	C302	0.104930	0.785660	0.202960
C3031	C303	0.098550	0.845500	0.153690
C3041	C304	0.554510	0.681820	0.412350
C3051	C305	0.672110	0.703020	0.446970
C3061	C306	0.683130	0.711460	0.383720
C3071	C307	0.470250	0.952500	0.265440
C3081	C308	0.399280	0.947160	0.242320
C3091	C309	0.326320	0.406040	0.383550
C3101	C310	0.365630	0.409860	0.352620
C3111	C311	0.400310	0.463420	0.336650
C3121	C312	0.398630	0.514260	0.351900
C3131	C313	0.361910	0.510620	0.383390
C3141	C314	0.325880	0.456760	0.399310
C3151	C315	0.290200	0.348800	0.401340
C3161	C316	0.443000	0.468400	0.302700
C3171	C317	0.364780	0.565760	0.400690
C3181	C318	0.203740	0.315280	0.225000
C3191	C319	0.176410	0.261220	0.208500
C3201	C320	0.098280	0.238560	0.195500
C3211	C321	0.047170	0.269540	0.199300
C3221	C322	0.073200	0.323000	0.216300
C3231	C323	0.150530	0.344460	0.229600
C3241	C324	0.289800	0.342200	0.236800
C3251	C325	0.070660	0.180920	0.177100
C3261	C326	0.016100	0.356200	0.220200
C3271	C327	0.517030	0.175460	0.434900
C3281	C328	0.445270	0.184740	0.434680
C3291	C329	0.433030	0.225060	0.457040
C3301	C330	0.492140	0.253280	0.480500
C3311	C331	0.564110	0.241020	0.482630
C3321	C332	0.575820	0.202040	0.458920
C3331	C333	0.531740	0.136080	0.408300
C3341	C334	0.357200	0.237600	0.454600
C3351	C335	0.621900	0.268000	0.510020
C3361	C336	0.021130	0.163260	0.383880
C3371	C337	0.038150	0.113900	0.375930
C3381	C338	0.978850	0.064300	0.363550
C3391	C339	0.900460	0.063720	0.358600
C3401	C340	0.882660	0.112720	0.366400
C3411	C341	0.942630	0.162060	0.378940
C3421	C342	0.083540	0.215680	0.399590
C3431	C343	0.999740	0.011680	0.356600
C3441	C344	0.798530	0.111260	0.364710
C3451	C345	0.278270	0.132740	0.181560
C3461	C346	0.395070	0.214340	0.202960
C3471	C347	0.401450	0.154500	0.153690
C3481	C348	0.945490	0.318180	0.412350
C3491	C349	0.827890	0.296980	0.446970
C3501	C350	0.816870	0.288540	0.383720
C3511	C351	0.029750	0.047500	0.265440
C3521	C352	0.100720	0.052840	0.242320
N11	N1	0.687770	0.833540	0.680280
N21	N2	0.065570	0.699340	0.914680
N31	N3	0.812230	0.166460	0.680280
N41	N4	0.434430	0.300660	0.914680
N51	N5	0.854230	0.166460	0.819720
N61	N6	0.366230	0.300660	0.585320
N71	N7	0.645770	0.833540	0.819720
N81	N8	0.133770	0.699340	0.585320
N91	N9	0.312230	0.166460	0.319720
N101	N10	0.934430	0.300660	0.085320
N111	N11	0.187770	0.833540	0.319720
N121	N12	0.565570	0.699340	0.085320
N131	N13	0.145770	0.833540	0.180280
N141	N14	0.633770	0.699340	0.414680
N151	N15	0.354230	0.166460	0.180280
N161	N16	0.866230	0.300660	0.414680
O11	O1	0.395100	0.656200	0.925350
O21	O2	0.503710	0.692420	0.893940
O31	O3	0.535910	0.575020	0.793590
O41	O4	0.443070	0.485740	0.786700
O51	O5	0.271100	0.387800	0.883520
O61	O6	0.283810	0.433820	0.932220
O71	O7	0.423380	0.609960	0.751200
O81	O8	0.519600	0.683400	0.731900
O91	O9	0.464210	0.840020	0.670610
O101	O10	0.338990	0.841180	0.668820
O111	O11	0.112500	0.663000	0.708500
O121	O12	0.140890	0.594380	0.735270
O131	O13	0.961700	0.858000	0.902170
O141	O14	0.868380	0.898760	0.893160
O151	O15	0.596000	0.798200	0.939330
O161	O16	0.570170	0.714940	0.966690
O171	O17	0.804760	0.686320	0.023770
O181	O18	0.927060	0.755720	0.018020
O191	O19	0.439530	0.790260	0.907330
O201	O20	0.307030	0.739860	0.904750
O211	O21	0.557430	0.985860	0.858200
O221	O22	0.481140	0.037080	0.848260
O231	O23	0.174000	0.928000	0.846940
O241	O24	0.132160	0.852920	0.882010
O251	O25	0.350110	0.954420	0.587180
O261	O26	0.644270	0.909340	0.664440
O271	O27	0.162730	0.669460	0.936670
O281	O28	0.555200	0.947200	0.705230
O291	O29	0.104900	0.343800	0.925350
O301	O30	0.996290	0.307580	0.893940
O311	O31	0.964090	0.424980	0.793590
O321	O32	0.056930	0.514260	0.786700
O331	O33	0.228900	0.612200	0.883520
O341	O34	0.216190	0.566180	0.932220
O351	O35	0.076620	0.390040	0.751200
O361	O36	0.980400	0.316600	0.731900
O371	O37	0.035790	0.159980	0.670610
O381	O38	0.161010	0.158820	0.668820
O391	O39	0.387500	0.337000	0.708500
O401	O40	0.359110	0.405620	0.735270
O411	O41	0.538300	0.142000	0.902170
O421	O42	0.631620	0.101240	0.893160
O431	O43	0.904000	0.201800	0.939330
O441	O44	0.929830	0.285060	0.966690
O451	O45	0.695240	0.313680	0.023770
O461	O46	0.572940	0.244280	0.018020
O471	O47	0.060470	0.209740	0.907330
O481	O48	0.192970	0.260140	0.904750
O491	O49	0.942570	0.014140	0.858200
O501	O50	0.018860	0.962920	0.848260
O511	O51	0.326000	0.072000	0.846940
O521	O52	0.367840	0.147080	0.882010
O531	O53	0.149890	0.045580	0.587180
O541	O54	0.855730	0.090660	0.664440
O551	O55	0.337270	0.330540	0.936670
O561	O56	0.944800	0.052800	0.705230
O571	O57	0.738900	0.343800	0.574650
O581	O58	0.811290	0.307580	0.606060
O591	O59	0.960890	0.424980	0.706410
O601	O60	0.957330	0.514260	0.713300
O611	O61	0.883300	0.612200	0.616480
O621	O62	0.849990	0.566180	0.567780
O631	O63	0.813420	0.390040	0.748800
O641	O64	0.836200	0.316600	0.768100
O651	O65	0.624190	0.159980	0.829390
O661	O66	0.497810	0.158820	0.831180
O671	O67	0.449500	0.337000	0.791500
O681	O68	0.546510	0.405620	0.764730
O691	O69	0.103700	0.142000	0.597830
O701	O70	0.969620	0.101240	0.606840
O711	O71	0.797800	0.201800	0.560670
O721	O72	0.855230	0.285060	0.533310
O731	O73	0.118440	0.313680	0.476230
O741	O74	0.171340	0.244280	0.481980
O751	O75	0.649270	0.209740	0.592670
O761	O76	0.567170	0.260140	0.595250
O771	O77	0.571570	0.014140	0.641800
O781	O78	0.444060	0.962920	0.651740
O791	O79	0.246000	0.072000	0.653060
O801	O80	0.279240	0.147080	0.617990
O811	O81	0.395690	0.045580	0.912820
O821	O82	0.734930	0.090660	0.835560
O831	O83	0.493270	0.330540	0.563330
O841	O84	0.608000	0.052800	0.794770
O851	O85	0.761100	0.656200	0.574650
O861	O86	0.688710	0.692420	0.606060
O871	O87	0.539110	0.575020	0.706410
O881	O88	0.542670	0.485740	0.713300
O891	O89	0.616700	0.387800	0.616480
O901	O90	0.650010	0.433820	0.567780
O911	O91	0.686580	0.609960	0.748800
O921	O92	0.663800	0.683400	0.768100
O931	O93	0.875810	0.840020	0.829390
O941	O94	0.002190	0.841180	0.831180
O951	O95	0.050500	0.663000	0.791500
O961	O96	0.953490	0.594380	0.764730
O971	O97	0.396300	0.858000	0.597830
O981	O98	0.530380	0.898760	0.606840
O991	O99	0.702200	0.798200	0.560670
O1001	O100	0.644770	0.714940	0.533310
O1011	O101	0.381560	0.686320	0.476230
O1021	O102	0.328660	0.755720	0.481980
O1031	O103	0.850730	0.790260	0.592670
O1041	O104	0.932830	0.739860	0.595250
O1051	O105	0.928430	0.985860	0.641800
O1061	O106	0.055940	0.037080	0.651740
O1071	O107	0.254000	0.928000	0.653060
O1081	O108	0.220760	0.852920	0.617990
O1091	O109	0.104310	0.954420	0.912820
O1101	O110	0.765070	0.909340	0.835560
O1111	O111	0.006730	0.669460	0.563330
O1121	O112	0.892000	0.947200	0.794770
O1131	O113	0.604900	0.343800	0.074650
O1141	O114	0.496290	0.307580	0.106060
O1151	O115	0.464090	0.424980	0.206410
O1161	O116	0.556930	0.514260	0.213300
O1171	O117	0.728900	0.612200	0.116480
O1181	O118	0.716190	0.566180	0.067780
O1191	O119	0.576620	0.390040	0.248800
O1201	O120	0.480400	0.316600	0.268100
O1211	O121	0.535790	0.159980	0.329390
O1221	O122	0.661010	0.158820	0.331180
O1231	O123	0.887500	0.337000	0.291500
O1241	O124	0.859110	0.405620	0.264730
O1251	O125	0.038300	0.142000	0.097830
O1261	O126	0.131620	0.101240	0.106840
O1271	O127	0.404000	0.201800	0.060670
O1281	O128	0.429830	0.285060	0.033310
O1291	O129	0.195240	0.313680	0.976230
O1301	O130	0.072940	0.244280	0.981980
O1311	O131	0.560470	0.209740	0.092670
O1321	O132	0.692970	0.260140	0.095250
O1331	O133	0.442570	0.014140	0.141800
O1341	O134	0.518860	0.962920	0.151740
O1351	O135	0.826000	0.072000	0.153060
O1361	O136	0.867840	0.147080	0.117990
O1371	O137	0.649890	0.045580	0.412820
O1381	O138	0.355730	0.090660	0.335560
O1391	O139	0.837270	0.330540	0.063330
O1401	O140	0.444800	0.052800	0.294770
O1411	O141	0.895100	0.656200	0.074650
O1421	O142	0.003710	0.692420	0.106060
O1431	O143	0.035910	0.575020	0.206410
O1441	O144	0.943070	0.485740	0.213300
O1451	O145	0.771100	0.387800	0.116480
O1461	O146	0.783810	0.433820	0.067780
O1471	O147	0.923380	0.609960	0.248800
O1481	O148	0.019600	0.683400	0.268100
O1491	O149	0.964210	0.840020	0.329390
O1501	O150	0.838990	0.841180	0.331180
O1511	O151	0.612500	0.663000	0.291500
O1521	O152	0.640890	0.594380	0.264730
O1531	O153	0.461700	0.858000	0.097830
O1541	O154	0.368380	0.898760	0.106840
O1551	O155	0.096000	0.798200	0.060670
O1561	O156	0.070170	0.714940	0.033310
O1571	O157	0.304760	0.686320	0.976230
O1581	O158	0.427060	0.755720	0.981980
O1591	O159	0.939530	0.790260	0.092670
O1601	O160	0.807030	0.739860	0.095250
O1611	O161	0.057430	0.985860	0.141800
O1621	O162	0.981140	0.037080	0.151740
O1631	O163	0.674000	0.928000	0.153060
O1641	O164	0.632160	0.852920	0.117990
O1651	O165	0.850110	0.954420	0.412820
O1661	O166	0.144270	0.909340	0.335560
O1671	O167	0.662730	0.669460	0.063330
O1681	O168	0.055200	0.947200	0.294770
O1691	O169	0.261100	0.656200	0.425350
O1701	O170	0.188710	0.692420	0.393940
O1711	O171	0.039110	0.575020	0.293590
O1721	O172	0.042670	0.485740	0.286700
O1731	O173	0.116700	0.387800	0.383520
O1741	O174	0.150010	0.433820	0.432220
O1751	O175	0.186580	0.609960	0.251200
O1761	O176	0.163800	0.683400	0.231900
O1771	O177	0.375810	0.840020	0.170610
O1781	O178	0.502190	0.841180	0.168820
O1791	O179	0.550500	0.663000	0.208500
O1801	O180	0.453490	0.594380	0.235270
O1811	O181	0.896300	0.858000	0.402170
O1821	O182	0.030380	0.898760	0.393160
O1831	O183	0.202200	0.798200	0.439330
O1841	O184	0.144770	0.714940	0.466690
O1851	O185	0.881560	0.686320	0.523770
O1861	O186	0.828660	0.755720	0.518020
O1871	O187	0.350730	0.790260	0.407330
O1881	O188	0.432830	0.739860	0.404750
O1891	O189	0.428430	0.985860	0.358200
O1901	O190	0.555940	0.037080	0.348260
O1911	O191	0.754000	0.928000	0.346940
O1921	O192	0.720760	0.852920	0.382010
O1931	O193	0.604310	0.954420	0.087180
O1941	O194	0.265070	0.909340	0.164440
O1951	O195	0.506730	0.669460	0.436670
O1961	O196	0.392000	0.947200	0.205230
O1971	O197	0.238900	0.343800	0.425350
O1981	O198	0.311290	0.307580	0.393940
O1991	O199	0.460890	0.424980	0.293590
O2001	O200	0.457330	0.514260	0.286700
O2011	O201	0.383300	0.612200	0.383520
O2021	O202	0.349990	0.566180	0.432220
O2031	O203	0.313420	0.390040	0.251200
O2041	O204	0.336200	0.316600	0.231900
O2051	O205	0.124190	0.159980	0.170610
O2061	O206	0.997810	0.158820	0.168820
O2071	O207	0.949500	0.337000	0.208500
O2081	O208	0.046510	0.405620	0.235270
O2091	O209	0.603700	0.142000	0.402170
O2101	O210	0.469620	0.101240	0.393160
O2111	O211	0.297800	0.201800	0.439330
O2121	O212	0.355230	0.285060	0.466690
O2131	O213	0.618440	0.313680	0.523770
O2141	O214	0.671340	0.244280	0.518020
O2151	O215	0.149270	0.209740	0.407330
O2161	O216	0.067170	0.260140	0.404750
O2171	O217	0.071570	0.014140	0.358200
O2181	O218	0.944060	0.962920	0.348260
O2191	O219	0.746000	0.072000	0.346940
O2201	O220	0.779240	0.147080	0.382010
O2211	O221	0.895690	0.045580	0.087180
O2221	O222	0.234930	0.090660	0.164440
O2231	O223	0.993270	0.330540	0.436670
O2241	O224	0.108000	0.052800	0.205230
