data_DUWTAS_clean_PM
_symmetry_space_group_name_H-M	'P1'
_cell_length_a	5.413400
_cell_length_b	15.259000
_cell_length_c	9.017600
_cell_angle_alpha	90.000000
_cell_angle_beta	94.704000
_cell_angle_gamma	90.000000
_symmetry_Int_Tables_number 1

loop_
_symmetry_equiv_pos_as_xyz
'x,y,z'

loop_
_atom_site_label
_atom_site_type_symbol
_atom_site_fract_x
_atom_site_fract_y
_atom_site_fract_z
Mg11	Mg1	0.179200	0.673270	0.491780
P11	P1	0.149440	0.818340	0.766180
O11	O1	0.112500	0.785090	0.606500
O21	O2	0.948400	0.786600	0.860800
O31	O3	0.409000	0.795560	0.831000
O41	O4	0.133200	0.922520	0.756800
H11	H1	0.015900	0.939600	0.801000
O51	O5	0.239800	0.544100	0.408400
O61	O6	0.082100	0.408060	0.401400
C11	C1	0.093200	0.485900	0.444900
Mg21	Mg2	0.320800	0.173270	0.008220
P21	P2	0.350560	0.318340	0.733820
O71	O7	0.387500	0.285090	0.893500
O81	O8	0.551600	0.286600	0.639200
O91	O9	0.091000	0.295560	0.669000
O101	O10	0.366800	0.422520	0.743200
H21	H2	0.484100	0.439600	0.699000
O111	O11	0.260200	0.044100	0.091600
O121	O12	0.417900	0.908060	0.098600
C21	C2	0.406800	0.985900	0.055100
Mg31	Mg3	0.820800	0.326730	0.508220
P31	P3	0.850560	0.181660	0.233820
O131	O13	0.887500	0.214910	0.393500
O141	O14	0.051600	0.213400	0.139200
O151	O15	0.591000	0.204440	0.169000
O161	O16	0.866800	0.077480	0.243200
H31	H3	0.984100	0.060400	0.199000
O171	O17	0.760200	0.455900	0.591600
O181	O18	0.917900	0.591940	0.598600
C31	C3	0.906800	0.514100	0.555100
Mg41	Mg4	0.679200	0.826730	0.991780
P41	P4	0.649440	0.681660	0.266180
O191	O19	0.612500	0.714910	0.106500
O201	O20	0.448400	0.713400	0.360800
O211	O21	0.909000	0.704440	0.331000
O221	O22	0.633200	0.577480	0.256800
H41	H4	0.515900	0.560400	0.301000
O231	O23	0.739800	0.955900	0.908400
O241	O24	0.582100	0.091940	0.901400
C41	C4	0.593200	0.014100	0.944900
