data_DUXMAL_clean_PM
_symmetry_space_group_name_H-M	'P1'
_cell_length_a	10.231900
_cell_length_b	18.733000
_cell_length_c	20.283000
_cell_angle_alpha	90.000000
_cell_angle_beta	90.000000
_cell_angle_gamma	90.000000
_symmetry_Int_Tables_number 1

loop_
_symmetry_equiv_pos_as_xyz
'x,y,z'

loop_
_atom_site_label
_atom_site_type_symbol
_atom_site_fract_x
_atom_site_fract_y
_atom_site_fract_z
Mn11	Mn1	0.163150	0.949690	0.948930
Mn21	Mn2	0.336850	0.550310	0.448930
Mn31	Mn3	0.836850	0.050310	0.051070
Mn41	Mn4	0.663150	0.449690	0.551070
H11	H1	0.726600	0.696400	0.816800
H21	H2	0.466100	0.801900	0.834100
H31	H3	0.626000	0.954700	0.949300
H41	H4	0.857600	0.806100	0.863800
H51	H5	0.796800	0.515900	0.680200
H61	H6	0.790500	0.615800	0.747500
H71	H7	0.459100	0.674800	0.654900
H81	H8	0.475700	0.573700	0.590400
H91	H9	0.773400	0.803600	0.316800
H101	H10	0.033900	0.698100	0.334100
H111	H11	0.874000	0.545300	0.449300
H121	H12	0.642400	0.693900	0.363800
H131	H13	0.703200	0.984100	0.180200
H141	H14	0.709500	0.884200	0.247500
H151	H15	0.040900	0.825200	0.154900
H161	H16	0.024300	0.926300	0.090400
H171	H17	0.273400	0.303600	0.183200
H181	H18	0.533900	0.198100	0.165900
H191	H19	0.374000	0.045300	0.050700
H201	H20	0.142400	0.193900	0.136200
H211	H21	0.203200	0.484100	0.319800
H221	H22	0.209500	0.384200	0.252500
H231	H23	0.540900	0.325200	0.345100
H241	H24	0.524300	0.426300	0.409600
H251	H25	0.226600	0.196400	0.683200
H261	H26	0.966100	0.301900	0.665900
H271	H27	0.126000	0.454700	0.550700
H281	H28	0.357600	0.306100	0.636200
H291	H29	0.296800	0.015900	0.819800
H301	H30	0.290500	0.115800	0.752500
H311	H31	0.959100	0.174800	0.845100
H321	H32	0.975700	0.073700	0.909600
C11	C1	0.663900	0.794140	0.842940
C21	C2	0.540800	0.823290	0.853680
C31	C3	0.526500	0.883300	0.892810
C41	C4	0.635800	0.914080	0.921770
C51	C5	0.758700	0.885910	0.910720
C61	C6	0.773200	0.825630	0.871290
C71	C7	0.612800	0.726150	0.744540
C81	C8	0.727800	0.549300	0.674580
C91	C9	0.724600	0.608600	0.715180
C101	C10	0.624700	0.656910	0.707900
C111	C11	0.530500	0.643060	0.660770
C121	C12	0.541400	0.582680	0.622430
C131	C13	0.392500	0.912780	0.905100
C141	C14	0.877200	0.921580	0.939700
C151	C15	0.836100	0.705860	0.342940
C161	C16	0.959200	0.676710	0.353680
C171	C17	0.973500	0.616700	0.392810
C181	C18	0.864200	0.585920	0.421770
C191	C19	0.741300	0.614090	0.410720
C201	C20	0.726800	0.674370	0.371290
C211	C21	0.887200	0.773850	0.244540
C221	C22	0.772200	0.950700	0.174580
C231	C23	0.775400	0.891400	0.215180
C241	C24	0.875300	0.843090	0.207900
C251	C25	0.969500	0.856940	0.160770
C261	C26	0.958600	0.917320	0.122430
C271	C27	0.107500	0.587220	0.405100
C281	C28	0.622800	0.578420	0.439700
C291	C29	0.336100	0.205860	0.157060
C301	C30	0.459200	0.176710	0.146320
C311	C31	0.473500	0.116700	0.107190
C321	C32	0.364200	0.085920	0.078230
C331	C33	0.241300	0.114090	0.089280
C341	C34	0.226800	0.174370	0.128710
C351	C35	0.387200	0.273850	0.255460
C361	C36	0.272200	0.450700	0.325420
C371	C37	0.275400	0.391400	0.284820
C381	C38	0.375300	0.343090	0.292100
C391	C39	0.469500	0.356940	0.339230
C401	C40	0.458600	0.417320	0.377570
C411	C41	0.607500	0.087220	0.094900
C421	C42	0.122800	0.078420	0.060300
C431	C43	0.163900	0.294140	0.657060
C441	C44	0.040800	0.323290	0.646320
C451	C45	0.026500	0.383300	0.607190
C461	C46	0.135800	0.414080	0.578230
C471	C47	0.258700	0.385910	0.589280
C481	C48	0.273200	0.325630	0.628710
C491	C49	0.112800	0.226150	0.755460
C501	C50	0.227800	0.049300	0.825420
C511	C51	0.224600	0.108600	0.784820
C521	C52	0.124700	0.156910	0.792100
C531	C53	0.030500	0.143060	0.839230
C541	C54	0.041400	0.082680	0.877570
C551	C55	0.892500	0.412780	0.594900
C561	C56	0.377200	0.421580	0.560300
N11	N1	0.676800	0.731710	0.803210
N21	N2	0.638900	0.536530	0.627960
N31	N3	0.823200	0.768290	0.303210
N41	N4	0.861100	0.963470	0.127960
N51	N5	0.323200	0.268290	0.196790
N61	N6	0.361100	0.463470	0.372040
N71	N7	0.176800	0.231710	0.696790
N81	N8	0.138900	0.036530	0.872040
O11	O1	0.546900	0.774270	0.721280
O21	O2	0.293620	0.881860	0.880840
O31	O3	0.381400	0.966670	0.941330
O41	O4	0.987980	0.896460	0.925780
O51	O5	0.860430	0.975670	0.974650
O61	O6	0.953100	0.725730	0.221280
O71	O7	0.206380	0.618140	0.380840
O81	O8	0.118600	0.533330	0.441330
O91	O9	0.512020	0.603540	0.425780
O101	O10	0.639570	0.524330	0.474650
O111	O11	0.453100	0.225730	0.278720
O121	O12	0.706380	0.118140	0.119160
O131	O13	0.618600	0.033330	0.058670
O141	O14	0.012020	0.103540	0.074220
O151	O15	0.139570	0.024330	0.025350
O161	O16	0.046900	0.274270	0.778720
O171	O17	0.793620	0.381860	0.619160
O181	O18	0.881400	0.466670	0.558670
O191	O19	0.487980	0.396460	0.574220
O201	O20	0.360430	0.475670	0.525350
Mn51	Mn5	0.163150	0.050310	0.551070
Mn61	Mn6	0.336850	0.449690	0.051070
Mn71	Mn7	0.836850	0.949690	0.448930
Mn81	Mn8	0.663150	0.550310	0.948930
H331	H33	0.726600	0.303600	0.683200
H341	H34	0.466100	0.198100	0.665900
H351	H35	0.626000	0.045300	0.550700
H361	H36	0.857600	0.193900	0.636200
H371	H37	0.796800	0.484100	0.819800
H381	H38	0.790500	0.384200	0.752500
H391	H39	0.459100	0.325200	0.845100
H401	H40	0.475700	0.426300	0.909600
H411	H41	0.773400	0.196400	0.183200
H421	H42	0.033900	0.301900	0.165900
H431	H43	0.874000	0.454700	0.050700
H441	H44	0.642400	0.306100	0.136200
H451	H45	0.703200	0.015900	0.319800
H461	H46	0.709500	0.115800	0.252500
H471	H47	0.040900	0.174800	0.345100
H481	H48	0.024300	0.073700	0.409600
H491	H49	0.273400	0.696400	0.316800
H501	H50	0.533900	0.801900	0.334100
H511	H51	0.374000	0.954700	0.449300
H521	H52	0.142400	0.806100	0.363800
H531	H53	0.203200	0.515900	0.180200
H541	H54	0.209500	0.615800	0.247500
H551	H55	0.540900	0.674800	0.154900
H561	H56	0.524300	0.573700	0.090400
H571	H57	0.226600	0.803600	0.816800
H581	H58	0.966100	0.698100	0.834100
H591	H59	0.126000	0.545300	0.949300
H601	H60	0.357600	0.693900	0.863800
H611	H61	0.296800	0.984100	0.680200
H621	H62	0.290500	0.884200	0.747500
H631	H63	0.959100	0.825200	0.654900
H641	H64	0.975700	0.926300	0.590400
C571	C57	0.663900	0.205860	0.657060
C581	C58	0.540800	0.176710	0.646320
C591	C59	0.526500	0.116700	0.607190
C601	C60	0.635800	0.085920	0.578230
C611	C61	0.758700	0.114090	0.589280
C621	C62	0.773200	0.174370	0.628710
C631	C63	0.612800	0.273850	0.755460
C641	C64	0.727800	0.450700	0.825420
C651	C65	0.724600	0.391400	0.784820
C661	C66	0.624700	0.343090	0.792100
C671	C67	0.530500	0.356940	0.839230
C681	C68	0.541400	0.417320	0.877570
C691	C69	0.392500	0.087220	0.594900
C701	C70	0.877200	0.078420	0.560300
C711	C71	0.836100	0.294140	0.157060
C721	C72	0.959200	0.323290	0.146320
C731	C73	0.973500	0.383300	0.107190
C741	C74	0.864200	0.414080	0.078230
C751	C75	0.741300	0.385910	0.089280
C761	C76	0.726800	0.325630	0.128710
C771	C77	0.887200	0.226150	0.255460
C781	C78	0.772200	0.049300	0.325420
C791	C79	0.775400	0.108600	0.284820
C801	C80	0.875300	0.156910	0.292100
C811	C81	0.969500	0.143060	0.339230
C821	C82	0.958600	0.082680	0.377570
C831	C83	0.107500	0.412780	0.094900
C841	C84	0.622800	0.421580	0.060300
C851	C85	0.336100	0.794140	0.342940
C861	C86	0.459200	0.823290	0.353680
C871	C87	0.473500	0.883300	0.392810
C881	C88	0.364200	0.914080	0.421770
C891	C89	0.241300	0.885910	0.410720
C901	C90	0.226800	0.825630	0.371290
C911	C91	0.387200	0.726150	0.244540
C921	C92	0.272200	0.549300	0.174580
C931	C93	0.275400	0.608600	0.215180
C941	C94	0.375300	0.656910	0.207900
C951	C95	0.469500	0.643060	0.160770
C961	C96	0.458600	0.582680	0.122430
C971	C97	0.607500	0.912780	0.405100
C981	C98	0.122800	0.921580	0.439700
C991	C99	0.163900	0.705860	0.842940
C1001	C100	0.040800	0.676710	0.853680
C1011	C101	0.026500	0.616700	0.892810
C1021	C102	0.135800	0.585920	0.921770
C1031	C103	0.258700	0.614090	0.910720
C1041	C104	0.273200	0.674370	0.871290
C1051	C105	0.112800	0.773850	0.744540
C1061	C106	0.227800	0.950700	0.674580
C1071	C107	0.224600	0.891400	0.715180
C1081	C108	0.124700	0.843090	0.707900
C1091	C109	0.030500	0.856940	0.660770
C1101	C110	0.041400	0.917320	0.622430
C1111	C111	0.892500	0.587220	0.905100
C1121	C112	0.377200	0.578420	0.939700
N91	N9	0.676800	0.268290	0.696790
N101	N10	0.638900	0.463470	0.872040
N111	N11	0.823200	0.231710	0.196790
N121	N12	0.861100	0.036530	0.372040
N131	N13	0.323200	0.731710	0.303210
N141	N14	0.361100	0.536530	0.127960
N151	N15	0.176800	0.768290	0.803210
N161	N16	0.138900	0.963470	0.627960
O211	O21	0.546900	0.225730	0.778720
O221	O22	0.293620	0.118140	0.619160
O231	O23	0.381400	0.033330	0.558670
O241	O24	0.987980	0.103540	0.574220
O251	O25	0.860430	0.024330	0.525350
O261	O26	0.953100	0.274270	0.278720
O271	O27	0.206380	0.381860	0.119160
O281	O28	0.118600	0.466670	0.058670
O291	O29	0.512020	0.396460	0.074220
O301	O30	0.639570	0.475670	0.025350
O311	O31	0.453100	0.774270	0.221280
O321	O32	0.706380	0.881860	0.380840
O331	O33	0.618600	0.966670	0.441330
O341	O34	0.012020	0.896460	0.425780
O351	O35	0.139570	0.975670	0.474650
O361	O36	0.046900	0.725730	0.721280
O371	O37	0.793620	0.618140	0.880840
O381	O38	0.881400	0.533330	0.941330
O391	O39	0.487980	0.603540	0.925780
O401	O40	0.360430	0.524330	0.974650
