data_DUYRIZ_clean_PM
_symmetry_space_group_name_H-M	'P1'
_cell_length_a	20.489000
_cell_length_b	23.472000
_cell_length_c	29.669000
_cell_angle_alpha	90.000000
_cell_angle_beta	90.000000
_cell_angle_gamma	90.000000
_symmetry_Int_Tables_number 1

loop_
_symmetry_equiv_pos_as_xyz
'x,y,z'

loop_
_atom_site_label
_atom_site_type_symbol
_atom_site_fract_x
_atom_site_fract_y
_atom_site_fract_z
Ce11	Ce1	0.592760	0.029490	0.683960
Ce21	Ce2	0.378740	0.193890	0.449030
Ce31	Ce3	0.494860	0.269900	0.646030
Ce41	Ce4	0.407240	0.470510	0.183960
Ce51	Ce5	0.621260	0.306110	0.949030
Ce61	Ce6	0.505140	0.230100	0.146030
Ce71	Ce7	0.092760	0.970510	0.816040
Ce81	Ce8	0.878740	0.806110	0.050970
Ce91	Ce9	0.994860	0.730100	0.853970
Ce101	Ce10	0.907240	0.529490	0.316040
Ce111	Ce11	0.121260	0.693890	0.550970
Ce121	Ce12	0.005140	0.769900	0.353970
Ce131	Ce13	0.407240	0.970510	0.316040
Ce141	Ce14	0.621260	0.806110	0.550970
Ce151	Ce15	0.505140	0.730100	0.353970
Ce161	Ce16	0.592760	0.529490	0.816040
Ce171	Ce17	0.378740	0.693890	0.050970
Ce181	Ce18	0.494860	0.769900	0.853970
Ce191	Ce19	0.907240	0.029490	0.183960
Ce201	Ce20	0.121260	0.193890	0.949030
Ce211	Ce21	0.005140	0.269900	0.146030
Ce221	Ce22	0.092760	0.470510	0.683960
Ce231	Ce23	0.878740	0.306110	0.449030
Ce241	Ce24	0.994860	0.230100	0.646030
H11	H1	0.136700	0.261000	0.520500
H21	H2	0.177800	0.296600	0.590900
H31	H3	0.847700	0.075200	0.631300
H41	H4	0.779800	0.926800	0.581700
H51	H5	0.393700	0.150200	0.767900
H61	H6	0.400900	0.991300	0.812000
H71	H7	0.867700	0.988600	0.593400
H81	H8	0.353700	0.080800	0.812300
H91	H9	0.287300	0.290800	0.606400
H101	H10	0.863300	0.239000	0.020500
H111	H11	0.822200	0.203400	0.090900
H121	H12	0.152300	0.424800	0.131300
H131	H13	0.220200	0.573200	0.081700
H141	H14	0.606300	0.349800	0.267900
H151	H15	0.599100	0.508700	0.312000
H161	H16	0.132300	0.511400	0.093400
H171	H17	0.646300	0.419200	0.312300
H181	H18	0.712700	0.209200	0.106400
H191	H19	0.636700	0.739000	0.979500
H201	H20	0.677800	0.703400	0.909100
H211	H21	0.347700	0.924800	0.868700
H221	H22	0.279800	0.073200	0.918300
H231	H23	0.893700	0.849800	0.732100
H241	H24	0.900900	0.008700	0.688000
H251	H25	0.367700	0.011400	0.906600
H261	H26	0.853700	0.919200	0.687700
H271	H27	0.787300	0.709200	0.893600
H281	H28	0.363300	0.761000	0.479500
H291	H29	0.322200	0.796600	0.409100
H301	H30	0.652300	0.575200	0.368700
H311	H31	0.720200	0.426800	0.418300
H321	H32	0.106300	0.650200	0.232100
H331	H33	0.099100	0.491300	0.188000
H341	H34	0.632300	0.488600	0.406600
H351	H35	0.146300	0.580800	0.187700
H361	H36	0.212700	0.790800	0.393600
H371	H37	0.863300	0.739000	0.479500
H381	H38	0.822200	0.703400	0.409100
H391	H39	0.152300	0.924800	0.368700
H401	H40	0.220200	0.073200	0.418300
H411	H41	0.606300	0.849800	0.232100
H421	H42	0.599100	0.008700	0.188000
H431	H43	0.132300	0.011400	0.406600
H441	H44	0.646300	0.919200	0.187700
H451	H45	0.712700	0.709200	0.393600
H461	H46	0.136700	0.761000	0.979500
H471	H47	0.177800	0.796600	0.909100
H481	H48	0.847700	0.575200	0.868700
H491	H49	0.779800	0.426800	0.918300
H501	H50	0.393700	0.650200	0.732100
H511	H51	0.400900	0.491300	0.688000
H521	H52	0.867700	0.488600	0.906600
H531	H53	0.353700	0.580800	0.687700
H541	H54	0.287300	0.790800	0.893600
H551	H55	0.363300	0.261000	0.020500
H561	H56	0.322200	0.296600	0.090900
H571	H57	0.652300	0.075200	0.131300
H581	H58	0.720200	0.926800	0.081700
H591	H59	0.106300	0.150200	0.267900
H601	H60	0.099100	0.991300	0.312000
H611	H61	0.632300	0.988600	0.093400
H621	H62	0.146300	0.080800	0.312300
H631	H63	0.212700	0.290800	0.106400
H641	H64	0.636700	0.239000	0.520500
H651	H65	0.677800	0.203400	0.590900
H661	H66	0.347700	0.424800	0.631300
H671	H67	0.279800	0.573200	0.581700
H681	H68	0.893700	0.349800	0.767900
H691	H69	0.900900	0.508700	0.812000
H701	H70	0.367700	0.511400	0.593400
H711	H71	0.853700	0.419200	0.812300
H721	H72	0.787300	0.209200	0.606400
W11	W1	0.629670	0.402440	0.632160
W21	W2	0.565640	0.523080	0.599810
W31	W3	0.402940	0.010070	0.629870
W41	W4	0.319360	0.360090	0.425310
W51	W5	0.161540	0.370790	0.407930
W61	W6	0.650940	0.445540	0.528810
W71	W7	0.650520	0.098860	0.806930
W81	W8	0.808070	0.579160	0.708690
W91	W9	0.327020	0.077020	0.548780
W101	W10	0.707380	0.475560	0.726200
W111	W11	0.230330	0.437810	0.493440
W121	W12	0.806530	0.381990	0.652870
W131	W13	0.370330	0.097560	0.132160
W141	W14	0.434360	0.976920	0.099810
W151	W15	0.597060	0.489930	0.129870
W161	W16	0.680640	0.139910	0.925310
W171	W17	0.838460	0.129210	0.907930
W181	W18	0.349060	0.054460	0.028810
W191	W19	0.349480	0.401140	0.306930
W201	W20	0.191930	0.920840	0.208690
W211	W21	0.672980	0.422980	0.048780
W221	W22	0.292620	0.024440	0.226200
W231	W23	0.769670	0.062190	0.993440
W241	W24	0.193470	0.118010	0.152870
W251	W25	0.129670	0.597560	0.867840
W261	W26	0.065640	0.476920	0.900190
W271	W27	0.902940	0.989930	0.870130
W281	W28	0.819360	0.639910	0.074690
W291	W29	0.661540	0.629210	0.092070
W301	W30	0.150940	0.554460	0.971190
W311	W31	0.150520	0.901140	0.693070
W321	W32	0.308070	0.420840	0.791310
W331	W33	0.827020	0.922980	0.951220
W341	W34	0.207380	0.524440	0.773800
W351	W35	0.730330	0.562190	0.006560
W361	W36	0.306530	0.618010	0.847130
W371	W37	0.870330	0.902440	0.367840
W381	W38	0.934360	0.023080	0.400190
W391	W39	0.097060	0.510070	0.370130
W401	W40	0.180640	0.860090	0.574690
W411	W41	0.338460	0.870790	0.592070
W421	W42	0.849060	0.945540	0.471190
W431	W43	0.849480	0.598860	0.193070
W441	W44	0.691930	0.079160	0.291310
W451	W45	0.172980	0.577020	0.451220
W461	W46	0.792620	0.975560	0.273800
W471	W47	0.269670	0.937810	0.506560
W481	W48	0.693470	0.881990	0.347130
W491	W49	0.370330	0.597560	0.367840
W501	W50	0.434360	0.476920	0.400190
W511	W51	0.597060	0.989930	0.370130
W521	W52	0.680640	0.639910	0.574690
W531	W53	0.838460	0.629210	0.592070
W541	W54	0.349060	0.554460	0.471190
W551	W55	0.349480	0.901140	0.193070
W561	W56	0.191930	0.420840	0.291310
W571	W57	0.672980	0.922980	0.451220
W581	W58	0.292620	0.524440	0.273800
W591	W59	0.769670	0.562190	0.506560
W601	W60	0.193470	0.618010	0.347130
W611	W61	0.629670	0.902440	0.867840
W621	W62	0.565640	0.023080	0.900190
W631	W63	0.402940	0.510070	0.870130
W641	W64	0.319360	0.860090	0.074690
W651	W65	0.161540	0.870790	0.092070
W661	W66	0.650940	0.945540	0.971190
W671	W67	0.650520	0.598860	0.693070
W681	W68	0.808070	0.079160	0.791310
W691	W69	0.327020	0.577020	0.951220
W701	W70	0.707380	0.975560	0.773800
W711	W71	0.230330	0.937810	0.006560
W721	W72	0.806530	0.881990	0.847130
W731	W73	0.870330	0.402440	0.132160
W741	W74	0.934360	0.523080	0.099810
W751	W75	0.097060	0.010070	0.129870
W761	W76	0.180640	0.360090	0.925310
W771	W77	0.338460	0.370790	0.907930
W781	W78	0.849060	0.445540	0.028810
W791	W79	0.849480	0.098860	0.306930
W801	W80	0.691930	0.579160	0.208690
W811	W81	0.172980	0.077020	0.048780
W821	W82	0.792620	0.475560	0.226200
W831	W83	0.269670	0.437810	0.993440
W841	W84	0.693470	0.381990	0.152870
W851	W85	0.129670	0.097560	0.632160
W861	W86	0.065640	0.976920	0.599810
W871	W87	0.902940	0.489930	0.629870
W881	W88	0.819360	0.139910	0.425310
W891	W89	0.661540	0.129210	0.407930
W901	W90	0.150940	0.054460	0.528810
W911	W91	0.150520	0.401140	0.806930
W921	W92	0.308070	0.920840	0.708690
W931	W93	0.827020	0.422980	0.548780
W941	W94	0.207380	0.024440	0.726200
W951	W95	0.730330	0.062190	0.493440
W961	W96	0.306530	0.118010	0.652870
C11	C1	0.657700	0.930100	0.617000
C21	C2	0.464600	0.102500	0.740900
C31	C3	0.715700	0.969700	0.621000
C41	C4	0.180800	0.259400	0.527700
C51	C5	0.206000	0.280700	0.569800
C61	C6	0.752900	0.055900	0.647400
C71	C7	0.815200	0.047800	0.628400
C81	C8	0.228900	0.235600	0.497600
C91	C9	0.774800	0.959100	0.599600
C101	C10	0.493900	0.142100	0.708300
C111	C11	0.729800	0.107600	0.670600
C121	C12	0.468600	0.011400	0.766300
C131	C13	0.412500	0.114200	0.767800
C141	C14	0.417100	0.020300	0.793700
C151	C15	0.386400	0.248400	0.553600
C161	C16	0.314800	0.254000	0.546600
C171	C17	0.502000	0.955500	0.758500
C181	C18	0.212100	0.211700	0.452200
C191	C19	0.826600	0.996900	0.605000
C201	C20	0.389400	0.073400	0.793700
C211	C21	0.271400	0.277500	0.579000
C221	C22	0.342300	0.569900	0.117000
C231	C23	0.535400	0.397500	0.240900
C241	C24	0.284300	0.530300	0.121000
C251	C25	0.819200	0.240600	0.027700
C261	C26	0.794000	0.219300	0.069800
C271	C27	0.247100	0.444100	0.147400
C281	C28	0.184800	0.452200	0.128400
C291	C29	0.771100	0.264400	0.997600
C301	C30	0.225200	0.540900	0.099600
C311	C31	0.506100	0.357900	0.208300
C321	C32	0.270200	0.392400	0.170600
C331	C33	0.531400	0.488600	0.266300
C341	C34	0.587500	0.385800	0.267800
C351	C35	0.582900	0.479700	0.293700
C361	C36	0.613600	0.251600	0.053600
C371	C37	0.685200	0.246000	0.046600
C381	C38	0.498000	0.544500	0.258500
C391	C39	0.787900	0.288300	0.952200
C401	C40	0.173400	0.503100	0.105000
C411	C41	0.610600	0.426600	0.293700
C421	C42	0.728600	0.222500	0.079000
C431	C43	0.157700	0.069900	0.883000
C441	C44	0.964600	0.897500	0.759100
C451	C45	0.215700	0.030300	0.879000
C461	C46	0.680800	0.740600	0.972300
C471	C47	0.706000	0.719300	0.930200
C481	C48	0.252900	0.944100	0.852600
C491	C49	0.315200	0.952200	0.871600
C501	C50	0.728900	0.764400	0.002400
C511	C51	0.274800	0.040900	0.900400
C521	C52	0.993900	0.857900	0.791700
C531	C53	0.229800	0.892400	0.829400
C541	C54	0.968600	0.988600	0.733700
C551	C55	0.912500	0.885800	0.732200
C561	C56	0.917100	0.979700	0.706300
C571	C57	0.886400	0.751600	0.946400
C581	C58	0.814800	0.746000	0.953400
C591	C59	0.002000	0.044500	0.741500
C601	C60	0.712100	0.788300	0.047800
C611	C61	0.326600	0.003100	0.895000
C621	C62	0.889400	0.926600	0.706300
C631	C63	0.771400	0.722500	0.921000
C641	C64	0.842300	0.430100	0.383000
C651	C65	0.035400	0.602500	0.259100
C661	C66	0.784300	0.469700	0.379000
C671	C67	0.319200	0.759400	0.472300
C681	C68	0.294000	0.780700	0.430200
C691	C69	0.747100	0.555900	0.352600
C701	C70	0.684800	0.547800	0.371600
C711	C71	0.271100	0.735600	0.502400
C721	C72	0.725200	0.459100	0.400400
C731	C73	0.006100	0.642100	0.291700
C741	C74	0.770200	0.607600	0.329400
C751	C75	0.031400	0.511400	0.233700
C761	C76	0.087500	0.614200	0.232200
C771	C77	0.082900	0.520300	0.206300
C781	C78	0.113600	0.748400	0.446400
C791	C79	0.185200	0.754000	0.453400
C801	C80	0.998000	0.455500	0.241500
C811	C81	0.287900	0.711700	0.547800
C821	C82	0.673400	0.496900	0.395000
C831	C83	0.110600	0.573400	0.206300
C841	C84	0.228600	0.777500	0.421000
C851	C85	0.342300	0.069900	0.383000
C861	C86	0.535400	0.897500	0.259100
C871	C87	0.284300	0.030300	0.379000
C881	C88	0.819200	0.740600	0.472300
C891	C89	0.794000	0.719300	0.430200
C901	C90	0.247100	0.944100	0.352600
C911	C91	0.184800	0.952200	0.371600
C921	C92	0.771100	0.764400	0.502400
C931	C93	0.225200	0.040900	0.400400
C941	C94	0.506100	0.857900	0.291700
C951	C95	0.270200	0.892400	0.329400
C961	C96	0.531400	0.988600	0.233700
C971	C97	0.587500	0.885800	0.232200
C981	C98	0.582900	0.979700	0.206300
C991	C99	0.613600	0.751600	0.446400
C1001	C100	0.685200	0.746000	0.453400
C1011	C101	0.498000	0.044500	0.241500
C1021	C102	0.787900	0.788300	0.547800
C1031	C103	0.173400	0.003100	0.395000
C1041	C104	0.610600	0.926600	0.206300
C1051	C105	0.728600	0.722500	0.421000
C1061	C106	0.657700	0.430100	0.883000
C1071	C107	0.464600	0.602500	0.759100
C1081	C108	0.715700	0.469700	0.879000
C1091	C109	0.180800	0.759400	0.972300
C1101	C110	0.206000	0.780700	0.930200
C1111	C111	0.752900	0.555900	0.852600
C1121	C112	0.815200	0.547800	0.871600
C1131	C113	0.228900	0.735600	0.002400
C1141	C114	0.774800	0.459100	0.900400
C1151	C115	0.493900	0.642100	0.791700
C1161	C116	0.729800	0.607600	0.829400
C1171	C117	0.468600	0.511400	0.733700
C1181	C118	0.412500	0.614200	0.732200
C1191	C119	0.417100	0.520300	0.706300
C1201	C120	0.386400	0.748400	0.946400
C1211	C121	0.314800	0.754000	0.953400
C1221	C122	0.502000	0.455500	0.741500
C1231	C123	0.212100	0.711700	0.047800
C1241	C124	0.826600	0.496900	0.895000
C1251	C125	0.389400	0.573400	0.706300
C1261	C126	0.271400	0.777500	0.921000
C1271	C127	0.842300	0.930100	0.117000
C1281	C128	0.035400	0.102500	0.240900
C1291	C129	0.784300	0.969700	0.121000
C1301	C130	0.319200	0.259400	0.027700
C1311	C131	0.294000	0.280700	0.069800
C1321	C132	0.747100	0.055900	0.147400
C1331	C133	0.684800	0.047800	0.128400
C1341	C134	0.271100	0.235600	0.997600
C1351	C135	0.725200	0.959100	0.099600
C1361	C136	0.006100	0.142100	0.208300
C1371	C137	0.770200	0.107600	0.170600
C1381	C138	0.031400	0.011400	0.266300
C1391	C139	0.087500	0.114200	0.267800
C1401	C140	0.082900	0.020300	0.293700
C1411	C141	0.113600	0.248400	0.053600
C1421	C142	0.185200	0.254000	0.046600
C1431	C143	0.998000	0.955500	0.258500
C1441	C144	0.287900	0.211700	0.952200
C1451	C145	0.673400	0.996900	0.105000
C1461	C146	0.110600	0.073400	0.293700
C1471	C147	0.228600	0.277500	0.079000
C1481	C148	0.157700	0.569900	0.617000
C1491	C149	0.964600	0.397500	0.740900
C1501	C150	0.215700	0.530300	0.621000
C1511	C151	0.680800	0.240600	0.527700
C1521	C152	0.706000	0.219300	0.569800
C1531	C153	0.252900	0.444100	0.647400
C1541	C154	0.315200	0.452200	0.628400
C1551	C155	0.728900	0.264400	0.497600
C1561	C156	0.274800	0.540900	0.599600
C1571	C157	0.993900	0.357900	0.708300
C1581	C158	0.229800	0.392400	0.670600
C1591	C159	0.968600	0.488600	0.766300
C1601	C160	0.912500	0.385800	0.767800
C1611	C161	0.917100	0.479700	0.793700
C1621	C162	0.886400	0.251600	0.553600
C1631	C163	0.814800	0.246000	0.546600
C1641	C164	0.002000	0.544500	0.758500
C1651	C165	0.712100	0.288300	0.452200
C1661	C166	0.326600	0.503100	0.605000
C1671	C167	0.889400	0.426600	0.793700
C1681	C168	0.771400	0.222500	0.579000
N11	N1	0.705000	0.015200	0.644600
N21	N2	0.494900	0.050200	0.739600
N31	N3	0.293600	0.232100	0.507500
N41	N4	0.295000	0.484800	0.144600
N51	N5	0.505100	0.449800	0.239600
N61	N6	0.706400	0.267900	0.007500
N71	N7	0.205000	0.984800	0.855400
N81	N8	0.994900	0.949800	0.760400
N91	N9	0.793600	0.767900	0.992500
N101	N10	0.795000	0.515200	0.355400
N111	N11	0.005100	0.550200	0.260400
N121	N12	0.206400	0.732100	0.492500
N131	N13	0.295000	0.984800	0.355400
N141	N14	0.505100	0.949800	0.260400
N151	N15	0.706400	0.767900	0.492500
N161	N16	0.705000	0.515200	0.855400
N171	N17	0.494900	0.550200	0.760400
N181	N18	0.293600	0.732100	0.992500
N191	N19	0.795000	0.015200	0.144600
N201	N20	0.005100	0.050200	0.239600
N211	N21	0.206400	0.232100	0.007500
N221	N22	0.205000	0.484800	0.644600
N231	N23	0.994900	0.449800	0.739600
N241	N24	0.793600	0.267900	0.507500
O11	O1	0.161500	0.390000	0.471200
O21	O2	0.247500	0.428900	0.419400
O31	O3	0.389200	0.941800	0.601600
O41	O4	0.540500	0.124100	0.683600
O51	O5	0.644100	0.442400	0.688400
O61	O6	0.327700	0.138600	0.592600
O71	O7	0.642600	0.039400	0.762300
O81	O8	0.661900	0.478400	0.599900
O91	O9	0.685500	0.945600	0.723900
O101	O10	0.327700	0.361300	0.362000
O111	O11	0.404600	0.263900	0.593200
O121	O12	0.472200	0.192600	0.703500
O131	O13	0.233700	0.322700	0.416800
O141	O14	0.769200	0.425100	0.703000
O151	O15	0.411900	0.051400	0.575800
O161	O16	0.775700	0.524700	0.750600
O171	O17	0.615100	0.586700	0.571600
O181	O18	0.180300	0.376200	0.345800
O191	O19	0.729900	0.126800	0.780200
O201	O20	0.549500	0.452400	0.626600
O211	O21	0.674600	0.111300	0.684500
O221	O22	0.291400	0.378000	0.486300
O231	O23	0.359300	0.117100	0.504700
O241	O24	0.697200	0.509800	0.507600
O251	O25	0.483800	0.006700	0.645200
O261	O26	0.739100	0.413700	0.537900
O271	O27	0.713900	0.375300	0.635700
O281	O28	0.321500	0.004500	0.520500
O291	O29	0.364700	0.974200	0.682600
O301	O30	0.360200	0.298600	0.437300
O311	O31	0.584200	0.344100	0.649800
O321	O32	0.665300	0.887300	0.592800
O331	O33	0.254400	0.195600	0.427400
O341	O34	0.607700	0.944000	0.637300
O351	O35	0.386700	0.083400	0.662100
O361	O36	0.591900	0.557300	0.655000
O371	O37	0.303600	0.036000	0.612700
O381	O38	0.574200	0.487800	0.540100
O391	O39	0.542100	0.946200	0.728400
O401	O40	0.724200	0.035000	0.825900
O411	O41	0.621100	0.384400	0.568600
O421	O42	0.772300	0.148500	0.675100
O431	O43	0.481800	0.914200	0.786400
O441	O44	0.147300	0.210500	0.445000
O451	O45	0.419800	0.231200	0.522300
O461	O46	0.838500	0.110000	0.971200
O471	O47	0.752500	0.071100	0.919400
O481	O48	0.610800	0.558200	0.101600
O491	O49	0.459500	0.375900	0.183600
O501	O50	0.355900	0.057600	0.188400
O511	O51	0.672300	0.361400	0.092600
O521	O52	0.357400	0.460600	0.262300
O531	O53	0.338100	0.021600	0.099900
O541	O54	0.314500	0.554400	0.223900
O551	O55	0.672300	0.138700	0.862000
O561	O56	0.595400	0.236100	0.093200
O571	O57	0.527800	0.307400	0.203500
O581	O58	0.766300	0.177300	0.916800
O591	O59	0.230800	0.074900	0.203000
O601	O60	0.588100	0.448600	0.075800
O611	O61	0.224300	0.975300	0.250600
O621	O62	0.384900	0.913300	0.071600
O631	O63	0.819700	0.123800	0.845800
O641	O64	0.270100	0.373200	0.280200
O651	O65	0.450500	0.047600	0.126600
O661	O66	0.325400	0.388700	0.184500
O671	O67	0.708600	0.122000	0.986300
O681	O68	0.640700	0.382900	0.004700
O691	O69	0.302800	0.990200	0.007600
O701	O70	0.516200	0.493300	0.145200
O711	O71	0.260900	0.086300	0.037900
O721	O72	0.286100	0.124700	0.135700
O731	O73	0.678500	0.495500	0.020500
O741	O74	0.635300	0.525800	0.182600
O751	O75	0.639800	0.201400	0.937300
O761	O76	0.415800	0.155900	0.149800
O771	O77	0.334700	0.612700	0.092800
O781	O78	0.745600	0.304400	0.927400
O791	O79	0.392300	0.556000	0.137300
O801	O80	0.613300	0.416600	0.162100
O811	O81	0.408100	0.942700	0.155000
O821	O82	0.696400	0.464000	0.112700
O831	O83	0.425800	0.012200	0.040100
O841	O84	0.457900	0.553800	0.228400
O851	O85	0.275800	0.465000	0.325900
O861	O86	0.378900	0.115600	0.068600
O871	O87	0.227700	0.351500	0.175100
O881	O88	0.518200	0.585800	0.286400
O891	O89	0.852700	0.289500	0.945000
O901	O90	0.580200	0.268800	0.022300
O911	O91	0.661500	0.610000	0.028800
O921	O92	0.747500	0.571100	0.080600
O931	O93	0.889200	0.058200	0.898400
O941	O94	0.040500	0.875900	0.816400
O951	O95	0.144100	0.557600	0.811600
O961	O96	0.827700	0.861400	0.907400
O971	O97	0.142600	0.960600	0.737700
O981	O98	0.161900	0.521600	0.900100
O991	O99	0.185500	0.054400	0.776100
O1001	O100	0.827700	0.638700	0.138000
O1011	O101	0.904600	0.736100	0.906800
O1021	O102	0.972200	0.807400	0.796500
O1031	O103	0.733700	0.677300	0.083200
O1041	O104	0.269200	0.574900	0.797000
O1051	O105	0.911900	0.948600	0.924200
O1061	O106	0.275700	0.475300	0.749400
O1071	O107	0.115100	0.413300	0.928400
O1081	O108	0.680300	0.623800	0.154200
O1091	O109	0.229900	0.873200	0.719800
O1101	O110	0.049500	0.547600	0.873400
O1111	O111	0.174600	0.888700	0.815500
O1121	O112	0.791400	0.622000	0.013700
O1131	O113	0.859300	0.882900	0.995300
O1141	O114	0.197200	0.490200	0.992400
O1151	O115	0.983800	0.993300	0.854800
O1161	O116	0.239100	0.586300	0.962100
O1171	O117	0.213900	0.624700	0.864300
O1181	O118	0.821500	0.995500	0.979500
O1191	O119	0.864700	0.025800	0.817400
O1201	O120	0.860200	0.701400	0.062700
O1211	O121	0.084200	0.655900	0.850200
O1221	O122	0.165300	0.112700	0.907200
O1231	O123	0.754400	0.804400	0.072600
O1241	O124	0.107700	0.056000	0.862700
O1251	O125	0.886700	0.916600	0.837900
O1261	O126	0.091900	0.442700	0.845000
O1271	O127	0.803600	0.964000	0.887300
O1281	O128	0.074200	0.512200	0.959900
O1291	O129	0.042100	0.053800	0.771600
O1301	O130	0.224200	0.965000	0.674100
O1311	O131	0.121100	0.615600	0.931400
O1321	O132	0.272300	0.851500	0.824900
O1331	O133	0.981800	0.085800	0.713600
O1341	O134	0.647300	0.789500	0.055000
O1351	O135	0.919800	0.768800	0.977700
O1361	O136	0.338500	0.890000	0.528800
O1371	O137	0.252500	0.928900	0.580600
O1381	O138	0.110800	0.441800	0.398400
O1391	O139	0.959500	0.624100	0.316400
O1401	O140	0.855900	0.942400	0.311600
O1411	O141	0.172300	0.638600	0.407400
O1421	O142	0.857400	0.539400	0.237700
O1431	O143	0.838100	0.978400	0.400100
O1441	O144	0.814500	0.445600	0.276100
O1451	O145	0.172300	0.861300	0.638000
O1461	O146	0.095400	0.763900	0.406800
O1471	O147	0.027800	0.692600	0.296500
O1481	O148	0.266300	0.822700	0.583200
O1491	O149	0.730800	0.925100	0.297000
O1501	O150	0.088100	0.551400	0.424200
O1511	O151	0.724300	0.024700	0.249400
O1521	O152	0.884900	0.086700	0.428400
O1531	O153	0.319700	0.876200	0.654200
O1541	O154	0.770100	0.626800	0.219800
O1551	O155	0.950500	0.952400	0.373400
O1561	O156	0.825400	0.611300	0.315500
O1571	O157	0.208600	0.878000	0.513700
O1581	O158	0.140700	0.617100	0.495300
O1591	O159	0.802800	0.009800	0.492400
O1601	O160	0.016200	0.506700	0.354800
O1611	O161	0.760900	0.913700	0.462100
O1621	O162	0.786100	0.875300	0.364300
O1631	O163	0.178500	0.504500	0.479500
O1641	O164	0.135300	0.474200	0.317400
O1651	O165	0.139800	0.798600	0.562700
O1661	O166	0.915800	0.844100	0.350200
O1671	O167	0.834700	0.387300	0.407200
O1681	O168	0.245600	0.695600	0.572600
O1691	O169	0.892300	0.444000	0.362700
O1701	O170	0.113300	0.583400	0.337900
O1711	O171	0.908100	0.057300	0.345000
O1721	O172	0.196400	0.536000	0.387300
O1731	O173	0.925800	0.987800	0.459900
O1741	O174	0.957900	0.446200	0.271600
O1751	O175	0.775800	0.535000	0.174100
O1761	O176	0.878900	0.884400	0.431400
O1771	O177	0.727700	0.648500	0.324900
O1781	O178	0.018200	0.414200	0.213600
O1791	O179	0.352700	0.710500	0.555000
O1801	O180	0.080200	0.731200	0.477700
O1811	O181	0.838500	0.610000	0.528800
O1821	O182	0.752500	0.571100	0.580600
O1831	O183	0.610800	0.058200	0.398400
O1841	O184	0.459500	0.875900	0.316400
O1851	O185	0.355900	0.557600	0.311600
O1861	O186	0.672300	0.861400	0.407400
O1871	O187	0.357400	0.960600	0.237700
O1881	O188	0.338100	0.521600	0.400100
O1891	O189	0.314500	0.054400	0.276100
O1901	O190	0.672300	0.638700	0.638000
O1911	O191	0.595400	0.736100	0.406800
O1921	O192	0.527800	0.807400	0.296500
O1931	O193	0.766300	0.677300	0.583200
O1941	O194	0.230800	0.574900	0.297000
O1951	O195	0.588100	0.948600	0.424200
O1961	O196	0.224300	0.475300	0.249400
O1971	O197	0.384900	0.413300	0.428400
O1981	O198	0.819700	0.623800	0.654200
O1991	O199	0.270100	0.873200	0.219800
O2001	O200	0.450500	0.547600	0.373400
O2011	O201	0.325400	0.888700	0.315500
O2021	O202	0.708600	0.622000	0.513700
O2031	O203	0.640700	0.882900	0.495300
O2041	O204	0.302800	0.490200	0.492400
O2051	O205	0.516200	0.993300	0.354800
O2061	O206	0.260900	0.586300	0.462100
O2071	O207	0.286100	0.624700	0.364300
O2081	O208	0.678500	0.995500	0.479500
O2091	O209	0.635300	0.025800	0.317400
O2101	O210	0.639800	0.701400	0.562700
O2111	O211	0.415800	0.655900	0.350200
O2121	O212	0.334700	0.112700	0.407200
O2131	O213	0.745600	0.804400	0.572600
O2141	O214	0.392300	0.056000	0.362700
O2151	O215	0.613300	0.916600	0.337900
O2161	O216	0.408100	0.442700	0.345000
O2171	O217	0.696400	0.964000	0.387300
O2181	O218	0.425800	0.512200	0.459900
O2191	O219	0.457900	0.053800	0.271600
O2201	O220	0.275800	0.965000	0.174100
O2211	O221	0.378900	0.615600	0.431400
O2221	O222	0.227700	0.851500	0.324900
O2231	O223	0.518200	0.085800	0.213600
O2241	O224	0.852700	0.789500	0.555000
O2251	O225	0.580200	0.768800	0.477700
O2261	O226	0.161500	0.890000	0.028800
O2271	O227	0.247500	0.928900	0.080600
O2281	O228	0.389200	0.441800	0.898400
O2291	O229	0.540500	0.624100	0.816400
O2301	O230	0.644100	0.942400	0.811600
O2311	O231	0.327700	0.638600	0.907400
O2321	O232	0.642600	0.539400	0.737700
O2331	O233	0.661900	0.978400	0.900100
O2341	O234	0.685500	0.445600	0.776100
O2351	O235	0.327700	0.861300	0.138000
O2361	O236	0.404600	0.763900	0.906800
O2371	O237	0.472200	0.692600	0.796500
O2381	O238	0.233700	0.822700	0.083200
O2391	O239	0.769200	0.925100	0.797000
O2401	O240	0.411900	0.551400	0.924200
O2411	O241	0.775700	0.024700	0.749400
O2421	O242	0.615100	0.086700	0.928400
O2431	O243	0.180300	0.876200	0.154200
O2441	O244	0.729900	0.626800	0.719800
O2451	O245	0.549500	0.952400	0.873400
O2461	O246	0.674600	0.611300	0.815500
O2471	O247	0.291400	0.878000	0.013700
O2481	O248	0.359300	0.617100	0.995300
O2491	O249	0.697200	0.009800	0.992400
O2501	O250	0.483800	0.506700	0.854800
O2511	O251	0.739100	0.913700	0.962100
O2521	O252	0.713900	0.875300	0.864300
O2531	O253	0.321500	0.504500	0.979500
O2541	O254	0.364700	0.474200	0.817400
O2551	O255	0.360200	0.798600	0.062700
O2561	O256	0.584200	0.844100	0.850200
O2571	O257	0.665300	0.387300	0.907200
O2581	O258	0.254400	0.695600	0.072600
O2591	O259	0.607700	0.444000	0.862700
O2601	O260	0.386700	0.583400	0.837900
O2611	O261	0.591900	0.057300	0.845000
O2621	O262	0.303600	0.536000	0.887300
O2631	O263	0.574200	0.987800	0.959900
O2641	O264	0.542100	0.446200	0.771600
O2651	O265	0.724200	0.535000	0.674100
O2661	O266	0.621100	0.884400	0.931400
O2671	O267	0.772300	0.648500	0.824900
O2681	O268	0.481800	0.414200	0.713600
O2691	O269	0.147300	0.710500	0.055000
O2701	O270	0.419800	0.731200	0.977700
O2711	O271	0.338500	0.390000	0.971200
O2721	O272	0.252500	0.428900	0.919400
O2731	O273	0.110800	0.941800	0.101600
O2741	O274	0.959500	0.124100	0.183600
O2751	O275	0.855900	0.442400	0.188400
O2761	O276	0.172300	0.138600	0.092600
O2771	O277	0.857400	0.039400	0.262300
O2781	O278	0.838100	0.478400	0.099900
O2791	O279	0.814500	0.945600	0.223900
O2801	O280	0.172300	0.361300	0.862000
O2811	O281	0.095400	0.263900	0.093200
O2821	O282	0.027800	0.192600	0.203500
O2831	O283	0.266300	0.322700	0.916800
O2841	O284	0.730800	0.425100	0.203000
O2851	O285	0.088100	0.051400	0.075800
O2861	O286	0.724300	0.524700	0.250600
O2871	O287	0.884900	0.586700	0.071600
O2881	O288	0.319700	0.376200	0.845800
O2891	O289	0.770100	0.126800	0.280200
O2901	O290	0.950500	0.452400	0.126600
O2911	O291	0.825400	0.111300	0.184500
O2921	O292	0.208600	0.378000	0.986300
O2931	O293	0.140700	0.117100	0.004700
O2941	O294	0.802800	0.509800	0.007600
O2951	O295	0.016200	0.006700	0.145200
O2961	O296	0.760900	0.413700	0.037900
O2971	O297	0.786100	0.375300	0.135700
O2981	O298	0.178500	0.004500	0.020500
O2991	O299	0.135300	0.974200	0.182600
O3001	O300	0.139800	0.298600	0.937300
O3011	O301	0.915800	0.344100	0.149800
O3021	O302	0.834700	0.887300	0.092800
O3031	O303	0.245600	0.195600	0.927400
O3041	O304	0.892300	0.944000	0.137300
O3051	O305	0.113300	0.083400	0.162100
O3061	O306	0.908100	0.557300	0.155000
O3071	O307	0.196400	0.036000	0.112700
O3081	O308	0.925800	0.487800	0.040100
O3091	O309	0.957900	0.946200	0.228400
O3101	O310	0.775800	0.035000	0.325900
O3111	O311	0.878900	0.384400	0.068600
O3121	O312	0.727700	0.148500	0.175100
O3131	O313	0.018200	0.914200	0.286400
O3141	O314	0.352700	0.210500	0.945000
O3151	O315	0.080200	0.231200	0.022300
O3161	O316	0.661500	0.110000	0.471200
O3171	O317	0.747500	0.071100	0.419400
O3181	O318	0.889200	0.558200	0.601600
O3191	O319	0.040500	0.375900	0.683600
O3201	O320	0.144100	0.057600	0.688400
O3211	O321	0.827700	0.361400	0.592600
O3221	O322	0.142600	0.460600	0.762300
O3231	O323	0.161900	0.021600	0.599900
O3241	O324	0.185500	0.554400	0.723900
O3251	O325	0.827700	0.138700	0.362000
O3261	O326	0.904600	0.236100	0.593200
O3271	O327	0.972200	0.307400	0.703500
O3281	O328	0.733700	0.177300	0.416800
O3291	O329	0.269200	0.074900	0.703000
O3301	O330	0.911900	0.448600	0.575800
O3311	O331	0.275700	0.975300	0.750600
O3321	O332	0.115100	0.913300	0.571600
O3331	O333	0.680300	0.123800	0.345800
O3341	O334	0.229900	0.373200	0.780200
O3351	O335	0.049500	0.047600	0.626600
O3361	O336	0.174600	0.388700	0.684500
O3371	O337	0.791400	0.122000	0.486300
O3381	O338	0.859300	0.382900	0.504700
O3391	O339	0.197200	0.990200	0.507600
O3401	O340	0.983800	0.493300	0.645200
O3411	O341	0.239100	0.086300	0.537900
O3421	O342	0.213900	0.124700	0.635700
O3431	O343	0.821500	0.495500	0.520500
O3441	O344	0.864700	0.525800	0.682600
O3451	O345	0.860200	0.201400	0.437300
O3461	O346	0.084200	0.155900	0.649800
O3471	O347	0.165300	0.612700	0.592800
O3481	O348	0.754400	0.304400	0.427400
O3491	O349	0.107700	0.556000	0.637300
O3501	O350	0.886700	0.416600	0.662100
O3511	O351	0.091900	0.942700	0.655000
O3521	O352	0.803600	0.464000	0.612700
O3531	O353	0.074200	0.012200	0.540100
O3541	O354	0.042100	0.553800	0.728400
O3551	O355	0.224200	0.465000	0.825900
O3561	O356	0.121100	0.115600	0.568600
O3571	O357	0.272300	0.351500	0.675100
O3581	O358	0.981800	0.585800	0.786400
O3591	O359	0.647300	0.289500	0.445000
O3601	O360	0.919800	0.268800	0.522300
