data_DUYROF_clean_PM
_symmetry_space_group_name_H-M	'P1'
_cell_length_a	20.499000
_cell_length_b	23.556000
_cell_length_c	29.823000
_cell_angle_alpha	90.000000
_cell_angle_beta	90.000000
_cell_angle_gamma	90.000000
_symmetry_Int_Tables_number 1

loop_
_symmetry_equiv_pos_as_xyz
'x,y,z'

loop_
_atom_site_label
_atom_site_type_symbol
_atom_site_fract_x
_atom_site_fract_y
_atom_site_fract_z
La11	La1	0.906530	0.528250	0.684690
La21	La2	0.620530	0.305890	0.050530
La31	La3	0.004170	0.269520	0.853080
La41	La4	0.093470	0.971750	0.184690
La51	La5	0.379470	0.194110	0.550530
La61	La6	0.995830	0.230480	0.353080
La71	La7	0.406530	0.471750	0.815310
La81	La8	0.120530	0.694110	0.449470
La91	La9	0.504170	0.730480	0.646920
La101	La10	0.593470	0.028250	0.315310
La111	La11	0.879470	0.805890	0.949470
La121	La12	0.495830	0.769520	0.146920
La131	La13	0.093470	0.471750	0.315310
La141	La14	0.379470	0.694110	0.949470
La151	La15	0.995830	0.730480	0.146920
La161	La16	0.906530	0.028250	0.815310
La171	La17	0.620530	0.805890	0.449470
La181	La18	0.004170	0.769520	0.646920
La191	La19	0.593470	0.528250	0.184690
La201	La20	0.879470	0.305890	0.550530
La211	La21	0.495830	0.269520	0.353080
La221	La22	0.406530	0.971750	0.684690
La231	La23	0.120530	0.194110	0.050530
La241	La24	0.504170	0.230480	0.853080
H11	H1	0.860800	0.246200	0.976000
H21	H2	0.820600	0.200200	0.912400
H31	H3	0.148100	0.579000	0.811100
H41	H4	0.100600	0.486900	0.810500
H51	H5	0.713800	0.212700	0.891100
H61	H6	0.632800	0.491900	0.590000
H71	H7	0.715600	0.424700	0.582200
H81	H8	0.651900	0.573900	0.629400
H91	H9	0.104400	0.650700	0.766100
H101	H10	0.139200	0.253800	0.476000
H111	H11	0.179400	0.299800	0.412400
H121	H12	0.851900	0.921000	0.311100
H131	H13	0.899400	0.013100	0.310500
H141	H14	0.286200	0.287300	0.391100
H151	H15	0.367200	0.008100	0.090000
H161	H16	0.284400	0.075300	0.082200
H171	H17	0.348100	0.926100	0.129400
H181	H18	0.895600	0.849300	0.266100
H191	H19	0.360800	0.753800	0.524000
H201	H20	0.320600	0.799800	0.587600
H211	H21	0.648100	0.421000	0.688900
H221	H22	0.600600	0.513100	0.689500
H231	H23	0.213800	0.787300	0.608900
H241	H24	0.132800	0.508100	0.910000
H251	H25	0.215600	0.575300	0.917800
H261	H26	0.151900	0.426100	0.870600
H271	H27	0.604400	0.349300	0.733900
H281	H28	0.639200	0.746200	0.024000
H291	H29	0.679400	0.700200	0.087600
H301	H30	0.351900	0.079000	0.188900
H311	H31	0.399400	0.986900	0.189500
H321	H32	0.786200	0.712700	0.108900
H331	H33	0.867200	0.991900	0.410000
H341	H34	0.784400	0.924700	0.417800
H351	H35	0.848100	0.073900	0.370600
H361	H36	0.395600	0.150700	0.233900
H371	H37	0.139200	0.753800	0.024000
H381	H38	0.179400	0.799800	0.087600
H391	H39	0.851900	0.421000	0.188900
H401	H40	0.899400	0.513100	0.189500
H411	H41	0.286200	0.787300	0.108900
H421	H42	0.367200	0.508100	0.410000
H431	H43	0.284400	0.575300	0.417800
H441	H44	0.348100	0.426100	0.370600
H451	H45	0.895600	0.349300	0.233900
H461	H46	0.860800	0.746200	0.524000
H471	H47	0.820600	0.700200	0.587600
H481	H48	0.148100	0.079000	0.688900
H491	H49	0.100600	0.986900	0.689500
H501	H50	0.713800	0.712700	0.608900
H511	H51	0.632800	0.991900	0.910000
H521	H52	0.715600	0.924700	0.917800
H531	H53	0.651900	0.073900	0.870600
H541	H54	0.104400	0.150700	0.733900
H551	H55	0.639200	0.246200	0.476000
H561	H56	0.679400	0.200200	0.412400
H571	H57	0.351900	0.579000	0.311100
H581	H58	0.399400	0.486900	0.310500
H591	H59	0.786200	0.212700	0.391100
H601	H60	0.867200	0.491900	0.090000
H611	H61	0.784400	0.424700	0.082200
H621	H62	0.848100	0.573900	0.129400
H631	H63	0.395600	0.650700	0.266100
H641	H64	0.360800	0.253800	0.976000
H651	H65	0.320600	0.299800	0.912400
H661	H66	0.648100	0.921000	0.811100
H671	H67	0.600600	0.013100	0.810500
H681	H68	0.213800	0.287300	0.891100
H691	H69	0.132800	0.008100	0.590000
H701	H70	0.215600	0.075300	0.582200
H711	H71	0.151900	0.926100	0.629400
H721	H72	0.604400	0.849300	0.766100
W11	W1	0.870210	0.403040	0.867490
W21	W2	0.934330	0.523190	0.900720
W31	W3	0.661840	0.629450	0.908440
W41	W4	0.849850	0.599630	0.808160
W51	W5	0.848140	0.445390	0.970730
W61	W6	0.597150	0.491190	0.869550
W71	W7	0.819520	0.639400	0.926140
W81	W8	0.693060	0.580560	0.792070
W91	W9	0.693350	0.383190	0.846470
W101	W10	0.792720	0.477650	0.774820
W111	W11	0.672420	0.423210	0.950390
W121	W12	0.729740	0.561670	0.993320
W131	W13	0.129790	0.096960	0.367490
W141	W14	0.065670	0.976810	0.400720
W151	W15	0.338160	0.870550	0.408440
W161	W16	0.150150	0.900370	0.308160
W171	W17	0.151860	0.054610	0.470730
W181	W18	0.402850	0.008810	0.369550
W191	W19	0.180480	0.860600	0.426140
W201	W20	0.306940	0.919450	0.292070
W211	W21	0.306650	0.116810	0.346470
W221	W22	0.207280	0.022350	0.274820
W231	W23	0.327580	0.076790	0.450390
W241	W24	0.270260	0.938330	0.493320
W251	W25	0.370210	0.596960	0.632510
W261	W26	0.434330	0.476810	0.599290
W271	W27	0.161840	0.370550	0.591560
W281	W28	0.349850	0.400370	0.691840
W291	W29	0.348140	0.554610	0.529270
W301	W30	0.097150	0.508810	0.630450
W311	W31	0.319520	0.360600	0.573860
W321	W32	0.193060	0.419450	0.707930
W331	W33	0.193350	0.616810	0.653530
W341	W34	0.292720	0.522350	0.725180
W351	W35	0.172420	0.576790	0.549610
W361	W36	0.229740	0.438330	0.506680
W371	W37	0.629790	0.903040	0.132510
W381	W38	0.565670	0.023190	0.099290
W391	W39	0.838160	0.129450	0.091560
W401	W40	0.650150	0.099630	0.191840
W411	W41	0.651860	0.945390	0.029280
W421	W42	0.902850	0.991190	0.130450
W431	W43	0.680480	0.139400	0.073860
W441	W44	0.806940	0.080560	0.207930
W451	W45	0.806650	0.883190	0.153530
W461	W46	0.707280	0.977650	0.225180
W471	W47	0.827580	0.923210	0.049610
W481	W48	0.770260	0.061670	0.006680
W491	W49	0.129790	0.596960	0.132510
W501	W50	0.065670	0.476810	0.099290
W511	W51	0.338160	0.370550	0.091560
W521	W52	0.150150	0.400370	0.191840
W531	W53	0.151860	0.554610	0.029280
W541	W54	0.402850	0.508810	0.130450
W551	W55	0.180480	0.360600	0.073860
W561	W56	0.306940	0.419450	0.207930
W571	W57	0.306650	0.616810	0.153530
W581	W58	0.207280	0.522350	0.225180
W591	W59	0.327580	0.576790	0.049610
W601	W60	0.270260	0.438330	0.006680
W611	W61	0.870210	0.903040	0.632510
W621	W62	0.934330	0.023190	0.599290
W631	W63	0.661840	0.129450	0.591560
W641	W64	0.849850	0.099630	0.691840
W651	W65	0.848140	0.945390	0.529270
W661	W66	0.597150	0.991190	0.630450
W671	W67	0.819520	0.139400	0.573860
W681	W68	0.693060	0.080560	0.707930
W691	W69	0.693350	0.883190	0.653530
W701	W70	0.792720	0.977650	0.725180
W711	W71	0.672420	0.923210	0.549610
W721	W72	0.729740	0.061670	0.506680
W731	W73	0.629790	0.403040	0.367490
W741	W74	0.565670	0.523190	0.400720
W751	W75	0.838160	0.629450	0.408440
W761	W76	0.650150	0.599630	0.308160
W771	W77	0.651860	0.445390	0.470730
W781	W78	0.902850	0.491190	0.369550
W791	W79	0.680480	0.639400	0.426140
W801	W80	0.806940	0.580560	0.292070
W811	W81	0.806650	0.383190	0.346470
W821	W82	0.707280	0.477650	0.274820
W831	W83	0.827580	0.423210	0.450390
W841	W84	0.770260	0.561670	0.493320
W851	W85	0.370210	0.096960	0.867490
W861	W86	0.434330	0.976810	0.900720
W871	W87	0.161840	0.870550	0.908440
W881	W88	0.349850	0.900370	0.808160
W891	W89	0.348140	0.054610	0.970730
W901	W90	0.097150	0.008810	0.869550
W911	W91	0.319520	0.860600	0.926140
W921	W92	0.193060	0.919450	0.792070
W931	W93	0.193350	0.116810	0.846470
W941	W94	0.292720	0.022350	0.774820
W951	W95	0.172420	0.076790	0.950390
W961	W96	0.229740	0.938330	0.993320
C11	C1	0.816400	0.243700	0.970200
C21	C2	0.792200	0.219800	0.931100
C31	C3	0.112100	0.571600	0.793000
C41	C4	0.084000	0.516400	0.793180
C51	C5	0.728800	0.224100	0.919100
C61	C6	0.789900	0.286900	0.042000
C71	C7	0.673400	0.498000	0.603100
C81	C8	0.686500	0.247300	0.952320
C91	C9	0.770300	0.263400	0.999440
C101	C10	0.722200	0.457700	0.598680
C111	C11	0.031300	0.509900	0.766120
C121	C12	0.745800	0.555400	0.646810
C131	C13	0.841200	0.429100	0.615860
C141	C14	0.684600	0.546700	0.626680
C151	C15	0.086900	0.614300	0.766500
C161	C16	0.767900	0.607400	0.670470
C171	C17	0.781800	0.468500	0.620000
C181	C18	0.000600	0.455400	0.759960
C191	C19	0.004900	0.642700	0.707570
C201	C20	0.613400	0.251100	0.944160
C211	C21	0.035200	0.599700	0.741240
C221	C22	0.183600	0.256300	0.470200
C231	C23	0.207800	0.280200	0.431100
C241	C24	0.887900	0.928400	0.293000
C251	C25	0.916000	0.983600	0.293180
C261	C26	0.271200	0.275900	0.419100
C271	C27	0.210100	0.213100	0.542000
C281	C28	0.326600	0.002000	0.103100
C291	C29	0.313500	0.252700	0.452320
C301	C30	0.229700	0.236600	0.499440
C311	C31	0.277800	0.042300	0.098680
C321	C32	0.968700	0.990100	0.266120
C331	C33	0.254200	0.944600	0.146810
C341	C34	0.158800	0.070900	0.115860
C351	C35	0.315400	0.953300	0.126680
C361	C36	0.913100	0.885700	0.266500
C371	C37	0.232100	0.892600	0.170470
C381	C38	0.218200	0.031500	0.120000
C391	C39	0.999400	0.044600	0.259960
C401	C40	0.995100	0.857300	0.207570
C411	C41	0.386600	0.248900	0.444160
C421	C42	0.964800	0.900300	0.241240
C431	C43	0.316400	0.756300	0.529800
C441	C44	0.292200	0.780200	0.568900
C451	C45	0.612100	0.428400	0.707000
C461	C46	0.584000	0.483600	0.706820
C471	C47	0.228800	0.775900	0.580900
C481	C48	0.289900	0.713100	0.458000
C491	C49	0.173400	0.502000	0.896900
C501	C50	0.186500	0.752700	0.547680
C511	C51	0.270300	0.736600	0.500560
C521	C52	0.222200	0.542300	0.901320
C531	C53	0.531300	0.490100	0.733880
C541	C54	0.245800	0.444600	0.853190
C551	C55	0.341200	0.570900	0.884140
C561	C56	0.184600	0.453300	0.873320
C571	C57	0.586900	0.385700	0.733500
C581	C58	0.267900	0.392600	0.829530
C591	C59	0.281800	0.531500	0.880000
C601	C60	0.500600	0.544600	0.740040
C611	C61	0.504900	0.357300	0.792430
C621	C62	0.113400	0.748900	0.555840
C631	C63	0.535200	0.400300	0.758760
C641	C64	0.683600	0.743700	0.029800
C651	C65	0.707800	0.719800	0.068900
C661	C66	0.387900	0.071600	0.207000
C671	C67	0.416000	0.016400	0.206820
C681	C68	0.771200	0.724100	0.080900
C691	C69	0.710100	0.786900	0.958000
C701	C70	0.826600	0.998000	0.396900
C711	C71	0.813500	0.747300	0.047680
C721	C72	0.729700	0.763400	0.000560
C731	C73	0.777800	0.957700	0.401320
C741	C74	0.468700	0.009900	0.233880
C751	C75	0.754200	0.055400	0.353190
C761	C76	0.658800	0.929100	0.384140
C771	C77	0.815400	0.046700	0.373320
C781	C78	0.413100	0.114300	0.233500
C791	C79	0.732100	0.107400	0.329530
C801	C80	0.718200	0.968500	0.380000
C811	C81	0.499400	0.955400	0.240040
C821	C82	0.495100	0.142700	0.292430
C831	C83	0.886600	0.751100	0.055840
C841	C84	0.464800	0.099700	0.258760
C851	C85	0.183600	0.756300	0.029800
C861	C86	0.207800	0.780200	0.068900
C871	C87	0.887900	0.428400	0.207000
C881	C88	0.916000	0.483600	0.206820
C891	C89	0.271200	0.775900	0.080900
C901	C90	0.210100	0.713100	0.958000
C911	C91	0.326600	0.502000	0.396900
C921	C92	0.313500	0.752700	0.047680
C931	C93	0.229700	0.736600	0.000560
C941	C94	0.277800	0.542300	0.401320
C951	C95	0.968700	0.490100	0.233880
C961	C96	0.254200	0.444600	0.353190
C971	C97	0.158800	0.570900	0.384140
C981	C98	0.315400	0.453300	0.373320
C991	C99	0.913100	0.385700	0.233500
C1001	C100	0.232100	0.392600	0.329530
C1011	C101	0.218200	0.531500	0.380000
C1021	C102	0.999400	0.544600	0.240040
C1031	C103	0.995100	0.357300	0.292430
C1041	C104	0.386600	0.748900	0.055840
C1051	C105	0.964800	0.400300	0.258760
C1061	C106	0.816400	0.743700	0.529800
C1071	C107	0.792200	0.719800	0.568900
C1081	C108	0.112100	0.071600	0.707000
C1091	C109	0.084000	0.016400	0.706820
C1101	C110	0.728800	0.724100	0.580900
C1111	C111	0.789900	0.786900	0.458000
C1121	C112	0.673400	0.998000	0.896900
C1131	C113	0.686500	0.747300	0.547680
C1141	C114	0.770300	0.763400	0.500560
C1151	C115	0.722200	0.957700	0.901320
C1161	C116	0.031300	0.009900	0.733880
C1171	C117	0.745800	0.055400	0.853190
C1181	C118	0.841200	0.929100	0.884140
C1191	C119	0.684600	0.046700	0.873320
C1201	C120	0.086900	0.114300	0.733500
C1211	C121	0.767900	0.107400	0.829530
C1221	C122	0.781800	0.968500	0.880000
C1231	C123	0.000600	0.955400	0.740040
C1241	C124	0.004900	0.142700	0.792430
C1251	C125	0.613400	0.751100	0.555840
C1261	C126	0.035200	0.099700	0.758760
C1271	C127	0.683600	0.243700	0.470200
C1281	C128	0.707800	0.219800	0.431100
C1291	C129	0.387900	0.571600	0.293000
C1301	C130	0.416000	0.516400	0.293180
C1311	C131	0.771200	0.224100	0.419100
C1321	C132	0.710100	0.286900	0.542000
C1331	C133	0.826600	0.498000	0.103100
C1341	C134	0.813500	0.247300	0.452320
C1351	C135	0.729700	0.263400	0.499440
C1361	C136	0.777800	0.457700	0.098680
C1371	C137	0.468700	0.509900	0.266120
C1381	C138	0.754200	0.555400	0.146810
C1391	C139	0.658800	0.429100	0.115860
C1401	C140	0.815400	0.546700	0.126680
C1411	C141	0.413100	0.614300	0.266500
C1421	C142	0.732100	0.607400	0.170470
C1431	C143	0.718200	0.468500	0.120000
C1441	C144	0.499400	0.455400	0.259960
C1451	C145	0.495100	0.642700	0.207570
C1461	C146	0.886600	0.251100	0.444160
C1471	C147	0.464800	0.599700	0.241240
C1481	C148	0.316400	0.256300	0.970200
C1491	C149	0.292200	0.280200	0.931100
C1501	C150	0.612100	0.928400	0.793000
C1511	C151	0.584000	0.983600	0.793180
C1521	C152	0.228800	0.275900	0.919100
C1531	C153	0.289900	0.213100	0.042000
C1541	C154	0.173400	0.002000	0.603100
C1551	C155	0.186500	0.252700	0.952320
C1561	C156	0.270300	0.236600	0.999440
C1571	C157	0.222200	0.042300	0.598680
C1581	C158	0.531300	0.990100	0.766120
C1591	C159	0.245800	0.944600	0.646810
C1601	C160	0.341200	0.070900	0.615860
C1611	C161	0.184600	0.953300	0.626680
C1621	C162	0.586900	0.885700	0.766500
C1631	C163	0.267900	0.892600	0.670470
C1641	C164	0.281800	0.031500	0.620000
C1651	C165	0.500600	0.044600	0.759960
C1661	C166	0.504900	0.857300	0.707570
C1671	C167	0.113400	0.248900	0.944160
C1681	C168	0.535200	0.900300	0.741240
N11	N1	0.006980	0.551200	0.739570
N21	N2	0.793800	0.514860	0.643650
N31	N3	0.708400	0.266100	0.991750
N41	N4	0.993020	0.948800	0.239570
N51	N5	0.206200	0.985140	0.143650
N61	N6	0.291600	0.233900	0.491750
N71	N7	0.506980	0.448800	0.760430
N81	N8	0.293800	0.485140	0.856350
N91	N9	0.208400	0.733900	0.508250
N101	N10	0.493020	0.051200	0.260430
N111	N11	0.706200	0.014860	0.356350
N121	N12	0.791600	0.766100	0.008250
N131	N13	0.993020	0.448800	0.260430
N141	N14	0.206200	0.485140	0.356350
N151	N15	0.291600	0.733900	0.008250
N161	N16	0.006980	0.051200	0.760430
N171	N17	0.793800	0.014860	0.856350
N181	N18	0.708400	0.766100	0.508250
N191	N19	0.493020	0.551200	0.239570
N201	N20	0.706200	0.514860	0.143650
N211	N21	0.791600	0.266100	0.491750
N221	N22	0.506980	0.948800	0.739570
N231	N23	0.293800	0.985140	0.643650
N241	N24	0.208400	0.233900	0.991750
O11	O1	0.747270	0.571070	0.919170
O21	O2	0.837590	0.478740	0.900130
O31	O3	0.611650	0.558720	0.899120
O41	O4	0.697710	0.466150	0.887170
O51	O5	0.885140	0.586810	0.929800
O61	O6	0.925460	0.486730	0.960110
O71	O7	0.725000	0.527110	0.749390
O81	O8	0.857680	0.541390	0.763650
O91	O9	0.855940	0.444870	0.812940
O101	O10	0.891610	0.442240	0.637040
O111	O11	0.732730	0.677070	0.917900
O121	O12	0.514920	0.494200	0.854650
O131	O13	0.790840	0.621700	0.987010
O141	O14	0.785380	0.376560	0.863540
O151	O15	0.672250	0.363230	0.906390
O161	O16	0.817060	0.450260	0.722960
O171	O17	0.635950	0.525760	0.817440
O181	O18	0.951010	0.451720	0.874550
O191	O19	0.677990	0.496700	0.978740
O201	O20	0.732130	0.426680	0.797300
O211	O21	0.770310	0.628020	0.782070
O221	O22	0.802150	0.509770	0.992600
O231	O23	0.639140	0.383620	0.993180
O241	O24	0.760940	0.412950	0.961340
O251	O25	0.861200	0.701250	0.939760
O261	O26	0.915790	0.344400	0.849230
O271	O27	0.593700	0.236500	0.906800
O281	O28	0.852700	0.289900	0.050290
O291	O29	0.835900	0.388800	0.590430
O301	O30	0.747700	0.304900	0.070110
O311	O31	0.612800	0.417360	0.837430
O321	O32	0.959000	0.445880	0.729360
O331	O33	0.908620	0.557590	0.846640
O341	O34	0.589360	0.447010	0.923400
O351	O35	0.579700	0.269200	0.975090
O361	O36	0.823410	0.610400	0.684270
O371	O37	0.878200	0.386410	0.930750
O381	O38	0.660830	0.611160	0.971560
O391	O39	0.776200	0.535980	0.826740
O401	O40	0.679240	0.625500	0.846290
O411	O41	0.724540	0.646560	0.674000
O421	O42	0.028400	0.691900	0.704550
O431	O43	0.957600	0.624250	0.684710
O441	O44	0.020520	0.413350	0.786410
O451	O45	0.826290	0.639360	0.863890
O461	O46	0.252730	0.928930	0.419170
O471	O47	0.162410	0.021260	0.400130
O481	O48	0.388350	0.941280	0.399120
O491	O49	0.302290	0.033850	0.387170
O501	O50	0.114860	0.913190	0.429800
O511	O51	0.074540	0.013270	0.460110
O521	O52	0.275000	0.972890	0.249390
O531	O53	0.142320	0.958610	0.263650
O541	O54	0.144060	0.055130	0.312940
O551	O55	0.108390	0.057760	0.137040
O561	O56	0.267270	0.822930	0.417900
O571	O57	0.485080	0.005800	0.354650
O581	O58	0.209160	0.878300	0.487010
O591	O59	0.214620	0.123440	0.363540
O601	O60	0.327750	0.136770	0.406390
O611	O61	0.182940	0.049740	0.222960
O621	O62	0.364050	0.974240	0.317440
O631	O63	0.048990	0.048280	0.374550
O641	O64	0.322010	0.003300	0.478740
O651	O65	0.267870	0.073320	0.297300
O661	O66	0.229690	0.871980	0.282070
O671	O67	0.197850	0.990230	0.492600
O681	O68	0.360860	0.116380	0.493180
O691	O69	0.239060	0.087050	0.461340
O701	O70	0.138800	0.798750	0.439760
O711	O71	0.084210	0.155600	0.349230
O721	O72	0.406300	0.263500	0.406800
O731	O73	0.147300	0.210100	0.550290
O741	O74	0.164100	0.111200	0.090430
O751	O75	0.252300	0.195100	0.570110
O761	O76	0.387200	0.082640	0.337430
O771	O77	0.041000	0.054120	0.229360
O781	O78	0.091380	0.942410	0.346640
O791	O79	0.410640	0.052990	0.423400
O801	O80	0.420300	0.230800	0.475090
O811	O81	0.176590	0.889600	0.184270
O821	O82	0.121800	0.113590	0.430750
O831	O83	0.339170	0.888840	0.471560
O841	O84	0.223800	0.964020	0.326740
O851	O85	0.320760	0.874500	0.346290
O861	O86	0.275460	0.853440	0.174000
O871	O87	0.971600	0.808100	0.204550
O881	O88	0.042400	0.875750	0.184710
O891	O89	0.979480	0.086650	0.286410
O901	O90	0.173710	0.860640	0.363890
O911	O91	0.247270	0.428930	0.580830
O921	O92	0.337590	0.521260	0.599870
O931	O93	0.111650	0.441280	0.600880
O941	O94	0.197710	0.533850	0.612830
O951	O95	0.385140	0.413190	0.570200
O961	O96	0.425460	0.513270	0.539890
O971	O97	0.225000	0.472890	0.750610
O981	O98	0.357680	0.458610	0.736350
O991	O99	0.355940	0.555130	0.687060
O1001	O100	0.391610	0.557760	0.862960
O1011	O101	0.232730	0.322930	0.582100
O1021	O102	0.014920	0.505800	0.645350
O1031	O103	0.290840	0.378300	0.512990
O1041	O104	0.285380	0.623440	0.636460
O1051	O105	0.172250	0.636770	0.593610
O1061	O106	0.317060	0.549740	0.777040
O1071	O107	0.135950	0.474240	0.682560
O1081	O108	0.451010	0.548280	0.625450
O1091	O109	0.177990	0.503300	0.521260
O1101	O110	0.232130	0.573320	0.702700
O1111	O111	0.270310	0.371980	0.717930
O1121	O112	0.302150	0.490230	0.507400
O1131	O113	0.139140	0.616380	0.506820
O1141	O114	0.260940	0.587050	0.538660
O1151	O115	0.361200	0.298750	0.560240
O1161	O116	0.415790	0.655600	0.650770
O1171	O117	0.093700	0.763500	0.593200
O1181	O118	0.352700	0.710100	0.449710
O1191	O119	0.335900	0.611200	0.909570
O1201	O120	0.247700	0.695100	0.429890
O1211	O121	0.112800	0.582640	0.662570
O1221	O122	0.459000	0.554120	0.770640
O1231	O123	0.408620	0.442410	0.653360
O1241	O124	0.089360	0.552990	0.576600
O1251	O125	0.079700	0.730800	0.524910
O1261	O126	0.323410	0.389600	0.815730
O1271	O127	0.378200	0.613590	0.569250
O1281	O128	0.160830	0.388840	0.528440
O1291	O129	0.276200	0.464020	0.673260
O1301	O130	0.179240	0.374500	0.653710
O1311	O131	0.224540	0.353440	0.826000
O1321	O132	0.528400	0.308100	0.795450
O1331	O133	0.457600	0.375750	0.815290
O1341	O134	0.520520	0.586650	0.713590
O1351	O135	0.326290	0.360640	0.636110
O1361	O136	0.752730	0.071070	0.080830
O1371	O137	0.662410	0.978740	0.099870
O1381	O138	0.888350	0.058720	0.100880
O1391	O139	0.802290	0.966150	0.112830
O1401	O140	0.614860	0.086810	0.070200
O1411	O141	0.574540	0.986730	0.039890
O1421	O142	0.775000	0.027110	0.250610
O1431	O143	0.642320	0.041390	0.236350
O1441	O144	0.644060	0.944870	0.187060
O1451	O145	0.608390	0.942240	0.362960
O1461	O146	0.767270	0.177070	0.082100
O1471	O147	0.985080	0.994200	0.145350
O1481	O148	0.709160	0.121700	0.012990
O1491	O149	0.714620	0.876560	0.136460
O1501	O150	0.827750	0.863230	0.093610
O1511	O151	0.682940	0.950260	0.277040
O1521	O152	0.864050	0.025760	0.182560
O1531	O153	0.548990	0.951720	0.125450
O1541	O154	0.822010	0.996700	0.021260
O1551	O155	0.767870	0.926680	0.202700
O1561	O156	0.729690	0.128020	0.217930
O1571	O157	0.697850	0.009770	0.007400
O1581	O158	0.860860	0.883620	0.006820
O1591	O159	0.739060	0.912950	0.038660
O1601	O160	0.638800	0.201250	0.060240
O1611	O161	0.584210	0.844400	0.150770
O1621	O162	0.906300	0.736500	0.093200
O1631	O163	0.647300	0.789900	0.949710
O1641	O164	0.664100	0.888800	0.409570
O1651	O165	0.752300	0.804900	0.929890
O1661	O166	0.887200	0.917360	0.162570
O1671	O167	0.541000	0.945880	0.270640
O1681	O168	0.591380	0.057590	0.153360
O1691	O169	0.910640	0.947010	0.076600
O1701	O170	0.920300	0.769200	0.024910
O1711	O171	0.676590	0.110400	0.315730
O1721	O172	0.621800	0.886410	0.069250
O1731	O173	0.839170	0.111160	0.028440
O1741	O174	0.723800	0.035980	0.173260
O1751	O175	0.820760	0.125500	0.153710
O1761	O176	0.775460	0.146560	0.326000
O1771	O177	0.471600	0.191900	0.295450
O1781	O178	0.542400	0.124250	0.315290
O1791	O179	0.479480	0.913350	0.213590
O1801	O180	0.673710	0.139360	0.136110
O1811	O181	0.252730	0.428930	0.080830
O1821	O182	0.162410	0.521260	0.099870
O1831	O183	0.388350	0.441280	0.100880
O1841	O184	0.302290	0.533850	0.112830
O1851	O185	0.114860	0.413190	0.070200
O1861	O186	0.074540	0.513270	0.039890
O1871	O187	0.275000	0.472890	0.250610
O1881	O188	0.142320	0.458610	0.236350
O1891	O189	0.144060	0.555130	0.187060
O1901	O190	0.108390	0.557760	0.362960
O1911	O191	0.267270	0.322930	0.082100
O1921	O192	0.485080	0.505800	0.145350
O1931	O193	0.209160	0.378300	0.012990
O1941	O194	0.214620	0.623440	0.136460
O1951	O195	0.327750	0.636770	0.093610
O1961	O196	0.182940	0.549740	0.277040
O1971	O197	0.364050	0.474240	0.182560
O1981	O198	0.048990	0.548280	0.125450
O1991	O199	0.322010	0.503300	0.021260
O2001	O200	0.267870	0.573320	0.202700
O2011	O201	0.229690	0.371980	0.217930
O2021	O202	0.197850	0.490230	0.007400
O2031	O203	0.360860	0.616380	0.006820
O2041	O204	0.239060	0.587050	0.038660
O2051	O205	0.138800	0.298750	0.060240
O2061	O206	0.084210	0.655600	0.150770
O2071	O207	0.406300	0.763500	0.093200
O2081	O208	0.147300	0.710100	0.949710
O2091	O209	0.164100	0.611200	0.409570
O2101	O210	0.252300	0.695100	0.929890
O2111	O211	0.387200	0.582640	0.162570
O2121	O212	0.041000	0.554120	0.270640
O2131	O213	0.091380	0.442410	0.153360
O2141	O214	0.410640	0.552990	0.076600
O2151	O215	0.420300	0.730800	0.024910
O2161	O216	0.176590	0.389600	0.315730
O2171	O217	0.121800	0.613590	0.069250
O2181	O218	0.339170	0.388840	0.028440
O2191	O219	0.223800	0.464020	0.173260
O2201	O220	0.320760	0.374500	0.153710
O2211	O221	0.275460	0.353440	0.326000
O2221	O222	0.971600	0.308100	0.295450
O2231	O223	0.042400	0.375750	0.315290
O2241	O224	0.979480	0.586650	0.213590
O2251	O225	0.173710	0.360640	0.136110
O2261	O226	0.747270	0.071070	0.580830
O2271	O227	0.837590	0.978740	0.599870
O2281	O228	0.611650	0.058720	0.600880
O2291	O229	0.697710	0.966150	0.612830
O2301	O230	0.885140	0.086810	0.570200
O2311	O231	0.925460	0.986730	0.539890
O2321	O232	0.725000	0.027110	0.750610
O2331	O233	0.857680	0.041390	0.736350
O2341	O234	0.855940	0.944870	0.687060
O2351	O235	0.891610	0.942240	0.862960
O2361	O236	0.732730	0.177070	0.582100
O2371	O237	0.514920	0.994200	0.645350
O2381	O238	0.790840	0.121700	0.512990
O2391	O239	0.785380	0.876560	0.636460
O2401	O240	0.672250	0.863230	0.593610
O2411	O241	0.817060	0.950260	0.777040
O2421	O242	0.635950	0.025760	0.682560
O2431	O243	0.951010	0.951720	0.625450
O2441	O244	0.677990	0.996700	0.521260
O2451	O245	0.732130	0.926680	0.702700
O2461	O246	0.770310	0.128020	0.717930
O2471	O247	0.802150	0.009770	0.507400
O2481	O248	0.639140	0.883620	0.506820
O2491	O249	0.760940	0.912950	0.538660
O2501	O250	0.861200	0.201250	0.560240
O2511	O251	0.915790	0.844400	0.650770
O2521	O252	0.593700	0.736500	0.593200
O2531	O253	0.852700	0.789900	0.449710
O2541	O254	0.835900	0.888800	0.909570
O2551	O255	0.747700	0.804900	0.429890
O2561	O256	0.612800	0.917360	0.662570
O2571	O257	0.959000	0.945880	0.770640
O2581	O258	0.908620	0.057590	0.653360
O2591	O259	0.589360	0.947010	0.576600
O2601	O260	0.579700	0.769200	0.524910
O2611	O261	0.823410	0.110400	0.815730
O2621	O262	0.878200	0.886410	0.569250
O2631	O263	0.660830	0.111160	0.528440
O2641	O264	0.776200	0.035980	0.673260
O2651	O265	0.679240	0.125500	0.653710
O2661	O266	0.724540	0.146560	0.826000
O2671	O267	0.028400	0.191900	0.795450
O2681	O268	0.957600	0.124250	0.815290
O2691	O269	0.020520	0.913350	0.713590
O2701	O270	0.826290	0.139360	0.636110
O2711	O271	0.752730	0.571070	0.419170
O2721	O272	0.662410	0.478740	0.400130
O2731	O273	0.888350	0.558720	0.399120
O2741	O274	0.802290	0.466150	0.387170
O2751	O275	0.614860	0.586810	0.429800
O2761	O276	0.574540	0.486730	0.460110
O2771	O277	0.775000	0.527110	0.249390
O2781	O278	0.642320	0.541390	0.263650
O2791	O279	0.644060	0.444870	0.312940
O2801	O280	0.608390	0.442240	0.137040
O2811	O281	0.767270	0.677070	0.417900
O2821	O282	0.985080	0.494200	0.354650
O2831	O283	0.709160	0.621700	0.487010
O2841	O284	0.714620	0.376560	0.363540
O2851	O285	0.827750	0.363230	0.406390
O2861	O286	0.682940	0.450260	0.222960
O2871	O287	0.864050	0.525760	0.317440
O2881	O288	0.548990	0.451720	0.374550
O2891	O289	0.822010	0.496700	0.478740
O2901	O290	0.767870	0.426680	0.297300
O2911	O291	0.729690	0.628020	0.282070
O2921	O292	0.697850	0.509770	0.492600
O2931	O293	0.860860	0.383620	0.493180
O2941	O294	0.739060	0.412950	0.461340
O2951	O295	0.638800	0.701250	0.439760
O2961	O296	0.584210	0.344400	0.349230
O2971	O297	0.906300	0.236500	0.406800
O2981	O298	0.647300	0.289900	0.550290
O2991	O299	0.664100	0.388800	0.090430
O3001	O300	0.752300	0.304900	0.570110
O3011	O301	0.887200	0.417360	0.337430
O3021	O302	0.541000	0.445880	0.229360
O3031	O303	0.591380	0.557590	0.346640
O3041	O304	0.910640	0.447010	0.423400
O3051	O305	0.920300	0.269200	0.475090
O3061	O306	0.676590	0.610400	0.184270
O3071	O307	0.621800	0.386410	0.430750
O3081	O308	0.839170	0.611160	0.471560
O3091	O309	0.723800	0.535980	0.326740
O3101	O310	0.820760	0.625500	0.346290
O3111	O311	0.775460	0.646560	0.174000
O3121	O312	0.471600	0.691900	0.204550
O3131	O313	0.542400	0.624250	0.184710
O3141	O314	0.479480	0.413350	0.286410
O3151	O315	0.673710	0.639360	0.363890
O3161	O316	0.247270	0.928930	0.919170
O3171	O317	0.337590	0.021260	0.900130
O3181	O318	0.111650	0.941280	0.899120
O3191	O319	0.197710	0.033850	0.887170
O3201	O320	0.385140	0.913190	0.929800
O3211	O321	0.425460	0.013270	0.960110
O3221	O322	0.225000	0.972890	0.749390
O3231	O323	0.357680	0.958610	0.763650
O3241	O324	0.355940	0.055130	0.812940
O3251	O325	0.391610	0.057760	0.637040
O3261	O326	0.232730	0.822930	0.917900
O3271	O327	0.014920	0.005800	0.854650
O3281	O328	0.290840	0.878300	0.987010
O3291	O329	0.285380	0.123440	0.863540
O3301	O330	0.172250	0.136770	0.906390
O3311	O331	0.317060	0.049740	0.722960
O3321	O332	0.135950	0.974240	0.817440
O3331	O333	0.451010	0.048280	0.874550
O3341	O334	0.177990	0.003300	0.978740
O3351	O335	0.232130	0.073320	0.797300
O3361	O336	0.270310	0.871980	0.782070
O3371	O337	0.302150	0.990230	0.992600
O3381	O338	0.139140	0.116380	0.993180
O3391	O339	0.260940	0.087050	0.961340
O3401	O340	0.361200	0.798750	0.939760
O3411	O341	0.415790	0.155600	0.849230
O3421	O342	0.093700	0.263500	0.906800
O3431	O343	0.352700	0.210100	0.050290
O3441	O344	0.335900	0.111200	0.590430
O3451	O345	0.247700	0.195100	0.070110
O3461	O346	0.112800	0.082640	0.837430
O3471	O347	0.459000	0.054120	0.729360
O3481	O348	0.408620	0.942410	0.846640
O3491	O349	0.089360	0.052990	0.923400
O3501	O350	0.079700	0.230800	0.975090
O3511	O351	0.323410	0.889600	0.684270
O3521	O352	0.378200	0.113590	0.930750
O3531	O353	0.160830	0.888840	0.971560
O3541	O354	0.276200	0.964020	0.826740
O3551	O355	0.179240	0.874500	0.846290
O3561	O356	0.224540	0.853440	0.674000
O3571	O357	0.528400	0.808100	0.704550
O3581	O358	0.457600	0.875750	0.684710
O3591	O359	0.520520	0.086650	0.786410
O3601	O360	0.326290	0.860640	0.863890
