data_DUYRAR_clean_PM
_symmetry_space_group_name_H-M	'P1'
_cell_length_a	20.471000
_cell_length_b	23.426000
_cell_length_c	29.406000
_cell_angle_alpha	90.000000
_cell_angle_beta	90.000000
_cell_angle_gamma	90.000000
_symmetry_Int_Tables_number 1

loop_
_symmetry_equiv_pos_as_xyz
'x,y,z'

loop_
_atom_site_label
_atom_site_type_symbol
_atom_site_fract_x
_atom_site_fract_y
_atom_site_fract_z
Nd11	Nd1	0.409440	0.467720	0.317370
Nd21	Nd2	0.878610	0.806110	0.448060
Nd31	Nd3	0.506860	0.228600	0.355410
Nd41	Nd4	0.590560	0.032280	0.817370
Nd51	Nd5	0.121390	0.693890	0.948060
Nd61	Nd6	0.493140	0.271400	0.855410
Nd71	Nd7	0.909440	0.532280	0.182630
Nd81	Nd8	0.378610	0.193890	0.051940
Nd91	Nd9	0.006860	0.771400	0.144590
Nd101	Nd10	0.090560	0.967720	0.682630
Nd111	Nd11	0.621390	0.306110	0.551940
Nd121	Nd12	0.993140	0.728600	0.644590
Nd131	Nd13	0.590560	0.532280	0.682630
Nd141	Nd14	0.121390	0.193890	0.551940
Nd151	Nd15	0.493140	0.771400	0.644590
Nd161	Nd16	0.409440	0.967720	0.182630
Nd171	Nd17	0.878610	0.306110	0.051940
Nd181	Nd18	0.506860	0.728600	0.144590
Nd191	Nd19	0.090560	0.467720	0.817370
Nd201	Nd20	0.621390	0.806110	0.948060
Nd211	Nd21	0.993140	0.228600	0.855410
Nd221	Nd22	0.909440	0.032280	0.317370
Nd231	Nd23	0.378610	0.693890	0.448060
Nd241	Nd24	0.006860	0.271400	0.355410
H11	H1	0.637900	0.742000	0.517700
H21	H2	0.674200	0.704000	0.585300
H31	H3	0.782100	0.709200	0.604600
H41	H4	0.221400	0.574800	0.415400
H51	H5	0.133800	0.509300	0.406400
H61	H6	0.154100	0.423500	0.367300
H71	H7	0.607400	0.348600	0.233500
H81	H8	0.645100	0.420600	0.185300
H91	H9	0.595900	0.508800	0.186800
H101	H10	0.362100	0.758000	0.017700
H111	H11	0.325800	0.796000	0.085300
H121	H12	0.217900	0.790800	0.104600
H131	H13	0.778600	0.925200	0.915400
H141	H14	0.866200	0.990700	0.906400
H151	H15	0.845900	0.076500	0.867300
H161	H16	0.392600	0.151400	0.733500
H171	H17	0.354900	0.079400	0.685300
H181	H18	0.404100	0.991200	0.686800
H191	H19	0.137900	0.258000	0.982300
H201	H20	0.174200	0.296000	0.914700
H211	H21	0.282100	0.290800	0.895400
H221	H22	0.721400	0.425200	0.084600
H231	H23	0.633800	0.490700	0.093600
H241	H24	0.654100	0.576500	0.132700
H251	H25	0.107400	0.651400	0.266500
H261	H26	0.145100	0.579400	0.314700
H271	H27	0.095900	0.491200	0.313200
H281	H28	0.862100	0.242000	0.482300
H291	H29	0.825800	0.204000	0.414700
H301	H30	0.717900	0.209200	0.395400
H311	H31	0.278600	0.074800	0.584600
H321	H32	0.366200	0.009300	0.593600
H331	H33	0.345900	0.923500	0.632700
H341	H34	0.892600	0.848600	0.766500
H351	H35	0.854900	0.920600	0.814700
H361	H36	0.904100	0.008800	0.813200
H371	H37	0.362100	0.258000	0.482300
H381	H38	0.325800	0.296000	0.414700
H391	H39	0.217900	0.290800	0.395400
H401	H40	0.778600	0.425200	0.584600
H411	H41	0.866200	0.490700	0.593600
H421	H42	0.845900	0.576500	0.632700
H431	H43	0.392600	0.651400	0.766500
H441	H44	0.354900	0.579400	0.814700
H451	H45	0.404100	0.491200	0.813200
H461	H46	0.637900	0.242000	0.982300
H471	H47	0.674200	0.204000	0.914700
H481	H48	0.782100	0.209200	0.895400
H491	H49	0.221400	0.074800	0.084600
H501	H50	0.133800	0.009300	0.093600
H511	H51	0.154100	0.923500	0.132700
H521	H52	0.607400	0.848600	0.266500
H531	H53	0.645100	0.920600	0.314700
H541	H54	0.595900	0.008800	0.313200
H551	H55	0.862100	0.742000	0.017700
H561	H56	0.825800	0.704000	0.085300
H571	H57	0.717900	0.709200	0.104600
H581	H58	0.278600	0.574800	0.915400
H591	H59	0.366200	0.509300	0.906400
H601	H60	0.345900	0.423500	0.867300
H611	H61	0.892600	0.348600	0.733500
H621	H62	0.854900	0.420600	0.685300
H631	H63	0.904100	0.508800	0.686800
H641	H64	0.137900	0.758000	0.517700
H651	H65	0.174200	0.796000	0.585300
H661	H66	0.282100	0.790800	0.604600
H671	H67	0.721400	0.925200	0.415400
H681	H68	0.633800	0.990700	0.406400
H691	H69	0.654100	0.076500	0.367300
H701	H70	0.107400	0.151400	0.233500
H711	H71	0.145100	0.079400	0.185300
H721	H72	0.095900	0.991200	0.186800
W11	W1	0.870320	0.401500	0.368790
W21	W2	0.934280	0.522640	0.399520
W31	W3	0.819580	0.640460	0.424230
W41	W4	0.661030	0.628500	0.407540
W51	W5	0.596980	0.487720	0.371870
W61	W6	0.848320	0.596770	0.305160
W71	W7	0.674430	0.422430	0.453080
W81	W8	0.690040	0.575830	0.290360
W91	W9	0.850610	0.446080	0.472280
W101	W10	0.792410	0.471550	0.272400
W111	W11	0.731220	0.562750	0.494200
W121	W12	0.693520	0.380450	0.348770
W131	W13	0.129680	0.098500	0.868790
W141	W14	0.065720	0.977360	0.899520
W151	W15	0.180420	0.859540	0.924230
W161	W16	0.338970	0.871500	0.907540
W171	W17	0.403020	0.012280	0.871870
W181	W18	0.151680	0.903230	0.805160
W191	W19	0.325570	0.077570	0.953080
W201	W20	0.309960	0.924170	0.790360
W211	W21	0.149390	0.053920	0.972280
W221	W22	0.207590	0.028450	0.772400
W231	W23	0.268780	0.937250	0.994200
W241	W24	0.306480	0.119550	0.848770
W251	W25	0.370320	0.598500	0.131210
W261	W26	0.434280	0.477360	0.100480
W271	W27	0.319580	0.359540	0.075770
W281	W28	0.161030	0.371500	0.092460
W291	W29	0.096980	0.512280	0.128130
W301	W30	0.348320	0.403230	0.194840
W311	W31	0.174430	0.577570	0.046920
W321	W32	0.190040	0.424170	0.209640
W331	W33	0.350610	0.553920	0.027720
W341	W34	0.292410	0.528450	0.227600
W351	W35	0.231220	0.437250	0.005800
W361	W36	0.193520	0.619550	0.151230
W371	W37	0.629680	0.901500	0.631210
W381	W38	0.565720	0.022640	0.600480
W391	W39	0.680420	0.140460	0.575770
W401	W40	0.838970	0.128500	0.592460
W411	W41	0.903020	0.987720	0.628130
W421	W42	0.651680	0.096770	0.694840
W431	W43	0.825570	0.922430	0.546920
W441	W44	0.809960	0.075830	0.709640
W451	W45	0.649390	0.946080	0.527720
W461	W46	0.707590	0.971550	0.727600
W471	W47	0.768780	0.062750	0.505800
W481	W48	0.806480	0.880450	0.651230
W491	W49	0.129680	0.598500	0.631210
W501	W50	0.065720	0.477360	0.600480
W511	W51	0.180420	0.359540	0.575770
W521	W52	0.338970	0.371500	0.592460
W531	W53	0.403020	0.512280	0.628130
W541	W54	0.151680	0.403230	0.694840
W551	W55	0.325570	0.577570	0.546920
W561	W56	0.309960	0.424170	0.709640
W571	W57	0.149390	0.553920	0.527720
W581	W58	0.207590	0.528450	0.727600
W591	W59	0.268780	0.437250	0.505800
W601	W60	0.306480	0.619550	0.651230
W611	W61	0.870320	0.901500	0.131210
W621	W62	0.934280	0.022640	0.100480
W631	W63	0.819580	0.140460	0.075770
W641	W64	0.661030	0.128500	0.092460
W651	W65	0.596980	0.987720	0.128130
W661	W66	0.848320	0.096770	0.194840
W671	W67	0.674430	0.922430	0.046920
W681	W68	0.690040	0.075830	0.209640
W691	W69	0.850610	0.946080	0.027720
W701	W70	0.792410	0.971550	0.227600
W711	W71	0.731220	0.062750	0.005800
W721	W72	0.693520	0.880450	0.151230
W731	W73	0.629680	0.401500	0.868790
W741	W74	0.565720	0.522640	0.899520
W751	W75	0.680420	0.640460	0.924230
W761	W76	0.838970	0.628500	0.907540
W771	W77	0.903020	0.487720	0.871870
W781	W78	0.651680	0.596770	0.805160
W791	W79	0.825570	0.422430	0.953080
W801	W80	0.809960	0.575830	0.790360
W811	W81	0.649390	0.446080	0.972280
W821	W82	0.707590	0.471550	0.772400
W831	W83	0.768780	0.562750	0.994200
W841	W84	0.806480	0.380450	0.848770
W851	W85	0.370320	0.098500	0.368790
W861	W86	0.434280	0.977360	0.399520
W871	W87	0.319580	0.859540	0.424230
W881	W88	0.161030	0.871500	0.407540
W891	W89	0.096980	0.012280	0.371870
W901	W90	0.348320	0.903230	0.305160
W911	W91	0.174430	0.077570	0.453080
W921	W92	0.190040	0.924170	0.290360
W931	W93	0.350610	0.053920	0.472280
W941	W94	0.292410	0.028450	0.272400
W951	W95	0.231220	0.937250	0.494200
W961	W96	0.193520	0.119550	0.348770
C11	C1	0.727800	0.765600	0.496500
C21	C2	0.682000	0.742600	0.525200
C31	C3	0.703900	0.720600	0.565300
C41	C4	0.767800	0.722600	0.576600
C51	C5	0.813100	0.745800	0.544400
C61	C6	0.712000	0.788700	0.451100
C71	C7	0.884900	0.749200	0.553400
C81	C8	0.285400	0.529500	0.377600
C91	C9	0.226800	0.541500	0.398600
C101	C10	0.174600	0.501800	0.394000
C111	C11	0.186300	0.451200	0.370300
C121	C12	0.249400	0.443700	0.350800
C131	C13	0.344200	0.566600	0.382300
C141	C14	0.272800	0.389600	0.329700
C151	C15	0.533600	0.395600	0.260700
C161	C16	0.587300	0.384200	0.233000
C171	C17	0.610100	0.427400	0.204700
C181	C18	0.581000	0.479400	0.205400
C191	C19	0.528500	0.487900	0.234500
C201	C20	0.496100	0.544400	0.242300
C211	C21	0.506400	0.355300	0.294800
C221	C22	0.272200	0.734400	0.996500
C231	C23	0.318000	0.757400	0.025200
C241	C24	0.296100	0.779400	0.065300
C251	C25	0.232200	0.777400	0.076600
C261	C26	0.186900	0.754200	0.044400
C271	C27	0.288000	0.711300	0.951100
C281	C28	0.115100	0.750800	0.053400
C291	C29	0.714600	0.970500	0.877600
C301	C30	0.773200	0.958500	0.898600
C311	C31	0.825400	0.998200	0.894000
C321	C32	0.813700	0.048800	0.870300
C331	C33	0.750600	0.056300	0.850800
C341	C34	0.655800	0.933400	0.882300
C351	C35	0.727200	0.110400	0.829700
C361	C36	0.466400	0.104400	0.760700
C371	C37	0.412700	0.115800	0.733000
C381	C38	0.389900	0.072600	0.704700
C391	C39	0.419000	0.020600	0.705400
C401	C40	0.471500	0.012100	0.734500
C411	C41	0.503900	0.955600	0.742300
C421	C42	0.493600	0.144700	0.794800
C431	C43	0.227800	0.234400	0.003500
C441	C44	0.182000	0.257400	0.974800
C451	C45	0.203900	0.279400	0.934700
C461	C46	0.267800	0.277400	0.923400
C471	C47	0.313100	0.254200	0.955600
C481	C48	0.212000	0.211300	0.048900
C491	C49	0.384900	0.250800	0.946600
C501	C50	0.785400	0.470500	0.122400
C511	C51	0.726800	0.458500	0.101400
C521	C52	0.674600	0.498200	0.106000
C531	C53	0.686300	0.548800	0.129700
C541	C54	0.749400	0.556300	0.149200
C551	C55	0.844200	0.433400	0.117700
C561	C56	0.772800	0.610400	0.170300
C571	C57	0.033600	0.604400	0.239300
C581	C58	0.087300	0.615800	0.267000
C591	C59	0.110100	0.572600	0.295300
C601	C60	0.081000	0.520600	0.294600
C611	C61	0.028500	0.512100	0.265500
C621	C62	0.996100	0.455600	0.257700
C631	C63	0.006400	0.644700	0.205200
C641	C64	0.772200	0.265600	0.503500
C651	C65	0.818000	0.242600	0.474800
C661	C66	0.796100	0.220600	0.434700
C671	C67	0.732200	0.222600	0.423400
C681	C68	0.686900	0.245800	0.455600
C691	C69	0.788000	0.288700	0.548900
C701	C70	0.615100	0.249200	0.446600
C711	C71	0.214600	0.029500	0.622400
C721	C72	0.273200	0.041500	0.601400
C731	C73	0.325400	0.001800	0.606000
C741	C74	0.313700	0.951200	0.629700
C751	C75	0.250600	0.943700	0.649200
C761	C76	0.155800	0.066600	0.617700
C771	C77	0.227200	0.889600	0.670300
C781	C78	0.966400	0.895600	0.739300
C791	C79	0.912700	0.884200	0.767000
C801	C80	0.889900	0.927400	0.795300
C811	C81	0.919000	0.979400	0.794600
C821	C82	0.971500	0.987900	0.765500
C831	C83	0.003900	0.044400	0.757700
C841	C84	0.993600	0.855300	0.705200
C851	C85	0.272200	0.234400	0.503500
C861	C86	0.318000	0.257400	0.474800
C871	C87	0.296100	0.279400	0.434700
C881	C88	0.232200	0.277400	0.423400
C891	C89	0.186900	0.254200	0.455600
C901	C90	0.288000	0.211300	0.548900
C911	C91	0.115100	0.250800	0.446600
C921	C92	0.714600	0.470500	0.622400
C931	C93	0.773200	0.458500	0.601400
C941	C94	0.825400	0.498200	0.606000
C951	C95	0.813700	0.548800	0.629700
C961	C96	0.750600	0.556300	0.649200
C971	C97	0.655800	0.433400	0.617700
C981	C98	0.727200	0.610400	0.670300
C991	C99	0.466400	0.604400	0.739300
C1001	C100	0.412700	0.615800	0.767000
C1011	C101	0.389900	0.572600	0.795300
C1021	C102	0.419000	0.520600	0.794600
C1031	C103	0.471500	0.512100	0.765500
C1041	C104	0.503900	0.455600	0.757700
C1051	C105	0.493600	0.644700	0.705200
C1061	C106	0.727800	0.265600	0.003500
C1071	C107	0.682000	0.242600	0.974800
C1081	C108	0.703900	0.220600	0.934700
C1091	C109	0.767800	0.222600	0.923400
C1101	C110	0.813100	0.245800	0.955600
C1111	C111	0.712000	0.288700	0.048900
C1121	C112	0.884900	0.249200	0.946600
C1131	C113	0.285400	0.029500	0.122400
C1141	C114	0.226800	0.041500	0.101400
C1151	C115	0.174600	0.001800	0.106000
C1161	C116	0.186300	0.951200	0.129700
C1171	C117	0.249400	0.943700	0.149200
C1181	C118	0.344200	0.066600	0.117700
C1191	C119	0.272800	0.889600	0.170300
C1201	C120	0.533600	0.895600	0.239300
C1211	C121	0.587300	0.884200	0.267000
C1221	C122	0.610100	0.927400	0.295300
C1231	C123	0.581000	0.979400	0.294600
C1241	C124	0.528500	0.987900	0.265500
C1251	C125	0.496100	0.044400	0.257700
C1261	C126	0.506400	0.855300	0.205200
C1271	C127	0.772200	0.765600	0.996500
C1281	C128	0.818000	0.742600	0.025200
C1291	C129	0.796100	0.720600	0.065300
C1301	C130	0.732200	0.722600	0.076600
C1311	C131	0.686900	0.745800	0.044400
C1321	C132	0.788000	0.788700	0.951100
C1331	C133	0.615100	0.749200	0.053400
C1341	C134	0.214600	0.529500	0.877600
C1351	C135	0.273200	0.541500	0.898600
C1361	C136	0.325400	0.501800	0.894000
C1371	C137	0.313700	0.451200	0.870300
C1381	C138	0.250600	0.443700	0.850800
C1391	C139	0.155800	0.566600	0.882300
C1401	C140	0.227200	0.389600	0.829700
C1411	C141	0.966400	0.395600	0.760700
C1421	C142	0.912700	0.384200	0.733000
C1431	C143	0.889900	0.427400	0.704700
C1441	C144	0.919000	0.479400	0.705400
C1451	C145	0.971500	0.487900	0.734500
C1461	C146	0.003900	0.544400	0.742300
C1471	C147	0.993600	0.355300	0.794800
C1481	C148	0.227800	0.734400	0.496500
C1491	C149	0.182000	0.757400	0.525200
C1501	C150	0.203900	0.779400	0.565300
C1511	C151	0.267800	0.777400	0.576600
C1521	C152	0.313100	0.754200	0.544400
C1531	C153	0.212000	0.711300	0.451100
C1541	C154	0.384900	0.750800	0.553400
C1551	C155	0.785400	0.970500	0.377600
C1561	C156	0.726800	0.958500	0.398600
C1571	C157	0.674600	0.998200	0.394000
C1581	C158	0.686300	0.048800	0.370300
C1591	C159	0.749400	0.056300	0.350800
C1601	C160	0.844200	0.933400	0.382300
C1611	C161	0.772800	0.110400	0.329700
C1621	C162	0.033600	0.104400	0.260700
C1631	C163	0.087300	0.115800	0.233000
C1641	C164	0.110100	0.072600	0.204700
C1651	C165	0.081000	0.020600	0.205400
C1661	C166	0.028500	0.012100	0.234500
C1671	C167	0.996100	0.955600	0.242300
C1681	C168	0.006400	0.144700	0.294800
N11	N1	0.504600	0.446600	0.261200
N21	N2	0.296900	0.481700	0.354000
N31	N3	0.792000	0.767500	0.505500
N41	N4	0.495400	0.053400	0.761200
N51	N5	0.703100	0.018300	0.854000
N61	N6	0.208000	0.732500	0.005500
N71	N7	0.004600	0.553400	0.238800
N81	N8	0.796900	0.518300	0.146000
N91	N9	0.292000	0.232500	0.994500
N101	N10	0.995400	0.946600	0.738800
N111	N11	0.203100	0.981700	0.646000
N121	N12	0.708000	0.267500	0.494500
N131	N13	0.495400	0.553400	0.738800
N141	N14	0.703100	0.518300	0.646000
N151	N15	0.208000	0.232500	0.494500
N161	N16	0.504600	0.946600	0.238800
N171	N17	0.296900	0.981700	0.146000
N181	N18	0.792000	0.267500	0.994500
N191	N19	0.995400	0.446600	0.761200
N201	N20	0.203100	0.481700	0.854000
N211	N21	0.708000	0.767500	0.005500
N221	N22	0.004600	0.053400	0.261200
N231	N23	0.796900	0.018300	0.354000
N241	N24	0.292000	0.732500	0.505500
O11	O1	0.697500	0.463000	0.389100
O21	O2	0.747200	0.570700	0.419300
O31	O3	0.776600	0.532400	0.325900
O41	O4	0.839200	0.477500	0.400900
O51	O5	0.927600	0.488000	0.460400
O61	O6	0.328700	0.386400	0.316500
O71	O7	0.530200	0.306000	0.299100
O81	O8	0.395200	0.552700	0.363200
O91	O9	0.917100	0.342600	0.352000
O101	O10	0.860100	0.703300	0.435700
O111	O11	0.762900	0.413400	0.463800
O121	O12	0.768200	0.622600	0.279000
O131	O13	0.610600	0.557100	0.399800
O141	O14	0.515100	0.584300	0.213500
O151	O15	0.460700	0.374600	0.319600
O161	O16	0.678500	0.621100	0.344400
O171	O17	0.724400	0.520800	0.248500
O181	O18	0.804100	0.511100	0.494000
O191	O19	0.673100	0.359500	0.409800
O201	O20	0.229700	0.349200	0.324300
O211	O21	0.641500	0.383900	0.498400
O221	O22	0.731300	0.423200	0.298200
O231	O23	0.337400	0.613200	0.405900
O241	O24	0.855300	0.439700	0.311700
O251	O25	0.885600	0.586500	0.427400
O261	O26	0.825900	0.637900	0.360600
O271	O27	0.515000	0.490600	0.356800
O281	O28	0.679500	0.495700	0.480800
O291	O29	0.457300	0.551100	0.272500
O301	O30	0.854900	0.536300	0.260400
O311	O31	0.903600	0.733200	0.591500
O321	O32	0.951400	0.450600	0.375000
O331	O33	0.792100	0.624600	0.485400
O341	O34	0.906900	0.556100	0.343200
O351	O35	0.786300	0.373100	0.365900
O361	O36	0.733700	0.675800	0.415700
O371	O37	0.661400	0.610200	0.472200
O381	O38	0.588400	0.446100	0.427100
O391	O39	0.635000	0.521900	0.317200
O401	O40	0.611800	0.413300	0.339700
O411	O41	0.880400	0.384500	0.433500
O421	O42	0.753800	0.806400	0.426300
O431	O43	0.919400	0.768000	0.522200
O441	O44	0.649500	0.790900	0.442400
O451	O45	0.302500	0.037000	0.889100
O461	O46	0.252800	0.929300	0.919300
O471	O47	0.223400	0.967600	0.825900
O481	O48	0.160800	0.022500	0.900900
O491	O49	0.072400	0.012000	0.960400
O501	O50	0.671300	0.113600	0.816500
O511	O51	0.469800	0.194000	0.799100
O521	O52	0.604800	0.947300	0.863200
O531	O53	0.082900	0.157400	0.852000
O541	O54	0.139900	0.796700	0.935700
O551	O55	0.237100	0.086600	0.963800
O561	O56	0.231800	0.877400	0.779000
O571	O57	0.389400	0.942900	0.899800
O581	O58	0.484900	0.915700	0.713500
O591	O59	0.539300	0.125400	0.819600
O601	O60	0.321500	0.878900	0.844400
O611	O61	0.275600	0.979200	0.748500
O621	O62	0.195900	0.988900	0.994000
O631	O63	0.326900	0.140500	0.909800
O641	O64	0.770300	0.150800	0.824300
O651	O65	0.358500	0.116100	0.998400
O661	O66	0.268700	0.076800	0.798200
O671	O67	0.662600	0.886800	0.905900
O681	O68	0.144700	0.060300	0.811700
O691	O69	0.114400	0.913500	0.927400
O701	O70	0.174100	0.862100	0.860600
O711	O71	0.485000	0.009400	0.856800
O721	O72	0.320500	0.004300	0.980800
O731	O73	0.542700	0.948900	0.772500
O741	O74	0.145100	0.963700	0.760400
O751	O75	0.096400	0.766800	0.091500
O761	O76	0.048600	0.049400	0.875000
O771	O77	0.207900	0.875400	0.985400
O781	O78	0.093100	0.943900	0.843200
O791	O79	0.213700	0.126900	0.865900
O801	O80	0.266300	0.824200	0.915700
O811	O81	0.338600	0.889800	0.972200
O821	O82	0.411600	0.053900	0.927100
O831	O83	0.365000	0.978100	0.817200
O841	O84	0.388200	0.086700	0.839700
O851	O85	0.119600	0.115500	0.933500
O861	O86	0.246200	0.693600	0.926300
O871	O87	0.080600	0.732000	0.022200
O881	O88	0.350500	0.709100	0.942400
O891	O89	0.197500	0.537000	0.110900
O901	O90	0.247200	0.429300	0.080700
O911	O91	0.276600	0.467600	0.174100
O921	O92	0.339200	0.522500	0.099100
O931	O93	0.427600	0.512000	0.039600
O941	O94	0.828700	0.613600	0.183500
O951	O95	0.030200	0.694000	0.200900
O961	O96	0.895200	0.447300	0.136800
O971	O97	0.417100	0.657400	0.148000
O981	O98	0.360100	0.296700	0.064300
O991	O99	0.262900	0.586600	0.036200
O1001	O100	0.268200	0.377400	0.221000
O1011	O101	0.110600	0.442900	0.100200
O1021	O102	0.015100	0.415700	0.286500
O1031	O103	0.960700	0.625400	0.180400
O1041	O104	0.178500	0.378900	0.155600
O1051	O105	0.224400	0.479200	0.251500
O1061	O106	0.304100	0.488900	0.006000
O1071	O107	0.173100	0.640500	0.090200
O1081	O108	0.729700	0.650800	0.175700
O1091	O109	0.141500	0.616100	0.001600
O1101	O110	0.231300	0.576800	0.201800
O1111	O111	0.837400	0.386800	0.094100
O1121	O112	0.355300	0.560300	0.188300
O1131	O113	0.385600	0.413500	0.072600
O1141	O114	0.325900	0.362100	0.139400
O1151	O115	0.015000	0.509400	0.143200
O1161	O116	0.179500	0.504300	0.019200
O1171	O117	0.957300	0.448900	0.227500
O1181	O118	0.354900	0.463700	0.239600
O1191	O119	0.403600	0.266800	0.908500
O1201	O120	0.451400	0.549400	0.125000
O1211	O121	0.292100	0.375400	0.014600
O1221	O122	0.406900	0.443900	0.156800
O1231	O123	0.286300	0.626900	0.134100
O1241	O124	0.233700	0.324200	0.084300
O1251	O125	0.161400	0.389800	0.027800
O1261	O126	0.088400	0.553900	0.072900
O1271	O127	0.135000	0.478100	0.182800
O1281	O128	0.111800	0.586700	0.160300
O1291	O129	0.380400	0.615500	0.066500
O1301	O130	0.253800	0.193600	0.073700
O1311	O131	0.419400	0.232000	0.977800
O1321	O132	0.149500	0.209100	0.057600
O1331	O133	0.802500	0.963000	0.610900
O1341	O134	0.752800	0.070700	0.580700
O1351	O135	0.723400	0.032400	0.674100
O1361	O136	0.660800	0.977500	0.599100
O1371	O137	0.572400	0.988000	0.539600
O1381	O138	0.171300	0.886400	0.683500
O1391	O139	0.969800	0.806000	0.700900
O1401	O140	0.104800	0.052700	0.636800
O1411	O141	0.582900	0.842600	0.648000
O1421	O142	0.639900	0.203300	0.564300
O1431	O143	0.737100	0.913400	0.536200
O1441	O144	0.731800	0.122600	0.721000
O1451	O145	0.889400	0.057100	0.600200
O1461	O146	0.984900	0.084300	0.786500
O1471	O147	0.039300	0.874600	0.680400
O1481	O148	0.821500	0.121100	0.655600
O1491	O149	0.775600	0.020800	0.751500
O1501	O150	0.695900	0.011100	0.506000
O1511	O151	0.826900	0.859500	0.590200
O1521	O152	0.270300	0.849200	0.675700
O1531	O153	0.858500	0.883900	0.501600
O1541	O154	0.768700	0.923200	0.701800
O1551	O155	0.162600	0.113200	0.594100
O1561	O156	0.644700	0.939700	0.688300
O1571	O157	0.614400	0.086500	0.572600
O1581	O158	0.674100	0.137900	0.639400
O1591	O159	0.985000	0.990600	0.643200
O1601	O160	0.820500	0.995700	0.519200
O1611	O161	0.042700	0.051100	0.727500
O1621	O162	0.645100	0.036300	0.739600
O1631	O163	0.596400	0.233200	0.408500
O1641	O164	0.548600	0.950600	0.625000
O1651	O165	0.707900	0.124600	0.514600
O1661	O166	0.593100	0.056100	0.656800
O1671	O167	0.713700	0.873100	0.634100
O1681	O168	0.766300	0.175800	0.584300
O1691	O169	0.838600	0.110200	0.527800
O1701	O170	0.911600	0.946100	0.572900
O1711	O171	0.865000	0.021900	0.682800
O1721	O172	0.888200	0.913300	0.660300
O1731	O173	0.619600	0.884500	0.566500
O1741	O174	0.746200	0.306400	0.573700
O1751	O175	0.580600	0.268000	0.477800
O1761	O176	0.850500	0.290900	0.557600
O1771	O177	0.302500	0.537000	0.610900
O1781	O178	0.252800	0.429300	0.580700
O1791	O179	0.223400	0.467600	0.674100
O1801	O180	0.160800	0.522500	0.599100
O1811	O181	0.072400	0.512000	0.539600
O1821	O182	0.671300	0.613600	0.683500
O1831	O183	0.469800	0.694000	0.700900
O1841	O184	0.604800	0.447300	0.636800
O1851	O185	0.082900	0.657400	0.648000
O1861	O186	0.139900	0.296700	0.564300
O1871	O187	0.237100	0.586600	0.536200
O1881	O188	0.231800	0.377400	0.721000
O1891	O189	0.389400	0.442900	0.600200
O1901	O190	0.484900	0.415700	0.786500
O1911	O191	0.539300	0.625400	0.680400
O1921	O192	0.321500	0.378900	0.655600
O1931	O193	0.275600	0.479200	0.751500
O1941	O194	0.195900	0.488900	0.506000
O1951	O195	0.326900	0.640500	0.590200
O1961	O196	0.770300	0.650800	0.675700
O1971	O197	0.358500	0.616100	0.501600
O1981	O198	0.268700	0.576800	0.701800
O1991	O199	0.662600	0.386800	0.594100
O2001	O200	0.144700	0.560300	0.688300
O2011	O201	0.114400	0.413500	0.572600
O2021	O202	0.174100	0.362100	0.639400
O2031	O203	0.485000	0.509400	0.643200
O2041	O204	0.320500	0.504300	0.519200
O2051	O205	0.542700	0.448900	0.727500
O2061	O206	0.145100	0.463700	0.739600
O2071	O207	0.096400	0.266800	0.408500
O2081	O208	0.048600	0.549400	0.625000
O2091	O209	0.207900	0.375400	0.514600
O2101	O210	0.093100	0.443900	0.656800
O2111	O211	0.213700	0.626900	0.634100
O2121	O212	0.266300	0.324200	0.584300
O2131	O213	0.338600	0.389800	0.527800
O2141	O214	0.411600	0.553900	0.572900
O2151	O215	0.365000	0.478100	0.682800
O2161	O216	0.388200	0.586700	0.660300
O2171	O217	0.119600	0.615500	0.566500
O2181	O218	0.246200	0.193600	0.573700
O2191	O219	0.080600	0.232000	0.477800
O2201	O220	0.350500	0.209100	0.557600
O2211	O221	0.697500	0.963000	0.110900
O2221	O222	0.747200	0.070700	0.080700
O2231	O223	0.776600	0.032400	0.174100
O2241	O224	0.839200	0.977500	0.099100
O2251	O225	0.927600	0.988000	0.039600
O2261	O226	0.328700	0.886400	0.183500
O2271	O227	0.530200	0.806000	0.200900
O2281	O228	0.395200	0.052700	0.136800
O2291	O229	0.917100	0.842600	0.148000
O2301	O230	0.860100	0.203300	0.064300
O2311	O231	0.762900	0.913400	0.036200
O2321	O232	0.768200	0.122600	0.221000
O2331	O233	0.610600	0.057100	0.100200
O2341	O234	0.515100	0.084300	0.286500
O2351	O235	0.460700	0.874600	0.180400
O2361	O236	0.678500	0.121100	0.155600
O2371	O237	0.724400	0.020800	0.251500
O2381	O238	0.804100	0.011100	0.006000
O2391	O239	0.673100	0.859500	0.090200
O2401	O240	0.229700	0.849200	0.175700
O2411	O241	0.641500	0.883900	0.001600
O2421	O242	0.731300	0.923200	0.201800
O2431	O243	0.337400	0.113200	0.094100
O2441	O244	0.855300	0.939700	0.188300
O2451	O245	0.885600	0.086500	0.072600
O2461	O246	0.825900	0.137900	0.139400
O2471	O247	0.515000	0.990600	0.143200
O2481	O248	0.679500	0.995700	0.019200
O2491	O249	0.457300	0.051100	0.227500
O2501	O250	0.854900	0.036300	0.239600
O2511	O251	0.903600	0.233200	0.908500
O2521	O252	0.951400	0.950600	0.125000
O2531	O253	0.792100	0.124600	0.014600
O2541	O254	0.906900	0.056100	0.156800
O2551	O255	0.786300	0.873100	0.134100
O2561	O256	0.733700	0.175800	0.084300
O2571	O257	0.661400	0.110200	0.027800
O2581	O258	0.588400	0.946100	0.072900
O2591	O259	0.635000	0.021900	0.182800
O2601	O260	0.611800	0.913300	0.160300
O2611	O261	0.880400	0.884500	0.066500
O2621	O262	0.753800	0.306400	0.073700
O2631	O263	0.919400	0.268000	0.977800
O2641	O264	0.649500	0.290900	0.057600
O2651	O265	0.802500	0.463000	0.889100
O2661	O266	0.752800	0.570700	0.919300
O2671	O267	0.723400	0.532400	0.825900
O2681	O268	0.660800	0.477500	0.900900
O2691	O269	0.572400	0.488000	0.960400
O2701	O270	0.171300	0.386400	0.816500
O2711	O271	0.969800	0.306000	0.799100
O2721	O272	0.104800	0.552700	0.863200
O2731	O273	0.582900	0.342600	0.852000
O2741	O274	0.639900	0.703300	0.935700
O2751	O275	0.737100	0.413400	0.963800
O2761	O276	0.731800	0.622600	0.779000
O2771	O277	0.889400	0.557100	0.899800
O2781	O278	0.984900	0.584300	0.713500
O2791	O279	0.039300	0.374600	0.819600
O2801	O280	0.821500	0.621100	0.844400
O2811	O281	0.775600	0.520800	0.748500
O2821	O282	0.695900	0.511100	0.994000
O2831	O283	0.826900	0.359500	0.909800
O2841	O284	0.270300	0.349200	0.824300
O2851	O285	0.858500	0.383900	0.998400
O2861	O286	0.768700	0.423200	0.798200
O2871	O287	0.162600	0.613200	0.905900
O2881	O288	0.644700	0.439700	0.811700
O2891	O289	0.614400	0.586500	0.927400
O2901	O290	0.674100	0.637900	0.860600
O2911	O291	0.985000	0.490600	0.856800
O2921	O292	0.820500	0.495700	0.980800
O2931	O293	0.042700	0.551100	0.772500
O2941	O294	0.645100	0.536300	0.760400
O2951	O295	0.596400	0.733200	0.091500
O2961	O296	0.548600	0.450600	0.875000
O2971	O297	0.707900	0.624600	0.985400
O2981	O298	0.593100	0.556100	0.843200
O2991	O299	0.713700	0.373100	0.865900
O3001	O300	0.766300	0.675800	0.915700
O3011	O301	0.838600	0.610200	0.972200
O3021	O302	0.911600	0.446100	0.927100
O3031	O303	0.865000	0.521900	0.817200
O3041	O304	0.888200	0.413300	0.839700
O3051	O305	0.619600	0.384500	0.933500
O3061	O306	0.746200	0.806400	0.926300
O3071	O307	0.580600	0.768000	0.022200
O3081	O308	0.850500	0.790900	0.942400
O3091	O309	0.197500	0.037000	0.389100
O3101	O310	0.247200	0.929300	0.419300
O3111	O311	0.276600	0.967600	0.325900
O3121	O312	0.339200	0.022500	0.400900
O3131	O313	0.427600	0.012000	0.460400
O3141	O314	0.828700	0.113600	0.316500
O3151	O315	0.030200	0.194000	0.299100
O3161	O316	0.895200	0.947300	0.363200
O3171	O317	0.417100	0.157400	0.352000
O3181	O318	0.360100	0.796700	0.435700
O3191	O319	0.262900	0.086600	0.463800
O3201	O320	0.268200	0.877400	0.279000
O3211	O321	0.110600	0.942900	0.399800
O3221	O322	0.015100	0.915700	0.213500
O3231	O323	0.960700	0.125400	0.319600
O3241	O324	0.178500	0.878900	0.344400
O3251	O325	0.224400	0.979200	0.248500
O3261	O326	0.304100	0.988900	0.494000
O3271	O327	0.173100	0.140500	0.409800
O3281	O328	0.729700	0.150800	0.324300
O3291	O329	0.141500	0.116100	0.498400
O3301	O330	0.231300	0.076800	0.298200
O3311	O331	0.837400	0.886800	0.405900
O3321	O332	0.355300	0.060300	0.311700
O3331	O333	0.385600	0.913500	0.427400
O3341	O334	0.325900	0.862100	0.360600
O3351	O335	0.015000	0.009400	0.356800
O3361	O336	0.179500	0.004300	0.480800
O3371	O337	0.957300	0.948900	0.272500
O3381	O338	0.354900	0.963700	0.260400
O3391	O339	0.403600	0.766800	0.591500
O3401	O340	0.451400	0.049400	0.375000
O3411	O341	0.292100	0.875400	0.485400
O3421	O342	0.406900	0.943900	0.343200
O3431	O343	0.286300	0.126900	0.365900
O3441	O344	0.233700	0.824200	0.415700
O3451	O345	0.161400	0.889800	0.472200
O3461	O346	0.088400	0.053900	0.427100
O3471	O347	0.135000	0.978100	0.317200
O3481	O348	0.111800	0.086700	0.339700
O3491	O349	0.380400	0.115500	0.433500
O3501	O350	0.253800	0.693600	0.426300
O3511	O351	0.419400	0.732000	0.522200
O3521	O352	0.149500	0.709100	0.442400
