data_DUYREV_clean_PM
_symmetry_space_group_name_H-M	'P1'
_cell_length_a	20.489000
_cell_length_b	23.440000
_cell_length_c	29.486000
_cell_angle_alpha	90.000000
_cell_angle_beta	90.000000
_cell_angle_gamma	90.000000
_symmetry_Int_Tables_number 1

loop_
_symmetry_equiv_pos_as_xyz
'x,y,z'

loop_
_atom_site_label
_atom_site_type_symbol
_atom_site_fract_x
_atom_site_fract_y
_atom_site_fract_z
Pr11	Pr1	0.591260	0.031880	0.182920
Pr21	Pr2	0.378270	0.193820	0.947900
Pr31	Pr3	0.493490	0.270820	0.144810
Pr41	Pr4	0.408740	0.468120	0.682920
Pr51	Pr5	0.621730	0.306180	0.447900
Pr61	Pr6	0.506510	0.229180	0.644810
Pr71	Pr7	0.091260	0.968120	0.317080
Pr81	Pr8	0.878270	0.806180	0.552100
Pr91	Pr9	0.993490	0.729180	0.355190
Pr101	Pr10	0.908740	0.531880	0.817080
Pr111	Pr11	0.121730	0.693820	0.052100
Pr121	Pr12	0.006510	0.770820	0.855190
Pr131	Pr13	0.408740	0.968120	0.817080
Pr141	Pr14	0.621730	0.806180	0.052100
Pr151	Pr15	0.506510	0.729180	0.855190
Pr161	Pr16	0.591260	0.531880	0.317080
Pr171	Pr17	0.378270	0.693820	0.552100
Pr181	Pr18	0.493490	0.770820	0.355190
Pr191	Pr19	0.908740	0.031880	0.682920
Pr201	Pr20	0.121730	0.193820	0.447900
Pr211	Pr21	0.006510	0.270820	0.644810
Pr221	Pr22	0.091260	0.468120	0.182920
Pr231	Pr23	0.878270	0.306180	0.947900
Pr241	Pr24	0.993490	0.229180	0.144810
H11	H1	0.140000	0.259200	0.020000
H21	H2	0.173500	0.293900	0.086400
H31	H3	0.282200	0.288700	0.105300
H41	H4	0.782200	0.925600	0.084700
H51	H5	0.866400	0.991600	0.092600
H61	H6	0.842300	0.076900	0.134100
H71	H7	0.403300	0.991300	0.314000
H81	H8	0.352800	0.081600	0.312000
H91	H9	0.394200	0.150600	0.266200
H101	H10	0.860000	0.240800	0.520000
H111	H11	0.826500	0.206100	0.586400
H121	H12	0.717800	0.211300	0.605300
H131	H13	0.217800	0.574400	0.584700
H141	H14	0.133600	0.508400	0.592600
H151	H15	0.157700	0.423100	0.634100
H161	H16	0.596700	0.508700	0.814000
H171	H17	0.647200	0.418400	0.812000
H181	H18	0.605800	0.349400	0.766200
H191	H19	0.640000	0.740800	0.480000
H201	H20	0.673500	0.706100	0.413600
H211	H21	0.782200	0.711300	0.394700
H221	H22	0.282200	0.074400	0.415300
H231	H23	0.366400	0.008400	0.407400
H241	H24	0.342300	0.923100	0.365900
H251	H25	0.903300	0.008700	0.186000
H261	H26	0.852800	0.918400	0.188000
H271	H27	0.894200	0.849400	0.233800
H281	H28	0.360000	0.759200	0.980000
H291	H29	0.326500	0.793900	0.913600
H301	H30	0.217800	0.788700	0.894700
H311	H31	0.717800	0.425600	0.915300
H321	H32	0.633600	0.491600	0.907400
H331	H33	0.657700	0.576900	0.865900
H341	H34	0.096700	0.491300	0.686000
H351	H35	0.147200	0.581600	0.688000
H361	H36	0.105800	0.650600	0.733800
H371	H37	0.860000	0.740800	0.980000
H381	H38	0.826500	0.706100	0.913600
H391	H39	0.717800	0.711300	0.894700
H401	H40	0.217800	0.074400	0.915300
H411	H41	0.133600	0.008400	0.907400
H421	H42	0.157700	0.923100	0.865900
H431	H43	0.596700	0.008700	0.686000
H441	H44	0.647200	0.918400	0.688000
H451	H45	0.605800	0.849400	0.733800
H461	H46	0.140000	0.759200	0.480000
H471	H47	0.173500	0.793900	0.413600
H481	H48	0.282200	0.788700	0.394700
H491	H49	0.782200	0.425600	0.415300
H501	H50	0.866400	0.491600	0.407400
H511	H51	0.842300	0.576900	0.365900
H521	H52	0.403300	0.491300	0.186000
H531	H53	0.352800	0.581600	0.188000
H541	H54	0.394200	0.650600	0.233800
H551	H55	0.360000	0.259200	0.520000
H561	H56	0.326500	0.293900	0.586400
H571	H57	0.217800	0.288700	0.605300
H581	H58	0.717800	0.925600	0.584700
H591	H59	0.633600	0.991600	0.592600
H601	H60	0.657700	0.076900	0.634100
H611	H61	0.096700	0.991300	0.814000
H621	H62	0.147200	0.081600	0.812000
H631	H63	0.105800	0.150600	0.766200
H641	H64	0.640000	0.240800	0.020000
H651	H65	0.673500	0.206100	0.086400
H661	H66	0.782200	0.211300	0.105300
H671	H67	0.282200	0.574400	0.084700
H681	H68	0.366400	0.508400	0.092600
H691	H69	0.342300	0.423100	0.134100
H701	H70	0.903300	0.508700	0.314000
H711	H71	0.852800	0.418400	0.312000
H721	H72	0.894200	0.349400	0.266200
W11	W1	0.065840	0.977260	0.100410
W21	W2	0.129820	0.098310	0.131310
W31	W3	0.180680	0.859940	0.075580
W41	W4	0.338740	0.871440	0.092330
W51	W5	0.402960	0.011890	0.128240
W61	W6	0.325670	0.077460	0.047260
W71	W7	0.309720	0.923680	0.209220
W81	W8	0.151740	0.902870	0.194360
W91	W9	0.268900	0.937370	0.006100
W101	W10	0.207630	0.027790	0.227240
W111	W11	0.149660	0.053940	0.028040
W121	W12	0.306390	0.119320	0.151440
W131	W13	0.934160	0.522740	0.600410
W141	W14	0.870180	0.401690	0.631310
W151	W15	0.819320	0.640060	0.575580
W161	W16	0.661260	0.628560	0.592330
W171	W17	0.597040	0.488110	0.628240
W181	W18	0.674330	0.422540	0.547260
W191	W19	0.690280	0.576320	0.709220
W201	W20	0.848260	0.597130	0.694360
W211	W21	0.731100	0.562630	0.506100
W221	W22	0.792370	0.472210	0.727240
W231	W23	0.850340	0.446060	0.528040
W241	W24	0.693610	0.380680	0.651440
W251	W25	0.565840	0.022740	0.399590
W261	W26	0.629820	0.901690	0.368690
W271	W27	0.680680	0.140060	0.424420
W281	W28	0.838740	0.128560	0.407670
W291	W29	0.902960	0.988110	0.371760
W301	W30	0.825670	0.922540	0.452740
W311	W31	0.809720	0.076320	0.290780
W321	W32	0.651740	0.097130	0.305640
W331	W33	0.768900	0.062630	0.493900
W341	W34	0.707630	0.972210	0.272760
W351	W35	0.649660	0.946060	0.471960
W361	W36	0.806390	0.880680	0.348560
W371	W37	0.434160	0.477260	0.899590
W381	W38	0.370180	0.598310	0.868690
W391	W39	0.319320	0.359940	0.924420
W401	W40	0.161260	0.371440	0.907670
W411	W41	0.097040	0.511890	0.871760
W421	W42	0.174330	0.577460	0.952740
W431	W43	0.190280	0.423680	0.790780
W441	W44	0.348260	0.402870	0.805640
W451	W45	0.231100	0.437370	0.993900
W461	W46	0.292370	0.527790	0.772760
W471	W47	0.350340	0.553940	0.971960
W481	W48	0.193610	0.619320	0.848560
W491	W49	0.934160	0.022740	0.899590
W501	W50	0.870180	0.901690	0.868690
W511	W51	0.819320	0.140060	0.924420
W521	W52	0.661260	0.128560	0.907670
W531	W53	0.597040	0.988110	0.871760
W541	W54	0.674330	0.922540	0.952740
W551	W55	0.690280	0.076320	0.790780
W561	W56	0.848260	0.097130	0.805640
W571	W57	0.731100	0.062630	0.993900
W581	W58	0.792370	0.972210	0.772760
W591	W59	0.850340	0.946060	0.971960
W601	W60	0.693610	0.880680	0.848560
W611	W61	0.065840	0.477260	0.399590
W621	W62	0.129820	0.598310	0.368690
W631	W63	0.180680	0.359940	0.424420
W641	W64	0.338740	0.371440	0.407670
W651	W65	0.402960	0.511890	0.371760
W661	W66	0.325670	0.577460	0.452740
W671	W67	0.309720	0.423680	0.290780
W681	W68	0.151740	0.402870	0.305640
W691	W69	0.268900	0.437370	0.493900
W701	W70	0.207630	0.527790	0.272760
W711	W71	0.149660	0.553940	0.471960
W721	W72	0.306390	0.619320	0.348560
W731	W73	0.434160	0.977260	0.600410
W741	W74	0.370180	0.098310	0.631310
W751	W75	0.319320	0.859940	0.575580
W761	W76	0.161260	0.871440	0.592330
W771	W77	0.097040	0.011890	0.628240
W781	W78	0.174330	0.077460	0.547260
W791	W79	0.190280	0.923680	0.709220
W801	W80	0.348260	0.902870	0.694360
W811	W81	0.231100	0.937370	0.506100
W821	W82	0.292370	0.027790	0.727240
W831	W83	0.350340	0.053940	0.528040
W841	W84	0.193610	0.119320	0.651440
W851	W85	0.565840	0.522740	0.100410
W861	W86	0.629820	0.401690	0.131310
W871	W87	0.680680	0.640060	0.075580
W881	W88	0.838740	0.628560	0.092330
W891	W89	0.902960	0.488110	0.128240
W901	W90	0.825670	0.422540	0.047260
W911	W91	0.809720	0.576320	0.209220
W921	W92	0.651740	0.597130	0.194360
W931	W93	0.768900	0.562630	0.006100
W941	W94	0.707630	0.472210	0.227240
W951	W95	0.649660	0.446060	0.028040
W961	W96	0.806390	0.380680	0.151440
C11	C1	0.226700	0.236700	0.997900
C21	C2	0.184200	0.258300	0.027400
C31	C3	0.203500	0.278200	0.066200
C41	C4	0.267600	0.275900	0.077200
C51	C5	0.311500	0.253900	0.045300
C61	C6	0.212500	0.212600	0.954800
C71	C7	0.385400	0.248700	0.051400
C81	C8	0.713500	0.969400	0.122700
C91	C9	0.775800	0.958800	0.101300
C101	C10	0.825500	0.997800	0.105400
C111	C11	0.810800	0.048700	0.130700
C121	C12	0.750000	0.055500	0.149800
C131	C13	0.656900	0.934000	0.117600
C141	C14	0.729400	0.108000	0.171100
C151	C15	0.471500	0.011400	0.265400
C161	C16	0.418200	0.020000	0.294900
C171	C17	0.389000	0.073900	0.293900
C181	C18	0.413500	0.114600	0.266700
C191	C19	0.465300	0.104300	0.240200
C201	C20	0.502900	0.954500	0.258700
C211	C21	0.492900	0.144600	0.205800
C221	C22	0.773300	0.263300	0.497900
C231	C23	0.815800	0.241700	0.527400
C241	C24	0.796500	0.221800	0.566200
C251	C25	0.732400	0.224100	0.577200
C261	C26	0.688500	0.246100	0.545300
C271	C27	0.787500	0.287400	0.454800
C281	C28	0.614600	0.251300	0.551400
C291	C29	0.286500	0.530600	0.622700
C301	C30	0.224200	0.541200	0.601300
C311	C31	0.174500	0.502200	0.605400
C321	C32	0.189200	0.451300	0.630700
C331	C33	0.250000	0.444500	0.649800
C341	C34	0.343100	0.566000	0.617600
C351	C35	0.270600	0.392000	0.671100
C361	C36	0.528500	0.488600	0.765400
C371	C37	0.581800	0.480000	0.794900
C381	C38	0.611000	0.426100	0.793900
C391	C39	0.586500	0.385400	0.766700
C401	C40	0.534700	0.395700	0.740200
C411	C41	0.497100	0.545500	0.758700
C421	C42	0.507100	0.355400	0.705800
C431	C43	0.726700	0.763300	0.502100
C441	C44	0.684200	0.741700	0.472600
C451	C45	0.703500	0.721800	0.433800
C461	C46	0.767600	0.724100	0.422800
C471	C47	0.811500	0.746100	0.454700
C481	C48	0.712500	0.787400	0.545200
C491	C49	0.885400	0.751300	0.448600
C501	C50	0.213500	0.030600	0.377300
C511	C51	0.275800	0.041200	0.398700
C521	C52	0.325500	0.002200	0.394600
C531	C53	0.310800	0.951300	0.369300
C541	C54	0.250000	0.944500	0.350200
C551	C55	0.156900	0.066000	0.382400
C561	C56	0.229400	0.892000	0.328900
C571	C57	0.971500	0.988600	0.234600
C581	C58	0.918200	0.980000	0.205100
C591	C59	0.889000	0.926100	0.206100
C601	C60	0.913500	0.885400	0.233300
C611	C61	0.965300	0.895700	0.259800
C621	C62	0.002900	0.045500	0.241300
C631	C63	0.992900	0.855400	0.294200
C641	C64	0.273300	0.736700	0.002100
C651	C65	0.315800	0.758300	0.972600
C661	C66	0.296500	0.778200	0.933800
C671	C67	0.232400	0.775900	0.922800
C681	C68	0.188500	0.753900	0.954700
C691	C69	0.287500	0.712600	0.045200
C701	C70	0.114600	0.748700	0.948600
C711	C71	0.786500	0.469400	0.877300
C721	C72	0.724200	0.458800	0.898700
C731	C73	0.674500	0.497800	0.894600
C741	C74	0.689200	0.548700	0.869300
C751	C75	0.750000	0.555500	0.850200
C761	C76	0.843100	0.434000	0.882400
C771	C77	0.770600	0.608000	0.828900
C781	C78	0.028500	0.511400	0.734600
C791	C79	0.081800	0.520000	0.705100
C801	C80	0.111000	0.573900	0.706100
C811	C81	0.086500	0.614600	0.733300
C821	C82	0.034700	0.604300	0.759800
C831	C83	0.997100	0.454500	0.741300
C841	C84	0.007100	0.644600	0.794200
C851	C85	0.773300	0.763300	0.002100
C861	C86	0.815800	0.741700	0.972600
C871	C87	0.796500	0.721800	0.933800
C881	C88	0.732400	0.724100	0.922800
C891	C89	0.688500	0.746100	0.954700
C901	C90	0.787500	0.787400	0.045200
C911	C91	0.614600	0.751300	0.948600
C921	C92	0.286500	0.030600	0.877300
C931	C93	0.224200	0.041200	0.898700
C941	C94	0.174500	0.002200	0.894600
C951	C95	0.189200	0.951300	0.869300
C961	C96	0.250000	0.944500	0.850200
C971	C97	0.343100	0.066000	0.882400
C981	C98	0.270600	0.892000	0.828900
C991	C99	0.528500	0.988600	0.734600
C1001	C100	0.581800	0.980000	0.705100
C1011	C101	0.611000	0.926100	0.706100
C1021	C102	0.586500	0.885400	0.733300
C1031	C103	0.534700	0.895700	0.759800
C1041	C104	0.497100	0.045500	0.741300
C1051	C105	0.507100	0.855400	0.794200
C1061	C106	0.226700	0.736700	0.502100
C1071	C107	0.184200	0.758300	0.472600
C1081	C108	0.203500	0.778200	0.433800
C1091	C109	0.267600	0.775900	0.422800
C1101	C110	0.311500	0.753900	0.454700
C1111	C111	0.212500	0.712600	0.545200
C1121	C112	0.385400	0.748700	0.448600
C1131	C113	0.713500	0.469400	0.377300
C1141	C114	0.775800	0.458800	0.398700
C1151	C115	0.825500	0.497800	0.394600
C1161	C116	0.810800	0.548700	0.369300
C1171	C117	0.750000	0.555500	0.350200
C1181	C118	0.656900	0.434000	0.382400
C1191	C119	0.729400	0.608000	0.328900
C1201	C120	0.471500	0.511400	0.234600
C1211	C121	0.418200	0.520000	0.205100
C1221	C122	0.389000	0.573900	0.206100
C1231	C123	0.413500	0.614600	0.233300
C1241	C124	0.465300	0.604300	0.259800
C1251	C125	0.502900	0.454500	0.241300
C1261	C126	0.492900	0.644600	0.294200
C1271	C127	0.273300	0.236700	0.497900
C1281	C128	0.315800	0.258300	0.527400
C1291	C129	0.296500	0.278200	0.566200
C1301	C130	0.232400	0.275900	0.577200
C1311	C131	0.188500	0.253900	0.545300
C1321	C132	0.287500	0.212600	0.454800
C1331	C133	0.114600	0.248700	0.551400
C1341	C134	0.786500	0.969400	0.622700
C1351	C135	0.724200	0.958800	0.601300
C1361	C136	0.674500	0.997800	0.605400
C1371	C137	0.689200	0.048700	0.630700
C1381	C138	0.750000	0.055500	0.649800
C1391	C139	0.843100	0.934000	0.617600
C1401	C140	0.770600	0.108000	0.671100
C1411	C141	0.028500	0.011400	0.765400
C1421	C142	0.081800	0.020000	0.794900
C1431	C143	0.111000	0.073900	0.793900
C1441	C144	0.086500	0.114600	0.766700
C1451	C145	0.034700	0.104300	0.740200
C1461	C146	0.997100	0.954500	0.758700
C1471	C147	0.007100	0.144600	0.705800
C1481	C148	0.726700	0.263300	0.997900
C1491	C149	0.684200	0.241700	0.027400
C1501	C150	0.703500	0.221800	0.066200
C1511	C151	0.767600	0.224100	0.077200
C1521	C152	0.811500	0.246100	0.045300
C1531	C153	0.712500	0.287400	0.954800
C1541	C154	0.885400	0.251300	0.051400
C1551	C155	0.213500	0.530600	0.122700
C1561	C156	0.275800	0.541200	0.101300
C1571	C157	0.325500	0.502200	0.105400
C1581	C158	0.310800	0.451300	0.130700
C1591	C159	0.250000	0.444500	0.149800
C1601	C160	0.156900	0.566000	0.117600
C1611	C161	0.229400	0.392000	0.171100
C1621	C162	0.971500	0.488600	0.265400
C1631	C163	0.918200	0.480000	0.294900
C1641	C164	0.889000	0.426100	0.293900
C1651	C165	0.913500	0.385400	0.266700
C1661	C166	0.965300	0.395700	0.240200
C1671	C167	0.002900	0.545500	0.258700
C1681	C168	0.992900	0.355400	0.205800
N11	N1	0.291700	0.233800	0.006500
N21	N2	0.703300	0.018100	0.145200
N31	N3	0.494200	0.052800	0.239600
N41	N4	0.708300	0.266200	0.506500
N51	N5	0.296700	0.481900	0.645200
N61	N6	0.505800	0.447200	0.739600
N71	N7	0.791700	0.766200	0.493500
N81	N8	0.203300	0.981900	0.354800
N91	N9	0.994200	0.947200	0.260400
N101	N10	0.208300	0.733800	0.993500
N111	N11	0.796700	0.518100	0.854800
N121	N12	0.005800	0.552800	0.760400
N131	N13	0.708300	0.766200	0.993500
N141	N14	0.296700	0.981900	0.854800
N151	N15	0.505800	0.947200	0.760400
N161	N16	0.291700	0.733800	0.493500
N171	N17	0.703300	0.518100	0.354800
N181	N18	0.494200	0.552800	0.260400
N191	N19	0.208300	0.233800	0.506500
N201	N20	0.796700	0.018100	0.645200
N211	N21	0.005800	0.052800	0.739600
N221	N22	0.791700	0.266200	0.006500
N231	N23	0.203300	0.481900	0.145200
N241	N24	0.994200	0.447200	0.239600
O11	O1	0.161600	0.022700	0.099200
O21	O2	0.252900	0.929300	0.080900
O31	O3	0.223400	0.967000	0.173800
O41	O4	0.237400	0.086200	0.036300
O51	O5	0.114800	0.913400	0.072900
O61	O6	0.148500	0.209800	0.944200
O71	O7	0.338600	0.889800	0.027800
O81	O8	0.321500	0.878300	0.154600
O91	O9	0.387800	0.085300	0.160200
O101	O10	0.471400	0.193100	0.201900
O111	O11	0.540200	0.125900	0.181500
O121	O12	0.083700	0.157200	0.148800
O131	O13	0.048000	0.048600	0.125000
O141	O14	0.174300	0.862200	0.139000
O151	O15	0.145800	0.060600	0.187400
O161	O16	0.139700	0.796900	0.063300
O171	O17	0.319900	0.003300	0.019800
O181	O18	0.269300	0.076000	0.201600
O191	O19	0.230700	0.877200	0.220600
O201	O20	0.388900	0.942200	0.100000
O211	O21	0.411200	0.052500	0.073400
O221	O22	0.072500	0.012200	0.039400
O231	O23	0.358500	0.117500	0.002900
O241	O24	0.276000	0.978300	0.251400
O251	O25	0.326000	0.140800	0.090700
O261	O26	0.196500	0.989300	0.006400
O271	O27	0.542500	0.949400	0.227400
O281	O28	0.483600	0.009400	0.142900
O291	O29	0.671300	0.112800	0.182900
O301	O30	0.365600	0.977600	0.181400
O311	O31	0.145200	0.962900	0.239300
O321	O32	0.252800	0.194300	0.927900
O331	O33	0.207800	0.875700	0.013900
O341	O34	0.402700	0.266700	0.092000
O351	O35	0.664000	0.886800	0.095800
O361	O36	0.119400	0.115900	0.067200
O371	O37	0.266300	0.823600	0.084300
O381	O38	0.484100	0.916000	0.286900
O391	O39	0.092800	0.944200	0.155600
O401	O40	0.770800	0.150000	0.174900
O411	O41	0.213200	0.126600	0.134400
O421	O42	0.605800	0.946800	0.137300
O431	O43	0.304100	0.037200	0.111300
O441	O44	0.418500	0.230400	0.021000
O451	O45	0.838400	0.477300	0.599200
O461	O46	0.747100	0.570700	0.580900
O471	O47	0.776600	0.533000	0.673800
O481	O48	0.762600	0.413800	0.536300
O491	O49	0.885200	0.586600	0.572900
O501	O50	0.851500	0.290200	0.444200
O511	O51	0.661400	0.610200	0.527800
O521	O52	0.678500	0.621700	0.654600
O531	O53	0.612200	0.414700	0.660200
O541	O54	0.528600	0.306900	0.701900
O551	O55	0.459800	0.374100	0.681500
O561	O56	0.916300	0.342800	0.648800
O571	O57	0.952000	0.451400	0.625000
O581	O58	0.825700	0.637800	0.639000
O591	O59	0.854200	0.439400	0.687400
O601	O60	0.860300	0.703100	0.563300
O611	O61	0.680100	0.496700	0.519800
O621	O62	0.730700	0.424000	0.701600
O631	O63	0.769300	0.622800	0.720600
O641	O64	0.611100	0.557800	0.600000
O651	O65	0.588800	0.447500	0.573400
O661	O66	0.927500	0.487800	0.539400
O671	O67	0.641500	0.382500	0.502900
O681	O68	0.724000	0.521700	0.751400
O691	O69	0.674000	0.359200	0.590700
O701	O70	0.803500	0.510700	0.506400
O711	O71	0.457500	0.550600	0.727400
O721	O72	0.516400	0.490600	0.642900
O731	O73	0.328700	0.387200	0.682900
O741	O74	0.634400	0.522400	0.681400
O751	O75	0.854800	0.537100	0.739300
O761	O76	0.747200	0.305700	0.427900
O771	O77	0.792200	0.624300	0.513900
O781	O78	0.597300	0.233300	0.592000
O791	O79	0.336000	0.613200	0.595800
O801	O80	0.880600	0.384100	0.567200
O811	O81	0.733700	0.676400	0.584300
O821	O82	0.515900	0.584000	0.786900
O831	O83	0.907200	0.555800	0.655600
O841	O84	0.229200	0.350000	0.674900
O851	O85	0.786800	0.373400	0.634400
O861	O86	0.394200	0.553200	0.637300
O871	O87	0.695900	0.462800	0.611300
O881	O88	0.581500	0.269600	0.521000
O891	O89	0.661600	0.977300	0.400800
O901	O90	0.752900	0.070700	0.419100
O911	O91	0.723400	0.033000	0.326200
O921	O92	0.737400	0.913800	0.463700
O931	O93	0.614800	0.086600	0.427100
O941	O94	0.648500	0.790200	0.555800
O951	O95	0.838600	0.110200	0.472200
O961	O96	0.821500	0.121700	0.345400
O971	O97	0.887800	0.914700	0.339800
O981	O98	0.971400	0.806900	0.298100
O991	O99	0.040200	0.874100	0.318500
O1001	O100	0.583700	0.842800	0.351200
O1011	O101	0.548000	0.951400	0.375000
O1021	O102	0.674300	0.137800	0.361000
O1031	O103	0.645800	0.939400	0.312600
O1041	O104	0.639700	0.203100	0.436700
O1051	O105	0.819900	0.996700	0.480200
O1061	O106	0.769300	0.924000	0.298400
O1071	O107	0.730700	0.122800	0.279400
O1081	O108	0.888900	0.057800	0.400000
O1091	O109	0.911200	0.947500	0.426600
O1101	O110	0.572500	0.987800	0.460600
O1111	O111	0.858500	0.882500	0.497100
O1121	O112	0.776000	0.021700	0.248600
O1131	O113	0.826000	0.859200	0.409300
O1141	O114	0.696500	0.010700	0.493600
O1151	O115	0.042500	0.050600	0.272600
O1161	O116	0.983600	0.990600	0.357100
O1171	O117	0.171300	0.887200	0.317100
O1181	O118	0.865600	0.022400	0.318600
O1191	O119	0.645200	0.037100	0.260700
O1201	O120	0.752800	0.805700	0.572100
O1211	O121	0.707800	0.124300	0.486100
O1221	O122	0.902700	0.733300	0.408000
O1231	O123	0.164000	0.113200	0.404200
O1241	O124	0.619400	0.884100	0.432800
O1251	O125	0.766300	0.176400	0.415700
O1261	O126	0.984100	0.084000	0.213100
O1271	O127	0.592800	0.055800	0.344400
O1281	O128	0.270800	0.850000	0.325100
O1291	O129	0.713200	0.873400	0.365600
O1301	O130	0.105800	0.053200	0.362700
O1311	O131	0.804100	0.962800	0.388700
O1321	O132	0.918500	0.769600	0.479000
O1331	O133	0.338400	0.522700	0.900800
O1341	O134	0.247100	0.429300	0.919100
O1351	O135	0.276600	0.467000	0.826200
O1361	O136	0.262600	0.586200	0.963700
O1371	O137	0.385200	0.413400	0.927100
O1381	O138	0.351500	0.709800	0.055800
O1391	O139	0.161400	0.389800	0.972200
O1401	O140	0.178500	0.378300	0.845400
O1411	O141	0.112200	0.585300	0.839800
O1421	O142	0.028600	0.693100	0.798100
O1431	O143	0.959800	0.625900	0.818500
O1441	O144	0.416300	0.657200	0.851200
O1451	O145	0.452000	0.548600	0.875000
O1461	O146	0.325700	0.362200	0.861000
O1471	O147	0.354200	0.560600	0.812600
O1481	O148	0.360300	0.296900	0.936700
O1491	O149	0.180100	0.503300	0.980200
O1501	O150	0.230700	0.576000	0.798400
O1511	O151	0.269300	0.377200	0.779400
O1521	O152	0.111100	0.442200	0.900000
O1531	O153	0.088800	0.552500	0.926600
O1541	O154	0.427500	0.512200	0.960600
O1551	O155	0.141500	0.617500	0.997100
O1561	O156	0.224000	0.478300	0.748600
O1571	O157	0.174000	0.640800	0.909300
O1581	O158	0.303500	0.489300	0.993600
O1591	O159	0.957500	0.449400	0.772600
O1601	O160	0.016400	0.509400	0.857100
O1611	O161	0.828700	0.612800	0.817100
O1621	O162	0.134400	0.477600	0.818600
O1631	O163	0.354800	0.462900	0.760700
O1641	O164	0.247200	0.694300	0.072100
O1651	O165	0.292200	0.375700	0.986100
O1661	O166	0.097300	0.766700	0.908000
O1671	O167	0.836000	0.386800	0.904200
O1681	O168	0.380600	0.615900	0.932800
O1691	O169	0.233700	0.323600	0.915700
O1701	O170	0.015900	0.416000	0.713100
O1711	O171	0.407200	0.444200	0.844400
O1721	O172	0.729200	0.650000	0.825100
O1731	O173	0.286800	0.626600	0.865600
O1741	O174	0.894200	0.446800	0.862700
O1751	O175	0.195900	0.537200	0.888700
O1761	O176	0.081500	0.730400	0.979000
O1771	O177	0.838400	0.977300	0.900800
O1781	O178	0.747100	0.070700	0.919100
O1791	O179	0.776600	0.033000	0.826200
O1801	O180	0.762600	0.913800	0.963700
O1811	O181	0.885200	0.086600	0.927100
O1821	O182	0.851500	0.790200	0.055800
O1831	O183	0.661400	0.110200	0.972200
O1841	O184	0.678500	0.121700	0.845400
O1851	O185	0.612200	0.914700	0.839800
O1861	O186	0.528600	0.806900	0.798100
O1871	O187	0.459800	0.874100	0.818500
O1881	O188	0.916300	0.842800	0.851200
O1891	O189	0.952000	0.951400	0.875000
O1901	O190	0.825700	0.137800	0.861000
O1911	O191	0.854200	0.939400	0.812600
O1921	O192	0.860300	0.203100	0.936700
O1931	O193	0.680100	0.996700	0.980200
O1941	O194	0.730700	0.924000	0.798400
O1951	O195	0.769300	0.122800	0.779400
O1961	O196	0.611100	0.057800	0.900000
O1971	O197	0.588800	0.947500	0.926600
O1981	O198	0.927500	0.987800	0.960600
O1991	O199	0.641500	0.882500	0.997100
O2001	O200	0.724000	0.021700	0.748600
O2011	O201	0.674000	0.859200	0.909300
O2021	O202	0.803500	0.010700	0.993600
O2031	O203	0.457500	0.050600	0.772600
O2041	O204	0.516400	0.990600	0.857100
O2051	O205	0.328700	0.887200	0.817100
O2061	O206	0.634400	0.022400	0.818600
O2071	O207	0.854800	0.037100	0.760700
O2081	O208	0.747200	0.805700	0.072100
O2091	O209	0.792200	0.124300	0.986100
O2101	O210	0.597300	0.733300	0.908000
O2111	O211	0.336000	0.113200	0.904200
O2121	O212	0.880600	0.884100	0.932800
O2131	O213	0.733700	0.176400	0.915700
O2141	O214	0.515900	0.084000	0.713100
O2151	O215	0.907200	0.055800	0.844400
O2161	O216	0.229200	0.850000	0.825100
O2171	O217	0.786800	0.873400	0.865600
O2181	O218	0.394200	0.053200	0.862700
O2191	O219	0.695900	0.962800	0.888700
O2201	O220	0.581500	0.769600	0.979000
O2211	O221	0.161600	0.522700	0.400800
O2221	O222	0.252900	0.429300	0.419100
O2231	O223	0.223400	0.467000	0.326200
O2241	O224	0.237400	0.586200	0.463700
O2251	O225	0.114800	0.413400	0.427100
O2261	O226	0.148500	0.709800	0.555800
O2271	O227	0.338600	0.389800	0.472200
O2281	O228	0.321500	0.378300	0.345400
O2291	O229	0.387800	0.585300	0.339800
O2301	O230	0.471400	0.693100	0.298100
O2311	O231	0.540200	0.625900	0.318500
O2321	O232	0.083700	0.657200	0.351200
O2331	O233	0.048000	0.548600	0.375000
O2341	O234	0.174300	0.362200	0.361000
O2351	O235	0.145800	0.560600	0.312600
O2361	O236	0.139700	0.296900	0.436700
O2371	O237	0.319900	0.503300	0.480200
O2381	O238	0.269300	0.576000	0.298400
O2391	O239	0.230700	0.377200	0.279400
O2401	O240	0.388900	0.442200	0.400000
O2411	O241	0.411200	0.552500	0.426600
O2421	O242	0.072500	0.512200	0.460600
O2431	O243	0.358500	0.617500	0.497100
O2441	O244	0.276000	0.478300	0.248600
O2451	O245	0.326000	0.640800	0.409300
O2461	O246	0.196500	0.489300	0.493600
O2471	O247	0.542500	0.449400	0.272600
O2481	O248	0.483600	0.509400	0.357100
O2491	O249	0.671300	0.612800	0.317100
O2501	O250	0.365600	0.477600	0.318600
O2511	O251	0.145200	0.462900	0.260700
O2521	O252	0.252800	0.694300	0.572100
O2531	O253	0.207800	0.375700	0.486100
O2541	O254	0.402700	0.766700	0.408000
O2551	O255	0.664000	0.386800	0.404200
O2561	O256	0.119400	0.615900	0.432800
O2571	O257	0.266300	0.323600	0.415700
O2581	O258	0.484100	0.416000	0.213100
O2591	O259	0.092800	0.444200	0.344400
O2601	O260	0.770800	0.650000	0.325100
O2611	O261	0.213200	0.626600	0.365600
O2621	O262	0.605800	0.446800	0.362700
O2631	O263	0.304100	0.537200	0.388700
O2641	O264	0.418500	0.730400	0.479000
O2651	O265	0.338400	0.022700	0.599200
O2661	O266	0.247100	0.929300	0.580900
O2671	O267	0.276600	0.967000	0.673800
O2681	O268	0.262600	0.086200	0.536300
O2691	O269	0.385200	0.913400	0.572900
O2701	O270	0.351500	0.209800	0.444200
O2711	O271	0.161400	0.889800	0.527800
O2721	O272	0.178500	0.878300	0.654600
O2731	O273	0.112200	0.085300	0.660200
O2741	O274	0.028600	0.193100	0.701900
O2751	O275	0.959800	0.125900	0.681500
O2761	O276	0.416300	0.157200	0.648800
O2771	O277	0.452000	0.048600	0.625000
O2781	O278	0.325700	0.862200	0.639000
O2791	O279	0.354200	0.060600	0.687400
O2801	O280	0.360300	0.796900	0.563300
O2811	O281	0.180100	0.003300	0.519800
O2821	O282	0.230700	0.076000	0.701600
O2831	O283	0.269300	0.877200	0.720600
O2841	O284	0.111100	0.942200	0.600000
O2851	O285	0.088800	0.052500	0.573400
O2861	O286	0.427500	0.012200	0.539400
O2871	O287	0.141500	0.117500	0.502900
O2881	O288	0.224000	0.978300	0.751400
O2891	O289	0.174000	0.140800	0.590700
O2901	O290	0.303500	0.989300	0.506400
O2911	O291	0.957500	0.949400	0.727400
O2921	O292	0.016400	0.009400	0.642900
O2931	O293	0.828700	0.112800	0.682900
O2941	O294	0.134400	0.977600	0.681400
O2951	O295	0.354800	0.962900	0.739300
O2961	O296	0.247200	0.194300	0.427900
O2971	O297	0.292200	0.875700	0.513900
O2981	O298	0.097300	0.266700	0.592000
O2991	O299	0.836000	0.886800	0.595800
O3001	O300	0.380600	0.115900	0.567200
O3011	O301	0.233700	0.823600	0.584300
O3021	O302	0.015900	0.916000	0.786900
O3031	O303	0.407200	0.944200	0.655600
O3041	O304	0.729200	0.150000	0.674900
O3051	O305	0.286800	0.126600	0.634400
O3061	O306	0.894200	0.946800	0.637300
O3071	O307	0.195900	0.037200	0.611300
O3081	O308	0.081500	0.230400	0.521000
O3091	O309	0.661600	0.477300	0.099200
O3101	O310	0.752900	0.570700	0.080900
O3111	O311	0.723400	0.533000	0.173800
O3121	O312	0.737400	0.413800	0.036300
O3131	O313	0.614800	0.586600	0.072900
O3141	O314	0.648500	0.290200	0.944200
O3151	O315	0.838600	0.610200	0.027800
O3161	O316	0.821500	0.621700	0.154600
O3171	O317	0.887800	0.414700	0.160200
O3181	O318	0.971400	0.306900	0.201900
O3191	O319	0.040200	0.374100	0.181500
O3201	O320	0.583700	0.342800	0.148800
O3211	O321	0.548000	0.451400	0.125000
O3221	O322	0.674300	0.637800	0.139000
O3231	O323	0.645800	0.439400	0.187400
O3241	O324	0.639700	0.703100	0.063300
O3251	O325	0.819900	0.496700	0.019800
O3261	O326	0.769300	0.424000	0.201600
O3271	O327	0.730700	0.622800	0.220600
O3281	O328	0.888900	0.557800	0.100000
O3291	O329	0.911200	0.447500	0.073400
O3301	O330	0.572500	0.487800	0.039400
O3311	O331	0.858500	0.382500	0.002900
O3321	O332	0.776000	0.521700	0.251400
O3331	O333	0.826000	0.359200	0.090700
O3341	O334	0.696500	0.510700	0.006400
O3351	O335	0.042500	0.550600	0.227400
O3361	O336	0.983600	0.490600	0.142900
O3371	O337	0.171300	0.387200	0.182900
O3381	O338	0.865600	0.522400	0.181400
O3391	O339	0.645200	0.537100	0.239300
O3401	O340	0.752800	0.305700	0.927900
O3411	O341	0.707800	0.624300	0.013900
O3421	O342	0.902700	0.233300	0.092000
O3431	O343	0.164000	0.613200	0.095800
O3441	O344	0.619400	0.384100	0.067200
O3451	O345	0.766300	0.676400	0.084300
O3461	O346	0.984100	0.584000	0.286900
O3471	O347	0.592800	0.555800	0.155600
O3481	O348	0.270800	0.350000	0.174900
O3491	O349	0.713200	0.373400	0.134400
O3501	O350	0.105800	0.553200	0.137300
O3511	O351	0.804100	0.462800	0.111300
O3521	O352	0.918500	0.269600	0.021000
