data_DUYVEA_clean_PM
_symmetry_space_group_name_H-M	'P1'
_cell_length_a	7.087000
_cell_length_b	17.669000
_cell_length_c	17.793000
_cell_angle_alpha	90.000000
_cell_angle_beta	90.000000
_cell_angle_gamma	90.000000
_symmetry_Int_Tables_number 1

loop_
_symmetry_equiv_pos_as_xyz
'x,y,z'

loop_
_atom_site_label
_atom_site_type_symbol
_atom_site_fract_x
_atom_site_fract_y
_atom_site_fract_z
Cd11	Cd1	0.722460	0.986940	0.526770
C11	C1	0.793000	0.814600	0.578510
H11	H1	0.808100	0.839100	0.624400
C21	C2	0.761600	0.742480	0.443750
N11	N1	0.762600	0.856270	0.518000
N21	N2	0.794200	0.717110	0.242640
N31	N3	0.800100	0.751430	0.314650
C31	C3	0.753100	0.707890	0.368250
C41	C4	0.787200	0.700460	0.509060
H21	H2	0.793100	0.647900	0.506700
C51	C5	0.794300	0.764270	0.188470
C61	C6	0.803700	0.736800	0.577130
H31	H3	0.821700	0.709400	0.621200
C71	C7	0.690600	0.627660	0.361550
H41	H4	0.692200	0.612800	0.309600
H51	H5	0.564900	0.622700	0.381000
H61	H6	0.774500	0.595700	0.389700
C81	C8	0.748700	0.820830	0.452350
H71	H7	0.729300	0.850000	0.409500
C91	C9	0.791000	0.653800	0.102510
H81	H8	0.792600	0.623500	0.145200
C101	C10	0.792400	0.731810	0.111480
C111	C11	0.794700	0.848600	0.196820
H91	H9	0.682800	0.869100	0.174300
H101	H10	0.903900	0.869200	0.172300
H111	H11	0.797800	0.861500	0.249200
N41	N4	0.787300	0.620090	0.034800
O11	O1	0.661800	0.976230	0.655460
O21	O2	0.406800	0.966680	0.587080
C121	C12	0.791500	0.775710	0.047310
H121	H12	0.794100	0.828200	0.050900
C131	C13	0.485200	0.968100	0.649190
C141	C14	0.784300	0.662200	0.973800
H131	H13	0.780600	0.639100	0.926900
C151	C15	0.786700	0.741500	0.978800
H141	H14	0.784900	0.770700	0.935200
C161	C16	0.364000	0.961120	0.719440
H151	H15	0.246000	0.987700	0.711300
H161	H16	0.334700	0.908100	0.727800
C171	C17	0.456300	0.992100	0.787710
H171	H17	0.500000	0.042800	0.776200
H181	H18	0.567000	0.961500	0.798200
O31	O3	0.166900	0.992490	0.857800
C181	C18	0.338400	0.996010	0.859260
O41	O4	0.434400	0.006130	0.918740
Cd21	Cd2	0.277540	0.013060	0.026770
C191	C19	0.207000	0.185400	0.078510
H191	H19	0.191900	0.160900	0.124400
C201	C20	0.238400	0.257520	0.943750
N51	N5	0.237400	0.143730	0.018000
N61	N6	0.205800	0.282890	0.742640
N71	N7	0.199900	0.248570	0.814650
C211	C21	0.246900	0.292110	0.868250
C221	C22	0.212800	0.299540	0.009060
H201	H20	0.206900	0.352100	0.006700
C231	C23	0.205700	0.235730	0.688470
C241	C24	0.196300	0.263200	0.077130
H211	H21	0.178300	0.290600	0.121200
C251	C25	0.309400	0.372340	0.861550
H221	H22	0.307800	0.387200	0.809600
H231	H23	0.435100	0.377300	0.881000
H241	H24	0.225500	0.404300	0.889700
C261	C26	0.251300	0.179170	0.952350
H251	H25	0.270700	0.150000	0.909500
C271	C27	0.209000	0.346200	0.602510
H261	H26	0.207400	0.376500	0.645200
C281	C28	0.207600	0.268190	0.611480
C291	C29	0.205300	0.151400	0.696820
H271	H27	0.317200	0.130900	0.674300
H281	H28	0.096100	0.130800	0.672300
H291	H29	0.202200	0.138500	0.749200
N81	N8	0.212700	0.379910	0.534800
O51	O5	0.338200	0.023770	0.155460
O61	O6	0.593200	0.033320	0.087080
C301	C30	0.208500	0.224290	0.547310
H301	H30	0.205900	0.171800	0.550900
C311	C31	0.514800	0.031900	0.149190
C321	C32	0.215700	0.337800	0.473800
H311	H31	0.219400	0.360900	0.426900
C331	C33	0.213300	0.258500	0.478800
H321	H32	0.215100	0.229300	0.435200
C341	C34	0.636000	0.038880	0.219440
H331	H33	0.754000	0.012300	0.211300
H341	H34	0.665300	0.091900	0.227800
C351	C35	0.543700	0.007900	0.287710
H351	H35	0.500000	0.957200	0.276200
H361	H36	0.433000	0.038500	0.298200
O71	O7	0.833100	0.007510	0.357800
C361	C36	0.661600	0.003990	0.359260
O81	O8	0.565600	0.993870	0.418740
Cd31	Cd3	0.222460	0.513060	0.526770
C371	C37	0.293000	0.685400	0.578510
H371	H37	0.308100	0.660900	0.624400
C381	C38	0.261600	0.757520	0.443750
N91	N9	0.262600	0.643730	0.518000
N101	N10	0.294200	0.782890	0.242640
N111	N11	0.300100	0.748570	0.314650
C391	C39	0.253100	0.792110	0.368250
C401	C40	0.287200	0.799540	0.509060
H381	H38	0.293100	0.852100	0.506700
C411	C41	0.294300	0.735730	0.188470
C421	C42	0.303700	0.763200	0.577130
H391	H39	0.321700	0.790600	0.621200
C431	C43	0.190600	0.872340	0.361550
H401	H40	0.192200	0.887200	0.309600
H411	H41	0.064900	0.877300	0.381000
H421	H42	0.274500	0.904300	0.389700
C441	C44	0.248700	0.679170	0.452350
H431	H43	0.229300	0.650000	0.409500
C451	C45	0.291000	0.846200	0.102510
H441	H44	0.292600	0.876500	0.145200
C461	C46	0.292400	0.768190	0.111480
C471	C47	0.294700	0.651400	0.196820
H451	H45	0.182800	0.630900	0.174300
H461	H46	0.403900	0.630800	0.172300
H471	H47	0.297800	0.638500	0.249200
N121	N12	0.287300	0.879910	0.034800
O91	O9	0.161800	0.523770	0.655460
O101	O10	0.906800	0.533320	0.587080
C481	C48	0.291500	0.724290	0.047310
H481	H48	0.294100	0.671800	0.050900
C491	C49	0.985200	0.531900	0.649190
C501	C50	0.284300	0.837800	0.973800
H491	H49	0.280600	0.860900	0.926900
C511	C51	0.286700	0.758500	0.978800
H501	H50	0.284900	0.729300	0.935200
C521	C52	0.864000	0.538880	0.719440
H511	H51	0.746000	0.512300	0.711300
H521	H52	0.834700	0.591900	0.727800
C531	C53	0.956300	0.507900	0.787710
H531	H53	0.000000	0.457200	0.776200
H541	H54	0.067000	0.538500	0.798200
O111	O11	0.666900	0.507510	0.857800
C541	C54	0.838400	0.503990	0.859260
O121	O12	0.934400	0.493870	0.918740
Cd41	Cd4	0.777540	0.486940	0.026770
C551	C55	0.707000	0.314600	0.078510
H551	H55	0.691900	0.339100	0.124400
C561	C56	0.738400	0.242480	0.943750
N131	N13	0.737400	0.356270	0.018000
N141	N14	0.705800	0.217110	0.742640
N151	N15	0.699900	0.251430	0.814650
C571	C57	0.746900	0.207890	0.868250
C581	C58	0.712800	0.200460	0.009060
H561	H56	0.706900	0.147900	0.006700
C591	C59	0.705700	0.264270	0.688470
C601	C60	0.696300	0.236800	0.077130
H571	H57	0.678300	0.209400	0.121200
C611	C61	0.809400	0.127660	0.861550
H581	H58	0.807800	0.112800	0.809600
H591	H59	0.935100	0.122700	0.881000
H601	H60	0.725500	0.095700	0.889700
C621	C62	0.751300	0.320830	0.952350
H611	H61	0.770700	0.350000	0.909500
C631	C63	0.709000	0.153800	0.602510
H621	H62	0.707400	0.123500	0.645200
C641	C64	0.707600	0.231810	0.611480
C651	C65	0.705300	0.348600	0.696820
H631	H63	0.817200	0.369100	0.674300
H641	H64	0.596100	0.369200	0.672300
H651	H65	0.702200	0.361500	0.749200
N161	N16	0.712700	0.120090	0.534800
O131	O13	0.838200	0.476230	0.155460
O141	O14	0.093200	0.466680	0.087080
C661	C66	0.708500	0.275710	0.547310
H661	H66	0.705900	0.328200	0.550900
C671	C67	0.014800	0.468100	0.149190
C681	C68	0.715700	0.162200	0.473800
H671	H67	0.719400	0.139100	0.426900
C691	C69	0.713300	0.241500	0.478800
H681	H68	0.715100	0.270700	0.435200
C701	C70	0.136000	0.461120	0.219440
H691	H69	0.254000	0.487700	0.211300
H701	H70	0.165300	0.408100	0.227800
C711	C71	0.043700	0.492100	0.287710
H711	H71	0.000000	0.542800	0.276200
H721	H72	0.933000	0.461500	0.298200
O151	O15	0.333100	0.492490	0.357800
C721	C72	0.161600	0.496010	0.359260
O161	O16	0.065600	0.506130	0.418740
