data_EBAVAH_auto_PM
_symmetry_space_group_name_H-M	'P1'
_cell_length_a	18.827600
_cell_length_b	18.827600
_cell_length_c	54.149000
_cell_angle_alpha	90.000000
_cell_angle_beta	90.000000
_cell_angle_gamma	120.000000
_symmetry_Int_Tables_number 1

loop_
_symmetry_equiv_pos_as_xyz
'x,y,z'

loop_
_atom_site_label
_atom_site_type_symbol
_atom_site_fract_x
_atom_site_fract_y
_atom_site_fract_z
C11	C1	0.226420	0.087700	0.228270
C21	C2	0.214020	0.017110	0.240690
C31	C3	0.187900	0.002600	0.265530
C41	C4	0.175190	0.062000	0.277850
C51	C5	0.187960	0.134180	0.265560
C61	C6	0.214090	0.145880	0.240730
H71	H7	0.222530	0.972160	0.230630
H81	H8	0.153180	0.050960	0.296720
H91	H9	0.222650	0.199400	0.230680
C101	C10	0.891210	0.420650	0.560250
C111	C11	0.879570	0.479180	0.572770
C121	C12	0.854990	0.468140	0.597750
C131	C13	0.843080	0.396490	0.610100
C141	C14	0.855050	0.336820	0.597730
C151	C15	0.879610	0.350440	0.572750
H161	H16	0.887480	0.532410	0.562700
H171	H17	0.822290	0.386070	0.629090
H181	H18	0.887530	0.305160	0.562660
C191	C19	0.556810	0.752640	0.894050
C201	C20	0.545060	0.682310	0.906510
C211	C21	0.520280	0.668510	0.931460
C221	C22	0.508270	0.728140	0.943860
C231	C23	0.520340	0.799900	0.931540
C241	C24	0.545140	0.811110	0.906590
H251	H25	0.553020	0.637080	0.896400
H261	H26	0.487320	0.717590	0.962830
H271	H27	0.553170	0.864420	0.896540
C281	C28	0.824980	0.089610	0.228360
C291	C29	0.767160	0.018780	0.240730
C301	C30	0.778930	0.004410	0.265550
C311	C31	0.850630	0.064100	0.277910
C321	C32	0.909710	0.136480	0.265650
C331	C33	0.895200	0.148160	0.240830
H341	H34	0.713980	0.973510	0.230630
H351	H35	0.861710	0.053020	0.296760
H361	H36	0.940010	0.201790	0.230790
C371	C37	0.492860	0.421100	0.560720
C381	C38	0.434400	0.350850	0.573190
C391	C39	0.445580	0.337090	0.598130
C401	C40	0.517260	0.396720	0.610490
C411	C41	0.576820	0.468460	0.598130
C421	C42	0.563050	0.479620	0.573200
H431	H43	0.381180	0.305580	0.563110
H441	H44	0.527830	0.386160	0.629450
H451	H45	0.608270	0.532880	0.563120
C461	C46	0.158620	0.752680	0.894300
C471	C47	0.100030	0.682420	0.906740
C481	C48	0.110910	0.668720	0.931700
C491	C49	0.182440	0.728390	0.944120
C501	C50	0.242110	0.800140	0.931800
C511	C51	0.228620	0.811250	0.906840
H521	H52	0.046970	0.637100	0.896600
H531	H53	0.192810	0.717870	0.963100
H541	H54	0.273960	0.864490	0.896770
C551	C55	0.824170	0.682730	0.228390
C561	C56	0.894620	0.694790	0.240810
C571	C57	0.909490	0.721610	0.265580
C581	C58	0.850560	0.735170	0.277820
C591	C59	0.778680	0.722840	0.265500
C601	C60	0.766530	0.696060	0.240750
H611	H61	0.939270	0.685690	0.230780
H621	H62	0.861890	0.757760	0.296630
H631	H63	0.713150	0.687800	0.230690
C641	C64	0.492470	0.020910	0.560700
C651	C65	0.434120	0.032920	0.573160
C661	C66	0.445500	0.058210	0.598060
C671	C67	0.517270	0.070420	0.610400
C681	C68	0.576750	0.058080	0.598060
C691	C69	0.562790	0.032790	0.573160
H701	H70	0.380820	0.024810	0.563090
H711	H71	0.527970	0.091790	0.629340
H721	H72	0.607940	0.024610	0.563090
C731	C73	0.157940	0.352970	0.894130
C741	C74	0.099500	0.364830	0.906600
C751	C75	0.110670	0.389800	0.931530
C761	C76	0.182340	0.401840	0.943900
C771	C77	0.241900	0.389640	0.931560
C781	C78	0.228140	0.364660	0.906630
H791	H79	0.046280	0.356880	0.896510
H801	H80	0.192890	0.422980	0.962860
H811	H81	0.273380	0.356620	0.896560
C821	C82	0.093040	0.222150	0.693480
C831	C83	0.151320	0.209940	0.681050
C841	C84	0.139890	0.184390	0.656170
C851	C85	0.068110	0.172120	0.643820
C861	C86	0.008680	0.184640	0.656120
C871	C87	0.022710	0.210180	0.681000
H881	H88	0.204640	0.218110	0.691130
H891	H89	0.057370	0.150590	0.624900
H901	H90	0.977610	0.218520	0.691040
C911	C91	0.757130	0.551500	0.027190
C921	C92	0.815700	0.539890	0.014700
C931	C93	0.804780	0.515430	0.989730
C941	C94	0.733220	0.503630	0.977340
C951	C95	0.673550	0.515630	0.989710
C961	C96	0.687080	0.540110	0.014680
H971	H97	0.868780	0.547590	0.024810
H981	H98	0.722830	0.482850	0.958350
H991	H99	0.641760	0.547960	0.024770
C1001	C100	0.425820	0.887680	0.360280
C1011	C101	0.355190	0.875040	0.347850
C1021	C102	0.341040	0.849170	0.323010
C1031	C103	0.400670	0.836990	0.310680
C1041	C104	0.472770	0.849940	0.323000
C1051	C105	0.484290	0.875810	0.347850
H1061	H106	0.309990	0.883170	0.357910
H1071	H107	0.389850	0.815190	0.291790
H1081	H108	0.537850	0.884530	0.357900
C1091	C109	0.094190	0.819690	0.693170
C1101	C110	0.152260	0.890370	0.680780
C1111	C111	0.140330	0.904910	0.655990
C1121	C112	0.068300	0.845660	0.643690
C1131	C113	0.009080	0.773560	0.655960
C1141	C114	0.023580	0.761590	0.680750
H1151	H115	0.205790	0.935310	0.690820
H1161	H116	0.057200	0.856790	0.624840
H1171	H117	0.978650	0.708010	0.690780
C1181	C118	0.758170	0.152980	0.027120
C1191	C119	0.816550	0.223210	0.014630
C1201	C120	0.805210	0.236980	0.989710
C1211	C121	0.733440	0.177370	0.977390
C1221	C122	0.673940	0.105650	0.989760
C1231	C123	0.687870	0.094470	0.014680
H1241	H124	0.869850	0.268470	0.024690
H1251	H125	0.722760	0.187940	0.958440
H1261	H126	0.642690	0.041220	0.024780
C1271	C127	0.426390	0.486580	0.360250
C1281	C128	0.484770	0.556940	0.347810
C1291	C129	0.473040	0.571390	0.322990
C1301	C130	0.400830	0.512300	0.310710
C1311	C131	0.341280	0.440480	0.323040
C1321	C132	0.355630	0.428660	0.347860
H1331	H133	0.538410	0.601750	0.357840
H1341	H134	0.389860	0.523360	0.291840
H1351	H135	0.310480	0.375320	0.357930
C1361	C136	0.691430	0.820770	0.693550
C1371	C137	0.703770	0.762530	0.681130
C1381	C138	0.729630	0.774110	0.656270
C1391	C139	0.742120	0.846020	0.643940
C1401	C140	0.729560	0.905440	0.656230
C1411	C141	0.703690	0.891250	0.681090
H1421	H142	0.695380	0.709090	0.691180
H1431	H143	0.763860	0.856860	0.625050
H1441	H144	0.695250	0.936310	0.691110
C1451	C145	0.359630	0.154000	0.027610
C1461	C146	0.371210	0.095370	0.015120
C1471	C147	0.395610	0.106190	0.990130
C1481	C148	0.407410	0.177720	0.977720
C1491	C149	0.395490	0.237470	0.990060
C1501	C150	0.371080	0.224060	0.015050
H1511	H151	0.363420	0.042250	0.025230
H1521	H152	0.428070	0.187990	0.958720
H1531	H153	0.363200	0.269410	0.025110
C1541	C154	0.025250	0.487160	0.359640
C1551	C155	0.037580	0.557630	0.347200
C1561	C156	0.063990	0.572460	0.322340
C1571	C157	0.076460	0.512620	0.310040
C1581	C158	0.064040	0.440390	0.322390
C1591	C159	0.037650	0.428960	0.347250
H1601	H160	0.028670	0.602180	0.357370
H1611	H161	0.098100	0.523390	0.291130
H1621	H162	0.028790	0.375590	0.357460
O1631	O163	0.989540	0.401250	0.931050
O1641	O164	0.852170	0.467660	0.955800
O1651	O165	0.989710	0.536160	0.931160
O1661	O166	0.852320	0.332300	0.955820
O1671	O167	0.926300	0.369520	0.990190
O1681	O168	0.063560	0.573370	0.965560
O1691	O169	0.926040	0.504150	0.990200
O1701	O170	0.063480	0.437900	0.965430
Cu1711	Cu171	0.906760	0.427290	0.936440
Cu1721	Cu172	0.009040	0.478320	0.984860
C1731	C173	0.050810	0.409730	0.943510
C1741	C174	0.864760	0.495690	0.977740
C1751	C175	0.050960	0.588920	0.943650
C1761	C176	0.865020	0.316760	0.977730
O1771	O177	0.520590	0.802220	0.289160
O1781	O178	0.658430	0.735870	0.264740
O1791	O179	0.520660	0.667010	0.289170
O1801	O180	0.658560	0.871200	0.264780
O1811	O181	0.732010	0.908250	0.299250
O1821	O182	0.594160	0.703990	0.323640
O1831	O183	0.731950	0.772340	0.299200
O1841	O184	0.594020	0.838620	0.323640
Cu1851	Cu185	0.575680	0.762160	0.269900
Cu1861	Cu186	0.677170	0.812880	0.318440
C1871	C187	0.532870	0.830160	0.311100
C1881	C188	0.719360	0.743940	0.277310
C1891	C189	0.533020	0.651300	0.311100
C1901	C190	0.719500	0.924050	0.277350
O1911	O191	0.324430	0.069790	0.597560
O1921	O192	0.187040	0.136130	0.622310
O1931	O193	0.324430	0.204550	0.597610
O1941	O194	0.187150	0.000660	0.622230
O1951	O195	0.261060	0.037790	0.656610
O1961	O196	0.398310	0.241750	0.632010
O1971	O197	0.260890	0.172670	0.656710
O1981	O198	0.398340	0.106380	0.631950
Cu1991	Cu199	0.241550	0.095730	0.602920
Cu2001	Cu200	0.343780	0.146720	0.651340
C2011	C201	0.385680	0.078230	0.610030
C2021	C202	0.199670	0.164280	0.644230
C2031	C203	0.385690	0.257300	0.610090
C2041	C204	0.199890	0.984990	0.644110
O2051	O205	0.337220	0.437830	0.965460
O2061	O206	0.541110	0.504550	0.990150
O2071	O207	0.472570	0.573390	0.965410
O2081	O208	0.406350	0.369850	0.990370
O2091	O209	0.442970	0.332350	0.956030
O2101	O210	0.509100	0.535930	0.931040
O2111	O211	0.578340	0.467750	0.955800
O2121	O212	0.374410	0.400910	0.931110
Cu2131	Cu213	0.432230	0.478570	0.984840
Cu2141	Cu214	0.483250	0.427080	0.936490
C2151	C215	0.321660	0.409510	0.943550
C2161	C216	0.593860	0.495960	0.977710
C2171	C217	0.500590	0.588780	0.943470
C2181	C218	0.414960	0.317020	0.977970
O2191	O219	0.176240	0.869660	0.264800
O2201	O220	0.110220	0.664270	0.289020
O2211	O221	0.040800	0.735240	0.265260
O2221	O222	0.245290	0.800630	0.289190
O2231	O223	0.208030	0.836750	0.323620
O2241	O224	0.004900	0.769700	0.298390
O2251	O225	0.073750	0.701040	0.323440
O2261	O226	0.139390	0.906160	0.299260
Cu2271	Cu227	0.149770	0.760370	0.270070
Cu2281	Cu228	0.099050	0.809930	0.318140
C2291	C229	0.167760	0.922330	0.277360
C2301	C230	0.082500	0.648250	0.311000
C2311	C231	0.989960	0.742570	0.277380
C2321	C232	0.260960	0.828710	0.311110
O2331	O233	0.672170	0.106400	0.631910
O2341	O234	0.876090	0.173190	0.656600
O2351	O235	0.807510	0.241820	0.631720
O2361	O236	0.741230	0.038210	0.656680
O2371	O237	0.777830	0.000750	0.622330
O2381	O238	0.844080	0.204360	0.597360
O2391	O239	0.913280	0.136310	0.622250
O2401	O240	0.709340	0.069500	0.597560
Cu2411	Cu241	0.767240	0.147080	0.651230
Cu2421	Cu242	0.818240	0.095600	0.602880
C2431	C243	0.656580	0.078060	0.610020
C2441	C244	0.928850	0.164630	0.644150
C2451	C245	0.835500	0.257180	0.609780
C2461	C246	0.749650	0.985310	0.644250
O2471	O247	0.472690	0.847220	0.965540
O2481	O248	0.406640	0.984730	0.990520
O2491	O249	0.337350	0.847360	0.965710
O2501	O250	0.541370	0.984510	0.990300
O2511	O251	0.578460	0.058530	0.955940
O2521	O252	0.374520	0.921410	0.931350
O2531	O253	0.443120	0.058700	0.956150
O2541	O254	0.509180	0.921260	0.931180
Cu2551	Cu255	0.432450	0.901760	0.985020
Cu2561	Cu256	0.483350	0.004200	0.936650
C2571	C257	0.500680	0.859880	0.943600
C2581	C258	0.415170	0.046100	0.978090
C2591	C259	0.321790	0.860070	0.943800
C2601	C260	0.594100	0.045800	0.977830
O2611	O261	0.139480	0.182070	0.299320
O2621	O262	0.073870	0.321590	0.323540
O2631	O263	0.004990	0.183950	0.298500
O2641	O264	0.208170	0.320030	0.323700
O2651	O265	0.245370	0.393410	0.289270
O2661	O266	0.040910	0.254280	0.265380
O2671	O267	0.110280	0.394740	0.289100
O2681	O268	0.176340	0.255460	0.264870
Cu2691	Cu269	0.099160	0.237950	0.318240
Cu2701	Cu270	0.149850	0.338220	0.270160
C2711	C271	0.167840	0.194290	0.277420
C2721	C272	0.082580	0.383090	0.311090
C2731	C273	0.990080	0.196090	0.277490
C2741	C274	0.261100	0.380970	0.311180
O2751	O275	0.741380	0.653040	0.656750
O2761	O276	0.807470	0.515560	0.631760
O2771	O277	0.876260	0.652760	0.656560
O2781	O278	0.672200	0.515690	0.631990
O2791	O279	0.709290	0.589690	0.597630
O2801	O280	0.913310	0.726800	0.622200
O2811	O281	0.843950	0.589570	0.597390
O2821	O282	0.777850	0.727000	0.622370
Cu2831	Cu283	0.767320	0.570120	0.651280
Cu2841	Cu284	0.818160	0.672520	0.602900
C2851	C285	0.749750	0.714320	0.644300
C2861	C286	0.835410	0.528180	0.609810
C2871	C287	0.929020	0.713980	0.644070
C2881	C288	0.656580	0.528380	0.610090
C2891	C289	0.148450	0.333900	0.867950
C2901	C290	0.141400	0.319640	0.845970
C2911	C291	0.133690	0.303860	0.819590
C2921	C292	0.190040	0.362630	0.802970
C2931	C293	0.182360	0.347360	0.777300
C2941	C294	0.118180	0.273130	0.767900
C2951	C295	0.062900	0.215700	0.784820
C2961	C296	0.070360	0.230520	0.809750
C2971	C297	0.110180	0.256780	0.741550
C2981	C298	0.102860	0.241940	0.719610
H2991	H299	0.239840	0.420160	0.809800
H3001	H300	0.226420	0.393360	0.764860
N3011	N301	0.998720	0.142390	0.778950
N3021	N302	0.011880	0.168560	0.822930
C3031	C303	0.435800	0.907800	0.386370
C3041	C304	0.443290	0.922910	0.408290
C3051	C305	0.451520	0.939570	0.434610
C3061	C306	0.515380	0.014200	0.443900
C3071	C307	0.523310	0.029760	0.469550
C3081	C308	0.467530	0.970890	0.486250
C3091	C309	0.404510	0.897150	0.476520
C3101	C310	0.396800	0.882050	0.451620
C3111	C311	0.475500	0.986970	0.512600
C3121	C312	0.482750	0.001500	0.534550
H3131	H313	0.559000	0.060270	0.431390
H3141	H314	0.572850	0.087590	0.476300
N3151	N315	0.346570	0.835050	0.489800
N3161	N316	0.332990	0.808370	0.445850
C3171	C317	0.766340	0.569950	0.053390
C3181	C318	0.773260	0.583730	0.075390
C3191	C319	0.781050	0.599000	0.101780
C3201	C320	0.799890	0.676110	0.111350
C3211	C321	0.807700	0.691390	0.137090
C3221	C322	0.796900	0.630070	0.154110
C3231	C323	0.778070	0.553570	0.144650
C3241	C324	0.770170	0.538130	0.118630
C3251	C325	0.805730	0.646760	0.180420
C3261	C326	0.813700	0.662100	0.202330
H3271	H327	0.808720	0.724890	0.098890
H3281	H328	0.822380	0.751540	0.143690
N3291	N329	0.765700	0.487910	0.157690
N3301	N330	0.752160	0.461480	0.113210
C3311	C331	0.104450	0.809370	0.719230
C3321	C332	0.112040	0.801600	0.741120
C3331	C333	0.120230	0.793010	0.767420
C3341	C334	0.068180	0.801080	0.784420
C3351	C335	0.075750	0.793400	0.810090
C3361	C336	0.135720	0.777440	0.819750
C3371	C337	0.190680	0.768860	0.802100
C3381	C338	0.183360	0.776230	0.777330
C3391	C339	0.142930	0.769350	0.846120
C3401	C340	0.149560	0.762140	0.868100
H3411	H341	0.021170	0.813510	0.777810
H3421	H342	0.034290	0.800030	0.822500
N3431	N343	0.251010	0.753700	0.807940
N3441	N344	0.238020	0.766820	0.763970
C3451	C345	0.483310	0.430640	0.534560
C3461	C346	0.476080	0.437830	0.512610
C3471	C347	0.467900	0.445870	0.486270
C3481	C348	0.518040	0.435720	0.469150
C3491	C349	0.510350	0.443000	0.444230
C3501	C350	0.451930	0.460920	0.434620
C3511	C351	0.400820	0.471400	0.451430
C3521	C352	0.408720	0.463900	0.477080
C3531	C353	0.443940	0.469050	0.408270
C3541	C354	0.436470	0.476510	0.386340
N3551	N355	0.577110	0.418440	0.474800
N3561	N356	0.563560	0.431320	0.430840
H3571	H357	0.354930	0.485380	0.444760
H3581	H358	0.368750	0.472160	0.489680
C3591	C359	0.767880	0.143490	0.053280
C3601	C360	0.775240	0.136400	0.075230
C3611	C361	0.783500	0.128480	0.101570
C3621	C362	0.794250	0.065720	0.111240
C3631	C363	0.802040	0.058270	0.137270
C3641	C364	0.799160	0.113460	0.153920
C3651	C365	0.788270	0.176790	0.144150
C3661	C366	0.780540	0.184150	0.118390
C3671	C367	0.807520	0.106300	0.180290
C3681	C368	0.815040	0.099370	0.202240
N3691	N369	0.798540	0.007180	0.098400
N3701	N370	0.811920	0.994450	0.142890
H3711	H371	0.785750	0.220850	0.156450
H3721	H372	0.772190	0.233640	0.111620
C3731	C373	0.576150	0.762510	0.867890
C3741	C374	0.590860	0.770150	0.845930
C3751	C375	0.607470	0.778840	0.819580
C3761	C376	0.547510	0.728860	0.802360
C3771	C377	0.562900	0.736780	0.777460
C3781	C378	0.639390	0.795300	0.767940
C3791	C379	0.700640	0.846380	0.784860
C3801	C380	0.684790	0.838220	0.810500
C3811	C381	0.655990	0.803320	0.741590
C3821	C382	0.671170	0.810740	0.719660
N3831	N383	0.471100	0.669630	0.807890
N3841	N384	0.498270	0.683580	0.763970
H3851	H385	0.760600	0.892400	0.778290
H3861	H386	0.732810	0.878140	0.823170
C3871	C387	0.004870	0.477140	0.385750
C3881	C388	0.989710	0.469850	0.407690
C3891	C389	0.973210	0.462060	0.434060
C3901	C390	0.034930	0.512420	0.450960
C3911	C391	0.019180	0.504550	0.476610
C3921	C392	0.941480	0.446170	0.485730
C3931	C393	0.881060	0.396890	0.468520
C3941	C394	0.896360	0.404540	0.443600
C3951	C395	0.924980	0.437760	0.512090
C3961	C396	0.910380	0.430330	0.534060
H3971	H397	0.095190	0.557670	0.444370
H3981	H398	0.067580	0.543910	0.489260
N3991	N399	0.804250	0.338650	0.474070
N4001	N400	0.831250	0.352120	0.430140
C4011	C401	0.246690	0.097890	0.202150
C4021	C402	0.261780	0.105400	0.180210
C4031	C403	0.278160	0.113420	0.153830
C4041	C404	0.216740	0.062330	0.136960
C4051	C405	0.232400	0.070210	0.111310
C4061	C406	0.309710	0.129320	0.102150
C4071	C407	0.369820	0.179430	0.119330
C4081	C408	0.354600	0.171770	0.144250
C4091	C409	0.326170	0.137480	0.075780
C4101	C410	0.340650	0.144620	0.053810
H4111	H411	0.156790	0.016480	0.143580
H4121	H412	0.184250	0.030230	0.098680
N4131	N413	0.446250	0.238460	0.113730
N4141	N414	0.419400	0.224970	0.157680
S4151	S415	0.416830	0.622490	0.782110
S4161	S416	0.946260	0.090380	0.804460
S4171	S417	0.300000	0.748410	0.782340
S4181	S418	0.281180	0.756370	0.471430
S4191	S419	0.624370	0.410950	0.449100
S4201	S420	0.749470	0.292130	0.448310
S4211	S421	0.811970	0.942540	0.117210
S4221	S422	0.744470	0.406910	0.139080
S4231	S423	0.500770	0.285710	0.139470
