data_EBAWIQ_clean_PM
_symmetry_space_group_name_H-M	'P1'
_cell_length_a	8.366100
_cell_length_b	29.139000
_cell_length_c	18.858300
_cell_angle_alpha	90.000000
_cell_angle_beta	94.307000
_cell_angle_gamma	90.000000
_symmetry_Int_Tables_number 1

loop_
_symmetry_equiv_pos_as_xyz
'x,y,z'

loop_
_atom_site_label
_atom_site_type_symbol
_atom_site_fract_x
_atom_site_fract_y
_atom_site_fract_z
Ni11	Ni1	0.020970	0.743540	0.723880
N11	N1	0.210400	0.515250	0.454090
N21	N2	0.420400	0.557530	0.433980
N31	N3	0.826600	0.727670	0.264750
N41	N4	0.685800	0.689030	0.338220
N51	N5	0.895800	0.691500	0.675500
N61	N6	0.763600	0.653610	0.589250
O11	O1	0.872400	0.512140	0.405320
O21	O2	0.932800	0.586190	0.392580
O31	O3	0.104000	0.710400	0.814090
O41	O4	0.245200	0.702060	0.721740
O51	O5	0.982200	0.286600	0.864420
O61	O6	0.842200	0.306130	0.766580
C11	C1	0.598300	0.604440	0.510000
H11	H1	0.582000	0.584900	0.547800
C21	C2	0.528000	0.595380	0.443130
C31	C3	0.553500	0.623130	0.385440
H21	H2	0.505900	0.616700	0.340400
C41	C4	0.652200	0.660660	0.397370
C51	C5	0.721300	0.671630	0.463640
H31	H3	0.785100	0.697600	0.470300
C61	C6	0.693900	0.643080	0.520230
C71	C7	0.311200	0.546270	0.480350
H41	H4	0.308000	0.559000	0.525400
C81	C8	0.256400	0.506060	0.387200
H51	H5	0.206000	0.485200	0.355600
C91	C9	0.385100	0.531660	0.374000
H61	H6	0.439000	0.531800	0.332600
C101	C10	0.831900	0.704130	0.324100
H71	H7	0.925100	0.698600	0.352900
C111	C11	0.579600	0.704240	0.284000
H81	H8	0.469600	0.699100	0.278900
C121	C12	0.668100	0.728120	0.239800
H91	H9	0.627600	0.742800	0.198500
C131	C13	0.850100	0.690560	0.608170
H101	H10	0.875300	0.713400	0.576400
C141	C14	0.838800	0.652280	0.701800
H111	H11	0.852800	0.643100	0.749100
C151	C15	0.759400	0.628760	0.650100
H121	H12	0.710000	0.600400	0.654700
C161	C16	0.826800	0.545070	0.291400
C171	C17	0.791100	0.502820	0.260630
H131	H13	0.793100	0.476600	0.288800
C181	C18	0.752300	0.499260	0.187990
H141	H14	0.727300	0.470700	0.168200
C191	C19	0.750200	0.537690	0.144310
C201	C20	0.779600	0.579930	0.176130
H151	H15	0.773300	0.606400	0.148400
C211	C21	0.818200	0.583470	0.248380
H161	H16	0.838800	0.612200	0.268400
C221	C22	0.719500	0.533320	0.065930
C231	C23	0.766900	0.493710	0.031610
H171	H17	0.816600	0.470200	0.058400
C241	C24	0.741600	0.488420	0.958260
C251	C25	0.667900	0.524170	0.919150
H181	H18	0.651600	0.521300	0.870000
C261	C26	0.618300	0.563820	0.951550
C271	C27	0.645800	0.568190	0.025060
H191	H19	0.614400	0.594900	0.047200
C281	C28	0.525500	0.599330	0.909280
C291	C29	0.550400	0.607820	0.838300
H201	H20	0.632400	0.592600	0.817200
C301	C30	0.454300	0.638650	0.798720
H211	H21	0.472200	0.643800	0.751300
C311	C31	0.331900	0.661890	0.828810
C321	C32	0.308100	0.653980	0.899500
H221	H22	0.226500	0.669300	0.920600
C331	C33	0.404200	0.623610	0.938940
H231	H23	0.387600	0.619200	0.986700
C341	C34	0.222300	0.693170	0.785510
C351	C35	0.783900	0.444780	0.924330
C361	C36	0.698900	0.429450	0.862400
H241	H24	0.617600	0.447600	0.841000
C371	C37	0.733600	0.387660	0.832200
H251	H25	0.675800	0.378200	0.790700
C381	C38	0.853000	0.359810	0.862910
C391	C39	0.937300	0.374380	0.925070
H261	H26	0.016200	0.355700	0.947100
C401	C40	0.904700	0.416650	0.954530
H271	H27	0.964800	0.426300	0.995300
C411	C41	0.893200	0.315410	0.829760
C421	C42	0.881400	0.548360	0.369320
Ni21	Ni2	0.979030	0.243540	0.776120
N71	N7	0.789600	0.015250	0.045910
N81	N8	0.579600	0.057530	0.066020
N91	N9	0.173400	0.227670	0.235250
N101	N10	0.314200	0.189030	0.161780
N111	N11	0.104200	0.191500	0.824500
N121	N12	0.236400	0.153610	0.910750
O71	O7	0.127600	0.012140	0.094680
O81	O8	0.067200	0.086190	0.107420
O91	O9	0.896000	0.210400	0.685910
O101	O10	0.754800	0.202060	0.778260
O111	O11	0.017800	0.786600	0.635580
O121	O12	0.157800	0.806130	0.733420
C431	C43	0.401700	0.104440	0.990000
H281	H28	0.418000	0.084900	0.952200
C441	C44	0.472000	0.095380	0.056870
C451	C45	0.446500	0.123130	0.114560
H291	H29	0.494100	0.116700	0.159600
C461	C46	0.347800	0.160660	0.102630
C471	C47	0.278700	0.171630	0.036360
H301	H30	0.214900	0.197600	0.029700
C481	C48	0.306100	0.143080	0.979770
C491	C49	0.688800	0.046270	0.019650
H311	H31	0.692000	0.059000	0.974600
C501	C50	0.743600	0.006060	0.112800
H321	H32	0.794000	0.985200	0.144400
C511	C51	0.614900	0.031660	0.126000
H331	H33	0.561000	0.031800	0.167400
C521	C52	0.168100	0.204130	0.175900
H341	H34	0.074900	0.198600	0.147100
C531	C53	0.420400	0.204240	0.216000
H351	H35	0.530400	0.199100	0.221100
C541	C54	0.331900	0.228120	0.260200
H361	H36	0.372400	0.242800	0.301500
C551	C55	0.149900	0.190560	0.891830
H371	H37	0.124700	0.213400	0.923600
C561	C56	0.161200	0.152280	0.798200
H381	H38	0.147200	0.143100	0.750900
C571	C57	0.240600	0.128760	0.849900
H391	H39	0.290000	0.100400	0.845300
C581	C58	0.173200	0.045070	0.208600
C591	C59	0.208900	0.002820	0.239370
H401	H40	0.206900	0.976600	0.211200
C601	C60	0.247700	0.999260	0.312010
H411	H41	0.272700	0.970700	0.331800
C611	C61	0.249800	0.037690	0.355690
C621	C62	0.220400	0.079930	0.323870
H421	H42	0.226700	0.106400	0.351600
C631	C63	0.181800	0.083470	0.251620
H431	H43	0.161200	0.112200	0.231600
C641	C64	0.280500	0.033320	0.434070
C651	C65	0.233100	0.993710	0.468390
H441	H44	0.183400	0.970200	0.441600
C661	C66	0.258400	0.988420	0.541740
C671	C67	0.332100	0.024170	0.580850
H451	H45	0.348400	0.021300	0.630000
C681	C68	0.381700	0.063820	0.548450
C691	C69	0.354200	0.068190	0.474940
H461	H46	0.385600	0.094900	0.452800
C701	C70	0.474500	0.099330	0.590720
C711	C71	0.449600	0.107820	0.661700
H471	H47	0.367600	0.092600	0.682800
C721	C72	0.545700	0.138650	0.701280
H481	H48	0.527800	0.143800	0.748700
C731	C73	0.668100	0.161890	0.671190
C741	C74	0.691900	0.153980	0.600500
H491	H49	0.773500	0.169300	0.579400
C751	C75	0.595800	0.123610	0.561060
H501	H50	0.612400	0.119200	0.513300
C761	C76	0.777700	0.193170	0.714490
C771	C77	0.216100	0.944780	0.575670
C781	C78	0.301100	0.929450	0.637600
H511	H51	0.382400	0.947600	0.659000
C791	C79	0.266400	0.887660	0.667800
H521	H52	0.324200	0.878200	0.709300
C801	C80	0.147000	0.859810	0.637090
C811	C81	0.062700	0.874380	0.574930
H531	H53	0.983800	0.855700	0.552900
C821	C82	0.095300	0.916650	0.545470
H541	H54	0.035200	0.926300	0.504700
C831	C83	0.106800	0.815410	0.670240
C841	C84	0.118600	0.048360	0.130680
Ni31	Ni3	0.979030	0.256460	0.276120
N131	N13	0.789600	0.484750	0.545910
N141	N14	0.579600	0.442470	0.566020
N151	N15	0.173400	0.272330	0.735250
N161	N16	0.314200	0.310970	0.661780
N171	N17	0.104200	0.308500	0.324500
N181	N18	0.236400	0.346390	0.410750
O131	O13	0.127600	0.487860	0.594680
O141	O14	0.067200	0.413810	0.607420
O151	O15	0.896000	0.289600	0.185910
O161	O16	0.754800	0.297940	0.278260
O171	O17	0.017800	0.713400	0.135580
O181	O18	0.157800	0.693870	0.233420
C851	C85	0.401700	0.395560	0.490000
H551	H55	0.418000	0.415100	0.452200
C861	C86	0.472000	0.404620	0.556870
C871	C87	0.446500	0.376870	0.614560
H561	H56	0.494100	0.383300	0.659600
C881	C88	0.347800	0.339340	0.602630
C891	C89	0.278700	0.328370	0.536360
H571	H57	0.214900	0.302400	0.529700
C901	C90	0.306100	0.356920	0.479770
C911	C91	0.688800	0.453730	0.519650
H581	H58	0.692000	0.441000	0.474600
C921	C92	0.743600	0.493940	0.612800
H591	H59	0.794000	0.514800	0.644400
C931	C93	0.614900	0.468340	0.626000
H601	H60	0.561000	0.468200	0.667400
C941	C94	0.168100	0.295870	0.675900
H611	H61	0.074900	0.301400	0.647100
C951	C95	0.420400	0.295760	0.716000
H621	H62	0.530400	0.300900	0.721100
C961	C96	0.331900	0.271880	0.760200
H631	H63	0.372400	0.257200	0.801500
C971	C97	0.149900	0.309440	0.391830
H641	H64	0.124700	0.286600	0.423600
C981	C98	0.161200	0.347720	0.298200
H651	H65	0.147200	0.356900	0.250900
C991	C99	0.240600	0.371240	0.349900
H661	H66	0.290000	0.399600	0.345300
C1001	C100	0.173200	0.454930	0.708600
C1011	C101	0.208900	0.497180	0.739370
H671	H67	0.206900	0.523400	0.711200
C1021	C102	0.247700	0.500740	0.812010
H681	H68	0.272700	0.529300	0.831800
C1031	C103	0.249800	0.462310	0.855690
C1041	C104	0.220400	0.420070	0.823870
H691	H69	0.226700	0.393600	0.851600
C1051	C105	0.181800	0.416530	0.751620
H701	H70	0.161200	0.387800	0.731600
C1061	C106	0.280500	0.466680	0.934070
C1071	C107	0.233100	0.506290	0.968390
H711	H71	0.183400	0.529800	0.941600
C1081	C108	0.258400	0.511580	0.041740
C1091	C109	0.332100	0.475830	0.080850
H721	H72	0.348400	0.478700	0.130000
C1101	C110	0.381700	0.436180	0.048450
C1111	C111	0.354200	0.431810	0.974940
H731	H73	0.385600	0.405100	0.952800
C1121	C112	0.474500	0.400670	0.090720
C1131	C113	0.449600	0.392180	0.161700
H741	H74	0.367600	0.407400	0.182800
C1141	C114	0.545700	0.361350	0.201280
H751	H75	0.527800	0.356200	0.248700
C1151	C115	0.668100	0.338110	0.171190
C1161	C116	0.691900	0.346020	0.100500
H761	H76	0.773500	0.330700	0.079400
C1171	C117	0.595800	0.376390	0.061060
H771	H77	0.612400	0.380800	0.013300
C1181	C118	0.777700	0.306830	0.214490
C1191	C119	0.216100	0.555220	0.075670
C1201	C120	0.301100	0.570550	0.137600
H781	H78	0.382400	0.552400	0.159000
C1211	C121	0.266400	0.612340	0.167800
H791	H79	0.324200	0.621800	0.209300
C1221	C122	0.147000	0.640190	0.137090
C1231	C123	0.062700	0.625620	0.074930
H801	H80	0.983800	0.644300	0.052900
C1241	C124	0.095300	0.583350	0.045470
H811	H81	0.035200	0.573700	0.004700
C1251	C125	0.106800	0.684590	0.170240
C1261	C126	0.118600	0.451640	0.630680
Ni41	Ni4	0.020970	0.756460	0.223880
N191	N19	0.210400	0.984750	0.954090
N201	N20	0.420400	0.942470	0.933980
N211	N21	0.826600	0.772330	0.764750
N221	N22	0.685800	0.810970	0.838220
N231	N23	0.895800	0.808500	0.175500
N241	N24	0.763600	0.846390	0.089250
O191	O19	0.872400	0.987860	0.905320
O201	O20	0.932800	0.913810	0.892580
O211	O21	0.104000	0.789600	0.314090
O221	O22	0.245200	0.797940	0.221740
O231	O23	0.982200	0.213400	0.364420
O241	O24	0.842200	0.193870	0.266580
C1271	C127	0.598300	0.895560	0.010000
H821	H82	0.582000	0.915100	0.047800
C1281	C128	0.528000	0.904620	0.943130
C1291	C129	0.553500	0.876870	0.885440
H831	H83	0.505900	0.883300	0.840400
C1301	C130	0.652200	0.839340	0.897370
C1311	C131	0.721300	0.828370	0.963640
H841	H84	0.785100	0.802400	0.970300
C1321	C132	0.693900	0.856920	0.020230
C1331	C133	0.311200	0.953730	0.980350
H851	H85	0.308000	0.941000	0.025400
C1341	C134	0.256400	0.993940	0.887200
H861	H86	0.206000	0.014800	0.855600
C1351	C135	0.385100	0.968340	0.874000
H871	H87	0.439000	0.968200	0.832600
C1361	C136	0.831900	0.795870	0.824100
H881	H88	0.925100	0.801400	0.852900
C1371	C137	0.579600	0.795760	0.784000
H891	H89	0.469600	0.800900	0.778900
C1381	C138	0.668100	0.771880	0.739800
H901	H90	0.627600	0.757200	0.698500
C1391	C139	0.850100	0.809440	0.108170
H911	H91	0.875300	0.786600	0.076400
C1401	C140	0.838800	0.847720	0.201800
H921	H92	0.852800	0.856900	0.249100
C1411	C141	0.759400	0.871240	0.150100
H931	H93	0.710000	0.899600	0.154700
C1421	C142	0.826800	0.954930	0.791400
C1431	C143	0.791100	0.997180	0.760630
H941	H94	0.793100	0.023400	0.788800
C1441	C144	0.752300	0.000740	0.687990
H951	H95	0.727300	0.029300	0.668200
C1451	C145	0.750200	0.962310	0.644310
C1461	C146	0.779600	0.920070	0.676130
H961	H96	0.773300	0.893600	0.648400
C1471	C147	0.818200	0.916530	0.748380
H971	H97	0.838800	0.887800	0.768400
C1481	C148	0.719500	0.966680	0.565930
C1491	C149	0.766900	0.006290	0.531610
H981	H98	0.816600	0.029800	0.558400
C1501	C150	0.741600	0.011580	0.458260
C1511	C151	0.667900	0.975830	0.419150
H991	H99	0.651600	0.978700	0.370000
C1521	C152	0.618300	0.936180	0.451550
C1531	C153	0.645800	0.931810	0.525060
H1001	H100	0.614400	0.905100	0.547200
C1541	C154	0.525500	0.900670	0.409280
C1551	C155	0.550400	0.892180	0.338300
H1011	H101	0.632400	0.907400	0.317200
C1561	C156	0.454300	0.861350	0.298720
H1021	H102	0.472200	0.856200	0.251300
C1571	C157	0.331900	0.838110	0.328810
C1581	C158	0.308100	0.846020	0.399500
H1031	H103	0.226500	0.830700	0.420600
C1591	C159	0.404200	0.876390	0.438940
H1041	H104	0.387600	0.880800	0.486700
C1601	C160	0.222300	0.806830	0.285510
C1611	C161	0.783900	0.055220	0.424330
C1621	C162	0.698900	0.070550	0.362400
H1051	H105	0.617600	0.052400	0.341000
C1631	C163	0.733600	0.112340	0.332200
H1061	H106	0.675800	0.121800	0.290700
C1641	C164	0.853000	0.140190	0.362910
C1651	C165	0.937300	0.125620	0.425070
H1071	H107	0.016200	0.144300	0.447100
C1661	C166	0.904700	0.083350	0.454530
H1081	H108	0.964800	0.073700	0.495300
C1671	C167	0.893200	0.184590	0.329760
C1681	C168	0.881400	0.951640	0.869320
Ni51	Ni5	0.000000	0.500000	0.500000
Ni61	Ni6	0.000000	0.000000	0.000000
