data_EBEGEZ_clean_PM
_symmetry_space_group_name_H-M	'P1'
_cell_length_a	30.907000
_cell_length_b	11.144700
_cell_length_c	7.434900
_cell_angle_alpha	90.000000
_cell_angle_beta	92.630000
_cell_angle_gamma	90.000000
_symmetry_Int_Tables_number 1

loop_
_symmetry_equiv_pos_as_xyz
'x,y,z'

loop_
_atom_site_label
_atom_site_type_symbol
_atom_site_fract_x
_atom_site_fract_y
_atom_site_fract_z
Mo11	Mo1	0.791310	0.985010	0.826550
Mo21	Mo2	0.909370	0.976860	0.768780
O11	O1	0.765080	0.864500	0.718900
O21	O2	0.751410	0.096000	0.845800
O31	O3	0.798120	0.939500	0.051600
O41	O4	0.852260	0.933700	0.773600
O51	O5	0.909170	0.043200	0.552400
O61	O6	0.960930	0.074900	0.852100
N11	N1	0.897210	0.633700	0.008200
N21	N2	0.818980	0.259700	0.937900
N31	N3	0.833520	0.151800	0.889400
N41	N4	0.875350	0.157100	0.864600
N51	N5	0.889450	0.266400	0.894300
H11	H1	0.915500	0.292700	0.887400
C11	C1	0.855600	0.458000	0.965300
C21	C2	0.895270	0.512300	0.997400
H21	H2	0.920300	0.466400	0.011400
C31	C3	0.861580	0.702200	0.992800
H31	H3	0.864100	0.785100	0.003000
C41	C4	0.821890	0.652000	0.962300
H41	H4	0.797200	0.699500	0.951500
C51	C5	0.819050	0.526900	0.947300
H51	H5	0.792200	0.490600	0.925100
C61	C6	0.854340	0.328100	0.937700
Mo31	Mo3	0.291310	0.485010	0.826550
Mo41	Mo4	0.409370	0.476860	0.768780
O71	O7	0.265080	0.364500	0.718900
O81	O8	0.251410	0.596000	0.845800
O91	O9	0.298120	0.439500	0.051600
O101	O10	0.352260	0.433700	0.773600
O111	O11	0.409170	0.543200	0.552400
O121	O12	0.460930	0.574900	0.852100
N61	N6	0.397210	0.133700	0.008200
N71	N7	0.318980	0.759700	0.937900
N81	N8	0.333520	0.651800	0.889400
N91	N9	0.375350	0.657100	0.864600
N101	N10	0.389450	0.766400	0.894300
H61	H6	0.415500	0.792700	0.887400
C71	C7	0.355600	0.958000	0.965300
C81	C8	0.395270	0.012300	0.997400
H71	H7	0.420300	0.966400	0.011400
C91	C9	0.361580	0.202200	0.992800
H81	H8	0.364100	0.285100	0.003000
C101	C10	0.321890	0.152000	0.962300
H91	H9	0.297200	0.199500	0.951500
C111	C11	0.319050	0.026900	0.947300
H101	H10	0.292200	0.990600	0.925100
C121	C12	0.354340	0.828100	0.937700
Mo51	Mo5	0.208690	0.985010	0.673450
Mo61	Mo6	0.090630	0.976860	0.731220
O131	O13	0.234920	0.864500	0.781100
O141	O14	0.248590	0.096000	0.654200
O151	O15	0.201880	0.939500	0.448400
O161	O16	0.147740	0.933700	0.726400
O171	O17	0.090830	0.043200	0.947600
O181	O18	0.039070	0.074900	0.647900
N111	N11	0.102790	0.633700	0.491800
N121	N12	0.181020	0.259700	0.562100
N131	N13	0.166480	0.151800	0.610600
N141	N14	0.124650	0.157100	0.635400
N151	N15	0.110550	0.266400	0.605700
H111	H11	0.084500	0.292700	0.612600
C131	C13	0.144400	0.458000	0.534700
C141	C14	0.104730	0.512300	0.502600
H121	H12	0.079700	0.466400	0.488600
C151	C15	0.138420	0.702200	0.507200
H131	H13	0.135900	0.785100	0.497000
C161	C16	0.178110	0.652000	0.537700
H141	H14	0.202800	0.699500	0.548500
C171	C17	0.180950	0.526900	0.552700
H151	H15	0.207800	0.490600	0.574900
C181	C18	0.145660	0.328100	0.562300
Mo71	Mo7	0.708690	0.485010	0.673450
Mo81	Mo8	0.590630	0.476860	0.731220
O191	O19	0.734920	0.364500	0.781100
O201	O20	0.748590	0.596000	0.654200
O211	O21	0.701880	0.439500	0.448400
O221	O22	0.647740	0.433700	0.726400
O231	O23	0.590830	0.543200	0.947600
O241	O24	0.539070	0.574900	0.647900
N161	N16	0.602790	0.133700	0.491800
N171	N17	0.681020	0.759700	0.562100
N181	N18	0.666480	0.651800	0.610600
N191	N19	0.624650	0.657100	0.635400
N201	N20	0.610550	0.766400	0.605700
H161	H16	0.584500	0.792700	0.612600
C191	C19	0.644400	0.958000	0.534700
C201	C20	0.604730	0.012300	0.502600
H171	H17	0.579700	0.966400	0.488600
C211	C21	0.638420	0.202200	0.507200
H181	H18	0.635900	0.285100	0.497000
C221	C22	0.678110	0.152000	0.537700
H191	H19	0.702800	0.199500	0.548500
C231	C23	0.680950	0.026900	0.552700
H201	H20	0.707800	0.990600	0.574900
C241	C24	0.645660	0.828100	0.562300
Mo91	Mo9	0.208690	0.014990	0.173450
Mo101	Mo10	0.090630	0.023140	0.231220
O251	O25	0.234920	0.135500	0.281100
O261	O26	0.248590	0.904000	0.154200
O271	O27	0.201880	0.060500	0.948400
O281	O28	0.147740	0.066300	0.226400
O291	O29	0.090830	0.956800	0.447600
O301	O30	0.039070	0.925100	0.147900
N211	N21	0.102790	0.366300	0.991800
N221	N22	0.181020	0.740300	0.062100
N231	N23	0.166480	0.848200	0.110600
N241	N24	0.124650	0.842900	0.135400
N251	N25	0.110550	0.733600	0.105700
H211	H21	0.084500	0.707300	0.112600
C251	C25	0.144400	0.542000	0.034700
C261	C26	0.104730	0.487700	0.002600
H221	H22	0.079700	0.533600	0.988600
C271	C27	0.138420	0.297800	0.007200
H231	H23	0.135900	0.214900	0.997000
C281	C28	0.178110	0.348000	0.037700
H241	H24	0.202800	0.300500	0.048500
C291	C29	0.180950	0.473100	0.052700
H251	H25	0.207800	0.509400	0.074900
C301	C30	0.145660	0.671900	0.062300
Mo111	Mo11	0.708690	0.514990	0.173450
Mo121	Mo12	0.590630	0.523140	0.231220
O311	O31	0.734920	0.635500	0.281100
O321	O32	0.748590	0.404000	0.154200
O331	O33	0.701880	0.560500	0.948400
O341	O34	0.647740	0.566300	0.226400
O351	O35	0.590830	0.456800	0.447600
O361	O36	0.539070	0.425100	0.147900
N261	N26	0.602790	0.866300	0.991800
N271	N27	0.681020	0.240300	0.062100
N281	N28	0.666480	0.348200	0.110600
N291	N29	0.624650	0.342900	0.135400
N301	N30	0.610550	0.233600	0.105700
H261	H26	0.584500	0.207300	0.112600
C311	C31	0.644400	0.042000	0.034700
C321	C32	0.604730	0.987700	0.002600
H271	H27	0.579700	0.033600	0.988600
C331	C33	0.638420	0.797800	0.007200
H281	H28	0.635900	0.714900	0.997000
C341	C34	0.678110	0.848000	0.037700
H291	H29	0.702800	0.800500	0.048500
C351	C35	0.680950	0.973100	0.052700
H301	H30	0.707800	0.009400	0.074900
C361	C36	0.645660	0.171900	0.062300
Mo131	Mo13	0.791310	0.014990	0.326550
Mo141	Mo14	0.909370	0.023140	0.268780
O371	O37	0.765080	0.135500	0.218900
O381	O38	0.751410	0.904000	0.345800
O391	O39	0.798120	0.060500	0.551600
O401	O40	0.852260	0.066300	0.273600
O411	O41	0.909170	0.956800	0.052400
O421	O42	0.960930	0.925100	0.352100
N311	N31	0.897210	0.366300	0.508200
N321	N32	0.818980	0.740300	0.437900
N331	N33	0.833520	0.848200	0.389400
N341	N34	0.875350	0.842900	0.364600
N351	N35	0.889450	0.733600	0.394300
H311	H31	0.915500	0.707300	0.387400
C371	C37	0.855600	0.542000	0.465300
C381	C38	0.895270	0.487700	0.497400
H321	H32	0.920300	0.533600	0.511400
C391	C39	0.861580	0.297800	0.492800
H331	H33	0.864100	0.214900	0.503000
C401	C40	0.821890	0.348000	0.462300
H341	H34	0.797200	0.300500	0.451500
C411	C41	0.819050	0.473100	0.447300
H351	H35	0.792200	0.509400	0.425100
C421	C42	0.854340	0.671900	0.437700
Mo151	Mo15	0.291310	0.514990	0.326550
Mo161	Mo16	0.409370	0.523140	0.268780
O431	O43	0.265080	0.635500	0.218900
O441	O44	0.251410	0.404000	0.345800
O451	O45	0.298120	0.560500	0.551600
O461	O46	0.352260	0.566300	0.273600
O471	O47	0.409170	0.456800	0.052400
O481	O48	0.460930	0.425100	0.352100
N361	N36	0.397210	0.866300	0.508200
N371	N37	0.318980	0.240300	0.437900
N381	N38	0.333520	0.348200	0.389400
N391	N39	0.375350	0.342900	0.364600
N401	N40	0.389450	0.233600	0.394300
H361	H36	0.415500	0.207300	0.387400
C431	C43	0.355600	0.042000	0.465300
C441	C44	0.395270	0.987700	0.497400
H371	H37	0.420300	0.033600	0.511400
C451	C45	0.361580	0.797800	0.492800
H381	H38	0.364100	0.714900	0.503000
C461	C46	0.321890	0.848000	0.462300
H391	H39	0.297200	0.800500	0.451500
C471	C47	0.319050	0.973100	0.447300
H401	H40	0.292200	0.009400	0.425100
C481	C48	0.354340	0.171900	0.437700
Mo171	Mo17	0.000000	0.169310	0.750000
Mo181	Mo18	0.500000	0.669310	0.750000
Mo191	Mo19	0.000000	0.830690	0.250000
Mo201	Mo20	0.500000	0.330690	0.250000
Co11	Co1	0.750000	0.250000	0.000000
Co21	Co2	0.250000	0.250000	0.500000
Co31	Co3	0.250000	0.750000	0.000000
Co41	Co4	0.750000	0.750000	0.500000
