data_EBELUU_clean_PM
_symmetry_space_group_name_H-M	'P1'
_cell_length_a	7.362000
_cell_length_b	12.946000
_cell_length_c	13.628000
_cell_angle_alpha	90.000000
_cell_angle_beta	91.312000
_cell_angle_gamma	90.000000
_symmetry_Int_Tables_number 1

loop_
_symmetry_equiv_pos_as_xyz
'x,y,z'

loop_
_atom_site_label
_atom_site_type_symbol
_atom_site_fract_x
_atom_site_fract_y
_atom_site_fract_z
Zn11	Zn1	0.500240	0.250000	0.086240
Zn21	Zn2	0.499760	0.750000	0.913760
Ni11	Ni1	0.000000	0.000000	0.000000
Ni21	Ni2	0.000000	0.500000	0.000000
H11	H1	0.521100	0.404400	0.909700
H21	H2	0.563600	0.403500	0.741200
H31	H3	0.458700	0.404800	0.433700
H41	H4	0.504700	0.402700	0.265100
H51	H5	0.478900	0.904400	0.090300
H61	H6	0.436400	0.903500	0.258800
H71	H7	0.541300	0.904800	0.566300
H81	H8	0.495300	0.902700	0.734900
H91	H9	0.478900	0.595600	0.090300
H101	H10	0.436400	0.596500	0.258800
H111	H11	0.541300	0.595200	0.566300
H121	H12	0.495300	0.597300	0.734900
H131	H13	0.521100	0.095600	0.909700
H141	H14	0.563600	0.096500	0.741200
H151	H15	0.458700	0.095200	0.433700
H161	H16	0.504700	0.097300	0.265100
C11	C1	0.827700	0.078200	0.046400
C21	C2	0.199500	0.091700	0.037800
C31	C3	0.530600	0.341800	0.876700
C41	C4	0.551700	0.341400	0.774700
C51	C5	0.469000	0.342500	0.400200
C61	C6	0.494800	0.340700	0.299000
C71	C7	0.172300	0.578200	0.953600
C81	C8	0.800500	0.591700	0.962200
C91	C9	0.469400	0.841800	0.123300
C101	C10	0.448300	0.841400	0.225300
C111	C11	0.531000	0.842500	0.599800
C121	C12	0.505200	0.840700	0.701000
C131	C13	0.172300	0.921800	0.953600
C141	C14	0.800500	0.908300	0.962200
C151	C15	0.469400	0.658200	0.123300
C161	C16	0.448300	0.658600	0.225300
C171	C17	0.531000	0.657500	0.599800
C181	C18	0.505200	0.659300	0.701000
C191	C19	0.827700	0.421800	0.046400
C201	C20	0.199500	0.408300	0.037800
C211	C21	0.530600	0.158200	0.876700
C221	C22	0.551700	0.158600	0.774700
C231	C23	0.469000	0.157500	0.400200
C241	C24	0.494800	0.159300	0.299000
C251	C25	0.554700	0.250000	0.723900
C261	C26	0.575800	0.250000	0.615000
C271	C27	0.459300	0.250000	0.448700
C281	C28	0.445300	0.750000	0.276100
C291	C29	0.424200	0.750000	0.385000
C301	C30	0.540700	0.750000	0.551300
N11	N1	0.305500	0.139800	0.076500
N21	N2	0.710300	0.133600	0.077700
N31	N3	0.694500	0.639800	0.923500
N41	N4	0.289700	0.633600	0.922300
N51	N5	0.694500	0.860200	0.923500
N61	N6	0.289700	0.866400	0.922300
N71	N7	0.305500	0.360200	0.076500
N81	N8	0.710300	0.366400	0.077700
N91	N9	0.523800	0.250000	0.929000
N101	N10	0.439700	0.250000	0.559000
N111	N11	0.505700	0.250000	0.248900
N121	N12	0.476200	0.750000	0.071000
N131	N13	0.560300	0.750000	0.441000
N141	N14	0.494300	0.750000	0.751100
O11	O1	0.731200	0.250000	0.577400
O21	O2	0.268800	0.750000	0.422600
