data_EBEWIT_clean_PM
_symmetry_space_group_name_H-M	'P1'
_cell_length_a	10.360400
_cell_length_b	10.360400
_cell_length_c	14.505900
_cell_angle_alpha	90.000000
_cell_angle_beta	90.000000
_cell_angle_gamma	90.000000
_symmetry_Int_Tables_number 1

loop_
_symmetry_equiv_pos_as_xyz
'x,y,z'

loop_
_atom_site_label
_atom_site_type_symbol
_atom_site_fract_x
_atom_site_fract_y
_atom_site_fract_z
Gd11	Gd1	0.145670	0.145670	0.375000
Gd21	Gd2	0.854330	0.854330	0.875000
Gd31	Gd3	0.854330	0.145670	0.625000
Gd41	Gd4	0.145670	0.854330	0.125000
H11	H1	0.069800	0.556600	0.371700
H21	H2	0.930200	0.443400	0.871700
H31	H3	0.443400	0.069800	0.621700
H41	H4	0.556600	0.930200	0.121700
H51	H5	0.930200	0.556600	0.628300
H61	H6	0.069800	0.443400	0.128300
H71	H7	0.556600	0.069800	0.378300
H81	H8	0.443400	0.930200	0.878300
H91	H9	0.000000	0.890400	0.500000
H101	H10	0.000000	0.109600	0.000000
H111	H11	0.109600	0.000000	0.750000
H121	H12	0.890400	0.000000	0.250000
C11	C1	0.082800	0.811000	0.339400
C21	C2	0.041200	0.602200	0.423000
C31	C3	0.039900	0.737500	0.422000
C41	C4	0.917200	0.189000	0.839400
C51	C5	0.958800	0.397800	0.923000
C61	C6	0.960100	0.262500	0.922000
C71	C7	0.189000	0.082800	0.589400
C81	C8	0.397800	0.041200	0.673000
C91	C9	0.262500	0.039900	0.672000
C101	C10	0.811000	0.917200	0.089400
C111	C11	0.602200	0.958800	0.173000
C121	C12	0.737500	0.960100	0.172000
C131	C13	0.917200	0.811000	0.660600
C141	C14	0.958800	0.602200	0.577000
C151	C15	0.960100	0.737500	0.578000
C161	C16	0.082800	0.189000	0.160600
C171	C17	0.041200	0.397800	0.077000
C181	C18	0.039900	0.262500	0.078000
C191	C19	0.811000	0.082800	0.410600
C201	C20	0.602200	0.041200	0.327000
C211	C21	0.737500	0.039900	0.328000
C221	C22	0.189000	0.917200	0.910600
C231	C23	0.397800	0.958800	0.827000
C241	C24	0.262500	0.960100	0.828000
C251	C25	0.000000	0.389300	0.500000
C261	C26	0.000000	0.537100	0.500000
C271	C27	0.000000	0.800600	0.500000
C281	C28	0.000000	0.610700	0.000000
C291	C29	0.000000	0.462900	0.000000
C301	C30	0.000000	0.199400	0.000000
C311	C31	0.610700	0.000000	0.750000
C321	C32	0.462900	0.000000	0.750000
C331	C33	0.199400	0.000000	0.750000
C341	C34	0.389300	0.000000	0.250000
C351	C35	0.537100	0.000000	0.250000
C361	C36	0.800600	0.000000	0.250000
O11	O1	0.069200	0.335500	0.441400
O21	O2	0.089500	0.752500	0.263800
O31	O3	0.106900	0.927600	0.345500
O41	O4	0.930800	0.664500	0.941400
O51	O5	0.910500	0.247500	0.763800
O61	O6	0.893100	0.072400	0.845500
O71	O7	0.664500	0.069200	0.691400
O81	O8	0.247500	0.089500	0.513800
O91	O9	0.072400	0.106900	0.595500
O101	O10	0.335500	0.930800	0.191400
O111	O11	0.752500	0.910500	0.013800
O121	O12	0.927600	0.893100	0.095500
O131	O13	0.930800	0.335500	0.558600
O141	O14	0.910500	0.752500	0.736200
O151	O15	0.893100	0.927600	0.654500
O161	O16	0.069200	0.664500	0.058600
O171	O17	0.089500	0.247500	0.236200
O181	O18	0.106900	0.072400	0.154500
O191	O19	0.335500	0.069200	0.308600
O201	O20	0.752500	0.089500	0.486200
O211	O21	0.927600	0.106900	0.404500
O221	O22	0.664500	0.930800	0.808600
O231	O23	0.247500	0.910500	0.986200
O241	O24	0.072400	0.893100	0.904500
