data_EBIHII_clean_PM
_symmetry_space_group_name_H-M	'P1'
_cell_length_a	12.808000
_cell_length_b	14.155000
_cell_length_c	18.047900
_cell_angle_alpha	101.460000
_cell_angle_beta	110.783000
_cell_angle_gamma	90.000000
_symmetry_Int_Tables_number 1

loop_
_symmetry_equiv_pos_as_xyz
'x,y,z'

loop_
_atom_site_label
_atom_site_type_symbol
_atom_site_fract_x
_atom_site_fract_y
_atom_site_fract_z
Fe11	Fe1	0.254090	0.644810	0.038160
Fe21	Fe2	0.534330	0.992730	0.430800
Fe31	Fe3	0.215930	0.855190	0.961840
Fe41	Fe4	0.103530	0.507270	0.569200
Fe51	Fe5	0.745910	0.355190	0.961840
Fe61	Fe6	0.465670	0.007270	0.569200
Fe71	Fe7	0.784070	0.144810	0.038160
Fe81	Fe8	0.896470	0.492730	0.430800
Fe91	Fe9	0.000000	0.500000	0.000000
Fe101	Fe10	0.000000	0.000000	0.000000
H11	H1	0.326500	0.734300	0.279000
H21	H2	0.266400	0.722900	0.480400
H31	H3	0.084600	0.545900	0.268400
H41	H4	0.899400	0.629600	0.864600
H51	H5	0.956100	0.658200	0.807400
H61	H6	0.934000	0.738400	0.872400
H71	H7	0.568600	0.611000	0.010200
H81	H8	0.047500	0.765700	0.721000
H91	H9	0.786000	0.777100	0.519600
H101	H10	0.816200	0.954100	0.731600
H111	H11	0.034800	0.870400	0.135400
H121	H12	0.148700	0.841800	0.192600
H131	H13	0.061600	0.761600	0.127600
H141	H14	0.558400	0.889000	0.989800
H151	H15	0.673500	0.265700	0.721000
H161	H16	0.733600	0.277100	0.519600
H171	H17	0.915400	0.454100	0.731600
H181	H18	0.100600	0.370400	0.135400
H191	H19	0.043900	0.341800	0.192600
H201	H20	0.066000	0.261600	0.127600
H211	H21	0.431400	0.389000	0.989800
H221	H22	0.952500	0.234300	0.279000
H231	H23	0.214000	0.222900	0.480400
H241	H24	0.183800	0.045900	0.268400
H251	H25	0.965200	0.129600	0.864600
H261	H26	0.851300	0.158200	0.807400
H271	H27	0.938400	0.238400	0.872400
H281	H28	0.441600	0.111000	0.010200
H291	H29	0.835600	0.750000	0.000000
H301	H30	0.164400	0.250000	0.000000
C11	C1	0.202630	0.632900	0.259860
C21	C2	0.285200	0.708400	0.304400
C31	C3	0.305850	0.744700	0.385100
C41	C4	0.249360	0.701300	0.424920
C51	C5	0.167420	0.625600	0.381440
C61	C6	0.142230	0.593700	0.298260
C71	C7	0.178080	0.598000	0.169360
C81	C8	0.386160	0.833600	0.429720
C91	C9	0.105610	0.580000	0.424620
C101	C10	0.066030	0.662900	0.920860
C111	C11	0.953910	0.673200	0.861020
C121	C12	0.711590	0.665200	0.004180
C131	C13	0.602860	0.666400	0.005520
C141	C14	0.770320	0.573900	0.004640
C151	C15	0.942770	0.867100	0.740140
C161	C16	0.980800	0.791600	0.695600
C171	C17	0.920750	0.755300	0.614900
C181	C18	0.824440	0.798700	0.575080
C191	C19	0.785980	0.874400	0.618560
C201	C20	0.843970	0.906300	0.701740
C211	C21	0.008720	0.902000	0.830640
C221	C22	0.956440	0.666400	0.570280
C231	C23	0.680990	0.920000	0.575380
C241	C24	0.145170	0.837100	0.079140
C251	C25	0.092890	0.826800	0.138980
C261	C26	0.707410	0.834800	0.995820
C271	C27	0.597340	0.833600	0.994480
C281	C28	0.765680	0.926100	0.995360
C291	C29	0.797370	0.367100	0.740140
C301	C30	0.714800	0.291600	0.695600
C311	C31	0.694150	0.255300	0.614900
C321	C32	0.750640	0.298700	0.575080
C331	C33	0.832580	0.374400	0.618560
C341	C34	0.857770	0.406300	0.701740
C351	C35	0.821920	0.402000	0.830640
C361	C36	0.613840	0.166400	0.570280
C371	C37	0.894390	0.420000	0.575380
C381	C38	0.933970	0.337100	0.079140
C391	C39	0.046090	0.326800	0.138980
C401	C40	0.288410	0.334800	0.995820
C411	C41	0.397140	0.333600	0.994480
C421	C42	0.229680	0.426100	0.995360
C431	C43	0.057230	0.132900	0.259860
C441	C44	0.019200	0.208400	0.304400
C451	C45	0.079250	0.244700	0.385100
C461	C46	0.175560	0.201300	0.424920
C471	C47	0.214020	0.125600	0.381440
C481	C48	0.156030	0.093700	0.298260
C491	C49	0.991280	0.098000	0.169360
C501	C50	0.043560	0.333600	0.429720
C511	C51	0.319010	0.080000	0.424620
C521	C52	0.854830	0.162900	0.920860
C531	C53	0.907110	0.173200	0.861020
C541	C54	0.292590	0.165200	0.004180
C551	C55	0.402660	0.166400	0.005520
C561	C56	0.234320	0.073900	0.004640
C571	C57	0.545700	0.750000	0.000000
C581	C58	0.763000	0.750000	0.000000
C591	C59	0.429000	0.750000	0.000000
C601	C60	0.454300	0.250000	0.000000
C611	C61	0.237000	0.250000	0.000000
C621	C62	0.571000	0.250000	0.000000
O11	O1	0.086060	0.553500	0.128320
O21	O2	0.252600	0.620500	0.144600
O31	O3	0.442550	0.861800	0.392900
O41	O4	0.387870	0.873500	0.498940
O51	O5	0.160150	0.573300	0.495700
O61	O6	0.005090	0.552700	0.385780
O71	O7	0.154240	0.696800	0.916280
O81	O8	0.074950	0.624100	0.979900
O91	O9	0.869010	0.580300	0.006220
O101	O10	0.716610	0.498000	0.002020
O111	O11	0.399700	0.685900	0.029400
O121	O12	0.957740	0.946500	0.871680
O131	O13	0.108000	0.879500	0.855400
O141	O14	0.049650	0.638200	0.607100
O151	O15	0.888930	0.626500	0.501060
O161	O16	0.664450	0.926700	0.504300
O171	O17	0.619310	0.947300	0.614220
O181	O18	0.237960	0.803200	0.083720
O191	O19	0.095050	0.875900	0.020100
O201	O20	0.862790	0.919700	0.993780
O211	O21	0.714590	0.002000	0.997980
O221	O22	0.370300	0.814100	0.970600
O231	O23	0.913940	0.446500	0.871680
O241	O24	0.747400	0.379500	0.855400
O251	O25	0.557450	0.138200	0.607100
O261	O26	0.612130	0.126500	0.501060
O271	O27	0.839850	0.426700	0.504300
O281	O28	0.994910	0.447300	0.614220
O291	O29	0.845760	0.303200	0.083720
O301	O30	0.925050	0.375900	0.020100
O311	O31	0.130990	0.419700	0.993780
O321	O32	0.283390	0.502000	0.997980
O331	O33	0.600300	0.314100	0.970600
O341	O34	0.042260	0.053500	0.128320
O351	O35	0.892000	0.120500	0.144600
O361	O36	0.950350	0.361800	0.392900
O371	O37	0.111070	0.373500	0.498940
O381	O38	0.335550	0.073300	0.495700
O391	O39	0.380690	0.052700	0.385780
O401	O40	0.762040	0.196800	0.916280
O411	O41	0.904950	0.124100	0.979900
O421	O42	0.137210	0.080300	0.006220
O431	O43	0.285410	0.998000	0.002020
O441	O44	0.629700	0.185900	0.029400
