data_EBIJAC_clean_PM
_symmetry_space_group_name_H-M	'P1'
_cell_length_a	16.614400
_cell_length_b	32.782000
_cell_length_c	17.866200
_cell_angle_alpha	90.000000
_cell_angle_beta	90.000000
_cell_angle_gamma	90.000000
_symmetry_Int_Tables_number 1

loop_
_symmetry_equiv_pos_as_xyz
'x,y,z'

loop_
_atom_site_label
_atom_site_type_symbol
_atom_site_fract_x
_atom_site_fract_y
_atom_site_fract_z
Cd11	Cd1	0.204940	0.162560	0.702990
Cd21	Cd2	0.297220	0.130650	0.527480
Cd31	Cd3	0.795060	0.337440	0.702990
Cd41	Cd4	0.702780	0.369350	0.527480
Cd51	Cd5	0.204940	0.837440	0.797010
Cd61	Cd6	0.297220	0.869350	0.972520
Cd71	Cd7	0.795060	0.662560	0.797010
Cd81	Cd8	0.702780	0.630650	0.972520
Cd91	Cd9	0.795060	0.837440	0.297010
Cd101	Cd10	0.702780	0.869350	0.472520
Cd111	Cd11	0.204940	0.662560	0.297010
Cd121	Cd12	0.297220	0.630650	0.472520
Cd131	Cd13	0.795060	0.162560	0.202990
Cd141	Cd14	0.702780	0.130650	0.027480
Cd151	Cd15	0.204940	0.337440	0.202990
Cd161	Cd16	0.297220	0.369350	0.027480
H11	H1	0.883000	0.240300	0.779700
H21	H2	0.818900	0.240800	0.893300
H31	H3	0.739800	0.126500	0.856400
H41	H4	0.807200	0.125500	0.744500
H51	H5	0.955900	0.172700	0.689500
H61	H6	0.912100	0.212900	0.665100
H71	H7	0.796700	0.245800	0.569000
H81	H8	0.716700	0.224300	0.593700
H91	H9	0.788100	0.228600	0.650500
H101	H10	0.950300	0.111000	0.695300
H111	H11	0.952200	0.074600	0.638300
H121	H12	0.010100	0.111900	0.627400
H131	H13	0.718600	0.108400	0.414100
H141	H14	0.797300	0.120200	0.370700
H151	H15	0.791600	0.078100	0.412200
H161	H16	0.742400	0.185700	0.407100
H171	H17	0.722000	0.215800	0.472500
H181	H18	0.619700	0.186000	0.351300
H191	H19	0.484200	0.166800	0.354900
H201	H20	0.502500	0.125600	0.555300
H211	H21	0.630500	0.155300	0.570200
H221	H22	0.958900	0.062700	0.520200
H231	H23	0.914200	0.071500	0.444500
H241	H24	0.789600	0.049500	0.597500
H251	H25	0.718600	0.991800	0.616000
H261	H26	0.839800	0.939000	0.445700
H271	H27	0.907600	0.001000	0.428600
H281	H28	0.009400	0.217600	0.525400
H291	H29	0.922500	0.215500	0.425800
H301	H30	0.025000	0.111800	0.355500
H311	H31	0.109500	0.113100	0.462900
H321	H32	0.330600	0.010100	0.621300
H331	H33	0.313800	0.055900	0.831700
H341	H34	0.442500	0.231000	0.548600
H351	H35	0.442200	0.232100	0.771700
H361	H36	0.117000	0.259700	0.779700
H371	H37	0.181100	0.259200	0.893300
H381	H38	0.260200	0.373500	0.856400
H391	H39	0.192800	0.374500	0.744500
H401	H40	0.044100	0.327300	0.689500
H411	H41	0.087900	0.287100	0.665100
H421	H42	0.203300	0.254200	0.569000
H431	H43	0.283300	0.275700	0.593700
H441	H44	0.211900	0.271400	0.650500
H451	H45	0.049700	0.389000	0.695300
H461	H46	0.047800	0.425400	0.638300
H471	H47	0.989900	0.388100	0.627400
H481	H48	0.281400	0.391600	0.414100
H491	H49	0.202700	0.379800	0.370700
H501	H50	0.208400	0.421900	0.412200
H511	H51	0.257600	0.314300	0.407100
H521	H52	0.278000	0.284200	0.472500
H531	H53	0.380300	0.314000	0.351300
H541	H54	0.515800	0.333200	0.354900
H551	H55	0.497500	0.374400	0.555300
H561	H56	0.369500	0.344700	0.570200
H571	H57	0.041100	0.437300	0.520200
H581	H58	0.085800	0.428500	0.444500
H591	H59	0.210400	0.450500	0.597500
H601	H60	0.281400	0.508200	0.616000
H611	H61	0.160200	0.561000	0.445700
H621	H62	0.092400	0.499000	0.428600
H631	H63	0.990600	0.282400	0.525400
H641	H64	0.077500	0.284500	0.425800
H651	H65	0.975000	0.388200	0.355500
H661	H66	0.890500	0.386900	0.462900
H671	H67	0.669400	0.489900	0.621300
H681	H68	0.686200	0.444100	0.831700
H691	H69	0.557500	0.269000	0.548600
H701	H70	0.557800	0.267900	0.771700
H711	H71	0.883000	0.759700	0.720300
H721	H72	0.818900	0.759200	0.606700
H731	H73	0.739800	0.873500	0.643600
H741	H74	0.807200	0.874500	0.755500
H751	H75	0.955900	0.827300	0.810500
H761	H76	0.912100	0.787100	0.834900
H771	H77	0.796700	0.754200	0.931000
H781	H78	0.716700	0.775700	0.906300
H791	H79	0.788100	0.771400	0.849500
H801	H80	0.950300	0.889000	0.804700
H811	H81	0.952200	0.925400	0.861700
H821	H82	0.010100	0.888100	0.872600
H831	H83	0.718600	0.891600	0.085900
H841	H84	0.797300	0.879800	0.129300
H851	H85	0.791600	0.921900	0.087800
H861	H86	0.742400	0.814300	0.092900
H871	H87	0.722000	0.784200	0.027500
H881	H88	0.619700	0.814000	0.148700
H891	H89	0.484200	0.833200	0.145100
H901	H90	0.502500	0.874400	0.944700
H911	H91	0.630500	0.844700	0.929800
H921	H92	0.958900	0.937300	0.979800
H931	H93	0.914200	0.928500	0.055500
H941	H94	0.789600	0.950500	0.902500
H951	H95	0.718600	0.008200	0.884000
H961	H96	0.839800	0.061000	0.054300
H971	H97	0.907600	0.999000	0.071400
H981	H98	0.009400	0.782400	0.974600
H991	H99	0.922500	0.784500	0.074200
H1001	H100	0.025000	0.888200	0.144500
H1011	H101	0.109500	0.886900	0.037100
H1021	H102	0.330600	0.989900	0.878700
H1031	H103	0.313800	0.944100	0.668300
H1041	H104	0.442500	0.769000	0.951400
H1051	H105	0.442200	0.767900	0.728300
H1061	H106	0.117000	0.740300	0.720300
H1071	H107	0.181100	0.740800	0.606700
H1081	H108	0.260200	0.626500	0.643600
H1091	H109	0.192800	0.625500	0.755500
H1101	H110	0.044100	0.672700	0.810500
H1111	H111	0.087900	0.712900	0.834900
H1121	H112	0.203300	0.745800	0.931000
H1131	H113	0.283300	0.724300	0.906300
H1141	H114	0.211900	0.728600	0.849500
H1151	H115	0.049700	0.611000	0.804700
H1161	H116	0.047800	0.574600	0.861700
H1171	H117	0.989900	0.611900	0.872600
H1181	H118	0.281400	0.608400	0.085900
H1191	H119	0.202700	0.620200	0.129300
H1201	H120	0.208400	0.578100	0.087800
H1211	H121	0.257600	0.685700	0.092900
H1221	H122	0.278000	0.715800	0.027500
H1231	H123	0.380300	0.686000	0.148700
H1241	H124	0.515800	0.666800	0.145100
H1251	H125	0.497500	0.625600	0.944700
H1261	H126	0.369500	0.655300	0.929800
H1271	H127	0.041100	0.562700	0.979800
H1281	H128	0.085800	0.571500	0.055500
H1291	H129	0.210400	0.549500	0.902500
H1301	H130	0.281400	0.491800	0.884000
H1311	H131	0.160200	0.439000	0.054300
H1321	H132	0.092400	0.501000	0.071400
H1331	H133	0.990600	0.717600	0.974600
H1341	H134	0.077500	0.715500	0.074200
H1351	H135	0.975000	0.611800	0.144500
H1361	H136	0.890500	0.613100	0.037100
H1371	H137	0.669400	0.510100	0.878700
H1381	H138	0.686200	0.555900	0.668300
H1391	H139	0.557500	0.731000	0.951400
H1401	H140	0.557800	0.732100	0.728300
H1411	H141	0.117000	0.759700	0.220300
H1421	H142	0.181100	0.759200	0.106700
H1431	H143	0.260200	0.873500	0.143600
H1441	H144	0.192800	0.874500	0.255500
H1451	H145	0.044100	0.827300	0.310500
H1461	H146	0.087900	0.787100	0.334900
H1471	H147	0.203300	0.754200	0.431000
H1481	H148	0.283300	0.775700	0.406300
H1491	H149	0.211900	0.771400	0.349500
H1501	H150	0.049700	0.889000	0.304700
H1511	H151	0.047800	0.925400	0.361700
H1521	H152	0.989900	0.888100	0.372600
H1531	H153	0.281400	0.891600	0.585900
H1541	H154	0.202700	0.879800	0.629300
H1551	H155	0.208400	0.921900	0.587800
H1561	H156	0.257600	0.814300	0.592900
H1571	H157	0.278000	0.784200	0.527500
H1581	H158	0.380300	0.814000	0.648700
H1591	H159	0.515800	0.833200	0.645100
H1601	H160	0.497500	0.874400	0.444700
H1611	H161	0.369500	0.844700	0.429800
H1621	H162	0.041100	0.937300	0.479800
H1631	H163	0.085800	0.928500	0.555500
H1641	H164	0.210400	0.950500	0.402500
H1651	H165	0.281400	0.008200	0.384000
H1661	H166	0.160200	0.061000	0.554300
H1671	H167	0.092400	0.999000	0.571400
H1681	H168	0.990600	0.782400	0.474600
H1691	H169	0.077500	0.784500	0.574200
H1701	H170	0.975000	0.888200	0.644500
H1711	H171	0.890500	0.886900	0.537100
H1721	H172	0.669400	0.989900	0.378700
H1731	H173	0.686200	0.944100	0.168300
H1741	H174	0.557500	0.769000	0.451400
H1751	H175	0.557800	0.767900	0.228300
H1761	H176	0.883000	0.740300	0.220300
H1771	H177	0.818900	0.740800	0.106700
H1781	H178	0.739800	0.626500	0.143600
H1791	H179	0.807200	0.625500	0.255500
H1801	H180	0.955900	0.672700	0.310500
H1811	H181	0.912100	0.712900	0.334900
H1821	H182	0.796700	0.745800	0.431000
H1831	H183	0.716700	0.724300	0.406300
H1841	H184	0.788100	0.728600	0.349500
H1851	H185	0.950300	0.611000	0.304700
H1861	H186	0.952200	0.574600	0.361700
H1871	H187	0.010100	0.611900	0.372600
H1881	H188	0.718600	0.608400	0.585900
H1891	H189	0.797300	0.620200	0.629300
H1901	H190	0.791600	0.578100	0.587800
H1911	H191	0.742400	0.685700	0.592900
H1921	H192	0.722000	0.715800	0.527500
H1931	H193	0.619700	0.686000	0.648700
H1941	H194	0.484200	0.666800	0.645100
H1951	H195	0.502500	0.625600	0.444700
H1961	H196	0.630500	0.655300	0.429800
H1971	H197	0.958900	0.562700	0.479800
H1981	H198	0.914200	0.571500	0.555500
H1991	H199	0.789600	0.549500	0.402500
H2001	H200	0.718600	0.491800	0.384000
H2011	H201	0.839800	0.439000	0.554300
H2021	H202	0.907600	0.501000	0.571400
H2031	H203	0.009400	0.717600	0.474600
H2041	H204	0.922500	0.715500	0.574200
H2051	H205	0.025000	0.611800	0.644500
H2061	H206	0.109500	0.613100	0.537100
H2071	H207	0.330600	0.510100	0.378700
H2081	H208	0.313800	0.555900	0.168300
H2091	H209	0.442500	0.731000	0.451400
H2101	H210	0.442200	0.732100	0.228300
H2111	H211	0.117000	0.240300	0.279700
H2121	H212	0.181100	0.240800	0.393300
H2131	H213	0.260200	0.126500	0.356400
H2141	H214	0.192800	0.125500	0.244500
H2151	H215	0.044100	0.172700	0.189500
H2161	H216	0.087900	0.212900	0.165100
H2171	H217	0.203300	0.245800	0.069000
H2181	H218	0.283300	0.224300	0.093700
H2191	H219	0.211900	0.228600	0.150500
H2201	H220	0.049700	0.111000	0.195300
H2211	H221	0.047800	0.074600	0.138300
H2221	H222	0.989900	0.111900	0.127400
H2231	H223	0.281400	0.108400	0.914100
H2241	H224	0.202700	0.120200	0.870700
H2251	H225	0.208400	0.078100	0.912200
H2261	H226	0.257600	0.185700	0.907100
H2271	H227	0.278000	0.215800	0.972500
H2281	H228	0.380300	0.186000	0.851300
H2291	H229	0.515800	0.166800	0.854900
H2301	H230	0.497500	0.125600	0.055300
H2311	H231	0.369500	0.155300	0.070200
H2321	H232	0.041100	0.062700	0.020200
H2331	H233	0.085800	0.071500	0.944500
H2341	H234	0.210400	0.049500	0.097500
H2351	H235	0.281400	0.991800	0.116000
H2361	H236	0.160200	0.939000	0.945700
H2371	H237	0.092400	0.001000	0.928600
H2381	H238	0.990600	0.217600	0.025400
H2391	H239	0.077500	0.215500	0.925800
H2401	H240	0.975000	0.111800	0.855500
H2411	H241	0.890500	0.113100	0.962900
H2421	H242	0.669400	0.010100	0.121300
H2431	H243	0.686200	0.055900	0.331700
H2441	H244	0.557500	0.231000	0.048600
H2451	H245	0.557800	0.232100	0.271700
H2461	H246	0.883000	0.259700	0.279700
H2471	H247	0.818900	0.259200	0.393300
H2481	H248	0.739800	0.373500	0.356400
H2491	H249	0.807200	0.374500	0.244500
H2501	H250	0.955900	0.327300	0.189500
H2511	H251	0.912100	0.287100	0.165100
H2521	H252	0.796700	0.254200	0.069000
H2531	H253	0.716700	0.275700	0.093700
H2541	H254	0.788100	0.271400	0.150500
H2551	H255	0.950300	0.389000	0.195300
H2561	H256	0.952200	0.425400	0.138300
H2571	H257	0.010100	0.388100	0.127400
H2581	H258	0.718600	0.391600	0.914100
H2591	H259	0.797300	0.379800	0.870700
H2601	H260	0.791600	0.421900	0.912200
H2611	H261	0.742400	0.314300	0.907100
H2621	H262	0.722000	0.284200	0.972500
H2631	H263	0.619700	0.314000	0.851300
H2641	H264	0.484200	0.333200	0.854900
H2651	H265	0.502500	0.374400	0.055300
H2661	H266	0.630500	0.344700	0.070200
H2671	H267	0.958900	0.437300	0.020200
H2681	H268	0.914200	0.428500	0.944500
H2691	H269	0.789600	0.450500	0.097500
H2701	H270	0.718600	0.508200	0.116000
H2711	H271	0.839800	0.561000	0.945700
H2721	H272	0.907600	0.499000	0.928600
H2731	H273	0.009400	0.282400	0.025400
H2741	H274	0.922500	0.284500	0.925800
H2751	H275	0.025000	0.388200	0.855500
H2761	H276	0.109500	0.386900	0.962900
H2771	H277	0.330600	0.489900	0.121300
H2781	H278	0.313800	0.444100	0.331700
H2791	H279	0.442500	0.269000	0.048600
H2801	H280	0.442200	0.267900	0.271700
C11	C1	0.854800	0.217360	0.795500
C21	C2	0.816300	0.217690	0.863300
C31	C3	0.773300	0.183650	0.887700
C41	C4	0.769400	0.149200	0.841400
C51	C5	0.808900	0.148800	0.774300
C61	C6	0.903700	0.184640	0.679000
C71	C7	0.866200	0.162690	0.615400
C81	C8	0.894800	0.124530	0.597000
C91	C9	0.867100	0.106050	0.532900
C101	C10	0.809800	0.125800	0.484200
C111	C11	0.780900	0.164150	0.509500
C121	C12	0.809000	0.181800	0.571800
C131	C13	0.774200	0.224340	0.598900
C141	C14	0.957500	0.103630	0.643700
C151	C15	0.776300	0.106350	0.413800
C161	C16	0.722500	0.187250	0.458100
C171	C17	0.597100	0.175600	0.395000
C181	C18	0.515800	0.163100	0.397300
C191	C19	0.482200	0.146000	0.458100
C201	C20	0.524500	0.140500	0.516000
C211	C21	0.604300	0.155900	0.524200
C221	C22	0.906500	0.067230	0.497800
C231	C23	0.798600	0.027100	0.566700
C241	C24	0.757200	0.992560	0.578300
C251	C25	0.771100	0.956810	0.534000
C261	C26	0.828500	0.961000	0.476900
C271	C27	0.869500	0.998510	0.466500
C281	C28	0.118200	0.166210	0.573500
C291	C29	0.066400	0.165100	0.505000
C301	C30	0.011700	0.195690	0.492300
C311	C31	0.960400	0.194960	0.432300
C321	C32	0.965700	0.163700	0.382200
C331	C33	0.021000	0.132660	0.390500
C341	C34	0.072200	0.133800	0.455000
C351	C35	0.908300	0.160920	0.317300
C361	C36	0.306400	0.077800	0.678400
C371	C37	0.316800	0.038740	0.720900
C381	C38	0.322900	0.005800	0.672200
C391	C39	0.317200	0.033610	0.799700
C401	C40	0.352800	0.202520	0.659400
C411	C41	0.465300	0.238720	0.594100
C421	C42	0.428300	0.227130	0.659700
C431	C43	0.465600	0.239200	0.726200
C441	C44	0.145200	0.282640	0.795500
C451	C45	0.183700	0.282310	0.863300
C461	C46	0.226700	0.316350	0.887700
C471	C47	0.230600	0.350800	0.841400
C481	C48	0.191100	0.351200	0.774300
C491	C49	0.096300	0.315360	0.679000
C501	C50	0.133800	0.337310	0.615400
C511	C51	0.105200	0.375470	0.597000
C521	C52	0.132900	0.393950	0.532900
C531	C53	0.190200	0.374200	0.484200
C541	C54	0.219100	0.335850	0.509500
C551	C55	0.191000	0.318200	0.571800
C561	C56	0.225800	0.275660	0.598900
C571	C57	0.042500	0.396370	0.643700
C581	C58	0.223700	0.393650	0.413800
C591	C59	0.277500	0.312750	0.458100
C601	C60	0.402900	0.324400	0.395000
C611	C61	0.484200	0.336900	0.397300
C621	C62	0.517800	0.354000	0.458100
C631	C63	0.475500	0.359500	0.516000
C641	C64	0.395700	0.344100	0.524200
C651	C65	0.093500	0.432770	0.497800
C661	C66	0.201400	0.472900	0.566700
C671	C67	0.242800	0.507440	0.578300
C681	C68	0.228900	0.543190	0.534000
C691	C69	0.171500	0.539000	0.476900
C701	C70	0.130500	0.501490	0.466500
C711	C71	0.881800	0.333790	0.573500
C721	C72	0.933600	0.334900	0.505000
C731	C73	0.988300	0.304310	0.492300
C741	C74	0.039600	0.305040	0.432300
C751	C75	0.034300	0.336300	0.382200
C761	C76	0.979000	0.367340	0.390500
C771	C77	0.927800	0.366200	0.455000
C781	C78	0.091700	0.339080	0.317300
C791	C79	0.693600	0.422200	0.678400
C801	C80	0.683200	0.461260	0.720900
C811	C81	0.677100	0.494200	0.672200
C821	C82	0.682800	0.466390	0.799700
C831	C83	0.647200	0.297480	0.659400
C841	C84	0.534700	0.261280	0.594100
C851	C85	0.571700	0.272870	0.659700
C861	C86	0.534400	0.260800	0.726200
C871	C87	0.854800	0.782640	0.704500
C881	C88	0.816300	0.782310	0.636700
C891	C89	0.773300	0.816350	0.612300
C901	C90	0.769400	0.850800	0.658600
C911	C91	0.808900	0.851200	0.725700
C921	C92	0.903700	0.815360	0.821000
C931	C93	0.866200	0.837310	0.884600
C941	C94	0.894800	0.875470	0.903000
C951	C95	0.867100	0.893950	0.967100
C961	C96	0.809800	0.874200	0.015800
C971	C97	0.780900	0.835850	0.990500
C981	C98	0.809000	0.818200	0.928200
C991	C99	0.774200	0.775660	0.901100
C1001	C100	0.957500	0.896370	0.856300
C1011	C101	0.776300	0.893650	0.086200
C1021	C102	0.722500	0.812750	0.041900
C1031	C103	0.597100	0.824400	0.105000
C1041	C104	0.515800	0.836900	0.102700
C1051	C105	0.482200	0.854000	0.041900
C1061	C106	0.524500	0.859500	0.984000
C1071	C107	0.604300	0.844100	0.975800
C1081	C108	0.906500	0.932770	0.002200
C1091	C109	0.798600	0.972900	0.933300
C1101	C110	0.757200	0.007440	0.921700
C1111	C111	0.771100	0.043190	0.966000
C1121	C112	0.828500	0.039000	0.023100
C1131	C113	0.869500	0.001490	0.033500
C1141	C114	0.118200	0.833790	0.926500
C1151	C115	0.066400	0.834900	0.995000
C1161	C116	0.011700	0.804310	0.007700
C1171	C117	0.960400	0.805040	0.067700
C1181	C118	0.965700	0.836300	0.117800
C1191	C119	0.021000	0.867340	0.109500
C1201	C120	0.072200	0.866200	0.045000
C1211	C121	0.908300	0.839080	0.182700
C1221	C122	0.306400	0.922200	0.821600
C1231	C123	0.316800	0.961260	0.779100
C1241	C124	0.322900	0.994200	0.827800
C1251	C125	0.317200	0.966390	0.700300
C1261	C126	0.352800	0.797480	0.840600
C1271	C127	0.465300	0.761280	0.905900
C1281	C128	0.428300	0.772870	0.840300
C1291	C129	0.465600	0.760800	0.773800
C1301	C130	0.145200	0.717360	0.704500
C1311	C131	0.183700	0.717690	0.636700
C1321	C132	0.226700	0.683650	0.612300
C1331	C133	0.230600	0.649200	0.658600
C1341	C134	0.191100	0.648800	0.725700
C1351	C135	0.096300	0.684640	0.821000
C1361	C136	0.133800	0.662690	0.884600
C1371	C137	0.105200	0.624530	0.903000
C1381	C138	0.132900	0.606050	0.967100
C1391	C139	0.190200	0.625800	0.015800
C1401	C140	0.219100	0.664150	0.990500
C1411	C141	0.191000	0.681800	0.928200
C1421	C142	0.225800	0.724340	0.901100
C1431	C143	0.042500	0.603630	0.856300
C1441	C144	0.223700	0.606350	0.086200
C1451	C145	0.277500	0.687250	0.041900
C1461	C146	0.402900	0.675600	0.105000
C1471	C147	0.484200	0.663100	0.102700
C1481	C148	0.517800	0.646000	0.041900
C1491	C149	0.475500	0.640500	0.984000
C1501	C150	0.395700	0.655900	0.975800
C1511	C151	0.093500	0.567230	0.002200
C1521	C152	0.201400	0.527100	0.933300
C1531	C153	0.242800	0.492560	0.921700
C1541	C154	0.228900	0.456810	0.966000
C1551	C155	0.171500	0.461000	0.023100
C1561	C156	0.130500	0.498510	0.033500
C1571	C157	0.881800	0.666210	0.926500
C1581	C158	0.933600	0.665100	0.995000
C1591	C159	0.988300	0.695690	0.007700
C1601	C160	0.039600	0.694960	0.067700
C1611	C161	0.034300	0.663700	0.117800
C1621	C162	0.979000	0.632660	0.109500
C1631	C163	0.927800	0.633800	0.045000
C1641	C164	0.091700	0.660920	0.182700
C1651	C165	0.693600	0.577800	0.821600
C1661	C166	0.683200	0.538740	0.779100
C1671	C167	0.677100	0.505800	0.827800
C1681	C168	0.682800	0.533610	0.700300
C1691	C169	0.647200	0.702520	0.840600
C1701	C170	0.534700	0.738720	0.905900
C1711	C171	0.571700	0.727130	0.840300
C1721	C172	0.534400	0.739200	0.773800
C1731	C173	0.145200	0.782640	0.204500
C1741	C174	0.183700	0.782310	0.136700
C1751	C175	0.226700	0.816350	0.112300
C1761	C176	0.230600	0.850800	0.158600
C1771	C177	0.191100	0.851200	0.225700
C1781	C178	0.096300	0.815360	0.321000
C1791	C179	0.133800	0.837310	0.384600
C1801	C180	0.105200	0.875470	0.403000
C1811	C181	0.132900	0.893950	0.467100
C1821	C182	0.190200	0.874200	0.515800
C1831	C183	0.219100	0.835850	0.490500
C1841	C184	0.191000	0.818200	0.428200
C1851	C185	0.225800	0.775660	0.401100
C1861	C186	0.042500	0.896370	0.356300
C1871	C187	0.223700	0.893650	0.586200
C1881	C188	0.277500	0.812750	0.541900
C1891	C189	0.402900	0.824400	0.605000
C1901	C190	0.484200	0.836900	0.602700
C1911	C191	0.517800	0.854000	0.541900
C1921	C192	0.475500	0.859500	0.484000
C1931	C193	0.395700	0.844100	0.475800
C1941	C194	0.093500	0.932770	0.502200
C1951	C195	0.201400	0.972900	0.433300
C1961	C196	0.242800	0.007440	0.421700
C1971	C197	0.228900	0.043190	0.466000
C1981	C198	0.171500	0.039000	0.523100
C1991	C199	0.130500	0.001490	0.533500
C2001	C200	0.881800	0.833790	0.426500
C2011	C201	0.933600	0.834900	0.495000
C2021	C202	0.988300	0.804310	0.507700
C2031	C203	0.039600	0.805040	0.567700
C2041	C204	0.034300	0.836300	0.617800
C2051	C205	0.979000	0.867340	0.609500
C2061	C206	0.927800	0.866200	0.545000
C2071	C207	0.091700	0.839080	0.682700
C2081	C208	0.693600	0.922200	0.321600
C2091	C209	0.683200	0.961260	0.279100
C2101	C210	0.677100	0.994200	0.327800
C2111	C211	0.682800	0.966390	0.200300
C2121	C212	0.647200	0.797480	0.340600
C2131	C213	0.534700	0.761280	0.405900
C2141	C214	0.571700	0.772870	0.340300
C2151	C215	0.534400	0.760800	0.273800
C2161	C216	0.854800	0.717360	0.204500
C2171	C217	0.816300	0.717690	0.136700
C2181	C218	0.773300	0.683650	0.112300
C2191	C219	0.769400	0.649200	0.158600
C2201	C220	0.808900	0.648800	0.225700
C2211	C221	0.903700	0.684640	0.321000
C2221	C222	0.866200	0.662690	0.384600
C2231	C223	0.894800	0.624530	0.403000
C2241	C224	0.867100	0.606050	0.467100
C2251	C225	0.809800	0.625800	0.515800
C2261	C226	0.780900	0.664150	0.490500
C2271	C227	0.809000	0.681800	0.428200
C2281	C228	0.774200	0.724340	0.401100
C2291	C229	0.957500	0.603630	0.356300
C2301	C230	0.776300	0.606350	0.586200
C2311	C231	0.722500	0.687250	0.541900
C2321	C232	0.597100	0.675600	0.605000
C2331	C233	0.515800	0.663100	0.602700
C2341	C234	0.482200	0.646000	0.541900
C2351	C235	0.524500	0.640500	0.484000
C2361	C236	0.604300	0.655900	0.475800
C2371	C237	0.906500	0.567230	0.502200
C2381	C238	0.798600	0.527100	0.433300
C2391	C239	0.757200	0.492560	0.421700
C2401	C240	0.771100	0.456810	0.466000
C2411	C241	0.828500	0.461000	0.523100
C2421	C242	0.869500	0.498510	0.533500
C2431	C243	0.118200	0.666210	0.426500
C2441	C244	0.066400	0.665100	0.495000
C2451	C245	0.011700	0.695690	0.507700
C2461	C246	0.960400	0.694960	0.567700
C2471	C247	0.965700	0.663700	0.617800
C2481	C248	0.021000	0.632660	0.609500
C2491	C249	0.072200	0.633800	0.545000
C2501	C250	0.908300	0.660920	0.682700
C2511	C251	0.306400	0.577800	0.321600
C2521	C252	0.316800	0.538740	0.279100
C2531	C253	0.322900	0.505800	0.327800
C2541	C254	0.317200	0.533610	0.200300
C2551	C255	0.352800	0.702520	0.340600
C2561	C256	0.465300	0.738720	0.405900
C2571	C257	0.428300	0.727130	0.340300
C2581	C258	0.465600	0.739200	0.273800
C2591	C259	0.145200	0.217360	0.295500
C2601	C260	0.183700	0.217690	0.363300
C2611	C261	0.226700	0.183650	0.387700
C2621	C262	0.230600	0.149200	0.341400
C2631	C263	0.191100	0.148800	0.274300
C2641	C264	0.096300	0.184640	0.179000
C2651	C265	0.133800	0.162690	0.115400
C2661	C266	0.105200	0.124530	0.097000
C2671	C267	0.132900	0.106050	0.032900
C2681	C268	0.190200	0.125800	0.984200
C2691	C269	0.219100	0.164150	0.009500
C2701	C270	0.191000	0.181800	0.071800
C2711	C271	0.225800	0.224340	0.098900
C2721	C272	0.042500	0.103630	0.143700
C2731	C273	0.223700	0.106350	0.913800
C2741	C274	0.277500	0.187250	0.958100
C2751	C275	0.402900	0.175600	0.895000
C2761	C276	0.484200	0.163100	0.897300
C2771	C277	0.517800	0.146000	0.958100
C2781	C278	0.475500	0.140500	0.016000
C2791	C279	0.395700	0.155900	0.024200
C2801	C280	0.093500	0.067230	0.997800
C2811	C281	0.201400	0.027100	0.066700
C2821	C282	0.242800	0.992560	0.078300
C2831	C283	0.228900	0.956810	0.034000
C2841	C284	0.171500	0.961000	0.976900
C2851	C285	0.130500	0.998510	0.966500
C2861	C286	0.881800	0.166210	0.073500
C2871	C287	0.933600	0.165100	0.005000
C2881	C288	0.988300	0.195690	0.992300
C2891	C289	0.039600	0.194960	0.932300
C2901	C290	0.034300	0.163700	0.882200
C2911	C291	0.979000	0.132660	0.890500
C2921	C292	0.927800	0.133800	0.955000
C2931	C293	0.091700	0.160920	0.817300
C2941	C294	0.693600	0.077800	0.178400
C2951	C295	0.683200	0.038740	0.220900
C2961	C296	0.677100	0.005800	0.172200
C2971	C297	0.682800	0.033610	0.299700
C2981	C298	0.647200	0.202520	0.159400
C2991	C299	0.534700	0.238720	0.094100
C3001	C300	0.571700	0.227130	0.159700
C3011	C301	0.534400	0.239200	0.226200
C3021	C302	0.854800	0.282640	0.295500
C3031	C303	0.816300	0.282310	0.363300
C3041	C304	0.773300	0.316350	0.387700
C3051	C305	0.769400	0.350800	0.341400
C3061	C306	0.808900	0.351200	0.274300
C3071	C307	0.903700	0.315360	0.179000
C3081	C308	0.866200	0.337310	0.115400
C3091	C309	0.894800	0.375470	0.097000
C3101	C310	0.867100	0.393950	0.032900
C3111	C311	0.809800	0.374200	0.984200
C3121	C312	0.780900	0.335850	0.009500
C3131	C313	0.809000	0.318200	0.071800
C3141	C314	0.774200	0.275660	0.098900
C3151	C315	0.957500	0.396370	0.143700
C3161	C316	0.776300	0.393650	0.913800
C3171	C317	0.722500	0.312750	0.958100
C3181	C318	0.597100	0.324400	0.895000
C3191	C319	0.515800	0.336900	0.897300
C3201	C320	0.482200	0.354000	0.958100
C3211	C321	0.524500	0.359500	0.016000
C3221	C322	0.604300	0.344100	0.024200
C3231	C323	0.906500	0.432770	0.997800
C3241	C324	0.798600	0.472900	0.066700
C3251	C325	0.757200	0.507440	0.078300
C3261	C326	0.771100	0.543190	0.034000
C3271	C327	0.828500	0.539000	0.976900
C3281	C328	0.869500	0.501490	0.966500
C3291	C329	0.118200	0.333790	0.073500
C3301	C330	0.066400	0.334900	0.005000
C3311	C331	0.011700	0.304310	0.992300
C3321	C332	0.960400	0.305040	0.932300
C3331	C333	0.965700	0.336300	0.882200
C3341	C334	0.021000	0.367340	0.890500
C3351	C335	0.072200	0.366200	0.955000
C3361	C336	0.908300	0.339080	0.817300
C3371	C337	0.306400	0.422200	0.178400
C3381	C338	0.316800	0.461260	0.220900
C3391	C339	0.322900	0.494200	0.172200
C3401	C340	0.317200	0.466390	0.299700
C3411	C341	0.352800	0.297480	0.159400
C3421	C342	0.465300	0.261280	0.094100
C3431	C343	0.428300	0.272870	0.159700
C3441	C344	0.465600	0.260800	0.226200
N11	N1	0.851900	0.182930	0.749900
N21	N2	0.641900	0.172050	0.459900
N31	N3	0.853800	0.029720	0.510200
N41	N4	0.148100	0.317070	0.749900
N51	N5	0.358100	0.327950	0.459900
N61	N6	0.146200	0.470280	0.510200
N71	N7	0.851900	0.817070	0.750100
N81	N8	0.641900	0.827950	0.040100
N91	N9	0.853800	0.970280	0.989800
N101	N10	0.148100	0.682930	0.750100
N111	N11	0.358100	0.672050	0.040100
N121	N12	0.146200	0.529720	0.989800
N131	N13	0.148100	0.817070	0.250100
N141	N14	0.358100	0.827950	0.540100
N151	N15	0.146200	0.970280	0.489800
N161	N16	0.851900	0.682930	0.250100
N171	N17	0.641900	0.672050	0.540100
N181	N18	0.853800	0.529720	0.489800
N191	N19	0.148100	0.182930	0.249900
N201	N20	0.358100	0.172050	0.959900
N211	N21	0.146200	0.029720	0.010200
N221	N22	0.851900	0.317070	0.249900
N231	N23	0.641900	0.327950	0.959900
N241	N24	0.853800	0.470280	0.010200
O11	O1	0.743300	0.181040	0.953800
O21	O2	0.409800	0.129820	0.456500
O31	O3	0.737200	0.923640	0.543500
O41	O4	0.167100	0.136380	0.581500
O51	O5	0.110700	0.193040	0.619600
O61	O6	0.913900	0.132600	0.267900
O71	O7	0.853400	0.188180	0.309000
O81	O8	0.326700	0.086180	0.614900
O91	O9	0.276100	0.107170	0.725600
O101	O10	0.334300	0.183530	0.604200
O111	O11	0.313800	0.201870	0.720200
O121	O12	0.256700	0.318960	0.953800
O131	O13	0.590200	0.370180	0.456500
O141	O14	0.262800	0.576360	0.543500
O151	O15	0.832900	0.363620	0.581500
O161	O16	0.889300	0.306960	0.619600
O171	O17	0.086100	0.367400	0.267900
O181	O18	0.146600	0.311820	0.309000
O191	O19	0.673300	0.413820	0.614900
O201	O20	0.723900	0.392830	0.725600
O211	O21	0.665700	0.316470	0.604200
O221	O22	0.686200	0.298130	0.720200
O231	O23	0.743300	0.818960	0.546200
O241	O24	0.409800	0.870180	0.043500
O251	O25	0.737200	0.076360	0.956500
O261	O26	0.167100	0.863620	0.918500
O271	O27	0.110700	0.806960	0.880400
O281	O28	0.913900	0.867400	0.232100
O291	O29	0.853400	0.811820	0.191000
O301	O30	0.326700	0.913820	0.885100
O311	O31	0.276100	0.892830	0.774400
O321	O32	0.334300	0.816470	0.895800
O331	O33	0.313800	0.798130	0.779800
O341	O34	0.256700	0.681040	0.546200
O351	O35	0.590200	0.629820	0.043500
O361	O36	0.262800	0.423640	0.956500
O371	O37	0.832900	0.636380	0.918500
O381	O38	0.889300	0.693040	0.880400
O391	O39	0.086100	0.632600	0.232100
O401	O40	0.146600	0.688180	0.191000
O411	O41	0.673300	0.586180	0.885100
O421	O42	0.723900	0.607170	0.774400
O431	O43	0.665700	0.683530	0.895800
O441	O44	0.686200	0.701870	0.779800
O451	O45	0.256700	0.818960	0.046200
O461	O46	0.590200	0.870180	0.543500
O471	O47	0.262800	0.076360	0.456500
O481	O48	0.832900	0.863620	0.418500
O491	O49	0.889300	0.806960	0.380400
O501	O50	0.086100	0.867400	0.732100
O511	O51	0.146600	0.811820	0.691000
O521	O52	0.673300	0.913820	0.385100
O531	O53	0.723900	0.892830	0.274400
O541	O54	0.665700	0.816470	0.395800
O551	O55	0.686200	0.798130	0.279800
O561	O56	0.743300	0.681040	0.046200
O571	O57	0.409800	0.629820	0.543500
O581	O58	0.737200	0.423640	0.456500
O591	O59	0.167100	0.636380	0.418500
O601	O60	0.110700	0.693040	0.380400
O611	O61	0.913900	0.632600	0.732100
O621	O62	0.853400	0.688180	0.691000
O631	O63	0.326700	0.586180	0.385100
O641	O64	0.276100	0.607170	0.274400
O651	O65	0.334300	0.683530	0.395800
O661	O66	0.313800	0.701870	0.279800
O671	O67	0.256700	0.181040	0.453800
O681	O68	0.590200	0.129820	0.956500
O691	O69	0.262800	0.923640	0.043500
O701	O70	0.832900	0.136380	0.081500
O711	O71	0.889300	0.193040	0.119600
O721	O72	0.086100	0.132600	0.767900
O731	O73	0.146600	0.188180	0.809000
O741	O74	0.673300	0.086180	0.114900
O751	O75	0.723900	0.107170	0.225600
O761	O76	0.665700	0.183530	0.104200
O771	O77	0.686200	0.201870	0.220200
O781	O78	0.743300	0.318960	0.453800
O791	O79	0.409800	0.370180	0.956500
O801	O80	0.737200	0.576360	0.043500
O811	O81	0.167100	0.363620	0.081500
O821	O82	0.110700	0.306960	0.119600
O831	O83	0.913900	0.367400	0.767900
O841	O84	0.853400	0.311820	0.809000
O851	O85	0.326700	0.413820	0.114900
O861	O86	0.276100	0.392830	0.225600
O871	O87	0.334300	0.316470	0.104200
O881	O88	0.313800	0.298130	0.220200
