data_EBIMEJ_clean_PM
_symmetry_space_group_name_H-M	'P1'
_cell_length_a	11.066000
_cell_length_b	13.821400
_cell_length_c	16.838700
_cell_angle_alpha	90.000000
_cell_angle_beta	103.310000
_cell_angle_gamma	90.000000
_symmetry_Int_Tables_number 1

loop_
_symmetry_equiv_pos_as_xyz
'x,y,z'

loop_
_atom_site_label
_atom_site_type_symbol
_atom_site_fract_x
_atom_site_fract_y
_atom_site_fract_z
Co11	Co1	0.056720	0.089250	0.174070
Co21	Co2	0.141770	0.997270	0.994940
C11	C1	0.673600	0.058000	0.201620
C21	C2	0.551300	0.050200	0.156610
H11	H1	0.534800	0.038400	0.099500
C31	C3	0.453900	0.059600	0.195160
C41	C4	0.478200	0.074400	0.279120
H21	H2	0.411100	0.081200	0.305200
C51	C5	0.600200	0.079100	0.325380
C61	C6	0.696700	0.071800	0.286000
H31	H3	0.780000	0.076300	0.316800
C71	C7	0.623900	0.090700	0.416710
C81	C8	0.653600	0.997200	0.465070
C91	C9	0.603500	0.908300	0.435880
H41	H4	0.548700	0.904600	0.383500
C101	C10	0.632500	0.824100	0.482600
C111	C11	0.710000	0.830500	0.560210
H51	H5	0.729700	0.773800	0.592600
C121	C12	0.758800	0.919100	0.590540
C131	C13	0.731300	0.001700	0.543080
H61	H6	0.765600	0.062100	0.563900
C141	C14	0.779300	0.046800	0.159810
C151	C15	0.321200	0.052700	0.147160
C161	C16	0.583900	0.725300	0.453300
C171	C17	0.838700	0.924900	0.675640
O11	O1	0.883250	0.078700	0.197620
O21	O2	0.755100	0.005170	0.091590
O31	O3	0.300550	0.994280	0.087520
O41	O4	0.243510	0.105050	0.170390
O51	O5	0.491450	0.719390	0.392590
O61	O6	0.638400	0.655600	0.492860
O71	O7	0.884520	0.845980	0.709650
O81	O8	0.856200	0.003840	0.712960
O91	O9	0.030720	0.992780	0.082460
H71	H7	0.557000	0.123000	0.435000
H81	H8	0.692000	0.135000	0.436500
H91	H9	0.038000	0.941000	0.098000
Co31	Co3	0.443280	0.589250	0.325930
Co41	Co4	0.358230	0.497270	0.505060
C181	C18	0.826400	0.558000	0.298380
C191	C19	0.948700	0.550200	0.343390
H101	H10	0.965200	0.538400	0.400500
C201	C20	0.046100	0.559600	0.304840
C211	C21	0.021800	0.574400	0.220880
H111	H11	0.088900	0.581200	0.194800
C221	C22	0.899800	0.579100	0.174620
C231	C23	0.803300	0.571800	0.214000
H121	H12	0.720000	0.576300	0.183200
C241	C24	0.876100	0.590700	0.083290
C251	C25	0.846400	0.497200	0.034930
C261	C26	0.896500	0.408300	0.064120
H131	H13	0.951300	0.404600	0.116500
C271	C27	0.867500	0.324100	0.017400
C281	C28	0.790000	0.330500	0.939790
H141	H14	0.770300	0.273800	0.907400
C291	C29	0.741200	0.419100	0.909460
C301	C30	0.768700	0.501700	0.956920
H151	H15	0.734400	0.562100	0.936100
C311	C31	0.720700	0.546800	0.340190
C321	C32	0.178800	0.552700	0.352840
C331	C33	0.916100	0.225300	0.046700
C341	C34	0.661300	0.424900	0.824360
O101	O10	0.616750	0.578700	0.302380
O111	O11	0.744900	0.505170	0.408410
O121	O12	0.199450	0.494280	0.412480
O131	O13	0.256490	0.605050	0.329610
O141	O14	0.008550	0.219390	0.107410
O151	O15	0.861600	0.155600	0.007140
O161	O16	0.615480	0.345980	0.790350
O171	O17	0.643800	0.503840	0.787040
O181	O18	0.469280	0.492780	0.417540
H161	H16	0.943000	0.623000	0.065000
H171	H17	0.808000	0.635000	0.063500
H181	H18	0.462000	0.441000	0.402000
Co51	Co5	0.943280	0.910750	0.825930
Co61	Co6	0.858230	0.002730	0.005060
C351	C35	0.326400	0.942000	0.798380
C361	C36	0.448700	0.949800	0.843390
H191	H19	0.465200	0.961600	0.900500
C371	C37	0.546100	0.940400	0.804840
C381	C38	0.521800	0.925600	0.720880
H201	H20	0.588900	0.918800	0.694800
C391	C39	0.399800	0.920900	0.674620
C401	C40	0.303300	0.928200	0.714000
H211	H21	0.220000	0.923700	0.683200
C411	C41	0.376100	0.909300	0.583290
C421	C42	0.346400	0.002800	0.534930
C431	C43	0.396500	0.091700	0.564120
H221	H22	0.451300	0.095400	0.616500
C441	C44	0.367500	0.175900	0.517400
C451	C45	0.290000	0.169500	0.439790
H231	H23	0.270300	0.226200	0.407400
C461	C46	0.241200	0.080900	0.409460
C471	C47	0.268700	0.998300	0.456920
H241	H24	0.234400	0.937900	0.436100
C481	C48	0.220700	0.953200	0.840190
C491	C49	0.678800	0.947300	0.852840
C501	C50	0.416100	0.274700	0.546700
C511	C51	0.161300	0.075100	0.324360
O191	O19	0.116750	0.921300	0.802380
O201	O20	0.244900	0.994830	0.908410
O211	O21	0.699450	0.005720	0.912480
O221	O22	0.756490	0.894950	0.829610
O231	O23	0.508550	0.280610	0.607410
O241	O24	0.361600	0.344400	0.507140
O251	O25	0.115480	0.154020	0.290350
O261	O26	0.143800	0.996160	0.287040
O271	O27	0.969280	0.007220	0.917540
H251	H25	0.443000	0.877000	0.565000
H261	H26	0.308000	0.865000	0.563500
H271	H27	0.962000	0.059000	0.902000
Co71	Co7	0.556720	0.410750	0.674070
Co81	Co8	0.641770	0.502730	0.494940
C521	C52	0.173600	0.442000	0.701620
C531	C53	0.051300	0.449800	0.656610
H281	H28	0.034800	0.461600	0.599500
C541	C54	0.953900	0.440400	0.695160
C551	C55	0.978200	0.425600	0.779120
H291	H29	0.911100	0.418800	0.805200
C561	C56	0.100200	0.420900	0.825380
C571	C57	0.196700	0.428200	0.786000
H301	H30	0.280000	0.423700	0.816800
C581	C58	0.123900	0.409300	0.916710
C591	C59	0.153600	0.502800	0.965070
C601	C60	0.103500	0.591700	0.935880
H311	H31	0.048700	0.595400	0.883500
C611	C61	0.132500	0.675900	0.982600
C621	C62	0.210000	0.669500	0.060210
H321	H32	0.229700	0.726200	0.092600
C631	C63	0.258800	0.580900	0.090540
C641	C64	0.231300	0.498300	0.043080
H331	H33	0.265600	0.437900	0.063900
C651	C65	0.279300	0.453200	0.659810
C661	C66	0.821200	0.447300	0.647160
C671	C67	0.083900	0.774700	0.953300
C681	C68	0.338700	0.575100	0.175640
O281	O28	0.383250	0.421300	0.697620
O291	O29	0.255100	0.494830	0.591590
O301	O30	0.800550	0.505720	0.587520
O311	O31	0.743510	0.394950	0.670390
O321	O32	0.991450	0.780610	0.892590
O331	O33	0.138400	0.844400	0.992860
O341	O34	0.384520	0.654020	0.209650
O351	O35	0.356200	0.496160	0.212960
O361	O36	0.530720	0.507220	0.582460
H341	H34	0.057000	0.377000	0.935000
H351	H35	0.192000	0.365000	0.936500
H361	H36	0.538000	0.559000	0.598000
