data_EBINUA01_clean_PM
_symmetry_space_group_name_H-M	'P1'
_cell_length_a	13.107300
_cell_length_b	17.593500
_cell_length_c	25.479600
_cell_angle_alpha	90.000000
_cell_angle_beta	90.000000
_cell_angle_gamma	90.000000
_symmetry_Int_Tables_number 1

loop_
_symmetry_equiv_pos_as_xyz
'x,y,z'

loop_
_atom_site_label
_atom_site_type_symbol
_atom_site_fract_x
_atom_site_fract_y
_atom_site_fract_z
N11	N1	0.733660	0.629440	0.680810
N21	N2	0.869100	0.599490	0.729260
N31	N3	0.830810	0.666610	0.744400
C11	C1	0.808900	0.579710	0.691090
H11	H1	0.817200	0.534700	0.672400
C21	C2	0.750210	0.683490	0.715720
H21	H2	0.710800	0.727100	0.719500
C31	C3	0.879000	0.711600	0.785850
H31	H3	0.912200	0.677600	0.810500
H41	H4	0.826800	0.739500	0.804800
C41	C4	0.956800	0.767020	0.764650
H51	H5	0.922100	0.802500	0.741700
H61	H6	0.984200	0.795900	0.793800
N41	N4	0.733660	0.129440	0.180810
N51	N5	0.869100	0.099490	0.229260
N61	N6	0.830810	0.166610	0.244400
C51	C5	0.808900	0.079710	0.191090
H71	H7	0.817200	0.034700	0.172400
C61	C6	0.750210	0.183490	0.215720
H81	H8	0.710800	0.227100	0.219500
C71	C7	0.879000	0.211600	0.285850
H91	H9	0.912200	0.177600	0.310500
H101	H10	0.826800	0.239500	0.304800
C81	C8	0.956800	0.267020	0.264650
H111	H11	0.922100	0.302500	0.241700
H121	H12	0.984200	0.295900	0.293800
N71	N7	0.233660	0.629440	0.180810
N81	N8	0.369100	0.599490	0.229260
N91	N9	0.330810	0.666610	0.244400
C91	C9	0.308900	0.579710	0.191090
H131	H13	0.317200	0.534700	0.172400
C101	C10	0.250210	0.683490	0.215720
H141	H14	0.210800	0.727100	0.219500
C111	C11	0.379000	0.711600	0.285850
H151	H15	0.412200	0.677600	0.310500
H161	H16	0.326800	0.739500	0.304800
C121	C12	0.456800	0.767020	0.264650
H171	H17	0.422100	0.802500	0.241700
H181	H18	0.484200	0.795900	0.293800
N101	N10	0.233660	0.129440	0.680810
N111	N11	0.369100	0.099490	0.729260
N121	N12	0.330810	0.166610	0.744400
C131	C13	0.308900	0.079710	0.691090
H191	H19	0.317200	0.034700	0.672400
C141	C14	0.250210	0.183490	0.715720
H201	H20	0.210800	0.227100	0.719500
C151	C15	0.379000	0.211600	0.785850
H211	H21	0.412200	0.177600	0.810500
H221	H22	0.326800	0.239500	0.804800
C161	C16	0.456800	0.267020	0.764650
H231	H23	0.422100	0.302500	0.741700
H241	H24	0.484200	0.295900	0.793800
N131	N13	0.016340	0.120560	0.680810
N141	N14	0.880900	0.150510	0.729260
N151	N15	0.919190	0.083390	0.744400
C171	C17	0.941100	0.170290	0.691090
H251	H25	0.932800	0.215300	0.672400
C181	C18	0.999790	0.066510	0.715720
H261	H26	0.039200	0.022900	0.719500
C191	C19	0.871000	0.038400	0.785850
H271	H27	0.837800	0.072400	0.810500
H281	H28	0.923200	0.010500	0.804800
C201	C20	0.793200	0.982980	0.764650
H291	H29	0.827900	0.947500	0.741700
H301	H30	0.765800	0.954100	0.793800
N161	N16	0.016340	0.620560	0.180810
N171	N17	0.880900	0.650510	0.229260
N181	N18	0.919190	0.583390	0.244400
C211	C21	0.941100	0.670290	0.191090
H311	H31	0.932800	0.715300	0.172400
C221	C22	0.999790	0.566510	0.215720
H321	H32	0.039200	0.522900	0.219500
C231	C23	0.871000	0.538400	0.285850
H331	H33	0.837800	0.572400	0.310500
H341	H34	0.923200	0.510500	0.304800
C241	C24	0.793200	0.482980	0.264650
H351	H35	0.827900	0.447500	0.241700
H361	H36	0.765800	0.454100	0.293800
N191	N19	0.516340	0.120560	0.180810
N201	N20	0.380900	0.150510	0.229260
N211	N21	0.419190	0.083390	0.244400
C251	C25	0.441100	0.170290	0.191090
H371	H37	0.432800	0.215300	0.172400
C261	C26	0.499790	0.066510	0.215720
H381	H38	0.539200	0.022900	0.219500
C271	C27	0.371000	0.038400	0.285850
H391	H39	0.337800	0.072400	0.310500
H401	H40	0.423200	0.010500	0.304800
C281	C28	0.293200	0.982980	0.264650
H411	H41	0.327900	0.947500	0.241700
H421	H42	0.265800	0.954100	0.293800
N221	N22	0.516340	0.620560	0.680810
N231	N23	0.380900	0.650510	0.729260
N241	N24	0.419190	0.583390	0.744400
C291	C29	0.441100	0.670290	0.691090
H431	H43	0.432800	0.715300	0.672400
C301	C30	0.499790	0.566510	0.715720
H441	H44	0.539200	0.522900	0.719500
C311	C31	0.371000	0.538400	0.785850
H451	H45	0.337800	0.572400	0.810500
H461	H46	0.423200	0.510500	0.804800
C321	C32	0.293200	0.482980	0.764650
H471	H47	0.327900	0.447500	0.741700
H481	H48	0.265800	0.454100	0.793800
N251	N25	0.016340	0.629440	0.069190
N261	N26	0.880900	0.599490	0.020740
N271	N27	0.919190	0.666610	0.005600
C331	C33	0.941100	0.579710	0.058910
H491	H49	0.932800	0.534700	0.077600
C341	C34	0.999790	0.683490	0.034280
H501	H50	0.039200	0.727100	0.030500
C351	C35	0.871000	0.711600	0.964150
H511	H51	0.837800	0.677600	0.939500
H521	H52	0.923200	0.739500	0.945200
C361	C36	0.793200	0.767020	0.985350
H531	H53	0.827900	0.802500	0.008300
H541	H54	0.765800	0.795900	0.956200
N281	N28	0.016340	0.129440	0.569190
N291	N29	0.880900	0.099490	0.520740
N301	N30	0.919190	0.166610	0.505600
C371	C37	0.941100	0.079710	0.558910
H551	H55	0.932800	0.034700	0.577600
C381	C38	0.999790	0.183490	0.534280
H561	H56	0.039200	0.227100	0.530500
C391	C39	0.871000	0.211600	0.464150
H571	H57	0.837800	0.177600	0.439500
H581	H58	0.923200	0.239500	0.445200
C401	C40	0.793200	0.267020	0.485350
H591	H59	0.827900	0.302500	0.508300
H601	H60	0.765800	0.295900	0.456200
N311	N31	0.516340	0.629440	0.569190
N321	N32	0.380900	0.599490	0.520740
N331	N33	0.419190	0.666610	0.505600
C411	C41	0.441100	0.579710	0.558910
H611	H61	0.432800	0.534700	0.577600
C421	C42	0.499790	0.683490	0.534280
H621	H62	0.539200	0.727100	0.530500
C431	C43	0.371000	0.711600	0.464150
H631	H63	0.337800	0.677600	0.439500
H641	H64	0.423200	0.739500	0.445200
C441	C44	0.293200	0.767020	0.485350
H651	H65	0.327900	0.802500	0.508300
H661	H66	0.265800	0.795900	0.456200
N341	N34	0.516340	0.129440	0.069190
N351	N35	0.380900	0.099490	0.020740
N361	N36	0.419190	0.166610	0.005600
C451	C45	0.441100	0.079710	0.058910
H671	H67	0.432800	0.034700	0.077600
C461	C46	0.499790	0.183490	0.034280
H681	H68	0.539200	0.227100	0.030500
C471	C47	0.371000	0.211600	0.964150
H691	H69	0.337800	0.177600	0.939500
H701	H70	0.423200	0.239500	0.945200
C481	C48	0.293200	0.267020	0.985350
H711	H71	0.327900	0.302500	0.008300
H721	H72	0.265800	0.295900	0.956200
N371	N37	0.733660	0.120560	0.069190
N381	N38	0.869100	0.150510	0.020740
N391	N39	0.830810	0.083390	0.005600
C491	C49	0.808900	0.170290	0.058910
H731	H73	0.817200	0.215300	0.077600
C501	C50	0.750210	0.066510	0.034280
H741	H74	0.710800	0.022900	0.030500
C511	C51	0.879000	0.038400	0.964150
H751	H75	0.912200	0.072400	0.939500
H761	H76	0.826800	0.010500	0.945200
C521	C52	0.956800	0.982980	0.985350
H771	H77	0.922100	0.947500	0.008300
H781	H78	0.984200	0.954100	0.956200
N401	N40	0.733660	0.620560	0.569190
N411	N41	0.869100	0.650510	0.520740
N421	N42	0.830810	0.583390	0.505600
C531	C53	0.808900	0.670290	0.558910
H791	H79	0.817200	0.715300	0.577600
C541	C54	0.750210	0.566510	0.534280
H801	H80	0.710800	0.522900	0.530500
C551	C55	0.879000	0.538400	0.464150
H811	H81	0.912200	0.572400	0.439500
H821	H82	0.826800	0.510500	0.445200
C561	C56	0.956800	0.482980	0.485350
H831	H83	0.922100	0.447500	0.508300
H841	H84	0.984200	0.454100	0.456200
N431	N43	0.233660	0.120560	0.569190
N441	N44	0.369100	0.150510	0.520740
N451	N45	0.330810	0.083390	0.505600
C571	C57	0.308900	0.170290	0.558910
H851	H85	0.317200	0.215300	0.577600
C581	C58	0.250210	0.066510	0.534280
H861	H86	0.210800	0.022900	0.530500
C591	C59	0.379000	0.038400	0.464150
H871	H87	0.412200	0.072400	0.439500
H881	H88	0.326800	0.010500	0.445200
C601	C60	0.456800	0.982980	0.485350
H891	H89	0.422100	0.947500	0.508300
H901	H90	0.484200	0.954100	0.456200
N461	N46	0.233660	0.620560	0.069190
N471	N47	0.369100	0.650510	0.020740
N481	N48	0.330810	0.583390	0.005600
C611	C61	0.308900	0.670290	0.058910
H911	H91	0.317200	0.715300	0.077600
C621	C62	0.250210	0.566510	0.034280
H921	H92	0.210800	0.522900	0.030500
C631	C63	0.379000	0.538400	0.964150
H931	H93	0.412200	0.572400	0.939500
H941	H94	0.326800	0.510500	0.945200
C641	C64	0.456800	0.482980	0.985350
H951	H95	0.422100	0.447500	0.008300
H961	H96	0.484200	0.454100	0.956200
N491	N49	0.266340	0.370560	0.319190
N501	N50	0.130900	0.400510	0.270740
N511	N51	0.169190	0.333390	0.255600
C651	C65	0.191100	0.420290	0.308910
H971	H97	0.182800	0.465300	0.327600
C661	C66	0.249790	0.316510	0.284280
H981	H98	0.289200	0.272900	0.280500
C671	C67	0.121000	0.288400	0.214150
H991	H99	0.087800	0.322400	0.189500
H1001	H100	0.173200	0.260500	0.195200
C681	C68	0.043200	0.232980	0.235350
H1011	H101	0.077900	0.197500	0.258300
H1021	H102	0.015800	0.204100	0.206200
N521	N52	0.266340	0.870560	0.819190
N531	N53	0.130900	0.900510	0.770740
N541	N54	0.169190	0.833390	0.755600
C691	C69	0.191100	0.920290	0.808910
H1031	H103	0.182800	0.965300	0.827600
C701	C70	0.249790	0.816510	0.784280
H1041	H104	0.289200	0.772900	0.780500
C711	C71	0.121000	0.788400	0.714150
H1051	H105	0.087800	0.822400	0.689500
H1061	H106	0.173200	0.760500	0.695200
C721	C72	0.043200	0.732980	0.735350
H1071	H107	0.077900	0.697500	0.758300
H1081	H108	0.015800	0.704100	0.706200
N551	N55	0.766340	0.370560	0.819190
N561	N56	0.630900	0.400510	0.770740
N571	N57	0.669190	0.333390	0.755600
C731	C73	0.691100	0.420290	0.808910
H1091	H109	0.682800	0.465300	0.827600
C741	C74	0.749790	0.316510	0.784280
H1101	H110	0.789200	0.272900	0.780500
C751	C75	0.621000	0.288400	0.714150
H1111	H111	0.587800	0.322400	0.689500
H1121	H112	0.673200	0.260500	0.695200
C761	C76	0.543200	0.232980	0.735350
H1131	H113	0.577900	0.197500	0.758300
H1141	H114	0.515800	0.204100	0.706200
N581	N58	0.766340	0.870560	0.319190
N591	N59	0.630900	0.900510	0.270740
N601	N60	0.669190	0.833390	0.255600
C771	C77	0.691100	0.920290	0.308910
H1151	H115	0.682800	0.965300	0.327600
C781	C78	0.749790	0.816510	0.284280
H1161	H116	0.789200	0.772900	0.280500
C791	C79	0.621000	0.788400	0.214150
H1171	H117	0.587800	0.822400	0.189500
H1181	H118	0.673200	0.760500	0.195200
C801	C80	0.543200	0.732980	0.235350
H1191	H119	0.577900	0.697500	0.258300
H1201	H120	0.515800	0.704100	0.206200
N611	N61	0.983660	0.879440	0.319190
N621	N62	0.119100	0.849490	0.270740
N631	N63	0.080810	0.916610	0.255600
C811	C81	0.058900	0.829710	0.308910
H1211	H121	0.067200	0.784700	0.327600
C821	C82	0.000210	0.933490	0.284280
H1221	H122	0.960800	0.977100	0.280500
C831	C83	0.129000	0.961600	0.214150
H1231	H123	0.162200	0.927600	0.189500
H1241	H124	0.076800	0.989500	0.195200
C841	C84	0.206800	0.017020	0.235350
H1251	H125	0.172100	0.052500	0.258300
H1261	H126	0.234200	0.045900	0.206200
N641	N64	0.983660	0.379440	0.819190
N651	N65	0.119100	0.349490	0.770740
N661	N66	0.080810	0.416610	0.755600
C851	C85	0.058900	0.329710	0.808910
H1271	H127	0.067200	0.284700	0.827600
C861	C86	0.000210	0.433490	0.784280
H1281	H128	0.960800	0.477100	0.780500
C871	C87	0.129000	0.461600	0.714150
H1291	H129	0.162200	0.427600	0.689500
H1301	H130	0.076800	0.489500	0.695200
C881	C88	0.206800	0.517020	0.735350
H1311	H131	0.172100	0.552500	0.758300
H1321	H132	0.234200	0.545900	0.706200
N671	N67	0.483660	0.879440	0.819190
N681	N68	0.619100	0.849490	0.770740
N691	N69	0.580810	0.916610	0.755600
C891	C89	0.558900	0.829710	0.808910
H1331	H133	0.567200	0.784700	0.827600
C901	C90	0.500210	0.933490	0.784280
H1341	H134	0.460800	0.977100	0.780500
C911	C91	0.629000	0.961600	0.714150
H1351	H135	0.662200	0.927600	0.689500
H1361	H136	0.576800	0.989500	0.695200
C921	C92	0.706800	0.017020	0.735350
H1371	H137	0.672100	0.052500	0.758300
H1381	H138	0.734200	0.045900	0.706200
N701	N70	0.483660	0.379440	0.319190
N711	N71	0.619100	0.349490	0.270740
N721	N72	0.580810	0.416610	0.255600
C931	C93	0.558900	0.329710	0.308910
H1391	H139	0.567200	0.284700	0.327600
C941	C94	0.500210	0.433490	0.284280
H1401	H140	0.460800	0.477100	0.280500
C951	C95	0.629000	0.461600	0.214150
H1411	H141	0.662200	0.427600	0.189500
H1421	H142	0.576800	0.489500	0.195200
C961	C96	0.706800	0.517020	0.235350
H1431	H143	0.672100	0.552500	0.258300
H1441	H144	0.734200	0.545900	0.206200
N731	N73	0.983660	0.370560	0.930810
N741	N74	0.119100	0.400510	0.979260
N751	N75	0.080810	0.333390	0.994400
C971	C97	0.058900	0.420290	0.941090
H1451	H145	0.067200	0.465300	0.922400
C981	C98	0.000210	0.316510	0.965720
H1461	H146	0.960800	0.272900	0.969500
C991	C99	0.129000	0.288400	0.035850
H1471	H147	0.162200	0.322400	0.060500
H1481	H148	0.076800	0.260500	0.054800
C1001	C100	0.206800	0.232980	0.014650
H1491	H149	0.172100	0.197500	0.991700
H1501	H150	0.234200	0.204100	0.043800
N761	N76	0.983660	0.870560	0.430810
N771	N77	0.119100	0.900510	0.479260
N781	N78	0.080810	0.833390	0.494400
C1011	C101	0.058900	0.920290	0.441090
H1511	H151	0.067200	0.965300	0.422400
C1021	C102	0.000210	0.816510	0.465720
H1521	H152	0.960800	0.772900	0.469500
C1031	C103	0.129000	0.788400	0.535850
H1531	H153	0.162200	0.822400	0.560500
H1541	H154	0.076800	0.760500	0.554800
C1041	C104	0.206800	0.732980	0.514650
H1551	H155	0.172100	0.697500	0.491700
H1561	H156	0.234200	0.704100	0.543800
N791	N79	0.483660	0.370560	0.430810
N801	N80	0.619100	0.400510	0.479260
N811	N81	0.580810	0.333390	0.494400
C1051	C105	0.558900	0.420290	0.441090
H1571	H157	0.567200	0.465300	0.422400
C1061	C106	0.500210	0.316510	0.465720
H1581	H158	0.460800	0.272900	0.469500
C1071	C107	0.629000	0.288400	0.535850
H1591	H159	0.662200	0.322400	0.560500
H1601	H160	0.576800	0.260500	0.554800
C1081	C108	0.706800	0.232980	0.514650
H1611	H161	0.672100	0.197500	0.491700
H1621	H162	0.734200	0.204100	0.543800
N821	N82	0.483660	0.870560	0.930810
N831	N83	0.619100	0.900510	0.979260
N841	N84	0.580810	0.833390	0.994400
C1091	C109	0.558900	0.920290	0.941090
H1631	H163	0.567200	0.965300	0.922400
C1101	C110	0.500210	0.816510	0.965720
H1641	H164	0.460800	0.772900	0.969500
C1111	C111	0.629000	0.788400	0.035850
H1651	H165	0.662200	0.822400	0.060500
H1661	H166	0.576800	0.760500	0.054800
C1121	C112	0.706800	0.732980	0.014650
H1671	H167	0.672100	0.697500	0.991700
H1681	H168	0.734200	0.704100	0.043800
N851	N85	0.266340	0.879440	0.930810
N861	N86	0.130900	0.849490	0.979260
N871	N87	0.169190	0.916610	0.994400
C1131	C113	0.191100	0.829710	0.941090
H1691	H169	0.182800	0.784700	0.922400
C1141	C114	0.249790	0.933490	0.965720
H1701	H170	0.289200	0.977100	0.969500
C1151	C115	0.121000	0.961600	0.035850
H1711	H171	0.087800	0.927600	0.060500
H1721	H172	0.173200	0.989500	0.054800
C1161	C116	0.043200	0.017020	0.014650
H1731	H173	0.077900	0.052500	0.991700
H1741	H174	0.015800	0.045900	0.043800
N881	N88	0.266340	0.379440	0.430810
N891	N89	0.130900	0.349490	0.479260
N901	N90	0.169190	0.416610	0.494400
C1171	C117	0.191100	0.329710	0.441090
H1751	H175	0.182800	0.284700	0.422400
C1181	C118	0.249790	0.433490	0.465720
H1761	H176	0.289200	0.477100	0.469500
C1191	C119	0.121000	0.461600	0.535850
H1771	H177	0.087800	0.427600	0.560500
H1781	H178	0.173200	0.489500	0.554800
C1201	C120	0.043200	0.517020	0.514650
H1791	H179	0.077900	0.552500	0.491700
H1801	H180	0.015800	0.545900	0.543800
N911	N91	0.766340	0.879440	0.430810
N921	N92	0.630900	0.849490	0.479260
N931	N93	0.669190	0.916610	0.494400
C1211	C121	0.691100	0.829710	0.441090
H1811	H181	0.682800	0.784700	0.422400
C1221	C122	0.749790	0.933490	0.465720
H1821	H182	0.789200	0.977100	0.469500
C1231	C123	0.621000	0.961600	0.535850
H1831	H183	0.587800	0.927600	0.560500
H1841	H184	0.673200	0.989500	0.554800
C1241	C124	0.543200	0.017020	0.514650
H1851	H185	0.577900	0.052500	0.491700
H1861	H186	0.515800	0.045900	0.543800
N941	N94	0.766340	0.379440	0.930810
N951	N95	0.630900	0.349490	0.979260
N961	N96	0.669190	0.416610	0.994400
C1251	C125	0.691100	0.329710	0.941090
H1871	H187	0.682800	0.284700	0.922400
C1261	C126	0.749790	0.433490	0.965720
H1881	H188	0.789200	0.477100	0.969500
C1271	C127	0.621000	0.461600	0.035850
H1891	H189	0.587800	0.427600	0.060500
H1901	H190	0.673200	0.489500	0.054800
C1281	C128	0.543200	0.517020	0.014650
H1911	H191	0.577900	0.552500	0.991700
H1921	H192	0.515800	0.545900	0.043800
Cu11	Cu1	0.625000	0.625000	0.625000
Cu21	Cu2	0.125000	0.125000	0.625000
Cu31	Cu3	0.125000	0.625000	0.125000
Cu41	Cu4	0.625000	0.125000	0.125000
Cu51	Cu5	0.375000	0.375000	0.375000
Cu61	Cu6	0.875000	0.875000	0.375000
Cu71	Cu7	0.875000	0.375000	0.875000
Cu81	Cu8	0.375000	0.875000	0.875000
