data_EBISEQ_clean_PM
_symmetry_space_group_name_H-M	'P1'
_cell_length_a	10.854600
_cell_length_b	23.626100
_cell_length_c	9.679900
_cell_angle_alpha	90.000000
_cell_angle_beta	104.140000
_cell_angle_gamma	90.000000
_symmetry_Int_Tables_number 1

loop_
_symmetry_equiv_pos_as_xyz
'x,y,z'

loop_
_atom_site_label
_atom_site_type_symbol
_atom_site_fract_x
_atom_site_fract_y
_atom_site_fract_z
Cd11	Cd1	0.319340	0.105540	0.472380
O11	O1	0.164050	0.044580	0.361010
O21	O2	0.231750	0.099610	0.210450
C11	C1	0.163820	0.060300	0.235810
C21	C2	0.078420	0.029220	0.113250
C31	C3	0.986320	0.992020	0.137890
H11	H1	0.976900	0.986600	0.232000
C41	C4	0.091550	0.037110	0.974680
H21	H2	0.154000	0.062500	0.957400
O31	O3	0.423500	0.033600	0.619640
O41	O4	0.330060	0.098290	0.722340
C51	C5	0.396940	0.054610	0.728270
C61	C6	0.449280	0.026130	0.869140
C71	C7	0.520820	0.976710	0.875540
H31	H3	0.535200	0.960900	0.790600
C81	C8	0.429090	0.049400	0.994760
H41	H4	0.380900	0.083200	0.991100
N11	N1	0.511750	0.121910	0.430470
N21	N2	0.702270	0.100500	0.405080
N31	N3	0.127820	0.229910	0.919980
N41	N4	0.248480	0.305510	0.969190
C91	C9	0.609850	0.087120	0.469130
H51	H5	0.614100	0.056600	0.534000
C101	C10	0.544240	0.159230	0.336200
H61	H6	0.492100	0.189200	0.289500
C111	C11	0.661680	0.146800	0.319900
H71	H7	0.706800	0.166100	0.261600
C121	C12	0.824760	0.071570	0.425200
H81	H8	0.835700	0.058600	0.331700
H91	H9	0.825500	0.037800	0.486000
C131	C13	0.934610	0.110110	0.494200
H101	H10	0.939200	0.141600	0.428000
H111	H11	0.014900	0.088400	0.509600
C141	C14	0.923150	0.134720	0.635870
H121	H12	0.910600	0.103500	0.699200
H131	H13	0.847300	0.159400	0.619300
C151	C15	0.040110	0.168940	0.710300
H141	H14	0.116000	0.144200	0.730100
H151	H15	0.054100	0.200000	0.647100
C161	C16	0.022120	0.193430	0.848700
H161	H16	0.942400	0.215600	0.828900
H171	H17	0.013500	0.162100	0.913500
C171	C17	0.223760	0.216610	0.036600
H181	H18	0.236500	0.181600	0.086100
C181	C18	0.296450	0.263680	0.066600
H191	H19	0.369700	0.267300	0.143300
C191	C19	0.146750	0.283390	0.882830
H201	H20	0.093700	0.302800	0.804500
Cd21	Cd2	0.680660	0.605540	0.027620
O51	O5	0.835950	0.544580	0.138990
O61	O6	0.768250	0.599610	0.289550
C201	C20	0.836180	0.560300	0.264190
C211	C21	0.921580	0.529220	0.386750
C221	C22	0.013680	0.492020	0.362110
H211	H21	0.023100	0.486600	0.268000
C231	C23	0.908450	0.537110	0.525320
H221	H22	0.846000	0.562500	0.542600
O71	O7	0.576500	0.533600	0.880360
O81	O8	0.669940	0.598290	0.777660
C241	C24	0.603060	0.554610	0.771730
C251	C25	0.550720	0.526130	0.630860
C261	C26	0.479180	0.476710	0.624460
H231	H23	0.464800	0.460900	0.709400
C271	C27	0.570910	0.549400	0.505240
H241	H24	0.619100	0.583200	0.508900
N51	N5	0.488250	0.621910	0.069530
N61	N6	0.297730	0.600500	0.094920
N71	N7	0.872180	0.729910	0.580020
N81	N8	0.751520	0.805510	0.530810
C281	C28	0.390150	0.587120	0.030870
H251	H25	0.385900	0.556600	0.966000
C291	C29	0.455760	0.659230	0.163800
H261	H26	0.507900	0.689200	0.210500
C301	C30	0.338320	0.646800	0.180100
H271	H27	0.293200	0.666100	0.238400
C311	C31	0.175240	0.571570	0.074800
H281	H28	0.164300	0.558600	0.168300
H291	H29	0.174500	0.537800	0.014000
C321	C32	0.065390	0.610110	0.005800
H301	H30	0.060800	0.641600	0.072000
H311	H31	0.985100	0.588400	0.990400
C331	C33	0.076850	0.634720	0.864130
H321	H32	0.089400	0.603500	0.800800
H331	H33	0.152700	0.659400	0.880700
C341	C34	0.959890	0.668940	0.789700
H341	H34	0.884000	0.644200	0.769900
H351	H35	0.945900	0.700000	0.852900
C351	C35	0.977880	0.693430	0.651300
H361	H36	0.057600	0.715600	0.671100
H371	H37	0.986500	0.662100	0.586500
C361	C36	0.776240	0.716610	0.463400
H381	H38	0.763500	0.681600	0.413900
C371	C37	0.703550	0.763680	0.433400
H391	H39	0.630300	0.767300	0.356700
C381	C38	0.853250	0.783390	0.617170
H401	H40	0.906300	0.802800	0.695500
Cd31	Cd3	0.680660	0.894460	0.527620
O91	O9	0.835950	0.955420	0.638990
O101	O10	0.768250	0.900390	0.789550
C391	C39	0.836180	0.939700	0.764190
C401	C40	0.921580	0.970780	0.886750
C411	C41	0.013680	0.007980	0.862110
H411	H41	0.023100	0.013400	0.768000
C421	C42	0.908450	0.962890	0.025320
H421	H42	0.846000	0.937500	0.042600
O111	O11	0.576500	0.966400	0.380360
O121	O12	0.669940	0.901710	0.277660
C431	C43	0.603060	0.945390	0.271730
C441	C44	0.550720	0.973870	0.130860
C451	C45	0.479180	0.023290	0.124460
H431	H43	0.464800	0.039100	0.209400
C461	C46	0.570910	0.950600	0.005240
H441	H44	0.619100	0.916800	0.008900
N91	N9	0.488250	0.878090	0.569530
N101	N10	0.297730	0.899500	0.594920
N111	N11	0.872180	0.770090	0.080020
N121	N12	0.751520	0.694490	0.030810
C471	C47	0.390150	0.912880	0.530870
H451	H45	0.385900	0.943400	0.466000
C481	C48	0.455760	0.840770	0.663800
H461	H46	0.507900	0.810800	0.710500
C491	C49	0.338320	0.853200	0.680100
H471	H47	0.293200	0.833900	0.738400
C501	C50	0.175240	0.928430	0.574800
H481	H48	0.164300	0.941400	0.668300
H491	H49	0.174500	0.962200	0.514000
C511	C51	0.065390	0.889890	0.505800
H501	H50	0.060800	0.858400	0.572000
H511	H51	0.985100	0.911600	0.490400
C521	C52	0.076850	0.865280	0.364130
H521	H52	0.089400	0.896500	0.300800
H531	H53	0.152700	0.840600	0.380700
C531	C53	0.959890	0.831060	0.289700
H541	H54	0.884000	0.855800	0.269900
H551	H55	0.945900	0.800000	0.352900
C541	C54	0.977880	0.806570	0.151300
H561	H56	0.057600	0.784400	0.171100
H571	H57	0.986500	0.837900	0.086500
C551	C55	0.776240	0.783390	0.963400
H581	H58	0.763500	0.818400	0.913900
C561	C56	0.703550	0.736320	0.933400
H591	H59	0.630300	0.732700	0.856700
C571	C57	0.853250	0.716610	0.117170
H601	H60	0.906300	0.697200	0.195500
Cd41	Cd4	0.319340	0.394460	0.972380
O131	O13	0.164050	0.455420	0.861010
O141	O14	0.231750	0.400390	0.710450
C581	C58	0.163820	0.439700	0.735810
C591	C59	0.078420	0.470780	0.613250
C601	C60	0.986320	0.507980	0.637890
H611	H61	0.976900	0.513400	0.732000
C611	C61	0.091550	0.462890	0.474680
H621	H62	0.154000	0.437500	0.457400
O151	O15	0.423500	0.466400	0.119640
O161	O16	0.330060	0.401710	0.222340
C621	C62	0.396940	0.445390	0.228270
C631	C63	0.449280	0.473870	0.369140
C641	C64	0.520820	0.523290	0.375540
H631	H63	0.535200	0.539100	0.290600
C651	C65	0.429090	0.450600	0.494760
H641	H64	0.380900	0.416800	0.491100
N131	N13	0.511750	0.378090	0.930470
N141	N14	0.702270	0.399500	0.905080
N151	N15	0.127820	0.270090	0.419980
N161	N16	0.248480	0.194490	0.469190
C661	C66	0.609850	0.412880	0.969130
H651	H65	0.614100	0.443400	0.034000
C671	C67	0.544240	0.340770	0.836200
H661	H66	0.492100	0.310800	0.789500
C681	C68	0.661680	0.353200	0.819900
H671	H67	0.706800	0.333900	0.761600
C691	C69	0.824760	0.428430	0.925200
H681	H68	0.835700	0.441400	0.831700
H691	H69	0.825500	0.462200	0.986000
C701	C70	0.934610	0.389890	0.994200
H701	H70	0.939200	0.358400	0.928000
H711	H71	0.014900	0.411600	0.009600
C711	C71	0.923150	0.365280	0.135870
H721	H72	0.910600	0.396500	0.199200
H731	H73	0.847300	0.340600	0.119300
C721	C72	0.040110	0.331060	0.210300
H741	H74	0.116000	0.355800	0.230100
H751	H75	0.054100	0.300000	0.147100
C731	C73	0.022120	0.306570	0.348700
H761	H76	0.942400	0.284400	0.328900
H771	H77	0.013500	0.337900	0.413500
C741	C74	0.223760	0.283390	0.536600
H781	H78	0.236500	0.318400	0.586100
C751	C75	0.296450	0.236320	0.566600
H791	H79	0.369700	0.232700	0.643300
C761	C76	0.146750	0.216610	0.382830
H801	H80	0.093700	0.197200	0.304500
