data_EBIZUN_clean_PM
_symmetry_space_group_name_H-M	'P1'
_cell_length_a	23.358000
_cell_length_b	23.358000
_cell_length_c	19.300000
_cell_angle_alpha	90.000000
_cell_angle_beta	90.000000
_cell_angle_gamma	120.000000
_symmetry_Int_Tables_number 1

loop_
_symmetry_equiv_pos_as_xyz
'x,y,z'

loop_
_atom_site_label
_atom_site_type_symbol
_atom_site_fract_x
_atom_site_fract_y
_atom_site_fract_z
Cu11	Cu1	0.064990	0.532710	0.999940
Cu21	Cu2	0.934940	0.467590	0.973200
O11	O1	0.066300	0.594200	0.931600
O21	O2	0.960500	0.542300	0.906900
O31	O3	0.872400	0.626100	0.733900
O41	O4	0.927400	0.734800	0.709000
O51	O5	0.405500	0.932300	0.928600
O61	O6	0.462600	0.041200	0.905600
O71	O7	0.373600	0.129200	0.733300
O81	O8	0.265800	0.071900	0.711400
C11	C1	0.016800	0.586200	0.901000
C21	C2	0.917800	0.687000	0.743000
C31	C3	0.024200	0.643500	0.856500
C41	C4	0.969500	0.637400	0.821300
H11	H1	0.929100	0.596600	0.821700
C51	C5	0.974100	0.691200	0.785500
C61	C6	0.033300	0.751000	0.784800
H21	H2	0.036300	0.787700	0.760400
C71	C7	0.088000	0.757000	0.820000
C81	C8	0.083400	0.703300	0.855800
H31	H3	0.120800	0.707400	0.879900
C91	C9	0.197000	0.843000	0.790000
H41	H4	0.189500	0.844900	0.739700
H51	H5	0.214700	0.812400	0.796900
N11	N1	0.140000	0.821700	0.826000
H61	H6	0.135800	0.849300	0.854200
C101	C10	0.244300	0.908900	0.816100
C111	C11	0.296700	0.915200	0.856000
H71	H7	0.292500	0.878300	0.881100
C121	C12	0.355300	0.975500	0.859100
C131	C13	0.361400	0.029500	0.822400
H81	H8	0.401400	0.070700	0.824600
C141	C14	0.309000	0.023200	0.782500
C151	C15	0.250400	0.962800	0.779400
H91	H9	0.214600	0.958500	0.752100
C161	C16	0.411600	0.985700	0.905600
C171	C17	0.315000	0.078600	0.737000
Cu31	Cu3	0.731660	0.866040	0.333270
Cu41	Cu4	0.601610	0.800920	0.306530
O91	O9	0.732970	0.927530	0.264930
O101	O10	0.627170	0.875630	0.240230
O111	O11	0.539070	0.959430	0.067230
O121	O12	0.594070	0.068130	0.042330
O131	O13	0.072170	0.265630	0.261930
O141	O14	0.129270	0.374530	0.238930
O151	O15	0.040270	0.462530	0.066630
O161	O16	0.932470	0.405230	0.044730
C181	C18	0.683470	0.919530	0.234330
C191	C19	0.584470	0.020330	0.076330
C201	C20	0.690870	0.976830	0.189830
C211	C21	0.636170	0.970730	0.154630
H101	H10	0.595770	0.929930	0.155030
C221	C22	0.640770	0.024530	0.118830
C231	C23	0.699970	0.084330	0.118130
H111	H11	0.702970	0.121030	0.093730
C241	C24	0.754670	0.090330	0.153330
C251	C25	0.750070	0.036630	0.189130
H121	H12	0.787470	0.040730	0.213230
C261	C26	0.863670	0.176330	0.123330
H131	H13	0.856170	0.178230	0.073030
H141	H14	0.881370	0.145730	0.130230
N21	N2	0.806670	0.155030	0.159330
H151	H15	0.802470	0.182630	0.187530
C271	C27	0.910970	0.242230	0.149430
C281	C28	0.963370	0.248530	0.189330
H161	H16	0.959170	0.211630	0.214430
C291	C29	0.021970	0.308830	0.192430
C301	C30	0.028070	0.362830	0.155730
H171	H17	0.068070	0.404030	0.157930
C311	C31	0.975670	0.356530	0.115830
C321	C32	0.917070	0.296130	0.112730
H181	H18	0.881270	0.291830	0.085430
C331	C33	0.078270	0.319030	0.238930
C341	C34	0.981670	0.411930	0.070330
Cu51	Cu5	0.398320	0.199380	0.666610
Cu61	Cu6	0.268270	0.134260	0.639870
O171	O17	0.399630	0.260870	0.598270
O181	O18	0.293830	0.208970	0.573570
O191	O19	0.205730	0.292770	0.400570
O201	O20	0.260730	0.401470	0.375670
O211	O21	0.738830	0.598970	0.595270
O221	O22	0.795930	0.707870	0.572270
O231	O23	0.706930	0.795870	0.399970
O241	O24	0.599130	0.738570	0.378070
C351	C35	0.350130	0.252870	0.567670
C361	C36	0.251130	0.353670	0.409670
C371	C37	0.357530	0.310170	0.523170
C381	C38	0.302830	0.304070	0.487970
H191	H19	0.262430	0.263270	0.488370
C391	C39	0.307430	0.357870	0.452170
C401	C40	0.366630	0.417670	0.451470
H201	H20	0.369630	0.454370	0.427070
C411	C41	0.421330	0.423670	0.486670
C421	C42	0.416730	0.369970	0.522470
H211	H21	0.454130	0.374070	0.546570
C431	C43	0.530330	0.509670	0.456670
H221	H22	0.522830	0.511570	0.406370
H231	H23	0.548030	0.479070	0.463570
N31	N3	0.473330	0.488370	0.492670
H241	H24	0.469130	0.515970	0.520870
C441	C44	0.577630	0.575570	0.482770
C451	C45	0.630030	0.581870	0.522670
H251	H25	0.625830	0.544970	0.547770
C461	C46	0.688630	0.642170	0.525770
C471	C47	0.694730	0.696170	0.489070
H261	H26	0.734730	0.737370	0.491270
C481	C48	0.642330	0.689870	0.449170
C491	C49	0.583730	0.629470	0.446070
H271	H27	0.547930	0.625170	0.418770
C501	C50	0.744930	0.652370	0.572270
C511	C51	0.648330	0.745270	0.403670
Cu71	Cu7	0.467290	0.532280	0.999940
Cu81	Cu8	0.532410	0.467350	0.973200
O251	O25	0.405800	0.472100	0.931600
O261	O26	0.457700	0.418200	0.906900
O271	O27	0.373900	0.246300	0.733900
O281	O28	0.265200	0.192600	0.709000
O291	O29	0.067700	0.473200	0.928600
O301	O30	0.958800	0.421400	0.905600
O311	O31	0.870800	0.244400	0.733300
O321	O32	0.928100	0.193900	0.711400
C521	C52	0.413800	0.430600	0.901000
C531	C53	0.313000	0.230800	0.743000
C541	C54	0.356500	0.380700	0.856500
C551	C55	0.362600	0.332100	0.821300
H281	H28	0.403400	0.332500	0.821700
C561	C56	0.308800	0.282900	0.785500
C571	C57	0.249000	0.282300	0.784800
H291	H29	0.212300	0.248600	0.760400
C581	C58	0.243000	0.331000	0.820000
C591	C59	0.296700	0.380100	0.855800
H301	H30	0.292600	0.413400	0.879900
C601	C60	0.157000	0.354000	0.790000
H311	H31	0.155100	0.344600	0.739700
H321	H32	0.187600	0.402300	0.796900
N41	N4	0.178300	0.318300	0.826000
H331	H33	0.150700	0.286500	0.854200
C611	C61	0.091100	0.335400	0.816100
C621	C62	0.084800	0.381500	0.856000
H341	H34	0.121700	0.414200	0.881100
C631	C63	0.024500	0.379800	0.859100
C641	C64	0.970500	0.331900	0.822400
H351	H35	0.929300	0.330700	0.824600
C651	C65	0.976800	0.285800	0.782500
C661	C66	0.037200	0.287600	0.779400
H361	H36	0.041500	0.256100	0.752100
C671	C67	0.014300	0.425900	0.905600
C681	C68	0.921400	0.236400	0.737000
Cu91	Cu9	0.133960	0.865610	0.333270
Cu101	Cu10	0.199080	0.800680	0.306530
O331	O33	0.072470	0.805430	0.264930
O341	O34	0.124370	0.751530	0.240230
O351	O35	0.040570	0.579630	0.067230
O361	O36	0.931870	0.525930	0.042330
O371	O37	0.734370	0.806530	0.261930
O381	O38	0.625470	0.754730	0.238930
O391	O39	0.537470	0.577730	0.066630
O401	O40	0.594770	0.527230	0.044730
C691	C69	0.080470	0.763930	0.234330
C701	C70	0.979670	0.564130	0.076330
C711	C71	0.023170	0.714030	0.189830
C721	C72	0.029270	0.665430	0.154630
H371	H37	0.070070	0.665830	0.155030
C731	C73	0.975470	0.616230	0.118830
C741	C74	0.915670	0.615630	0.118130
H381	H38	0.878970	0.581930	0.093730
C751	C75	0.909670	0.664330	0.153330
C761	C76	0.963370	0.713430	0.189130
H391	H39	0.959270	0.746730	0.213230
C771	C77	0.823670	0.687330	0.123330
H401	H40	0.821770	0.677930	0.073030
H411	H41	0.854270	0.735630	0.130230
N51	N5	0.844970	0.651630	0.159330
H421	H42	0.817370	0.619830	0.187530
C781	C78	0.757770	0.668730	0.149430
C791	C79	0.751470	0.714830	0.189330
H431	H43	0.788370	0.747530	0.214430
C801	C80	0.691170	0.713130	0.192430
C811	C81	0.637170	0.665230	0.155730
H441	H44	0.595970	0.664030	0.157930
C821	C82	0.643470	0.619130	0.115830
C831	C83	0.703870	0.620930	0.112730
H451	H45	0.708170	0.589430	0.085430
C841	C84	0.680970	0.759230	0.238930
C851	C85	0.588070	0.569730	0.070330
Cu111	Cu11	0.800620	0.198950	0.666610
Cu121	Cu12	0.865740	0.134020	0.639870
O411	O41	0.739130	0.138770	0.598270
O421	O42	0.791030	0.084870	0.573570
O431	O43	0.707230	0.912970	0.400570
O441	O44	0.598530	0.859270	0.375670
O451	O45	0.401030	0.139870	0.595270
O461	O46	0.292130	0.088070	0.572270
O471	O47	0.204130	0.911070	0.399970
O481	O48	0.261430	0.860570	0.378070
C861	C86	0.747130	0.097270	0.567670
C871	C87	0.646330	0.897470	0.409670
C881	C88	0.689830	0.047370	0.523170
C891	C89	0.695930	0.998770	0.487970
H461	H46	0.736730	0.999170	0.488370
C901	C90	0.642130	0.949570	0.452170
C911	C91	0.582330	0.948970	0.451470
H471	H47	0.545630	0.915270	0.427070
C921	C92	0.576330	0.997670	0.486670
C931	C93	0.630030	0.046770	0.522470
H481	H48	0.625930	0.080070	0.546570
C941	C94	0.490330	0.020670	0.456670
H491	H49	0.488430	0.011270	0.406370
H501	H50	0.520930	0.068970	0.463570
N61	N6	0.511630	0.984970	0.492670
H511	H51	0.484030	0.953170	0.520870
C951	C95	0.424430	0.002070	0.482770
C961	C96	0.418130	0.048170	0.522670
H521	H52	0.455030	0.080870	0.547770
C971	C97	0.357830	0.046470	0.525770
C981	C98	0.303830	0.998570	0.489070
H531	H53	0.262630	0.997370	0.491270
C991	C99	0.310130	0.952470	0.449170
C1001	C100	0.370530	0.954270	0.446070
H541	H54	0.374830	0.922770	0.418770
C1011	C101	0.347630	0.092570	0.572270
C1021	C102	0.254730	0.903070	0.403670
Cu131	Cu13	0.467720	0.935010	0.999940
Cu141	Cu14	0.532650	0.065060	0.973200
O491	O49	0.527900	0.933700	0.931600
O501	O50	0.581800	0.039500	0.906900
O511	O51	0.753700	0.127600	0.733900
O521	O52	0.807400	0.072600	0.709000
O531	O53	0.526800	0.594500	0.928600
O541	O54	0.578600	0.537400	0.905600
O551	O55	0.755600	0.626400	0.733300
O561	O56	0.806100	0.734200	0.711400
C1031	C103	0.569400	0.983200	0.901000
C1041	C104	0.769200	0.082200	0.743000
C1051	C105	0.619300	0.975800	0.856500
C1061	C106	0.667900	0.030500	0.821300
H551	H55	0.667500	0.070900	0.821700
C1071	C107	0.717100	0.025900	0.785500
C1081	C108	0.717700	0.966700	0.784800
H561	H56	0.751400	0.963700	0.760400
C1091	C109	0.669000	0.912000	0.820000
C1101	C110	0.619900	0.916600	0.855800
H571	H57	0.586600	0.879200	0.879900
C1111	C111	0.646000	0.803000	0.790000
H581	H58	0.655400	0.810500	0.739700
H591	H59	0.597700	0.785300	0.796900
N71	N7	0.681700	0.860000	0.826000
H601	H60	0.713500	0.864200	0.854200
C1121	C112	0.664600	0.755700	0.816100
C1131	C113	0.618500	0.703300	0.856000
H611	H61	0.585800	0.707500	0.881100
C1141	C114	0.620200	0.644700	0.859100
C1151	C115	0.668100	0.638600	0.822400
H621	H62	0.669300	0.598600	0.824600
C1161	C116	0.714200	0.691000	0.782500
C1171	C117	0.712400	0.749600	0.779400
H631	H63	0.743900	0.785400	0.752100
C1181	C118	0.574100	0.588400	0.905600
C1191	C119	0.763600	0.685000	0.737000
Cu151	Cu15	0.134390	0.268340	0.333270
Cu161	Cu16	0.199320	0.398390	0.306530
O571	O57	0.194570	0.267030	0.264930
O581	O58	0.248470	0.372830	0.240230
O591	O59	0.420370	0.460930	0.067230
O601	O60	0.474070	0.405930	0.042330
O611	O61	0.193470	0.927830	0.261930
O621	O62	0.245270	0.870730	0.238930
O631	O63	0.422270	0.959730	0.066630
O641	O64	0.472770	0.067530	0.044730
C1201	C120	0.236070	0.316530	0.234330
C1211	C121	0.435870	0.415530	0.076330
C1221	C122	0.285970	0.309130	0.189830
C1231	C123	0.334570	0.363830	0.154630
H641	H64	0.334170	0.404230	0.155030
C1241	C124	0.383770	0.359230	0.118830
C1251	C125	0.384370	0.300030	0.118130
H651	H65	0.418070	0.297030	0.093730
C1261	C126	0.335670	0.245330	0.153330
C1271	C127	0.286570	0.249930	0.189130
H661	H66	0.253270	0.212530	0.213230
C1281	C128	0.312670	0.136330	0.123330
H671	H67	0.322070	0.143830	0.073030
H681	H68	0.264370	0.118630	0.130230
N81	N8	0.348370	0.193330	0.159330
H691	H69	0.380170	0.197530	0.187530
C1291	C129	0.331270	0.089030	0.149430
C1301	C130	0.285170	0.036630	0.189330
H701	H70	0.252470	0.040830	0.214430
C1311	C131	0.286870	0.978030	0.192430
C1321	C132	0.334770	0.971930	0.155730
H711	H71	0.335970	0.931930	0.157930
C1331	C133	0.380870	0.024330	0.115830
C1341	C134	0.379070	0.082930	0.112730
H721	H72	0.410570	0.118730	0.085430
C1351	C135	0.240770	0.921730	0.238930
C1361	C136	0.430270	0.018330	0.070330
Cu171	Cu17	0.801050	0.601680	0.666610
Cu181	Cu18	0.865980	0.731730	0.639870
O651	O65	0.861230	0.600370	0.598270
O661	O66	0.915130	0.706170	0.573570
O671	O67	0.087030	0.794270	0.400570
O681	O68	0.140730	0.739270	0.375670
O691	O69	0.860130	0.261170	0.595270
O701	O70	0.911930	0.204070	0.572270
O711	O71	0.088930	0.293070	0.399970
O721	O72	0.139430	0.400870	0.378070
C1371	C137	0.902730	0.649870	0.567670
C1381	C138	0.102530	0.748870	0.409670
C1391	C139	0.952630	0.642470	0.523170
C1401	C140	0.001230	0.697170	0.487970
H731	H73	0.000830	0.737570	0.488370
C1411	C141	0.050430	0.692570	0.452170
C1421	C142	0.051030	0.633370	0.451470
H741	H74	0.084730	0.630370	0.427070
C1431	C143	0.002330	0.578670	0.486670
C1441	C144	0.953230	0.583270	0.522470
H751	H75	0.919930	0.545870	0.546570
C1451	C145	0.979330	0.469670	0.456670
H761	H76	0.988730	0.477170	0.406370
H771	H77	0.931030	0.451970	0.463570
N91	N9	0.015030	0.526670	0.492670
H781	H78	0.046830	0.530870	0.520870
C1461	C146	0.997930	0.422370	0.482770
C1471	C147	0.951830	0.369970	0.522670
H791	H79	0.919130	0.374170	0.547770
C1481	C148	0.953530	0.311370	0.525770
C1491	C149	0.001430	0.305270	0.489070
H801	H80	0.002630	0.265270	0.491270
C1501	C150	0.047530	0.357670	0.449170
C1511	C151	0.045730	0.416270	0.446070
H811	H81	0.077230	0.452070	0.418770
C1521	C152	0.907430	0.255070	0.572270
C1531	C153	0.096930	0.351670	0.403670
