data_EBOTOF_clean_PM
_symmetry_space_group_name_H-M	'P1'
_cell_length_a	12.059100
_cell_length_b	19.164700
_cell_length_c	4.911400
_cell_angle_alpha	90.000000
_cell_angle_beta	90.000000
_cell_angle_gamma	90.000000
_symmetry_Int_Tables_number 1

loop_
_symmetry_equiv_pos_as_xyz
'x,y,z'

loop_
_atom_site_label
_atom_site_type_symbol
_atom_site_fract_x
_atom_site_fract_y
_atom_site_fract_z
P11	P1	0.015430	0.104710	0.502400
F11	F1	0.146100	0.013500	0.926300
O11	O1	0.003000	0.085330	0.200300
O21	O2	0.142400	0.110200	0.534400
O31	O3	0.958700	0.049200	0.682800
C11	C1	0.948400	0.187580	0.559200
P21	P2	0.484570	0.395290	0.502400
F21	F2	0.353900	0.486500	0.926300
O41	O4	0.497000	0.414670	0.200300
O51	O5	0.357600	0.389800	0.534400
O61	O6	0.541300	0.450800	0.682800
C21	C2	0.551600	0.312420	0.559200
P31	P3	0.984570	0.604710	0.497600
F31	F3	0.853900	0.513500	0.073700
O71	O7	0.997000	0.585330	0.799700
O81	O8	0.857600	0.610200	0.465600
O91	O9	0.041300	0.549200	0.317200
C31	C3	0.051600	0.687580	0.440800
P41	P4	0.515430	0.895290	0.497600
F41	F4	0.646100	0.986500	0.073700
O101	O10	0.503000	0.914670	0.799700
O111	O11	0.642400	0.889800	0.465600
O121	O12	0.458700	0.950800	0.317200
C41	C4	0.448400	0.812420	0.440800
P51	P5	0.984570	0.895290	0.497600
F51	F5	0.853900	0.986500	0.073700
O131	O13	0.997000	0.914670	0.799700
O141	O14	0.857600	0.889800	0.465600
O151	O15	0.041300	0.950800	0.317200
C51	C5	0.051600	0.812420	0.440800
P61	P6	0.515430	0.604710	0.497600
F61	F6	0.646100	0.513500	0.073700
O161	O16	0.503000	0.585330	0.799700
O171	O17	0.642400	0.610200	0.465600
O181	O18	0.458700	0.549200	0.317200
C61	C6	0.448400	0.687580	0.440800
P71	P7	0.015430	0.395290	0.502400
F71	F7	0.146100	0.486500	0.926300
O191	O19	0.003000	0.414670	0.200300
O201	O20	0.142400	0.389800	0.534400
O211	O21	0.958700	0.450800	0.682800
C71	C7	0.948400	0.312420	0.559200
P81	P8	0.484570	0.104710	0.502400
F81	F8	0.353900	0.013500	0.926300
O221	O22	0.497000	0.085330	0.200300
O231	O23	0.357600	0.110200	0.534400
O241	O24	0.541300	0.049200	0.682800
C81	C8	0.551600	0.187580	0.559200
Al11	Al1	0.250000	0.062340	0.733700
Al21	Al2	0.250000	0.437660	0.733700
Al31	Al3	0.750000	0.562340	0.266300
Al41	Al4	0.750000	0.937660	0.266300
C91	C9	0.012400	0.250000	0.451400
C101	C10	0.487600	0.250000	0.451400
C111	C11	0.987600	0.750000	0.548600
C121	C12	0.512400	0.750000	0.548600
Al51	Al5	0.000000	0.000000	0.000000
Al61	Al6	0.500000	0.500000	0.000000
Al71	Al7	0.000000	0.500000	0.000000
Al81	Al8	0.500000	0.000000	0.000000
