data_EBUQIB_clean_PM
_symmetry_space_group_name_H-M	'P1'
_cell_length_a	10.864000
_cell_length_b	21.562000
_cell_length_c	45.165000
_cell_angle_alpha	90.000000
_cell_angle_beta	93.858000
_cell_angle_gamma	90.000000
_symmetry_Int_Tables_number 1

loop_
_symmetry_equiv_pos_as_xyz
'x,y,z'

loop_
_atom_site_label
_atom_site_type_symbol
_atom_site_fract_x
_atom_site_fract_y
_atom_site_fract_z
Na11	Na1	0.373220	0.283870	0.131080
Na21	Na2	0.623280	0.773530	0.377650
Na31	Na3	0.126780	0.783870	0.368920
Na41	Na4	0.876720	0.273530	0.122350
Na51	Na5	0.626780	0.716130	0.868920
Na61	Na6	0.376720	0.226470	0.622350
Na71	Na7	0.873220	0.216130	0.631080
Na81	Na8	0.123280	0.726470	0.877650
Zn11	Zn1	0.901610	0.775110	0.130540
Zn21	Zn2	0.368370	0.775290	0.114470
Zn31	Zn3	0.598390	0.275110	0.369460
Zn41	Zn4	0.131630	0.275290	0.385530
Zn51	Zn5	0.098390	0.224890	0.869460
Zn61	Zn6	0.631630	0.224710	0.885530
Zn71	Zn7	0.401610	0.724890	0.630540
Zn81	Zn8	0.868370	0.724710	0.614470
H11	H1	0.693700	0.684200	0.219100
H21	H2	0.711000	0.595800	0.186100
H31	H3	0.844600	0.571100	0.075100
H41	H4	0.957700	0.634700	0.041900
H51	H5	0.171400	0.857800	0.050800
H61	H6	0.151900	0.946800	0.083600
H71	H7	0.908000	0.988800	0.180700
H81	H8	0.794200	0.922400	0.213800
H91	H9	0.860900	0.778600	0.254600
H101	H10	0.764900	0.790800	0.298700
H111	H11	0.458700	0.847700	0.253300
H121	H12	0.555500	0.836500	0.209400
H131	H13	0.392400	0.836800	0.324100
H141	H14	0.926400	0.512800	0.126800
H151	H15	0.848900	0.413700	0.123100
H161	H16	0.510500	0.478600	0.134100
H171	H17	0.579500	0.577600	0.133300
H181	H18	0.986700	0.815800	0.015500
H191	H19	0.056000	0.804300	0.968300
H201	H20	0.245500	0.653300	0.996000
H211	H21	0.187700	0.667400	0.043100
H221	H22	0.283800	0.667900	0.923100
H231	H23	0.877900	0.029400	0.115000
H241	H24	0.939700	0.130700	0.117200
H251	H25	0.273100	0.082000	0.144900
H261	H26	0.208700	0.980200	0.145600
H271	H27	0.108500	0.263400	0.135700
H281	H28	0.382000	0.561200	0.067600
H291	H29	0.490400	0.624500	0.033500
H301	H30	0.580400	0.867700	0.026100
H311	H31	0.561000	0.958500	0.060200
H321	H32	0.449900	0.974000	0.173200
H331	H33	0.328100	0.912400	0.205600
H341	H34	0.084000	0.695000	0.192300
H351	H35	0.101700	0.607300	0.158800
H361	H36	0.312000	0.539800	0.154400
H371	H37	0.259800	0.436800	0.156600
H381	H38	0.075100	0.449400	0.077200
H391	H39	0.133600	0.553000	0.074300
H401	H40	0.418300	0.766400	0.990300
H411	H41	0.526100	0.750400	0.948100
H421	H42	0.822900	0.696900	0.999100
H431	H43	0.716300	0.716700	0.040700
H441	H44	0.903300	0.676700	0.929800
H451	H45	0.376000	0.030200	0.089600
H461	H46	0.441800	0.134700	0.094200
H471	H47	0.728600	0.079500	0.148400
H481	H48	0.659500	0.978000	0.144400
H491	H49	0.607000	0.262400	0.112400
H501	H50	0.273200	0.728900	0.228000
H511	H51	0.214300	0.743200	0.276100
H521	H52	0.038200	0.899600	0.250800
H531	H53	0.103200	0.887800	0.203800
H541	H54	0.012000	0.873900	0.326000
H551	H55	0.806300	0.184200	0.280900
H561	H56	0.789000	0.095800	0.313900
H571	H57	0.655400	0.071100	0.424900
H581	H58	0.542300	0.134700	0.458100
H591	H59	0.328600	0.357800	0.449200
H601	H60	0.348100	0.446800	0.416400
H611	H61	0.592000	0.488800	0.319300
H621	H62	0.705800	0.422400	0.286200
H631	H63	0.639100	0.278600	0.245400
H641	H64	0.735100	0.290800	0.201300
H651	H65	0.041300	0.347700	0.246700
H661	H66	0.944500	0.336500	0.290600
H671	H67	0.107600	0.336800	0.175900
H681	H68	0.573600	0.012800	0.373200
H691	H69	0.651100	0.913700	0.376900
H701	H70	0.989500	0.978600	0.365900
H711	H71	0.920500	0.077600	0.366700
H721	H72	0.513300	0.315800	0.484500
H731	H73	0.444000	0.304300	0.531700
H741	H74	0.254500	0.153300	0.504000
H751	H75	0.312300	0.167400	0.456900
H761	H76	0.216200	0.167900	0.576900
H771	H77	0.622100	0.529400	0.385000
H781	H78	0.560300	0.630700	0.382800
H791	H79	0.226900	0.582000	0.355100
H801	H80	0.291300	0.480200	0.354400
H811	H81	0.391500	0.763400	0.364300
H821	H82	0.118000	0.061200	0.432400
H831	H83	0.009600	0.124500	0.466500
H841	H84	0.919600	0.367700	0.473900
H851	H85	0.939000	0.458500	0.439800
H861	H86	0.050100	0.474000	0.326800
H871	H87	0.171900	0.412400	0.294400
H881	H88	0.416000	0.195000	0.307700
H891	H89	0.398300	0.107300	0.341200
H901	H90	0.188000	0.039800	0.345600
H911	H91	0.240200	0.936800	0.343400
H921	H92	0.424900	0.949400	0.422800
H931	H93	0.366400	0.053000	0.425700
H941	H94	0.081700	0.266400	0.509700
H951	H95	0.973900	0.250400	0.551900
H961	H96	0.677100	0.196900	0.500900
H971	H97	0.783700	0.216700	0.459300
H981	H98	0.596700	0.176700	0.570200
H991	H99	0.124000	0.530200	0.410400
H1001	H100	0.058200	0.634700	0.405800
H1011	H101	0.771400	0.579500	0.351600
H1021	H102	0.840500	0.478000	0.355600
H1031	H103	0.893000	0.762400	0.387600
H1041	H104	0.226800	0.228900	0.272000
H1051	H105	0.285700	0.243200	0.223900
H1061	H106	0.461800	0.399600	0.249200
H1071	H107	0.396800	0.387800	0.296200
H1081	H108	0.488000	0.373900	0.174000
H1091	H109	0.306300	0.315800	0.780900
H1101	H110	0.289000	0.404200	0.813900
H1111	H111	0.155400	0.428900	0.924900
H1121	H112	0.042300	0.365300	0.958100
H1131	H113	0.828600	0.142200	0.949200
H1141	H114	0.848100	0.053200	0.916400
H1151	H115	0.092000	0.011200	0.819300
H1161	H116	0.205800	0.077600	0.786200
H1171	H117	0.139100	0.221400	0.745400
H1181	H118	0.235100	0.209200	0.701300
H1191	H119	0.541300	0.152300	0.746700
H1201	H120	0.444500	0.163500	0.790600
H1211	H121	0.607600	0.163200	0.675900
H1221	H122	0.073600	0.487200	0.873200
H1231	H123	0.151100	0.586300	0.876900
H1241	H124	0.489500	0.521400	0.865900
H1251	H125	0.420500	0.422400	0.866700
H1261	H126	0.013300	0.184200	0.984500
H1271	H127	0.944000	0.195700	0.031700
H1281	H128	0.754500	0.346700	0.004000
H1291	H129	0.812300	0.332600	0.956900
H1301	H130	0.716200	0.332100	0.076900
H1311	H131	0.122100	0.970600	0.885000
H1321	H132	0.060300	0.869300	0.882800
H1331	H133	0.726900	0.918000	0.855100
H1341	H134	0.791300	0.019800	0.854400
H1351	H135	0.891500	0.736600	0.864300
H1361	H136	0.618000	0.438800	0.932400
H1371	H137	0.509600	0.375500	0.966500
H1381	H138	0.419600	0.132300	0.973900
H1391	H139	0.439000	0.041500	0.939800
H1401	H140	0.550100	0.026000	0.826800
H1411	H141	0.671900	0.087600	0.794400
H1421	H142	0.916000	0.305000	0.807700
H1431	H143	0.898300	0.392700	0.841200
H1441	H144	0.688000	0.460200	0.845600
H1451	H145	0.740200	0.563200	0.843400
H1461	H146	0.924900	0.550600	0.922800
H1471	H147	0.866400	0.447000	0.925700
H1481	H148	0.581700	0.233600	0.009700
H1491	H149	0.473900	0.249600	0.051900
H1501	H150	0.177100	0.303100	0.000900
H1511	H151	0.283700	0.283300	0.959300
H1521	H152	0.096700	0.323300	0.070200
H1531	H153	0.624000	0.969800	0.910400
H1541	H154	0.558200	0.865300	0.905800
H1551	H155	0.271400	0.920500	0.851600
H1561	H156	0.340500	0.022000	0.855600
H1571	H157	0.393000	0.737600	0.887600
H1581	H158	0.726800	0.271100	0.772000
H1591	H159	0.785700	0.256800	0.723900
H1601	H160	0.961800	0.100400	0.749200
H1611	H161	0.896800	0.112200	0.796200
H1621	H162	0.988000	0.126100	0.674000
H1631	H163	0.193700	0.815800	0.719100
H1641	H164	0.211000	0.904200	0.686100
H1651	H165	0.344600	0.928900	0.575100
H1661	H166	0.457700	0.865300	0.541900
H1671	H167	0.671400	0.642200	0.550800
H1681	H168	0.651900	0.553200	0.583600
H1691	H169	0.408000	0.511200	0.680700
H1701	H170	0.294200	0.577600	0.713800
H1711	H171	0.360900	0.721400	0.754600
H1721	H172	0.264900	0.709200	0.798700
H1731	H173	0.958700	0.652300	0.753300
H1741	H174	0.055500	0.663500	0.709400
H1751	H175	0.892400	0.663200	0.824100
H1761	H176	0.426400	0.987200	0.626800
H1771	H177	0.348900	0.086300	0.623100
H1781	H178	0.010500	0.021400	0.634100
H1791	H179	0.079500	0.922400	0.633300
H1801	H180	0.486700	0.684200	0.515500
H1811	H181	0.556000	0.695700	0.468300
H1821	H182	0.745500	0.846700	0.496000
H1831	H183	0.687700	0.832600	0.543100
H1841	H184	0.783800	0.832100	0.423100
H1851	H185	0.377900	0.470600	0.615000
H1861	H186	0.439700	0.369300	0.617200
H1871	H187	0.773100	0.418000	0.644900
H1881	H188	0.708700	0.519800	0.645600
H1891	H189	0.608500	0.236600	0.635700
H1901	H190	0.882000	0.938800	0.567600
H1911	H191	0.990400	0.875500	0.533500
H1921	H192	0.080400	0.632300	0.526100
H1931	H193	0.061000	0.541500	0.560200
H1941	H194	0.949900	0.526000	0.673200
H1951	H195	0.828100	0.587600	0.705600
H1961	H196	0.584000	0.805000	0.692300
H1971	H197	0.601700	0.892700	0.658800
H1981	H198	0.812000	0.960200	0.654400
H1991	H199	0.759800	0.063200	0.656600
H2001	H200	0.575100	0.050600	0.577200
H2011	H201	0.633600	0.947000	0.574300
H2021	H202	0.918300	0.733600	0.490300
H2031	H203	0.026100	0.749600	0.448100
H2041	H204	0.322900	0.803100	0.499100
H2051	H205	0.216300	0.783300	0.540700
H2061	H206	0.403300	0.823300	0.429800
H2071	H207	0.876000	0.469800	0.589600
H2081	H208	0.941800	0.365300	0.594200
H2091	H209	0.228600	0.420500	0.648400
H2101	H210	0.159500	0.522000	0.644400
H2111	H211	0.107000	0.237600	0.612400
H2121	H212	0.773200	0.771100	0.728000
H2131	H213	0.714300	0.756800	0.776100
H2141	H214	0.538200	0.600400	0.750800
H2151	H215	0.603200	0.612200	0.703800
H2161	H216	0.512000	0.626100	0.826000
C11	C1	0.828300	0.849060	0.184310
C21	C2	0.780300	0.797420	0.198160
C31	C3	0.779500	0.736390	0.187310
C41	C4	0.728000	0.684620	0.200740
C51	C5	0.736800	0.636100	0.182650
C61	C6	0.793300	0.657850	0.156990
C71	C7	0.810200	0.622930	0.131350
C81	C8	0.868900	0.643500	0.106640
C91	C9	0.877100	0.610240	0.079360
C101	C10	0.939200	0.644990	0.061100
C111	C11	0.972400	0.701790	0.076720
C121	C12	0.038400	0.751770	0.064880
C131	C13	0.056400	0.808880	0.078870
C141	C14	0.126600	0.859030	0.067660
C151	C15	0.116200	0.907920	0.085680
C161	C16	0.039700	0.888930	0.108760
C171	C17	0.002900	0.926980	0.131630
C181	C18	0.927800	0.907570	0.154450
C191	C19	0.891700	0.946640	0.178320
C201	C20	0.829500	0.910090	0.196580
C211	C21	0.718100	0.806870	0.227070
C221	C22	0.780000	0.792850	0.254080
C231	C23	0.722000	0.799910	0.280700
C241	C24	0.604200	0.819790	0.280340
C251	C25	0.539900	0.833900	0.253680
C261	C26	0.598700	0.827100	0.227330
C271	C27	0.541800	0.824990	0.308870
C281	C28	0.762500	0.556870	0.130660
C291	C29	0.842100	0.506090	0.127600
C301	C30	0.796200	0.446880	0.125730
C311	C31	0.672100	0.436710	0.127790
C321	C32	0.593400	0.486190	0.131710
C331	C33	0.634700	0.544880	0.132100
C341	C34	0.622900	0.371330	0.126840
C351	C35	0.083100	0.742830	0.034890
C361	C36	0.041000	0.783900	0.011660
C371	C37	0.080900	0.776550	0.983260
C381	C38	0.158000	0.727590	0.977500
C391	C39	0.195400	0.686760	0.000080
C401	C40	0.159800	0.694700	0.028250
C411	C41	0.194300	0.718150	0.946610
C421	C42	0.037000	0.992680	0.130960
C431	C43	0.958200	0.038920	0.121950
C441	C44	0.996500	0.100100	0.123000
C451	C45	0.109700	0.117180	0.131880
C461	C46	0.191200	0.072180	0.139580
C471	C47	0.151900	0.010500	0.139450
C481	C48	0.160600	0.181460	0.133980
C491	C49	0.226400	0.662100	0.135170
C501	C50	0.265500	0.624940	0.112610
C511	C51	0.340200	0.642340	0.090400
C521	C52	0.390500	0.604110	0.068670
C531	C53	0.451600	0.638230	0.050010
C541	C54	0.444900	0.701710	0.060990
C551	C55	0.492400	0.755600	0.047120
C561	C56	0.488200	0.816010	0.057670
C571	C57	0.544200	0.867660	0.044150
C581	C58	0.534200	0.918180	0.063180
C591	C59	0.473800	0.894790	0.088340
C601	C60	0.464600	0.926690	0.114830
C611	C61	0.410600	0.904790	0.140350
C621	C62	0.411100	0.936500	0.168480
C631	C63	0.346300	0.902490	0.186340
C641	C64	0.309100	0.846930	0.170050
C651	C65	0.238100	0.799470	0.180130
C661	C66	0.210800	0.741360	0.165400
C671	C67	0.131900	0.693030	0.175970
C681	C68	0.141900	0.645150	0.157560
C691	C69	0.231100	0.557560	0.113590
C701	C70	0.265700	0.521780	0.138550
C711	C71	0.232600	0.460290	0.140210
C721	C72	0.159800	0.433500	0.117750
C731	C73	0.123000	0.467590	0.092710
C741	C74	0.158900	0.529870	0.090980
C751	C75	0.115900	0.366600	0.119750
C761	C76	0.558700	0.743330	0.019400
C771	C77	0.499900	0.753200	0.992070
C781	C78	0.564600	0.742900	0.966730
C791	C79	0.685400	0.721800	0.969130
C801	C80	0.742200	0.711400	0.997060
C811	C81	0.677600	0.723000	0.021940
C821	C82	0.748700	0.708100	0.941600
C831	C83	0.511000	0.993540	0.116330
C841	C84	0.446700	0.039890	0.101460
C851	C85	0.486400	0.103000	0.103920
C861	C86	0.590300	0.114840	0.120660
C871	C87	0.658000	0.069550	0.136520
C881	C88	0.616000	0.009200	0.133950
C891	C89	0.640500	0.181990	0.123820
C901	C90	0.189100	0.806750	0.210530
C911	C91	0.226100	0.763120	0.232650
C921	C92	0.191100	0.771940	0.261450
C931	C93	0.122900	0.822590	0.268350
C941	C94	0.086700	0.865800	0.246310
C951	C95	0.123400	0.857810	0.218110
C961	C96	0.091000	0.830400	0.299650
C971	C97	0.671700	0.349060	0.315690
C981	C98	0.719700	0.297420	0.301840
C991	C99	0.720500	0.236390	0.312690
C1001	C100	0.772000	0.184620	0.299260
C1011	C101	0.763200	0.136100	0.317350
C1021	C102	0.706700	0.157850	0.343010
C1031	C103	0.689800	0.122930	0.368650
C1041	C104	0.631100	0.143500	0.393360
C1051	C105	0.622900	0.110240	0.420640
C1061	C106	0.560800	0.144990	0.438900
C1071	C107	0.527600	0.201790	0.423280
C1081	C108	0.461600	0.251770	0.435120
C1091	C109	0.443600	0.308880	0.421130
C1101	C110	0.373400	0.359030	0.432340
C1111	C111	0.383800	0.407920	0.414320
C1121	C112	0.460300	0.388930	0.391240
C1131	C113	0.497100	0.426980	0.368370
C1141	C114	0.572200	0.407570	0.345550
C1151	C115	0.608300	0.446640	0.321680
C1161	C116	0.670500	0.410090	0.303420
C1171	C117	0.781900	0.306870	0.272930
C1181	C118	0.720000	0.292850	0.245920
C1191	C119	0.778000	0.299910	0.219300
C1201	C120	0.895800	0.319790	0.219660
C1211	C121	0.960100	0.333900	0.246320
C1221	C122	0.901300	0.327100	0.272670
C1231	C123	0.958200	0.324990	0.191130
C1241	C124	0.737500	0.056870	0.369340
C1251	C125	0.657900	0.006090	0.372400
C1261	C126	0.703800	0.946880	0.374270
C1271	C127	0.827900	0.936710	0.372210
C1281	C128	0.906600	0.986190	0.368290
C1291	C129	0.865300	0.044880	0.367900
C1301	C130	0.877100	0.871330	0.373160
C1311	C131	0.416900	0.242830	0.465110
C1321	C132	0.459000	0.283900	0.488340
C1331	C133	0.419100	0.276550	0.516740
C1341	C134	0.342000	0.227590	0.522500
C1351	C135	0.304600	0.186760	0.499920
C1361	C136	0.340200	0.194700	0.471750
C1371	C137	0.305700	0.218150	0.553390
C1381	C138	0.463000	0.492680	0.369040
C1391	C139	0.541800	0.538920	0.378050
C1401	C140	0.503500	0.600100	0.377000
C1411	C141	0.390300	0.617180	0.368120
C1421	C142	0.308800	0.572180	0.360420
C1431	C143	0.348100	0.510500	0.360550
C1441	C144	0.339400	0.681460	0.366020
C1451	C145	0.273600	0.162100	0.364830
C1461	C146	0.234500	0.124940	0.387390
C1471	C147	0.159800	0.142340	0.409600
C1481	C148	0.109500	0.104110	0.431330
C1491	C149	0.048400	0.138230	0.449990
C1501	C150	0.055100	0.201710	0.439010
C1511	C151	0.007600	0.255600	0.452880
C1521	C152	0.011800	0.316010	0.442330
C1531	C153	0.955800	0.367660	0.455850
C1541	C154	0.965800	0.418180	0.436820
C1551	C155	0.026200	0.394790	0.411660
C1561	C156	0.035400	0.426690	0.385170
C1571	C157	0.089400	0.404790	0.359650
C1581	C158	0.088900	0.436500	0.331520
C1591	C159	0.153700	0.402490	0.313660
C1601	C160	0.190900	0.346930	0.329950
C1611	C161	0.261900	0.299470	0.319870
C1621	C162	0.289200	0.241360	0.334600
C1631	C163	0.368100	0.193030	0.324030
C1641	C164	0.358100	0.145150	0.342440
C1651	C165	0.268900	0.057560	0.386410
C1661	C166	0.234300	0.021780	0.361450
C1671	C167	0.267400	0.960290	0.359790
C1681	C168	0.340200	0.933500	0.382250
C1691	C169	0.377000	0.967590	0.407290
C1701	C170	0.341100	0.029870	0.409020
C1711	C171	0.384100	0.866600	0.380250
C1721	C172	0.941300	0.243330	0.480600
C1731	C173	0.000100	0.253200	0.507930
C1741	C174	0.935400	0.242900	0.533270
C1751	C175	0.814600	0.221800	0.530870
C1761	C176	0.757800	0.211400	0.502940
C1771	C177	0.822400	0.223000	0.478060
C1781	C178	0.751300	0.208100	0.558400
C1791	C179	0.989000	0.493540	0.383670
C1801	C180	0.053300	0.539890	0.398540
C1811	C181	0.013600	0.603000	0.396080
C1821	C182	0.909700	0.614840	0.379340
C1831	C183	0.842000	0.569550	0.363480
C1841	C184	0.884000	0.509200	0.366050
C1851	C185	0.859500	0.681990	0.376180
C1861	C186	0.310900	0.306750	0.289470
C1871	C187	0.273900	0.263120	0.267350
C1881	C188	0.308900	0.271940	0.238550
C1891	C189	0.377100	0.322590	0.231650
C1901	C190	0.413300	0.365800	0.253690
C1911	C191	0.376600	0.357810	0.281890
C1921	C192	0.409000	0.330400	0.200350
C1931	C193	0.171700	0.150940	0.815690
C1941	C194	0.219700	0.202580	0.801840
C1951	C195	0.220500	0.263610	0.812690
C1961	C196	0.272000	0.315380	0.799260
C1971	C197	0.263200	0.363900	0.817350
C1981	C198	0.206700	0.342150	0.843010
C1991	C199	0.189800	0.377070	0.868650
C2001	C200	0.131100	0.356500	0.893360
C2011	C201	0.122900	0.389760	0.920640
C2021	C202	0.060800	0.355010	0.938900
C2031	C203	0.027600	0.298210	0.923280
C2041	C204	0.961600	0.248230	0.935120
C2051	C205	0.943600	0.191120	0.921130
C2061	C206	0.873400	0.140970	0.932340
C2071	C207	0.883800	0.092080	0.914320
C2081	C208	0.960300	0.111070	0.891240
C2091	C209	0.997100	0.073020	0.868370
C2101	C210	0.072200	0.092430	0.845550
C2111	C211	0.108300	0.053360	0.821680
C2121	C212	0.170500	0.089910	0.803420
C2131	C213	0.281900	0.193130	0.772930
C2141	C214	0.220000	0.207150	0.745920
C2151	C215	0.278000	0.200090	0.719300
C2161	C216	0.395800	0.180210	0.719660
C2171	C217	0.460100	0.166100	0.746320
C2181	C218	0.401300	0.172900	0.772670
C2191	C219	0.458200	0.175010	0.691130
C2201	C220	0.237500	0.443130	0.869340
C2211	C221	0.157900	0.493910	0.872400
C2221	C222	0.203800	0.553120	0.874270
C2231	C223	0.327900	0.563290	0.872210
C2241	C224	0.406600	0.513810	0.868290
C2251	C225	0.365300	0.455120	0.867900
C2261	C226	0.377100	0.628670	0.873160
C2271	C227	0.916900	0.257170	0.965110
C2281	C228	0.959000	0.216100	0.988340
C2291	C229	0.919100	0.223450	0.016740
C2301	C230	0.842000	0.272410	0.022500
C2311	C231	0.804600	0.313240	0.999920
C2321	C232	0.840200	0.305300	0.971750
C2331	C233	0.805700	0.281850	0.053390
C2341	C234	0.963000	0.007320	0.869040
C2351	C235	0.041800	0.961080	0.878050
C2361	C236	0.003500	0.899900	0.877000
C2371	C237	0.890300	0.882820	0.868120
C2381	C238	0.808800	0.927820	0.860420
C2391	C239	0.848100	0.989500	0.860550
C2401	C240	0.839400	0.818540	0.866020
C2411	C241	0.773600	0.337900	0.864830
C2421	C242	0.734500	0.375060	0.887390
C2431	C243	0.659800	0.357660	0.909600
C2441	C244	0.609500	0.395890	0.931330
C2451	C245	0.548400	0.361770	0.949990
C2461	C246	0.555100	0.298290	0.939010
C2471	C247	0.507600	0.244400	0.952880
C2481	C248	0.511800	0.183990	0.942330
C2491	C249	0.455800	0.132340	0.955850
C2501	C250	0.465800	0.081820	0.936820
C2511	C251	0.526200	0.105210	0.911660
C2521	C252	0.535400	0.073310	0.885170
C2531	C253	0.589400	0.095210	0.859650
C2541	C254	0.588900	0.063500	0.831520
C2551	C255	0.653700	0.097510	0.813660
C2561	C256	0.690900	0.153070	0.829950
C2571	C257	0.761900	0.200530	0.819870
C2581	C258	0.789200	0.258640	0.834600
C2591	C259	0.868100	0.306970	0.824030
C2601	C260	0.858100	0.354850	0.842440
C2611	C261	0.768900	0.442440	0.886410
C2621	C262	0.734300	0.478220	0.861450
C2631	C263	0.767400	0.539710	0.859790
C2641	C264	0.840200	0.566500	0.882250
C2651	C265	0.877000	0.532410	0.907290
C2661	C266	0.841100	0.470130	0.909020
C2671	C267	0.884100	0.633400	0.880250
C2681	C268	0.441300	0.256670	0.980600
C2691	C269	0.500100	0.246800	0.007930
C2701	C270	0.435400	0.257100	0.033270
C2711	C271	0.314600	0.278200	0.030870
C2721	C272	0.257800	0.288600	0.002940
C2731	C273	0.322400	0.277000	0.978060
C2741	C274	0.251300	0.291900	0.058400
C2751	C275	0.489000	0.006460	0.883670
C2761	C276	0.553300	0.960110	0.898540
C2771	C277	0.513600	0.897000	0.896080
C2781	C278	0.409700	0.885160	0.879340
C2791	C279	0.342000	0.930450	0.863480
C2801	C280	0.384000	0.990800	0.866050
C2811	C281	0.359500	0.818010	0.876180
C2821	C282	0.810900	0.193250	0.789470
C2831	C283	0.773900	0.236880	0.767350
C2841	C284	0.808900	0.228060	0.738550
C2851	C285	0.877100	0.177410	0.731650
C2861	C286	0.913300	0.134200	0.753690
C2871	C287	0.876600	0.142190	0.781890
C2881	C288	0.909000	0.169600	0.700350
C2891	C289	0.328300	0.650940	0.684310
C2901	C290	0.280300	0.702580	0.698160
C2911	C291	0.279500	0.763610	0.687310
C2921	C292	0.228000	0.815380	0.700740
C2931	C293	0.236800	0.863900	0.682650
C2941	C294	0.293300	0.842150	0.656990
C2951	C295	0.310200	0.877070	0.631350
C2961	C296	0.368900	0.856500	0.606640
C2971	C297	0.377100	0.889760	0.579360
C2981	C298	0.439200	0.855010	0.561100
C2991	C299	0.472400	0.798210	0.576720
C3001	C300	0.538400	0.748230	0.564880
C3011	C301	0.556400	0.691120	0.578870
C3021	C302	0.626600	0.640970	0.567660
C3031	C303	0.616200	0.592080	0.585680
C3041	C304	0.539700	0.611070	0.608760
C3051	C305	0.502900	0.573020	0.631630
C3061	C306	0.427800	0.592430	0.654450
C3071	C307	0.391700	0.553360	0.678320
C3081	C308	0.329500	0.589910	0.696580
C3091	C309	0.218100	0.693130	0.727070
C3101	C310	0.280000	0.707150	0.754080
C3111	C311	0.222000	0.700090	0.780700
C3121	C312	0.104200	0.680210	0.780340
C3131	C313	0.039900	0.666100	0.753680
C3141	C314	0.098700	0.672900	0.727330
C3151	C315	0.041800	0.675010	0.808870
C3161	C316	0.262500	0.943130	0.630660
C3171	C317	0.342100	0.993910	0.627600
C3181	C318	0.296200	0.053120	0.625730
C3191	C319	0.172100	0.063290	0.627790
C3201	C320	0.093400	0.013810	0.631710
C3211	C321	0.134700	0.955120	0.632100
C3221	C322	0.122900	0.128670	0.626840
C3231	C323	0.583100	0.757170	0.534890
C3241	C324	0.541000	0.716100	0.511660
C3251	C325	0.580900	0.723450	0.483260
C3261	C326	0.658000	0.772410	0.477500
C3271	C327	0.695400	0.813240	0.500080
C3281	C328	0.659800	0.805300	0.528250
C3291	C329	0.694300	0.781850	0.446610
C3301	C330	0.537000	0.507320	0.630960
C3311	C331	0.458200	0.461080	0.621950
C3321	C332	0.496500	0.399900	0.623000
C3331	C333	0.609700	0.382820	0.631880
C3341	C334	0.691200	0.427820	0.639580
C3351	C335	0.651900	0.489500	0.639450
C3361	C336	0.660600	0.318540	0.633980
C3371	C337	0.726400	0.837900	0.635170
C3381	C338	0.765500	0.875060	0.612610
C3391	C339	0.840200	0.857660	0.590400
C3401	C340	0.890500	0.895890	0.568670
C3411	C341	0.951600	0.861770	0.550010
C3421	C342	0.944900	0.798290	0.560990
C3431	C343	0.992400	0.744400	0.547120
C3441	C344	0.988200	0.683990	0.557670
C3451	C345	0.044200	0.632340	0.544150
C3461	C346	0.034200	0.581820	0.563180
C3471	C347	0.973800	0.605210	0.588340
C3481	C348	0.964600	0.573310	0.614830
C3491	C349	0.910600	0.595210	0.640350
C3501	C350	0.911100	0.563500	0.668480
C3511	C351	0.846300	0.597510	0.686340
C3521	C352	0.809100	0.653070	0.670050
C3531	C353	0.738100	0.700530	0.680130
C3541	C354	0.710800	0.758640	0.665400
C3551	C355	0.631900	0.806970	0.675970
C3561	C356	0.641900	0.854850	0.657560
C3571	C357	0.731100	0.942440	0.613590
C3581	C358	0.765700	0.978220	0.638550
C3591	C359	0.732600	0.039710	0.640210
C3601	C360	0.659800	0.066500	0.617750
C3611	C361	0.623000	0.032410	0.592710
C3621	C362	0.658900	0.970130	0.590980
C3631	C363	0.615900	0.133400	0.619750
C3641	C364	0.058700	0.756670	0.519400
C3651	C365	0.999900	0.746800	0.492070
C3661	C366	0.064600	0.757100	0.466730
C3671	C367	0.185400	0.778200	0.469130
C3681	C368	0.242200	0.788600	0.497060
C3691	C369	0.177600	0.777000	0.521940
C3701	C370	0.248700	0.791900	0.441600
C3711	C371	0.011000	0.506460	0.616330
C3721	C372	0.946700	0.460110	0.601460
C3731	C373	0.986400	0.397000	0.603920
C3741	C374	0.090300	0.385160	0.620660
C3751	C375	0.158000	0.430450	0.636520
C3761	C376	0.116000	0.490800	0.633950
C3771	C377	0.140500	0.318010	0.623820
C3781	C378	0.689100	0.693250	0.710530
C3791	C379	0.726100	0.736880	0.732650
C3801	C380	0.691100	0.728060	0.761450
C3811	C381	0.622900	0.677410	0.768350
C3821	C382	0.586700	0.634200	0.746310
C3831	C383	0.623400	0.642190	0.718110
C3841	C384	0.591000	0.669600	0.799650
N11	N1	0.818800	0.719480	0.160170
N21	N2	0.924900	0.700000	0.103890
N31	N3	0.010100	0.826940	0.104570
N41	N4	0.887200	0.848100	0.159260
N51	N5	0.377700	0.702480	0.085200
N61	N6	0.444600	0.832270	0.084400
N71	N7	0.350700	0.848430	0.142140
N81	N8	0.262100	0.722760	0.140340
N91	N9	0.681200	0.219480	0.339830
N101	N10	0.575100	0.200000	0.396110
N111	N11	0.489900	0.326940	0.395430
N121	N12	0.612800	0.348100	0.340740
N131	N13	0.122300	0.202480	0.414800
N141	N14	0.055400	0.332270	0.415600
N151	N15	0.149300	0.348430	0.357860
N161	N16	0.237900	0.222760	0.359660
N171	N17	0.181200	0.280520	0.839830
N181	N18	0.075100	0.300000	0.896110
N191	N19	0.989900	0.173060	0.895430
N201	N20	0.112800	0.151900	0.840740
N211	N21	0.622300	0.297520	0.914800
N221	N22	0.555400	0.167730	0.915600
N231	N23	0.649300	0.151570	0.857860
N241	N24	0.737900	0.277240	0.859660
N251	N25	0.318800	0.780520	0.660170
N261	N26	0.424900	0.800000	0.603890
N271	N27	0.510100	0.673060	0.604570
N281	N28	0.387200	0.651900	0.659260
N291	N29	0.877700	0.797520	0.585200
N301	N30	0.944600	0.667730	0.584400
N311	N31	0.850700	0.651570	0.642140
N321	N32	0.762100	0.777240	0.640340
O11	O1	0.596700	0.817890	0.332090
O21	O2	0.423300	0.838600	0.304970
O31	O3	0.521800	0.360260	0.137620
O41	O4	0.680600	0.330040	0.112650
O51	O5	0.164200	0.752840	0.926520
O61	O6	0.263500	0.666610	0.943230
O71	O7	0.267200	0.192960	0.136300
O81	O8	0.074100	0.223200	0.132840
O91	O9	0.166000	0.333800	0.140400
O101	O10	0.031000	0.346960	0.101880
O111	O11	0.701200	0.708760	0.917290
O121	O12	0.868100	0.690190	0.947480
O131	O13	0.564200	0.223940	0.112310
O141	O14	0.743800	0.191710	0.135070
O151	O15	0.116400	0.791060	0.318270
O161	O16	0.030700	0.881790	0.306050
O171	O17	0.903300	0.317890	0.167910
O181	O18	0.076700	0.338600	0.195030
O191	O19	0.978200	0.860260	0.362380
O201	O20	0.819400	0.830040	0.387350
O211	O21	0.335800	0.252840	0.573480
O221	O22	0.236500	0.166610	0.556770
O231	O23	0.232800	0.692960	0.363700
O241	O24	0.425900	0.723200	0.367160
O251	O25	0.334000	0.833800	0.359600
O261	O26	0.469000	0.846960	0.398120
O271	O27	0.798800	0.208760	0.582710
O281	O28	0.631900	0.190190	0.552520
O291	O29	0.935800	0.723940	0.387690
O301	O30	0.756200	0.691710	0.364930
O311	O31	0.383600	0.291060	0.181730
O321	O32	0.469300	0.381790	0.193950
O331	O33	0.403300	0.182110	0.667910
O341	O34	0.576700	0.161400	0.695030
O351	O35	0.478200	0.639740	0.862380
O361	O36	0.319400	0.669960	0.887350
O371	O37	0.835800	0.247160	0.073480
O381	O38	0.736500	0.333390	0.056770
O391	O39	0.732800	0.807040	0.863700
O401	O40	0.925900	0.776800	0.867160
O411	O41	0.834000	0.666200	0.859600
O421	O42	0.969000	0.653040	0.898120
O431	O43	0.298800	0.291240	0.082710
O441	O44	0.131900	0.309810	0.052520
O451	O45	0.435800	0.776060	0.887690
O461	O46	0.256200	0.808290	0.864930
O471	O47	0.883600	0.208940	0.681730
O481	O48	0.969300	0.118210	0.693950
O491	O49	0.096700	0.682110	0.832090
O501	O50	0.923300	0.661400	0.804970
O511	O51	0.021800	0.139740	0.637620
O521	O52	0.180600	0.169960	0.612650
O531	O53	0.664200	0.747160	0.426520
O541	O54	0.763500	0.833390	0.443230
O551	O55	0.767200	0.307040	0.636300
O561	O56	0.574100	0.276800	0.632840
O571	O57	0.666000	0.166200	0.640400
O581	O58	0.531000	0.153040	0.601880
O591	O59	0.201200	0.791240	0.417290
O601	O60	0.368100	0.809810	0.447480
O611	O61	0.064200	0.276060	0.612310
O621	O62	0.243800	0.308290	0.635070
O631	O63	0.616400	0.708940	0.818270
O641	O64	0.530700	0.618210	0.806050
