data_ECEDEY_clean_PM
_symmetry_space_group_name_H-M	'P1'
_cell_length_a	11.432500
_cell_length_b	23.171000
_cell_length_c	9.785200
_cell_angle_alpha	90.000000
_cell_angle_beta	102.152000
_cell_angle_gamma	90.000000
_symmetry_Int_Tables_number 1

loop_
_symmetry_equiv_pos_as_xyz
'x,y,z'

loop_
_atom_site_label
_atom_site_type_symbol
_atom_site_fract_x
_atom_site_fract_y
_atom_site_fract_z
O11	O1	0.196000	0.145860	0.719400
O21	O2	0.277000	0.233690	0.732500
O31	O3	0.656000	0.208880	0.357200
H11	H1	0.694500	0.235800	0.334600
O41	O4	0.541800	0.279160	0.411100
C11	C1	0.427500	0.202020	0.559800
H21	H2	0.413000	0.241200	0.569300
C21	C2	0.386300	0.103420	0.606100
H31	H3	0.343700	0.076400	0.646100
C31	C3	0.511800	0.184370	0.485200
C41	C4	0.364700	0.161690	0.620000
C51	C5	0.271400	0.181070	0.696900
C61	C6	0.534600	0.126150	0.472300
H41	H4	0.592000	0.114400	0.423500
C71	C7	0.492200	0.024600	0.511400
C81	C8	0.471600	0.084940	0.532400
C91	C9	0.573600	0.228590	0.413900
O51	O5	0.696000	0.645860	0.719400
O61	O6	0.777000	0.733690	0.732500
O71	O7	0.156000	0.708880	0.357200
H51	H5	0.194500	0.735800	0.334600
O81	O8	0.041800	0.779160	0.411100
C101	C10	0.927500	0.702020	0.559800
H61	H6	0.913000	0.741200	0.569300
C111	C11	0.886300	0.603420	0.606100
H71	H7	0.843700	0.576400	0.646100
C121	C12	0.011800	0.684370	0.485200
C131	C13	0.864700	0.661690	0.620000
C141	C14	0.771400	0.681070	0.696900
C151	C15	0.034600	0.626150	0.472300
H81	H8	0.092000	0.614400	0.423500
C161	C16	0.992200	0.524600	0.511400
C171	C17	0.971600	0.584940	0.532400
C181	C18	0.073600	0.728590	0.413900
O91	O9	0.804000	0.145860	0.780600
O101	O10	0.723000	0.233690	0.767500
O111	O11	0.344000	0.208880	0.142800
H91	H9	0.305500	0.235800	0.165400
O121	O12	0.458200	0.279160	0.088900
C191	C19	0.572500	0.202020	0.940200
H101	H10	0.587000	0.241200	0.930700
C201	C20	0.613700	0.103420	0.893900
H111	H11	0.656300	0.076400	0.853900
C211	C21	0.488200	0.184370	0.014800
C221	C22	0.635300	0.161690	0.880000
C231	C23	0.728600	0.181070	0.803100
C241	C24	0.465400	0.126150	0.027700
H121	H12	0.408000	0.114400	0.076500
C251	C25	0.507800	0.024600	0.988600
C261	C26	0.528400	0.084940	0.967600
C271	C27	0.426400	0.228590	0.086100
O131	O13	0.304000	0.645860	0.780600
O141	O14	0.223000	0.733690	0.767500
O151	O15	0.844000	0.708880	0.142800
H131	H13	0.805500	0.735800	0.165400
O161	O16	0.958200	0.779160	0.088900
C281	C28	0.072500	0.702020	0.940200
H141	H14	0.087000	0.741200	0.930700
C291	C29	0.113700	0.603420	0.893900
H151	H15	0.156300	0.576400	0.853900
C301	C30	0.988200	0.684370	0.014800
C311	C31	0.135300	0.661690	0.880000
C321	C32	0.228600	0.681070	0.803100
C331	C33	0.965400	0.626150	0.027700
H161	H16	0.908000	0.614400	0.076500
C341	C34	0.007800	0.524600	0.988600
C351	C35	0.028400	0.584940	0.967600
C361	C36	0.926400	0.728590	0.086100
O171	O17	0.804000	0.854140	0.280600
O181	O18	0.723000	0.766310	0.267500
O191	O19	0.344000	0.791120	0.642800
H171	H17	0.305500	0.764200	0.665400
O201	O20	0.458200	0.720840	0.588900
C371	C37	0.572500	0.797980	0.440200
H181	H18	0.587000	0.758800	0.430700
C381	C38	0.613700	0.896580	0.393900
H191	H19	0.656300	0.923600	0.353900
C391	C39	0.488200	0.815630	0.514800
C401	C40	0.635300	0.838310	0.380000
C411	C41	0.728600	0.818930	0.303100
C421	C42	0.465400	0.873850	0.527700
H201	H20	0.408000	0.885600	0.576500
C431	C43	0.507800	0.975400	0.488600
C441	C44	0.528400	0.915060	0.467600
C451	C45	0.426400	0.771410	0.586100
O211	O21	0.304000	0.354140	0.280600
O221	O22	0.223000	0.266310	0.267500
O231	O23	0.844000	0.291120	0.642800
H211	H21	0.805500	0.264200	0.665400
O241	O24	0.958200	0.220840	0.588900
C461	C46	0.072500	0.297980	0.440200
H221	H22	0.087000	0.258800	0.430700
C471	C47	0.113700	0.396580	0.393900
H231	H23	0.156300	0.423600	0.353900
C481	C48	0.988200	0.315630	0.514800
C491	C49	0.135300	0.338310	0.380000
C501	C50	0.228600	0.318930	0.303100
C511	C51	0.965400	0.373850	0.527700
H241	H24	0.908000	0.385600	0.576500
C521	C52	0.007800	0.475400	0.488600
C531	C53	0.028400	0.415060	0.467600
C541	C54	0.926400	0.271410	0.586100
O251	O25	0.196000	0.854140	0.219400
O261	O26	0.277000	0.766310	0.232500
O271	O27	0.656000	0.791120	0.857200
H251	H25	0.694500	0.764200	0.834600
O281	O28	0.541800	0.720840	0.911100
C551	C55	0.427500	0.797980	0.059800
H261	H26	0.413000	0.758800	0.069300
C561	C56	0.386300	0.896580	0.106100
H271	H27	0.343700	0.923600	0.146100
C571	C57	0.511800	0.815630	0.985200
C581	C58	0.364700	0.838310	0.120000
C591	C59	0.271400	0.818930	0.196900
C601	C60	0.534600	0.873850	0.972300
H281	H28	0.592000	0.885600	0.923500
C611	C61	0.492200	0.975400	0.011400
C621	C62	0.471600	0.915060	0.032400
C631	C63	0.573600	0.771410	0.913900
O291	O29	0.696000	0.354140	0.219400
O301	O30	0.777000	0.266310	0.232500
O311	O31	0.156000	0.291120	0.857200
H291	H29	0.194500	0.264200	0.834600
O321	O32	0.041800	0.220840	0.911100
C641	C64	0.927500	0.297980	0.059800
H301	H30	0.913000	0.258800	0.069300
C651	C65	0.886300	0.396580	0.106100
H311	H31	0.843700	0.423600	0.146100
C661	C66	0.011800	0.315630	0.985200
C671	C67	0.864700	0.338310	0.120000
C681	C68	0.771400	0.318930	0.196900
C691	C69	0.034600	0.373850	0.972300
H321	H32	0.092000	0.385600	0.923500
C701	C70	0.992200	0.475400	0.011400
C711	C71	0.971600	0.415060	0.032400
C721	C72	0.073600	0.271410	0.913900
Ca11	Ca1	0.000000	0.146140	0.750000
Ca21	Ca2	0.500000	0.646140	0.750000
Ca31	Ca3	0.000000	0.853860	0.250000
Ca41	Ca4	0.500000	0.353860	0.250000
