data_ECIWIW_clean_PM
_symmetry_space_group_name_H-M	'P1'
_cell_length_a	22.920000
_cell_length_b	28.738000
_cell_length_c	22.999000
_cell_angle_alpha	90.000000
_cell_angle_beta	94.908000
_cell_angle_gamma	90.000000
_symmetry_Int_Tables_number 1

loop_
_symmetry_equiv_pos_as_xyz
'x,y,z'

loop_
_atom_site_label
_atom_site_type_symbol
_atom_site_fract_x
_atom_site_fract_y
_atom_site_fract_z
Cd11	Cd1	0.232550	0.436460	0.342080
Cd21	Cd2	0.731130	0.687360	0.346660
C11	C1	0.903100	0.629900	0.347100
O11	O1	0.810500	0.648600	0.379900
O21	O2	0.271300	0.393800	0.272300
O31	O3	0.206800	0.444100	0.229300
O41	O4	0.206100	0.391500	0.413200
C21	C2	0.237100	0.370600	0.508400
O51	O5	0.273500	0.436100	0.460600
O61	O6	0.657600	0.641700	0.303700
C31	C3	0.565200	0.626000	0.336400
O71	O7	0.626600	0.690100	0.366600
O81	O8	0.844000	0.693500	0.312200
C41	C4	0.187100	0.313300	0.563500
H11	H1	0.153900	0.294000	0.566200
C51	C5	0.282100	0.371600	0.554100
H21	H2	0.314600	0.391700	0.551000
C61	C6	0.941500	0.634500	0.303300
H31	H3	0.933800	0.656200	0.272400
C71	C7	0.288600	0.324500	0.115400
H41	H4	0.317700	0.301200	0.112700
C81	C8	0.848700	0.661400	0.344900
C91	C9	0.285600	0.348800	0.167000
H51	H5	0.311000	0.340400	0.200100
C101	C10	0.004700	0.574100	0.348600
C111	C11	0.991900	0.606200	0.306300
H61	H6	0.018300	0.609800	0.277000
C121	C12	0.962000	0.568300	0.390700
H71	H7	0.967500	0.544800	0.419600
C131	C13	0.914400	0.595700	0.389300
H81	H8	0.887600	0.591600	0.418100
C141	C14	0.246500	0.385200	0.171400
C151	C15	0.191100	0.339800	0.513700
H91	H9	0.161600	0.336800	0.482300
C161	C16	0.237400	0.408500	0.227100
C171	C17	0.526300	0.635200	0.379600
H101	H10	0.534200	0.660000	0.406400
C181	C18	0.619100	0.655300	0.335900
C191	C19	0.551200	0.593000	0.296100
H111	H11	0.575100	0.588900	0.264800
C201	C20	0.241600	0.401700	0.457900
N11	N1	0.155600	0.485800	0.347300
C211	C21	0.054700	0.544700	0.349000
C221	C22	0.088300	0.541600	0.301100
H121	H12	0.076800	0.559000	0.266900
C231	C23	0.137500	0.514100	0.302200
H131	H13	0.160200	0.515000	0.269400
C241	C24	0.074700	0.514800	0.395300
H141	H14	0.054800	0.514100	0.429900
C251	C25	0.122900	0.486400	0.390800
H151	H15	0.132900	0.465600	0.422200
N21	N2	0.222000	0.236000	0.767300
C261	C26	0.260200	0.299300	0.716800
H161	H16	0.284700	0.326000	0.718500
C271	C27	0.192000	0.225000	0.718700
H171	H17	0.167300	0.198500	0.719000
C281	C28	0.228600	0.287500	0.664400
C291	C29	0.256500	0.273200	0.765000
H181	H18	0.279800	0.281900	0.799400
C301	C30	0.231700	0.314300	0.611200
C311	C31	0.193100	0.249000	0.666500
H191	H19	0.169800	0.238900	0.632700
C321	C32	0.280500	0.344400	0.603300
H201	H20	0.312400	0.345500	0.632500
C331	C33	0.502500	0.565000	0.299400
H211	H21	0.496400	0.539300	0.273600
N31	N3	0.307000	0.491200	0.345500
C341	C34	0.462300	0.573900	0.340200
C351	C35	0.379600	0.538400	0.392300
H221	H22	0.393800	0.552600	0.428000
C361	C36	0.407500	0.546200	0.343300
C371	C37	0.332800	0.511400	0.390500
H231	H23	0.316400	0.506400	0.426500
C381	C38	0.381100	0.525300	0.290300
H241	H24	0.395400	0.531200	0.253500
C391	C39	0.476300	0.607900	0.382700
H251	H25	0.451900	0.612400	0.413600
C401	C40	0.334700	0.497000	0.295900
H261	H26	0.320400	0.479600	0.262500
N41	N4	0.241300	0.244100	0.916800
C411	C41	0.197900	0.271100	0.931200
H271	H27	0.162600	0.269500	0.906300
C421	C42	0.208300	0.370300	0.070300
H281	H28	0.181700	0.377600	0.037500
C431	C43	0.249500	0.333800	0.067800
C441	C44	0.207600	0.395200	0.121900
H291	H29	0.180200	0.419800	0.124000
C451	C45	0.248600	0.305200	0.013800
C461	C46	0.292200	0.249000	0.953000
H301	H30	0.325000	0.230300	0.945600
C471	C47	0.197700	0.301100	0.977600
H311	H31	0.163700	0.318400	0.984500
C481	C48	0.297800	0.279100	0.998600
H321	H32	0.334600	0.282800	0.020400
Cd31	Cd3	0.732550	0.936460	0.842080
Cd41	Cd4	0.231130	0.187360	0.846660
C491	C49	0.403100	0.129900	0.847100
O91	O9	0.310500	0.148600	0.879900
O101	O10	0.771300	0.893800	0.772300
O111	O11	0.706800	0.944100	0.729300
O121	O12	0.706100	0.891500	0.913200
C501	C50	0.737100	0.870600	0.008400
O131	O13	0.773500	0.936100	0.960600
O141	O14	0.157600	0.141700	0.803700
C511	C51	0.065200	0.126000	0.836400
O151	O15	0.126600	0.190100	0.866600
O161	O16	0.344000	0.193500	0.812200
C521	C52	0.687100	0.813300	0.063500
H331	H33	0.653900	0.794000	0.066200
C531	C53	0.782100	0.871600	0.054100
H341	H34	0.814600	0.891700	0.051000
C541	C54	0.441500	0.134500	0.803300
H351	H35	0.433800	0.156200	0.772400
C551	C55	0.788600	0.824500	0.615400
H361	H36	0.817700	0.801200	0.612700
C561	C56	0.348700	0.161400	0.844900
C571	C57	0.785600	0.848800	0.667000
H371	H37	0.811000	0.840400	0.700100
C581	C58	0.504700	0.074100	0.848600
C591	C59	0.491900	0.106200	0.806300
H381	H38	0.518300	0.109800	0.777000
C601	C60	0.462000	0.068300	0.890700
H391	H39	0.467500	0.044800	0.919600
C611	C61	0.414400	0.095700	0.889300
H401	H40	0.387600	0.091600	0.918100
C621	C62	0.746500	0.885200	0.671400
C631	C63	0.691100	0.839800	0.013700
H411	H41	0.661600	0.836800	0.982300
C641	C64	0.737400	0.908500	0.727100
C651	C65	0.026300	0.135200	0.879600
H421	H42	0.034200	0.160000	0.906400
C661	C66	0.119100	0.155300	0.835900
C671	C67	0.051200	0.093000	0.796100
H431	H43	0.075100	0.088900	0.764800
C681	C68	0.741600	0.901700	0.957900
N51	N5	0.655600	0.985800	0.847300
C691	C69	0.554700	0.044700	0.849000
C701	C70	0.588300	0.041600	0.801100
H441	H44	0.576800	0.059000	0.766900
C711	C71	0.637500	0.014100	0.802200
H451	H45	0.660200	0.015000	0.769400
C721	C72	0.574700	0.014800	0.895300
H461	H46	0.554800	0.014100	0.929900
C731	C73	0.622900	0.986400	0.890800
H471	H47	0.632900	0.965600	0.922200
N61	N6	0.722000	0.736000	0.267300
C741	C74	0.760200	0.799300	0.216800
H481	H48	0.784700	0.826000	0.218500
C751	C75	0.692000	0.725000	0.218700
H491	H49	0.667300	0.698500	0.219000
C761	C76	0.728600	0.787500	0.164400
C771	C77	0.756500	0.773200	0.265000
H501	H50	0.779800	0.781900	0.299400
C781	C78	0.731700	0.814300	0.111200
C791	C79	0.693100	0.749000	0.166500
H511	H51	0.669800	0.738900	0.132700
C801	C80	0.780500	0.844400	0.103300
H521	H52	0.812400	0.845500	0.132500
C811	C81	0.002500	0.065000	0.799400
H531	H53	0.996400	0.039300	0.773600
N71	N7	0.807000	0.991200	0.845500
C821	C82	0.962300	0.073900	0.840200
C831	C83	0.879600	0.038400	0.892300
H541	H54	0.893800	0.052600	0.928000
C841	C84	0.907500	0.046200	0.843300
C851	C85	0.832800	0.011400	0.890500
H551	H55	0.816400	0.006400	0.926500
C861	C86	0.881100	0.025300	0.790300
H561	H56	0.895400	0.031200	0.753500
C871	C87	0.976300	0.107900	0.882700
H571	H57	0.951900	0.112400	0.913600
C881	C88	0.834700	0.997000	0.795900
H581	H58	0.820400	0.979600	0.762500
N81	N8	0.741300	0.744100	0.416800
C891	C89	0.697900	0.771100	0.431200
H591	H59	0.662600	0.769500	0.406300
C901	C90	0.708300	0.870300	0.570300
H601	H60	0.681700	0.877600	0.537500
C911	C91	0.749500	0.833800	0.567800
C921	C92	0.707600	0.895200	0.621900
H611	H61	0.680200	0.919800	0.624000
C931	C93	0.748600	0.805200	0.513800
C941	C94	0.792200	0.749000	0.453000
H621	H62	0.825000	0.730300	0.445600
C951	C95	0.697700	0.801100	0.477600
H631	H63	0.663700	0.818400	0.484500
C961	C96	0.797800	0.779100	0.498600
H641	H64	0.834600	0.782800	0.520400
Cd51	Cd5	0.883500	0.127000	0.049010
O171	O17	0.861000	0.141500	0.952200
O181	O18	0.982900	0.114400	0.050500
C971	C97	0.877200	0.182200	0.955600
O191	O19	0.894200	0.202300	0.003600
C981	C98	0.883800	0.210900	0.900300
C991	C99	0.137000	0.990900	0.053300
O201	O20	0.930700	0.052000	0.052600
C1001	C100	0.980900	0.070300	0.054300
C1011	C101	0.032600	0.043000	0.053300
C1021	C102	0.189700	0.963600	0.053100
C1031	C103	0.138300	0.039400	0.049400
H651	H65	0.174400	0.055100	0.046900
C1041	C104	0.869000	0.185700	0.846300
H661	H66	0.859300	0.153600	0.845700
C1051	C105	0.085900	0.064800	0.049300
H671	H67	0.087200	0.097800	0.046500
C1061	C106	0.900000	0.253900	0.900200
H681	H68	0.909200	0.269000	0.936600
C1071	C107	0.030700	0.994900	0.057000
H691	H69	0.994500	0.979500	0.060400
C1081	C108	0.084400	0.968400	0.055500
H701	H70	0.083200	0.935300	0.056100
C1091	C109	0.246800	0.983300	0.072300
H711	H71	0.249300	0.015100	0.083200
C1101	C110	0.193600	0.921300	0.032300
H721	H72	0.159200	0.907500	0.013600
N91	N9	0.296300	0.914200	0.053800
C1111	C111	0.296700	0.957100	0.075000
H731	H73	0.332300	0.969900	0.092300
C1121	C112	0.246700	0.894800	0.036000
H741	H74	0.245700	0.862800	0.025500
N101	N10	0.881700	0.332900	0.633300
C1131	C113	0.888100	0.257500	0.794200
C1141	C114	0.886600	0.283600	0.740300
C1151	C115	0.904600	0.278800	0.849500
H751	H75	0.918500	0.310000	0.851200
C1161	C116	0.870100	0.212500	0.794700
H761	H76	0.857500	0.198200	0.758500
C1171	C117	0.885600	0.333200	0.738300
H771	H77	0.885700	0.350800	0.773300
C1181	C118	0.884500	0.354800	0.686700
H781	H78	0.885800	0.387800	0.686900
C1191	C119	0.887700	0.261800	0.686400
H791	H79	0.889500	0.228800	0.684900
C1201	C120	0.886100	0.287400	0.634000
H801	H80	0.888400	0.271200	0.598200
Cd61	Cd6	0.383500	0.627000	0.549010
O211	O21	0.361000	0.641500	0.452200
O221	O22	0.482900	0.614400	0.550500
C1211	C121	0.377200	0.682200	0.455600
O231	O23	0.394200	0.702300	0.503600
C1221	C122	0.383800	0.710900	0.400300
C1231	C123	0.637000	0.490900	0.553300
O241	O24	0.430700	0.552000	0.552600
C1241	C124	0.480900	0.570300	0.554300
C1251	C125	0.532600	0.543000	0.553300
C1261	C126	0.689700	0.463600	0.553100
C1271	C127	0.638300	0.539400	0.549400
H811	H81	0.674400	0.555100	0.546900
C1281	C128	0.369000	0.685700	0.346300
H821	H82	0.359300	0.653600	0.345700
C1291	C129	0.585900	0.564800	0.549300
H831	H83	0.587200	0.597800	0.546500
C1301	C130	0.400000	0.753900	0.400200
H841	H84	0.409200	0.769000	0.436600
C1311	C131	0.530700	0.494900	0.557000
H851	H85	0.494500	0.479500	0.560400
C1321	C132	0.584400	0.468400	0.555500
H861	H86	0.583200	0.435300	0.556100
C1331	C133	0.746800	0.483300	0.572300
H871	H87	0.749300	0.515100	0.583200
C1341	C134	0.693600	0.421300	0.532300
H881	H88	0.659200	0.407500	0.513600
N111	N11	0.796300	0.414200	0.553800
C1351	C135	0.796700	0.457100	0.575000
H891	H89	0.832300	0.469900	0.592300
C1361	C136	0.746700	0.394800	0.536000
H901	H90	0.745700	0.362800	0.525500
N121	N12	0.381700	0.832900	0.133300
C1371	C137	0.388100	0.757500	0.294200
C1381	C138	0.386600	0.783600	0.240300
C1391	C139	0.404600	0.778800	0.349500
H911	H91	0.418500	0.810000	0.351200
C1401	C140	0.370100	0.712500	0.294700
H921	H92	0.357500	0.698200	0.258500
C1411	C141	0.385600	0.833200	0.238300
H931	H93	0.385700	0.850800	0.273300
C1421	C142	0.384500	0.854800	0.186700
H941	H94	0.385800	0.887800	0.186900
C1431	C143	0.387700	0.761800	0.186400
H951	H95	0.389500	0.728800	0.184900
C1441	C144	0.386100	0.787400	0.134000
H961	H96	0.388400	0.771200	0.098200
Cd71	Cd7	0.383500	0.873000	0.049010
O251	O25	0.361000	0.858500	0.952200
O261	O26	0.482900	0.885600	0.050500
C1451	C145	0.377200	0.817800	0.955600
O271	O27	0.394200	0.797700	0.003600
C1461	C146	0.383800	0.789100	0.900300
C1471	C147	0.637000	0.009100	0.053300
O281	O28	0.430700	0.948000	0.052600
C1481	C148	0.480900	0.929700	0.054300
C1491	C149	0.532600	0.957000	0.053300
C1501	C150	0.689700	0.036400	0.053100
C1511	C151	0.638300	0.960600	0.049400
H971	H97	0.674400	0.944900	0.046900
C1521	C152	0.369000	0.814300	0.846300
H981	H98	0.359300	0.846400	0.845700
C1531	C153	0.585900	0.935200	0.049300
H991	H99	0.587200	0.902200	0.046500
C1541	C154	0.400000	0.746100	0.900200
H1001	H100	0.409200	0.731000	0.936600
C1551	C155	0.530700	0.005100	0.057000
H1011	H101	0.494500	0.020500	0.060400
C1561	C156	0.584400	0.031600	0.055500
H1021	H102	0.583200	0.064700	0.056100
C1571	C157	0.746800	0.016700	0.072300
H1031	H103	0.749300	0.984900	0.083200
C1581	C158	0.693600	0.078700	0.032300
H1041	H104	0.659200	0.092500	0.013600
N131	N13	0.796300	0.085800	0.053800
C1591	C159	0.796700	0.042900	0.075000
H1051	H105	0.832300	0.030100	0.092300
C1601	C160	0.746700	0.105200	0.036000
H1061	H106	0.745700	0.137200	0.025500
N141	N14	0.381700	0.667100	0.633300
C1611	C161	0.388100	0.742500	0.794200
C1621	C162	0.386600	0.716400	0.740300
C1631	C163	0.404600	0.721200	0.849500
H1071	H107	0.418500	0.690000	0.851200
C1641	C164	0.370100	0.787500	0.794700
H1081	H108	0.357500	0.801800	0.758500
C1651	C165	0.385600	0.666800	0.738300
H1091	H109	0.385700	0.649200	0.773300
C1661	C166	0.384500	0.645200	0.686700
H1101	H110	0.385800	0.612200	0.686900
C1671	C167	0.387700	0.738200	0.686400
H1111	H111	0.389500	0.771200	0.684900
C1681	C168	0.386100	0.712600	0.634000
H1121	H112	0.388400	0.728800	0.598200
Cd81	Cd8	0.883500	0.373000	0.549010
O291	O29	0.861000	0.358500	0.452200
O301	O30	0.982900	0.385600	0.550500
C1691	C169	0.877200	0.317800	0.455600
O311	O31	0.894200	0.297700	0.503600
C1701	C170	0.883800	0.289100	0.400300
C1711	C171	0.137000	0.509100	0.553300
O321	O32	0.930700	0.448000	0.552600
C1721	C172	0.980900	0.429700	0.554300
C1731	C173	0.032600	0.457000	0.553300
C1741	C174	0.189700	0.536400	0.553100
C1751	C175	0.138300	0.460600	0.549400
H1131	H113	0.174400	0.444900	0.546900
C1761	C176	0.869000	0.314300	0.346300
H1141	H114	0.859300	0.346400	0.345700
C1771	C177	0.085900	0.435200	0.549300
H1151	H115	0.087200	0.402200	0.546500
C1781	C178	0.900000	0.246100	0.400200
H1161	H116	0.909200	0.231000	0.436600
C1791	C179	0.030700	0.505100	0.557000
H1171	H117	0.994500	0.520500	0.560400
C1801	C180	0.084400	0.531600	0.555500
H1181	H118	0.083200	0.564700	0.556100
C1811	C181	0.246800	0.516700	0.572300
H1191	H119	0.249300	0.484900	0.583200
C1821	C182	0.193600	0.578700	0.532300
H1201	H120	0.159200	0.592500	0.513600
N151	N15	0.296300	0.585800	0.553800
C1831	C183	0.296700	0.542900	0.575000
H1211	H121	0.332300	0.530100	0.592300
C1841	C184	0.246700	0.605200	0.536000
H1221	H122	0.245700	0.637200	0.525500
N161	N16	0.881700	0.167100	0.133300
C1851	C185	0.888100	0.242500	0.294200
C1861	C186	0.886600	0.216400	0.240300
C1871	C187	0.904600	0.221200	0.349500
H1231	H123	0.918500	0.190000	0.351200
C1881	C188	0.870100	0.287500	0.294700
H1241	H124	0.857500	0.301800	0.258500
C1891	C189	0.885600	0.166800	0.238300
H1251	H125	0.885700	0.149200	0.273300
C1901	C190	0.884500	0.145200	0.186700
H1261	H126	0.885800	0.112200	0.186900
C1911	C191	0.887700	0.238200	0.186400
H1271	H127	0.889500	0.271200	0.184900
C1921	C192	0.886100	0.212600	0.134000
H1281	H128	0.888400	0.228800	0.098200
Cd91	Cd9	0.045790	0.374300	0.870580
O331	O33	0.059900	0.367500	0.970900
O341	O34	0.039300	0.305000	0.921100
O351	O35	0.948600	0.393000	0.863800
C1931	C193	0.045800	0.299800	0.024200
C1941	C194	0.047600	0.325700	0.968600
C1951	C195	0.055200	0.318700	0.078600
H1291	H129	0.065000	0.350800	0.081400
C1961	C196	0.955700	0.436100	0.867700
C1971	C197	0.901200	0.466500	0.869000
O361	O36	0.006300	0.452800	0.865600
C1981	C198	0.847400	0.444600	0.874400
H1301	H130	0.845200	0.411700	0.877400
N171	N17	0.635500	0.593800	0.867100
C1991	C199	0.903300	0.513900	0.867200
H1311	H131	0.940100	0.528800	0.865500
C2001	C200	0.802600	0.520100	0.871800
C2011	C201	0.744400	0.546800	0.872100
C2021	C202	0.798000	0.471300	0.875400
H1321	H132	0.761000	0.457100	0.878500
C2031	C203	0.856900	0.539000	0.867500
H1331	H133	0.860400	0.571800	0.864800
C2041	C204	0.696400	0.530000	0.898000
H1341	H134	0.699900	0.502700	0.921200
C2051	C205	0.737900	0.591100	0.847400
H1351	H135	0.770000	0.606000	0.831800
C2061	C206	0.645400	0.551900	0.890400
H1361	H136	0.612400	0.536000	0.902900
C2071	C207	0.685400	0.612200	0.845900
H1371	H137	0.682300	0.642400	0.828800
N181	N18	0.045900	0.166700	0.285800
C2081	C208	0.040000	0.248500	0.128700
C2091	C209	0.039300	0.219900	0.183300
C2101	C210	0.029300	0.225300	0.075100
H1381	H138	0.020600	0.193000	0.073400
C2111	C211	0.032100	0.252900	0.022500
H1391	H139	0.024300	0.238200	0.985600
C2121	C212	0.050500	0.213300	0.286800
H1401	H140	0.058700	0.228100	0.323500
C2131	C213	0.041200	0.146100	0.233000
H1411	H141	0.038900	0.113100	0.230500
C2141	C214	0.051500	0.294300	0.129200
H1421	H142	0.057300	0.310200	0.165500
C2151	C215	0.039600	0.171600	0.182900
H1431	H143	0.038600	0.155900	0.146500
C2161	C216	0.044400	0.239900	0.239100
H1441	H144	0.043400	0.272800	0.243100
Cd101	Cd10	0.545790	0.874300	0.370580
O371	O37	0.559900	0.867500	0.470900
O381	O38	0.539300	0.805000	0.421100
O391	O39	0.448600	0.893000	0.363800
C2171	C217	0.545800	0.799800	0.524200
C2181	C218	0.547600	0.825700	0.468600
C2191	C219	0.555200	0.818700	0.578600
H1451	H145	0.565000	0.850800	0.581400
C2201	C220	0.455700	0.936100	0.367700
C2211	C221	0.401200	0.966500	0.369000
O401	O40	0.506300	0.952800	0.365600
C2221	C222	0.347400	0.944600	0.374400
H1461	H146	0.345200	0.911700	0.377400
N191	N19	0.135500	0.093800	0.367100
C2231	C223	0.403300	0.013900	0.367200
H1471	H147	0.440100	0.028800	0.365500
C2241	C224	0.302600	0.020100	0.371800
C2251	C225	0.244400	0.046800	0.372100
C2261	C226	0.298000	0.971300	0.375400
H1481	H148	0.261000	0.957100	0.378500
C2271	C227	0.356900	0.039000	0.367500
H1491	H149	0.360400	0.071800	0.364800
C2281	C228	0.196400	0.030000	0.398000
H1501	H150	0.199900	0.002700	0.421200
C2291	C229	0.237900	0.091100	0.347400
H1511	H151	0.270000	0.106000	0.331800
C2301	C230	0.145400	0.051900	0.390400
H1521	H152	0.112400	0.036000	0.402900
C2311	C231	0.185400	0.112200	0.345900
H1531	H153	0.182300	0.142400	0.328800
N201	N20	0.545900	0.666700	0.785800
C2321	C232	0.540000	0.748500	0.628700
C2331	C233	0.539300	0.719900	0.683300
C2341	C234	0.529300	0.725300	0.575100
H1541	H154	0.520600	0.693000	0.573400
C2351	C235	0.532100	0.752900	0.522500
H1551	H155	0.524300	0.738200	0.485600
C2361	C236	0.550500	0.713300	0.786800
H1561	H156	0.558700	0.728100	0.823500
C2371	C237	0.541200	0.646100	0.733000
H1571	H157	0.538900	0.613100	0.730500
C2381	C238	0.551500	0.794300	0.629200
H1581	H158	0.557300	0.810200	0.665500
C2391	C239	0.539600	0.671600	0.682900
H1591	H159	0.538600	0.655900	0.646500
C2401	C240	0.544400	0.739900	0.739100
H1601	H160	0.543400	0.772800	0.743100
Cd111	Cd11	0.545790	0.625700	0.870580
O411	O41	0.559900	0.632500	0.970900
O421	O42	0.539300	0.695000	0.921100
O431	O43	0.448600	0.607000	0.863800
C2411	C241	0.545800	0.700200	0.024200
C2421	C242	0.547600	0.674300	0.968600
C2431	C243	0.555200	0.681300	0.078600
H1611	H161	0.565000	0.649200	0.081400
C2441	C244	0.455700	0.563900	0.867700
C2451	C245	0.401200	0.533500	0.869000
O441	O44	0.506300	0.547200	0.865600
C2461	C246	0.347400	0.555400	0.874400
H1621	H162	0.345200	0.588300	0.877400
N211	N21	0.135500	0.406200	0.867100
C2471	C247	0.403300	0.486100	0.867200
H1631	H163	0.440100	0.471200	0.865500
C2481	C248	0.302600	0.479900	0.871800
C2491	C249	0.244400	0.453200	0.872100
C2501	C250	0.298000	0.528700	0.875400
H1641	H164	0.261000	0.542900	0.878500
C2511	C251	0.356900	0.461000	0.867500
H1651	H165	0.360400	0.428200	0.864800
C2521	C252	0.196400	0.470000	0.898000
H1661	H166	0.199900	0.497300	0.921200
C2531	C253	0.237900	0.408900	0.847400
H1671	H167	0.270000	0.394000	0.831800
C2541	C254	0.145400	0.448100	0.890400
H1681	H168	0.112400	0.464000	0.902900
C2551	C255	0.185400	0.387800	0.845900
H1691	H169	0.182300	0.357600	0.828800
N221	N22	0.545900	0.833300	0.285800
C2561	C256	0.540000	0.751500	0.128700
C2571	C257	0.539300	0.780100	0.183300
C2581	C258	0.529300	0.774700	0.075100
H1701	H170	0.520600	0.807000	0.073400
C2591	C259	0.532100	0.747100	0.022500
H1711	H171	0.524300	0.761800	0.985600
C2601	C260	0.550500	0.786700	0.286800
H1721	H172	0.558700	0.771900	0.323500
C2611	C261	0.541200	0.853900	0.233000
H1731	H173	0.538900	0.886900	0.230500
C2621	C262	0.551500	0.705700	0.129200
H1741	H174	0.557300	0.689800	0.165500
C2631	C263	0.539600	0.828400	0.182900
H1751	H175	0.538600	0.844100	0.146500
C2641	C264	0.544400	0.760100	0.239100
H1761	H176	0.543400	0.727200	0.243100
Cd121	Cd12	0.045790	0.125700	0.370580
O451	O45	0.059900	0.132500	0.470900
O461	O46	0.039300	0.195000	0.421100
O471	O47	0.948600	0.107000	0.363800
C2651	C265	0.045800	0.200200	0.524200
C2661	C266	0.047600	0.174300	0.468600
C2671	C267	0.055200	0.181300	0.578600
H1771	H177	0.065000	0.149200	0.581400
C2681	C268	0.955700	0.063900	0.367700
C2691	C269	0.901200	0.033500	0.369000
O481	O48	0.006300	0.047200	0.365600
C2701	C270	0.847400	0.055400	0.374400
H1781	H178	0.845200	0.088300	0.377400
N231	N23	0.635500	0.906200	0.367100
C2711	C271	0.903300	0.986100	0.367200
H1791	H179	0.940100	0.971200	0.365500
C2721	C272	0.802600	0.979900	0.371800
C2731	C273	0.744400	0.953200	0.372100
C2741	C274	0.798000	0.028700	0.375400
H1801	H180	0.761000	0.042900	0.378500
C2751	C275	0.856900	0.961000	0.367500
H1811	H181	0.860400	0.928200	0.364800
C2761	C276	0.696400	0.970000	0.398000
H1821	H182	0.699900	0.997300	0.421200
C2771	C277	0.737900	0.908900	0.347400
H1831	H183	0.770000	0.894000	0.331800
C2781	C278	0.645400	0.948100	0.390400
H1841	H184	0.612400	0.964000	0.402900
C2791	C279	0.685400	0.887800	0.345900
H1851	H185	0.682300	0.857600	0.328800
N241	N24	0.045900	0.333300	0.785800
C2801	C280	0.040000	0.251500	0.628700
C2811	C281	0.039300	0.280100	0.683300
C2821	C282	0.029300	0.274700	0.575100
H1861	H186	0.020600	0.307000	0.573400
C2831	C283	0.032100	0.247100	0.522500
H1871	H187	0.024300	0.261800	0.485600
C2841	C284	0.050500	0.286700	0.786800
H1881	H188	0.058700	0.271900	0.823500
C2851	C285	0.041200	0.353900	0.733000
H1891	H189	0.038900	0.386900	0.730500
C2861	C286	0.051500	0.205700	0.629200
H1901	H190	0.057300	0.189800	0.665500
C2871	C287	0.039600	0.328400	0.682900
H1911	H191	0.038600	0.344100	0.646500
C2881	C288	0.044400	0.260100	0.739100
H1921	H192	0.043400	0.227200	0.743100
Cd131	Cd13	0.732550	0.563540	0.342080
Cd141	Cd14	0.231130	0.312640	0.346660
C2891	C289	0.403100	0.370100	0.347100
O491	O49	0.310500	0.351400	0.379900
O501	O50	0.771300	0.606200	0.272300
O511	O51	0.706800	0.555900	0.229300
O521	O52	0.706100	0.608500	0.413200
C2901	C290	0.737100	0.629400	0.508400
O531	O53	0.773500	0.563900	0.460600
O541	O54	0.157600	0.358300	0.303700
C2911	C291	0.065200	0.374000	0.336400
O551	O55	0.126600	0.309900	0.366600
O561	O56	0.344000	0.306500	0.312200
C2921	C292	0.687100	0.686700	0.563500
H1931	H193	0.653900	0.706000	0.566200
C2931	C293	0.782100	0.628400	0.554100
H1941	H194	0.814600	0.608300	0.551000
C2941	C294	0.441500	0.365500	0.303300
H1951	H195	0.433800	0.343800	0.272400
C2951	C295	0.788600	0.675500	0.115400
H1961	H196	0.817700	0.698800	0.112700
C2961	C296	0.348700	0.338600	0.344900
C2971	C297	0.785600	0.651200	0.167000
H1971	H197	0.811000	0.659600	0.200100
C2981	C298	0.504700	0.425900	0.348600
C2991	C299	0.491900	0.393800	0.306300
H1981	H198	0.518300	0.390200	0.277000
C3001	C300	0.462000	0.431700	0.390700
H1991	H199	0.467500	0.455200	0.419600
C3011	C301	0.414400	0.404300	0.389300
H2001	H200	0.387600	0.408400	0.418100
C3021	C302	0.746500	0.614800	0.171400
C3031	C303	0.691100	0.660200	0.513700
H2011	H201	0.661600	0.663200	0.482300
C3041	C304	0.737400	0.591500	0.227100
C3051	C305	0.026300	0.364800	0.379600
H2021	H202	0.034200	0.340000	0.406400
C3061	C306	0.119100	0.344700	0.335900
C3071	C307	0.051200	0.407000	0.296100
H2031	H203	0.075100	0.411100	0.264800
C3081	C308	0.741600	0.598300	0.457900
N251	N25	0.655600	0.514200	0.347300
C3091	C309	0.554700	0.455300	0.349000
C3101	C310	0.588300	0.458400	0.301100
H2041	H204	0.576800	0.441000	0.266900
C3111	C311	0.637500	0.485900	0.302200
H2051	H205	0.660200	0.485000	0.269400
C3121	C312	0.574700	0.485200	0.395300
H2061	H206	0.554800	0.485900	0.429900
C3131	C313	0.622900	0.513600	0.390800
H2071	H207	0.632900	0.534400	0.422200
N261	N26	0.722000	0.764000	0.767300
C3141	C314	0.760200	0.700700	0.716800
H2081	H208	0.784700	0.674000	0.718500
C3151	C315	0.692000	0.775000	0.718700
H2091	H209	0.667300	0.801500	0.719000
C3161	C316	0.728600	0.712500	0.664400
C3171	C317	0.756500	0.726800	0.765000
H2101	H210	0.779800	0.718100	0.799400
C3181	C318	0.731700	0.685700	0.611200
C3191	C319	0.693100	0.751000	0.666500
H2111	H211	0.669800	0.761100	0.632700
C3201	C320	0.780500	0.655600	0.603300
H2121	H212	0.812400	0.654500	0.632500
C3211	C321	0.002500	0.435000	0.299400
H2131	H213	0.996400	0.460700	0.273600
N271	N27	0.807000	0.508800	0.345500
C3221	C322	0.962300	0.426100	0.340200
C3231	C323	0.879600	0.461600	0.392300
H2141	H214	0.893800	0.447400	0.428000
C3241	C324	0.907500	0.453800	0.343300
C3251	C325	0.832800	0.488600	0.390500
H2151	H215	0.816400	0.493600	0.426500
C3261	C326	0.881100	0.474700	0.290300
H2161	H216	0.895400	0.468800	0.253500
C3271	C327	0.976300	0.392100	0.382700
H2171	H217	0.951900	0.387600	0.413600
C3281	C328	0.834700	0.503000	0.295900
H2181	H218	0.820400	0.520400	0.262500
N281	N28	0.741300	0.755900	0.916800
C3291	C329	0.697900	0.728900	0.931200
H2191	H219	0.662600	0.730500	0.906300
C3301	C330	0.708300	0.629700	0.070300
H2201	H220	0.681700	0.622400	0.037500
C3311	C331	0.749500	0.666200	0.067800
C3321	C332	0.707600	0.604800	0.121900
H2211	H221	0.680200	0.580200	0.124000
C3331	C333	0.748600	0.694800	0.013800
C3341	C334	0.792200	0.751000	0.953000
H2221	H222	0.825000	0.769700	0.945600
C3351	C335	0.697700	0.698900	0.977600
H2231	H223	0.663700	0.681600	0.984500
C3361	C336	0.797800	0.720900	0.998600
H2241	H224	0.834600	0.717200	0.020400
Cd151	Cd15	0.232550	0.063540	0.842080
Cd161	Cd16	0.731130	0.812640	0.846660
C3371	C337	0.903100	0.870100	0.847100
O571	O57	0.810500	0.851400	0.879900
O581	O58	0.271300	0.106200	0.772300
O591	O59	0.206800	0.055900	0.729300
O601	O60	0.206100	0.108500	0.913200
C3381	C338	0.237100	0.129400	0.008400
O611	O61	0.273500	0.063900	0.960600
O621	O62	0.657600	0.858300	0.803700
C3391	C339	0.565200	0.874000	0.836400
O631	O63	0.626600	0.809900	0.866600
O641	O64	0.844000	0.806500	0.812200
C3401	C340	0.187100	0.186700	0.063500
H2251	H225	0.153900	0.206000	0.066200
C3411	C341	0.282100	0.128400	0.054100
H2261	H226	0.314600	0.108300	0.051000
C3421	C342	0.941500	0.865500	0.803300
H2271	H227	0.933800	0.843800	0.772400
C3431	C343	0.288600	0.175500	0.615400
H2281	H228	0.317700	0.198800	0.612700
C3441	C344	0.848700	0.838600	0.844900
C3451	C345	0.285600	0.151200	0.667000
H2291	H229	0.311000	0.159600	0.700100
C3461	C346	0.004700	0.925900	0.848600
C3471	C347	0.991900	0.893800	0.806300
H2301	H230	0.018300	0.890200	0.777000
C3481	C348	0.962000	0.931700	0.890700
H2311	H231	0.967500	0.955200	0.919600
C3491	C349	0.914400	0.904300	0.889300
H2321	H232	0.887600	0.908400	0.918100
C3501	C350	0.246500	0.114800	0.671400
C3511	C351	0.191100	0.160200	0.013700
H2331	H233	0.161600	0.163200	0.982300
C3521	C352	0.237400	0.091500	0.727100
C3531	C353	0.526300	0.864800	0.879600
H2341	H234	0.534200	0.840000	0.906400
C3541	C354	0.619100	0.844700	0.835900
C3551	C355	0.551200	0.907000	0.796100
H2351	H235	0.575100	0.911100	0.764800
C3561	C356	0.241600	0.098300	0.957900
N291	N29	0.155600	0.014200	0.847300
C3571	C357	0.054700	0.955300	0.849000
C3581	C358	0.088300	0.958400	0.801100
H2361	H236	0.076800	0.941000	0.766900
C3591	C359	0.137500	0.985900	0.802200
H2371	H237	0.160200	0.985000	0.769400
C3601	C360	0.074700	0.985200	0.895300
H2381	H238	0.054800	0.985900	0.929900
C3611	C361	0.122900	0.013600	0.890800
H2391	H239	0.132900	0.034400	0.922200
N301	N30	0.222000	0.264000	0.267300
C3621	C362	0.260200	0.200700	0.216800
H2401	H240	0.284700	0.174000	0.218500
C3631	C363	0.192000	0.275000	0.218700
H2411	H241	0.167300	0.301500	0.219000
C3641	C364	0.228600	0.212500	0.164400
C3651	C365	0.256500	0.226800	0.265000
H2421	H242	0.279800	0.218100	0.299400
C3661	C366	0.231700	0.185700	0.111200
C3671	C367	0.193100	0.251000	0.166500
H2431	H243	0.169800	0.261100	0.132700
C3681	C368	0.280500	0.155600	0.103300
H2441	H244	0.312400	0.154500	0.132500
C3691	C369	0.502500	0.935000	0.799400
H2451	H245	0.496400	0.960700	0.773600
N311	N31	0.307000	0.008800	0.845500
C3701	C370	0.462300	0.926100	0.840200
C3711	C371	0.379600	0.961600	0.892300
H2461	H246	0.393800	0.947400	0.928000
C3721	C372	0.407500	0.953800	0.843300
C3731	C373	0.332800	0.988600	0.890500
H2471	H247	0.316400	0.993600	0.926500
C3741	C374	0.381100	0.974700	0.790300
H2481	H248	0.395400	0.968800	0.753500
C3751	C375	0.476300	0.892100	0.882700
H2491	H249	0.451900	0.887600	0.913600
C3761	C376	0.334700	0.003000	0.795900
H2501	H250	0.320400	0.020400	0.762500
N321	N32	0.241300	0.255900	0.416800
C3771	C377	0.197900	0.228900	0.431200
H2511	H251	0.162600	0.230500	0.406300
C3781	C378	0.208300	0.129700	0.570300
H2521	H252	0.181700	0.122400	0.537500
C3791	C379	0.249500	0.166200	0.567800
C3801	C380	0.207600	0.104800	0.621900
H2531	H253	0.180200	0.080200	0.624000
C3811	C381	0.248600	0.194800	0.513800
C3821	C382	0.292200	0.251000	0.453000
H2541	H254	0.325000	0.269700	0.445600
C3831	C383	0.197700	0.198900	0.477600
H2551	H255	0.163700	0.181600	0.484500
C3841	C384	0.297800	0.220900	0.498600
H2561	H256	0.334600	0.217200	0.520400
Cd171	Cd17	0.191820	0.565230	0.088720
Cd181	Cd18	0.689830	0.313470	0.092380
N331	N33	0.269600	0.516100	0.086100
O651	O65	0.223000	0.562800	0.202400
C3851	C385	0.523900	0.375400	0.080600
C3861	C386	0.858700	0.370800	0.099300
O661	O66	0.580300	0.309000	0.112700
O671	O67	0.166100	0.613000	0.157200
C3871	C387	0.145800	0.657100	0.264600
H2571	H257	0.118500	0.663800	0.232200
C3881	C388	0.221500	0.640700	0.358500
H2581	H258	0.248400	0.634600	0.391300
C3891	C389	0.141200	0.681100	0.315200
H2591	H259	0.110400	0.703100	0.316800
C3901	C390	0.188000	0.623700	0.258000
C3911	C391	0.433900	0.392000	0.124700
H2601	H260	0.407800	0.387300	0.154100
C3921	C392	0.368500	0.457300	0.081500
C3931	C393	0.483000	0.364800	0.124400
H2611	H261	0.490300	0.340200	0.151600
C3941	C394	0.420800	0.428200	0.080500
O681	O68	0.616400	0.359400	0.046700
C3951	C395	0.510800	0.407800	0.038700
H2621	H262	0.537300	0.413400	0.009800
C3961	C396	0.179400	0.674800	0.363800
C3971	C397	0.190400	0.597800	0.201500
C3981	C398	0.809300	0.341600	0.105100
C3991	C399	0.226700	0.614600	0.307100
H2631	H263	0.255900	0.591300	0.305900
C4001	C400	0.576100	0.348200	0.079900
C4011	C401	0.458300	0.433400	0.037700
H2641	H264	0.448800	0.454600	0.006700
C4021	C402	0.295100	0.496700	0.132100
H2651	H265	0.279800	0.503000	0.168400
C4031	C403	0.343900	0.466900	0.132400
H2661	H266	0.359800	0.453400	0.168000
C4041	C404	0.290500	0.505000	0.035900
H2671	H267	0.272100	0.517900	0.000900
C4051	C405	0.179400	0.676100	0.820800
C4061	C406	0.131600	0.648200	0.830100
H2681	H268	0.098200	0.648000	0.802500
C4071	C407	0.132400	0.620500	0.879700
H2691	H269	0.099800	0.601400	0.886000
C4081	C408	0.181200	0.620800	0.920100
C4091	C409	0.229000	0.648700	0.910800
H2701	H270	0.262300	0.648900	0.938400
C4101	C410	0.228100	0.676400	0.861200
H2711	H271	0.260800	0.695500	0.854800
C4111	C411	0.338100	0.475500	0.031900
H2721	H272	0.350000	0.467700	0.994600
C4121	C412	0.887800	0.389200	0.147900
H2731	H273	0.875200	0.382400	0.185300
C4131	C413	0.886900	0.380200	0.051700
H2741	H274	0.870600	0.367100	0.016100
N341	N34	0.184600	0.761700	0.515100
C4141	C414	0.179600	0.703400	0.415500
C4151	C415	0.129500	0.722000	0.434700
H2751	H275	0.092100	0.716400	0.414800
C4161	C416	0.230800	0.716000	0.448200
H2761	H276	0.266900	0.704500	0.436700
C4171	C417	0.231900	0.743600	0.495000
H2771	H277	0.268900	0.750600	0.515000
C4181	C418	0.136600	0.750200	0.486300
H2781	H278	0.101700	0.761700	0.500600
C4191	C419	0.236500	0.753400	0.706800
H2791	H279	0.272100	0.767800	0.698400
N351	N35	0.186300	0.759200	0.669200
C4201	C420	0.134200	0.738100	0.681500
H2801	H280	0.099900	0.742000	0.655800
C4211	C421	0.132300	0.711200	0.731500
H2811	H281	0.096700	0.696800	0.740000
C4221	C422	0.182500	0.705400	0.769200
C4231	C423	0.234600	0.726500	0.756900
H2821	H282	0.268900	0.722500	0.782600
N361	N36	0.116000	0.514500	0.091800
C4241	C424	0.047200	0.457400	0.046300
H2831	H283	0.037500	0.437700	0.013700
C4251	C425	0.963200	0.427400	0.095400
C4261	C426	0.013400	0.456400	0.094300
C4271	C427	0.034100	0.486200	0.140100
H2841	H284	0.014200	0.486100	0.174600
C4281	C428	0.936400	0.418300	0.143000
H2851	H285	0.951900	0.433100	0.177800
C4291	C429	0.096600	0.488100	0.046100
H2861	H286	0.116600	0.489800	0.011600
C4301	C430	0.082100	0.516100	0.138200
H2871	H287	0.091200	0.537500	0.169000
C4311	C431	0.937700	0.407300	0.048400
H2881	H288	0.953700	0.411200	0.011900
O691	O69	0.768900	0.356100	0.128800
O701	O70	0.802600	0.309100	0.067200
Cd191	Cd19	0.691820	0.065230	0.588720
Cd201	Cd20	0.189830	0.813470	0.592380
N371	N37	0.769600	0.016100	0.586100
O711	O71	0.723000	0.062800	0.702400
C4321	C432	0.023900	0.875400	0.580600
C4331	C433	0.358700	0.870800	0.599300
O721	O72	0.080300	0.809000	0.612700
O731	O73	0.666100	0.113000	0.657200
C4341	C434	0.645800	0.157100	0.764600
H2891	H289	0.618500	0.163800	0.732200
C4351	C435	0.721500	0.140700	0.858500
H2901	H290	0.748400	0.134600	0.891300
C4361	C436	0.641200	0.181100	0.815200
H2911	H291	0.610400	0.203100	0.816800
C4371	C437	0.688000	0.123700	0.758000
C4381	C438	0.933900	0.892000	0.624700
H2921	H292	0.907800	0.887300	0.654100
C4391	C439	0.868500	0.957300	0.581500
C4401	C440	0.983000	0.864800	0.624400
H2931	H293	0.990300	0.840200	0.651600
C4411	C441	0.920800	0.928200	0.580500
O741	O74	0.116400	0.859400	0.546700
C4421	C442	0.010800	0.907800	0.538700
H2941	H294	0.037300	0.913400	0.509800
C4431	C443	0.679400	0.174800	0.863800
C4441	C444	0.690400	0.097800	0.701500
C4451	C445	0.309300	0.841600	0.605100
C4461	C446	0.726700	0.114600	0.807100
H2951	H295	0.755900	0.091300	0.805900
C4471	C447	0.076100	0.848200	0.579900
C4481	C448	0.958300	0.933400	0.537700
H2961	H296	0.948800	0.954600	0.506700
C4491	C449	0.795100	0.996700	0.632100
H2971	H297	0.779800	0.003000	0.668400
C4501	C450	0.843900	0.966900	0.632400
H2981	H298	0.859800	0.953400	0.668000
C4511	C451	0.790500	0.005000	0.535900
H2991	H299	0.772100	0.017900	0.500900
C4521	C452	0.679400	0.176100	0.320800
C4531	C453	0.631600	0.148200	0.330100
H3001	H300	0.598200	0.148000	0.302500
C4541	C454	0.632400	0.120500	0.379700
H3011	H301	0.599800	0.101400	0.386000
C4551	C455	0.681200	0.120800	0.420100
C4561	C456	0.729000	0.148700	0.410800
H3021	H302	0.762300	0.148900	0.438400
C4571	C457	0.728100	0.176400	0.361200
H3031	H303	0.760800	0.195500	0.354800
C4581	C458	0.838100	0.975500	0.531900
H3041	H304	0.850000	0.967700	0.494600
C4591	C459	0.387800	0.889200	0.647900
H3051	H305	0.375200	0.882400	0.685300
C4601	C460	0.386900	0.880200	0.551700
H3061	H306	0.370600	0.867100	0.516100
N381	N38	0.684600	0.261700	0.015100
C4611	C461	0.679600	0.203400	0.915500
C4621	C462	0.629500	0.222000	0.934700
H3071	H307	0.592100	0.216400	0.914800
C4631	C463	0.730800	0.216000	0.948200
H3081	H308	0.766900	0.204500	0.936700
C4641	C464	0.731900	0.243600	0.995000
H3091	H309	0.768900	0.250600	0.015000
C4651	C465	0.636600	0.250200	0.986300
H3101	H310	0.601700	0.261700	0.000600
C4661	C466	0.736500	0.253400	0.206800
H3111	H311	0.772100	0.267800	0.198400
N391	N39	0.686300	0.259200	0.169200
C4671	C467	0.634200	0.238100	0.181500
H3121	H312	0.599900	0.242000	0.155800
C4681	C468	0.632300	0.211200	0.231500
H3131	H313	0.596700	0.196800	0.240000
C4691	C469	0.682500	0.205400	0.269200
C4701	C470	0.734600	0.226500	0.256900
H3141	H314	0.768900	0.222500	0.282600
N401	N40	0.616000	0.014500	0.591800
C4711	C471	0.547200	0.957400	0.546300
H3151	H315	0.537500	0.937700	0.513700
C4721	C472	0.463200	0.927400	0.595400
C4731	C473	0.513400	0.956400	0.594300
C4741	C474	0.534100	0.986200	0.640100
H3161	H316	0.514200	0.986100	0.674600
C4751	C475	0.436400	0.918300	0.643000
H3171	H317	0.451900	0.933100	0.677800
C4761	C476	0.596600	0.988100	0.546100
H3181	H318	0.616600	0.989800	0.511600
C4771	C477	0.582100	0.016100	0.638200
H3191	H319	0.591200	0.037500	0.669000
C4781	C478	0.437700	0.907300	0.548400
H3201	H320	0.453700	0.911200	0.511900
O751	O75	0.268900	0.856100	0.628800
O761	O76	0.302600	0.809100	0.567200
Cd211	Cd21	0.691820	0.434770	0.088720
Cd221	Cd22	0.189830	0.686530	0.092380
N411	N41	0.769600	0.483900	0.086100
O771	O77	0.723000	0.437200	0.202400
C4791	C479	0.023900	0.624600	0.080600
C4801	C480	0.358700	0.629200	0.099300
O781	O78	0.080300	0.691000	0.112700
O791	O79	0.666100	0.387000	0.157200
C4811	C481	0.645800	0.342900	0.264600
H3211	H321	0.618500	0.336200	0.232200
C4821	C482	0.721500	0.359300	0.358500
H3221	H322	0.748400	0.365400	0.391300
C4831	C483	0.641200	0.318900	0.315200
H3231	H323	0.610400	0.296900	0.316800
C4841	C484	0.688000	0.376300	0.258000
C4851	C485	0.933900	0.608000	0.124700
H3241	H324	0.907800	0.612700	0.154100
C4861	C486	0.868500	0.542700	0.081500
C4871	C487	0.983000	0.635200	0.124400
H3251	H325	0.990300	0.659800	0.151600
C4881	C488	0.920800	0.571800	0.080500
O801	O80	0.116400	0.640600	0.046700
C4891	C489	0.010800	0.592200	0.038700
H3261	H326	0.037300	0.586600	0.009800
C4901	C490	0.679400	0.325200	0.363800
C4911	C491	0.690400	0.402200	0.201500
C4921	C492	0.309300	0.658400	0.105100
C4931	C493	0.726700	0.385400	0.307100
H3271	H327	0.755900	0.408700	0.305900
C4941	C494	0.076100	0.651800	0.079900
C4951	C495	0.958300	0.566600	0.037700
H3281	H328	0.948800	0.545400	0.006700
C4961	C496	0.795100	0.503300	0.132100
H3291	H329	0.779800	0.497000	0.168400
C4971	C497	0.843900	0.533100	0.132400
H3301	H330	0.859800	0.546600	0.168000
C4981	C498	0.790500	0.495000	0.035900
H3311	H331	0.772100	0.482100	0.000900
C4991	C499	0.679400	0.323900	0.820800
C5001	C500	0.631600	0.351800	0.830100
H3321	H332	0.598200	0.352000	0.802500
C5011	C501	0.632400	0.379500	0.879700
H3331	H333	0.599800	0.398600	0.886000
C5021	C502	0.681200	0.379200	0.920100
C5031	C503	0.729000	0.351300	0.910800
H3341	H334	0.762300	0.351100	0.938400
C5041	C504	0.728100	0.323600	0.861200
H3351	H335	0.760800	0.304500	0.854800
C5051	C505	0.838100	0.524500	0.031900
H3361	H336	0.850000	0.532300	0.994600
C5061	C506	0.387800	0.610800	0.147900
H3371	H337	0.375200	0.617600	0.185300
C5071	C507	0.386900	0.619800	0.051700
H3381	H338	0.370600	0.632900	0.016100
N421	N42	0.684600	0.238300	0.515100
C5081	C508	0.679600	0.296600	0.415500
C5091	C509	0.629500	0.278000	0.434700
H3391	H339	0.592100	0.283600	0.414800
C5101	C510	0.730800	0.284000	0.448200
H3401	H340	0.766900	0.295500	0.436700
C5111	C511	0.731900	0.256400	0.495000
H3411	H341	0.768900	0.249400	0.515000
C5121	C512	0.636600	0.249800	0.486300
H3421	H342	0.601700	0.238300	0.500600
C5131	C513	0.736500	0.246600	0.706800
H3431	H343	0.772100	0.232200	0.698400
N431	N43	0.686300	0.240800	0.669200
C5141	C514	0.634200	0.261900	0.681500
H3441	H344	0.599900	0.258000	0.655800
C5151	C515	0.632300	0.288800	0.731500
H3451	H345	0.596700	0.303200	0.740000
C5161	C516	0.682500	0.294600	0.769200
C5171	C517	0.734600	0.273500	0.756900
H3461	H346	0.768900	0.277500	0.782600
N441	N44	0.616000	0.485500	0.091800
C5181	C518	0.547200	0.542600	0.046300
H3471	H347	0.537500	0.562300	0.013700
C5191	C519	0.463200	0.572600	0.095400
C5201	C520	0.513400	0.543600	0.094300
C5211	C521	0.534100	0.513800	0.140100
H3481	H348	0.514200	0.513900	0.174600
C5221	C522	0.436400	0.581700	0.143000
H3491	H349	0.451900	0.566900	0.177800
C5231	C523	0.596600	0.511900	0.046100
H3501	H350	0.616600	0.510200	0.011600
C5241	C524	0.582100	0.483900	0.138200
H3511	H351	0.591200	0.462500	0.169000
C5251	C525	0.437700	0.592700	0.048400
H3521	H352	0.453700	0.588800	0.011900
O811	O81	0.268900	0.643900	0.128800
O821	O82	0.302600	0.690900	0.067200
Cd231	Cd23	0.191820	0.934770	0.588720
Cd241	Cd24	0.689830	0.186530	0.592380
N451	N45	0.269600	0.983900	0.586100
O831	O83	0.223000	0.937200	0.702400
C5261	C526	0.523900	0.124600	0.580600
C5271	C527	0.858700	0.129200	0.599300
O841	O84	0.580300	0.191000	0.612700
O851	O85	0.166100	0.887000	0.657200
C5281	C528	0.145800	0.842900	0.764600
H3531	H353	0.118500	0.836200	0.732200
C5291	C529	0.221500	0.859300	0.858500
H3541	H354	0.248400	0.865400	0.891300
C5301	C530	0.141200	0.818900	0.815200
H3551	H355	0.110400	0.796900	0.816800
C5311	C531	0.188000	0.876300	0.758000
C5321	C532	0.433900	0.108000	0.624700
H3561	H356	0.407800	0.112700	0.654100
C5331	C533	0.368500	0.042700	0.581500
C5341	C534	0.483000	0.135200	0.624400
H3571	H357	0.490300	0.159800	0.651600
C5351	C535	0.420800	0.071800	0.580500
O861	O86	0.616400	0.140600	0.546700
C5361	C536	0.510800	0.092200	0.538700
H3581	H358	0.537300	0.086600	0.509800
C5371	C537	0.179400	0.825200	0.863800
C5381	C538	0.190400	0.902200	0.701500
C5391	C539	0.809300	0.158400	0.605100
C5401	C540	0.226700	0.885400	0.807100
H3591	H359	0.255900	0.908700	0.805900
C5411	C541	0.576100	0.151800	0.579900
C5421	C542	0.458300	0.066600	0.537700
H3601	H360	0.448800	0.045400	0.506700
C5431	C543	0.295100	0.003300	0.632100
H3611	H361	0.279800	0.997000	0.668400
C5441	C544	0.343900	0.033100	0.632400
H3621	H362	0.359800	0.046600	0.668000
C5451	C545	0.290500	0.995000	0.535900
H3631	H363	0.272100	0.982100	0.500900
C5461	C546	0.179400	0.823900	0.320800
C5471	C547	0.131600	0.851800	0.330100
H3641	H364	0.098200	0.852000	0.302500
C5481	C548	0.132400	0.879500	0.379700
H3651	H365	0.099800	0.898600	0.386000
C5491	C549	0.181200	0.879200	0.420100
C5501	C550	0.229000	0.851300	0.410800
H3661	H366	0.262300	0.851100	0.438400
C5511	C551	0.228100	0.823600	0.361200
H3671	H367	0.260800	0.804500	0.354800
C5521	C552	0.338100	0.024500	0.531900
H3681	H368	0.350000	0.032300	0.494600
C5531	C553	0.887800	0.110800	0.647900
H3691	H369	0.875200	0.117600	0.685300
C5541	C554	0.886900	0.119800	0.551700
H3701	H370	0.870600	0.132900	0.516100
N461	N46	0.184600	0.738300	0.015100
C5551	C555	0.179600	0.796600	0.915500
C5561	C556	0.129500	0.778000	0.934700
H3711	H371	0.092100	0.783600	0.914800
C5571	C557	0.230800	0.784000	0.948200
H3721	H372	0.266900	0.795500	0.936700
C5581	C558	0.231900	0.756400	0.995000
H3731	H373	0.268900	0.749400	0.015000
C5591	C559	0.136600	0.749800	0.986300
H3741	H374	0.101700	0.738300	0.000600
C5601	C560	0.236500	0.746600	0.206800
H3751	H375	0.272100	0.732200	0.198400
N471	N47	0.186300	0.740800	0.169200
C5611	C561	0.134200	0.761900	0.181500
H3761	H376	0.099900	0.758000	0.155800
C5621	C562	0.132300	0.788800	0.231500
H3771	H377	0.096700	0.803200	0.240000
C5631	C563	0.182500	0.794600	0.269200
C5641	C564	0.234600	0.773500	0.256900
H3781	H378	0.268900	0.777500	0.282600
N481	N48	0.116000	0.985500	0.591800
C5651	C565	0.047200	0.042600	0.546300
H3791	H379	0.037500	0.062300	0.513700
C5661	C566	0.963200	0.072600	0.595400
C5671	C567	0.013400	0.043600	0.594300
C5681	C568	0.034100	0.013800	0.640100
H3801	H380	0.014200	0.013900	0.674600
C5691	C569	0.936400	0.081700	0.643000
H3811	H381	0.951900	0.066900	0.677800
C5701	C570	0.096600	0.011900	0.546100
H3821	H382	0.116600	0.010200	0.511600
C5711	C571	0.082100	0.983900	0.638200
H3831	H383	0.091200	0.962500	0.669000
C5721	C572	0.937700	0.092700	0.548400
H3841	H384	0.953700	0.088800	0.511900
O871	O87	0.768900	0.143900	0.628800
O881	O88	0.802600	0.190900	0.567200
