data_ECIYEU02_clean_PM
_symmetry_space_group_name_H-M	'P1'
_cell_length_a	13.678000
_cell_length_b	10.318000
_cell_length_c	17.357000
_cell_angle_alpha	90.000000
_cell_angle_beta	90.000000
_cell_angle_gamma	90.000000
_symmetry_Int_Tables_number 1

loop_
_symmetry_equiv_pos_as_xyz
'x,y,z'

loop_
_atom_site_label
_atom_site_type_symbol
_atom_site_fract_x
_atom_site_fract_y
_atom_site_fract_z
P11	P1	0.932970	0.631410	0.421900
P21	P2	0.964200	0.126160	0.332450
P31	P3	0.253180	0.371770	0.294460
Al11	Al1	0.061490	0.374180	0.393020
Al21	Al2	0.982190	0.327600	0.199280
Al31	Al3	0.739270	0.129200	0.305030
O11	O1	0.012600	0.403100	0.291700
O21	O2	0.853700	0.135500	0.347500
O31	O3	0.012800	0.214100	0.392240
O41	O4	0.353200	0.322600	0.317500
O51	O5	0.188100	0.370300	0.365100
O61	O6	0.842800	0.585400	0.376800
O71	O7	0.012600	0.529600	0.416200
O81	O8	0.902300	0.652300	0.504900
O91	O9	0.967500	0.759000	0.388000
O101	O10	0.998400	0.989100	0.347100
O111	O11	0.209400	0.282500	0.231800
O121	O12	0.260300	0.510100	0.264900
O131	O13	0.989000	0.167000	0.249700
P41	P4	0.567030	0.368590	0.921900
P51	P5	0.535800	0.873840	0.832450
P61	P6	0.246820	0.628230	0.794460
Al41	Al4	0.438510	0.625820	0.893020
Al51	Al5	0.517810	0.672400	0.699280
Al61	Al6	0.760730	0.870800	0.805030
O141	O14	0.487400	0.596900	0.791700
O151	O15	0.646300	0.864500	0.847500
O161	O16	0.487200	0.785900	0.892240
O171	O17	0.146800	0.677400	0.817500
O181	O18	0.311900	0.629700	0.865100
O191	O19	0.657200	0.414600	0.876800
O201	O20	0.487400	0.470400	0.916200
O211	O21	0.597700	0.347700	0.004900
O221	O22	0.532500	0.241000	0.888000
O231	O23	0.501600	0.010900	0.847100
O241	O24	0.290600	0.717500	0.731800
O251	O25	0.239700	0.489900	0.764900
O261	O26	0.511000	0.833000	0.749700
P71	P7	0.067030	0.131410	0.078100
P81	P8	0.035800	0.626160	0.167550
P91	P9	0.746820	0.871770	0.205540
Al71	Al7	0.938510	0.874180	0.106980
Al81	Al8	0.017810	0.827600	0.300720
Al91	Al9	0.260730	0.629200	0.194970
O271	O27	0.987400	0.903100	0.208300
O281	O28	0.146300	0.635500	0.152500
O291	O29	0.987200	0.714100	0.107760
O301	O30	0.646800	0.822600	0.182500
O311	O31	0.811900	0.870300	0.134900
O321	O32	0.157200	0.085400	0.123200
O331	O33	0.987400	0.029600	0.083800
O341	O34	0.097700	0.152300	0.995100
O351	O35	0.032500	0.259000	0.112000
O361	O36	0.001600	0.489100	0.152900
O371	O37	0.790600	0.782500	0.268200
O381	O38	0.739700	0.010100	0.235100
O391	O39	0.011000	0.667000	0.250300
P101	P10	0.432970	0.868590	0.578100
P111	P11	0.464200	0.373840	0.667550
P121	P12	0.753180	0.128230	0.705540
Al101	Al10	0.561490	0.125820	0.606980
Al111	Al11	0.482190	0.172400	0.800720
Al121	Al12	0.239270	0.370800	0.694970
O401	O40	0.512600	0.096900	0.708300
O411	O41	0.353700	0.364500	0.652500
O421	O42	0.512800	0.285900	0.607760
O431	O43	0.853200	0.177400	0.682500
O441	O44	0.688100	0.129700	0.634900
O451	O45	0.342800	0.914600	0.623200
O461	O46	0.512600	0.970400	0.583800
O471	O47	0.402300	0.847700	0.495100
O481	O48	0.467500	0.741000	0.612000
O491	O49	0.498400	0.510900	0.652900
O501	O50	0.709400	0.217500	0.768200
O511	O51	0.760300	0.989900	0.735100
O521	O52	0.489000	0.333000	0.750300
P131	P13	0.067030	0.368590	0.578100
P141	P14	0.035800	0.873840	0.667550
P151	P15	0.746820	0.628230	0.705540
Al131	Al13	0.938510	0.625820	0.606980
Al141	Al14	0.017810	0.672400	0.800720
Al151	Al15	0.260730	0.870800	0.694970
O531	O53	0.987400	0.596900	0.708300
O541	O54	0.146300	0.864500	0.652500
O551	O55	0.987200	0.785900	0.607760
O561	O56	0.646800	0.677400	0.682500
O571	O57	0.811900	0.629700	0.634900
O581	O58	0.157200	0.414600	0.623200
O591	O59	0.987400	0.470400	0.583800
O601	O60	0.097700	0.347700	0.495100
O611	O61	0.032500	0.241000	0.612000
O621	O62	0.001600	0.010900	0.652900
O631	O63	0.790600	0.717500	0.768200
O641	O64	0.739700	0.489900	0.735100
O651	O65	0.011000	0.833000	0.750300
P161	P16	0.432970	0.631410	0.078100
P171	P17	0.464200	0.126160	0.167550
P181	P18	0.753180	0.371770	0.205540
Al161	Al16	0.561490	0.374180	0.106980
Al171	Al17	0.482190	0.327600	0.300720
Al181	Al18	0.239270	0.129200	0.194970
O661	O66	0.512600	0.403100	0.208300
O671	O67	0.353700	0.135500	0.152500
O681	O68	0.512800	0.214100	0.107760
O691	O69	0.853200	0.322600	0.182500
O701	O70	0.688100	0.370300	0.134900
O711	O71	0.342800	0.585400	0.123200
O721	O72	0.512600	0.529600	0.083800
O731	O73	0.402300	0.652300	0.995100
O741	O74	0.467500	0.759000	0.112000
O751	O75	0.498400	0.989100	0.152900
O761	O76	0.709400	0.282500	0.268200
O771	O77	0.760300	0.510100	0.235100
O781	O78	0.489000	0.167000	0.250300
P191	P19	0.932970	0.868590	0.921900
P201	P20	0.964200	0.373840	0.832450
P211	P21	0.253180	0.128230	0.794460
Al191	Al19	0.061490	0.125820	0.893020
Al201	Al20	0.982190	0.172400	0.699280
Al211	Al21	0.739270	0.370800	0.805030
O791	O79	0.012600	0.096900	0.791700
O801	O80	0.853700	0.364500	0.847500
O811	O81	0.012800	0.285900	0.892240
O821	O82	0.353200	0.177400	0.817500
O831	O83	0.188100	0.129700	0.865100
O841	O84	0.842800	0.914600	0.876800
O851	O85	0.012600	0.970400	0.916200
O861	O86	0.902300	0.847700	0.004900
O871	O87	0.967500	0.741000	0.888000
O881	O88	0.998400	0.510900	0.847100
O891	O89	0.209400	0.217500	0.731800
O901	O90	0.260300	0.989900	0.764900
O911	O91	0.989000	0.333000	0.749700
P221	P22	0.567030	0.131410	0.421900
P231	P23	0.535800	0.626160	0.332450
P241	P24	0.246820	0.871770	0.294460
Al221	Al22	0.438510	0.874180	0.393020
Al231	Al23	0.517810	0.827600	0.199280
Al241	Al24	0.760730	0.629200	0.305030
O921	O92	0.487400	0.903100	0.291700
O931	O93	0.646300	0.635500	0.347500
O941	O94	0.487200	0.714100	0.392240
O951	O95	0.146800	0.822600	0.317500
O961	O96	0.311900	0.870300	0.365100
O971	O97	0.657200	0.085400	0.376800
O981	O98	0.487400	0.029600	0.416200
O991	O99	0.597700	0.152300	0.504900
O1001	O100	0.532500	0.259000	0.388000
O1011	O101	0.501600	0.489100	0.347100
O1021	O102	0.290600	0.782500	0.231800
O1031	O103	0.239700	0.010100	0.264900
O1041	O104	0.511000	0.667000	0.249700
