data_ECIYEU_clean_PM
_symmetry_space_group_name_H-M	'P1'
_cell_length_a	8.686800
_cell_length_b	17.428000
_cell_length_c	9.158900
_cell_angle_alpha	90.000000
_cell_angle_beta	109.604000
_cell_angle_gamma	90.000000
_symmetry_Int_Tables_number 1

loop_
_symmetry_equiv_pos_as_xyz
'x,y,z'

loop_
_atom_site_label
_atom_site_type_symbol
_atom_site_fract_x
_atom_site_fract_y
_atom_site_fract_z
H11	H1	0.550000	0.788000	0.898000
P11	P1	0.203730	0.788320	0.027220
P21	P2	0.340180	0.070400	0.868200
P31	P3	0.252080	0.837690	0.494900
Al11	Al1	0.490300	0.831140	0.310300
Al21	Al2	0.361730	0.888680	0.836160
Al31	Al3	0.435340	0.704020	0.702700
O11	O1	0.280600	0.988190	0.840000
O21	O2	0.364700	0.773300	0.162100
O31	O3	0.164300	0.716370	0.925500
O41	O4	0.067100	0.805500	0.089300
O51	O5	0.190100	0.121100	0.819500
O61	O6	0.446800	0.088900	0.768000
O71	O7	0.266700	0.890740	0.630200
O81	O8	0.273300	0.753760	0.544700
O91	O9	0.458000	0.790100	0.821200
O101	O10	0.085100	0.849040	0.372200
O111	O11	0.225900	0.856200	0.931900
O121	O12	0.440600	0.083200	0.037600
O131	O13	0.382700	0.862800	0.426800
H21	H2	0.950000	0.288000	0.602000
P41	P4	0.296270	0.288320	0.472780
P51	P5	0.159820	0.570400	0.631800
P61	P6	0.247920	0.337690	0.005100
Al41	Al4	0.009700	0.331140	0.189700
Al51	Al5	0.138270	0.388680	0.663840
Al61	Al6	0.064660	0.204020	0.797300
O141	O14	0.219400	0.488190	0.660000
O151	O15	0.135300	0.273300	0.337900
O161	O16	0.335700	0.216370	0.574500
O171	O17	0.432900	0.305500	0.410700
O181	O18	0.309900	0.621100	0.680500
O191	O19	0.053200	0.588900	0.732000
O201	O20	0.233300	0.390740	0.869800
O211	O21	0.226700	0.253760	0.955300
O221	O22	0.042000	0.290100	0.678800
O231	O23	0.414900	0.349040	0.127800
O241	O24	0.274100	0.356200	0.568100
O251	O25	0.059400	0.583200	0.462400
O261	O26	0.117300	0.362800	0.073200
H31	H3	0.450000	0.212000	0.102000
P71	P7	0.796270	0.211680	0.972780
P81	P8	0.659820	0.929600	0.131800
P91	P9	0.747920	0.162310	0.505100
Al71	Al7	0.509700	0.168860	0.689700
Al81	Al8	0.638270	0.111320	0.163840
Al91	Al9	0.564660	0.295980	0.297300
O271	O27	0.719400	0.011810	0.160000
O281	O28	0.635300	0.226700	0.837900
O291	O29	0.835700	0.283630	0.074500
O301	O30	0.932900	0.194500	0.910700
O311	O31	0.809900	0.878900	0.180500
O321	O32	0.553200	0.911100	0.232000
O331	O33	0.733300	0.109260	0.369800
O341	O34	0.726700	0.246240	0.455300
O351	O35	0.542000	0.209900	0.178800
O361	O36	0.914900	0.150960	0.627800
O371	O37	0.774100	0.143800	0.068100
O381	O38	0.559400	0.916800	0.962400
O391	O39	0.617300	0.137200	0.573200
H41	H4	0.050000	0.712000	0.398000
P101	P10	0.703730	0.711680	0.527220
P111	P11	0.840180	0.429600	0.368200
P121	P12	0.752080	0.662310	0.994900
Al101	Al10	0.990300	0.668860	0.810300
Al111	Al11	0.861730	0.611320	0.336160
Al121	Al12	0.935340	0.795980	0.202700
O401	O40	0.780600	0.511810	0.340000
O411	O41	0.864700	0.726700	0.662100
O421	O42	0.664300	0.783630	0.425500
O431	O43	0.567100	0.694500	0.589300
O441	O44	0.690100	0.378900	0.319500
O451	O45	0.946800	0.411100	0.268000
O461	O46	0.766700	0.609260	0.130200
O471	O47	0.773300	0.746240	0.044700
O481	O48	0.958000	0.709900	0.321200
O491	O49	0.585100	0.650960	0.872200
O501	O50	0.725900	0.643800	0.431900
O511	O51	0.940600	0.416800	0.537600
O521	O52	0.882700	0.637200	0.926800
