data_ECODEG_clean_PM
_symmetry_space_group_name_H-M	'P1'
_cell_length_a	12.181000
_cell_length_b	15.354000
_cell_length_c	18.785000
_cell_angle_alpha	90.000000
_cell_angle_beta	90.000000
_cell_angle_gamma	90.000000
_symmetry_Int_Tables_number 1

loop_
_symmetry_equiv_pos_as_xyz
'x,y,z'

loop_
_atom_site_label
_atom_site_type_symbol
_atom_site_fract_x
_atom_site_fract_y
_atom_site_fract_z
Cd11	Cd1	0.693020	0.784140	0.184030
Cd21	Cd2	0.806980	0.215860	0.684030
Cd31	Cd3	0.306980	0.284140	0.315970
Cd41	Cd4	0.193020	0.715860	0.815970
H11	H1	0.517700	0.705500	0.293600
H21	H2	0.420600	0.582100	0.322700
H31	H3	0.602700	0.449700	0.182600
H41	H4	0.693900	0.576300	0.157200
H51	H5	0.503300	0.883900	0.095100
H61	H6	0.387700	0.873200	0.999700
H71	H7	0.544500	0.656700	0.942200
H81	H8	0.660900	0.676900	0.036000
H91	H9	0.982300	0.294500	0.793600
H101	H10	0.079400	0.417900	0.822700
H111	H11	0.897300	0.550300	0.682600
H121	H12	0.806100	0.423700	0.657200
H131	H13	0.996700	0.116100	0.595100
H141	H14	0.112300	0.126800	0.499700
H151	H15	0.955500	0.343300	0.442200
H161	H16	0.839100	0.323100	0.536000
H171	H17	0.482300	0.205500	0.206400
H181	H18	0.579400	0.082100	0.177300
H191	H19	0.397300	0.949700	0.317400
H201	H20	0.306100	0.076300	0.342800
H211	H21	0.496700	0.383900	0.404900
H221	H22	0.612300	0.373200	0.500300
H231	H23	0.455500	0.156700	0.557800
H241	H24	0.339100	0.176900	0.464000
H251	H25	0.017700	0.794500	0.706400
H261	H26	0.920600	0.917900	0.677300
H271	H27	0.102700	0.050300	0.817400
H281	H28	0.193900	0.923700	0.842800
H291	H29	0.003300	0.616100	0.904900
H301	H30	0.887700	0.626800	0.000300
H311	H31	0.044500	0.843300	0.057800
H321	H32	0.160900	0.823100	0.964000
C11	C1	0.534400	0.653600	0.270400
C21	C2	0.475400	0.579700	0.288200
C31	C3	0.499100	0.503000	0.254300
C41	C4	0.583200	0.501300	0.205200
C51	C5	0.637500	0.577500	0.190500
C61	C6	0.435400	0.421800	0.272800
C71	C7	0.511500	0.837400	0.063900
C81	C8	0.441200	0.830900	0.006900
C91	C9	0.449700	0.762400	0.960800
C101	C10	0.534400	0.703800	0.972700
C111	C11	0.603000	0.715600	0.029600
C121	C12	0.366200	0.747600	0.903700
C131	C13	0.965600	0.346400	0.770400
C141	C14	0.024600	0.420300	0.788200
C151	C15	0.000900	0.497000	0.754300
C161	C16	0.916800	0.498700	0.705200
C171	C17	0.862500	0.422500	0.690500
C181	C18	0.064600	0.578200	0.772800
C191	C19	0.988500	0.162600	0.563900
C201	C20	0.058800	0.169100	0.506900
C211	C21	0.050300	0.237600	0.460800
C221	C22	0.965600	0.296200	0.472700
C231	C23	0.897000	0.284400	0.529600
C241	C24	0.133800	0.252400	0.403700
C251	C25	0.465600	0.153600	0.229600
C261	C26	0.524600	0.079700	0.211800
C271	C27	0.500900	0.003000	0.245700
C281	C28	0.416800	0.001300	0.294800
C291	C29	0.362500	0.077500	0.309500
C301	C30	0.564600	0.921800	0.227200
C311	C31	0.488500	0.337400	0.436100
C321	C32	0.558800	0.330900	0.493100
C331	C33	0.550300	0.262400	0.539200
C341	C34	0.465600	0.203800	0.527300
C351	C35	0.397000	0.215600	0.470400
C361	C36	0.633800	0.247600	0.596300
C371	C37	0.034400	0.846400	0.729600
C381	C38	0.975400	0.920300	0.711800
C391	C39	0.999100	0.997000	0.745700
C401	C40	0.083200	0.998700	0.794800
C411	C41	0.137500	0.922500	0.809500
C421	C42	0.935400	0.078200	0.727200
C431	C43	0.011500	0.662600	0.936100
C441	C44	0.941200	0.669100	0.993100
C451	C45	0.949700	0.737600	0.039200
C461	C46	0.034400	0.796200	0.027300
C471	C47	0.103000	0.784400	0.970400
C481	C48	0.866200	0.752400	0.096300
N11	N1	0.613400	0.654100	0.221900
N21	N2	0.590600	0.780000	0.076000
N31	N3	0.886600	0.345900	0.721900
N41	N4	0.909400	0.220000	0.576000
N51	N5	0.386600	0.154100	0.278100
N61	N6	0.409400	0.280000	0.424000
N71	N7	0.113400	0.845900	0.778100
N81	N8	0.090600	0.720000	0.924000
O11	O1	0.473600	0.348900	0.257400
O21	O2	0.345800	0.431700	0.305300
O31	O3	0.350400	0.671200	0.882600
O41	O4	0.312000	0.811400	0.883300
O51	O5	0.026400	0.651100	0.757400
O61	O6	0.154200	0.568300	0.805300
O71	O7	0.149600	0.328800	0.382600
O81	O8	0.188000	0.188600	0.383300
O91	O9	0.526400	0.848900	0.242600
O101	O10	0.654200	0.931700	0.194700
O111	O11	0.649600	0.171200	0.617400
O121	O12	0.688000	0.311400	0.616700
O131	O13	0.973600	0.151100	0.742600
O141	O14	0.845800	0.068300	0.694700
O151	O15	0.850400	0.828800	0.117400
O161	O16	0.812000	0.688600	0.116700
Cd51	Cd5	0.306980	0.215860	0.815970
Cd61	Cd6	0.193020	0.784140	0.315970
Cd71	Cd7	0.693020	0.715860	0.684030
Cd81	Cd8	0.806980	0.284140	0.184030
H331	H33	0.482300	0.294500	0.706400
H341	H34	0.579400	0.417900	0.677300
H351	H35	0.397300	0.550300	0.817400
H361	H36	0.306100	0.423700	0.842800
H371	H37	0.496700	0.116100	0.904900
H381	H38	0.612300	0.126800	0.000300
H391	H39	0.455500	0.343300	0.057800
H401	H40	0.339100	0.323100	0.964000
H411	H41	0.017700	0.705500	0.206400
H421	H42	0.920600	0.582100	0.177300
H431	H43	0.102700	0.449700	0.317400
H441	H44	0.193900	0.576300	0.342800
H451	H45	0.003300	0.883900	0.404900
H461	H46	0.887700	0.873200	0.500300
H471	H47	0.044500	0.656700	0.557800
H481	H48	0.160900	0.676900	0.464000
H491	H49	0.517700	0.794500	0.793600
H501	H50	0.420600	0.917900	0.822700
H511	H51	0.602700	0.050300	0.682600
H521	H52	0.693900	0.923700	0.657200
H531	H53	0.503300	0.616100	0.595100
H541	H54	0.387700	0.626800	0.499700
H551	H55	0.544500	0.843300	0.442200
H561	H56	0.660900	0.823100	0.536000
H571	H57	0.982300	0.205500	0.293600
H581	H58	0.079400	0.082100	0.322700
H591	H59	0.897300	0.949700	0.182600
H601	H60	0.806100	0.076300	0.157200
H611	H61	0.996700	0.383900	0.095100
H621	H62	0.112300	0.373200	0.999700
H631	H63	0.955500	0.156700	0.942200
H641	H64	0.839100	0.176900	0.036000
C491	C49	0.465600	0.346400	0.729600
C501	C50	0.524600	0.420300	0.711800
C511	C51	0.500900	0.497000	0.745700
C521	C52	0.416800	0.498700	0.794800
C531	C53	0.362500	0.422500	0.809500
C541	C54	0.564600	0.578200	0.727200
C551	C55	0.488500	0.162600	0.936100
C561	C56	0.558800	0.169100	0.993100
C571	C57	0.550300	0.237600	0.039200
C581	C58	0.465600	0.296200	0.027300
C591	C59	0.397000	0.284400	0.970400
C601	C60	0.633800	0.252400	0.096300
C611	C61	0.034400	0.653600	0.229600
C621	C62	0.975400	0.579700	0.211800
C631	C63	0.999100	0.503000	0.245700
C641	C64	0.083200	0.501300	0.294800
C651	C65	0.137500	0.577500	0.309500
C661	C66	0.935400	0.421800	0.227200
C671	C67	0.011500	0.837400	0.436100
C681	C68	0.941200	0.830900	0.493100
C691	C69	0.949700	0.762400	0.539200
C701	C70	0.034400	0.703800	0.527300
C711	C71	0.103000	0.715600	0.470400
C721	C72	0.866200	0.747600	0.596300
C731	C73	0.534400	0.846400	0.770400
C741	C74	0.475400	0.920300	0.788200
C751	C75	0.499100	0.997000	0.754300
C761	C76	0.583200	0.998700	0.705200
C771	C77	0.637500	0.922500	0.690500
C781	C78	0.435400	0.078200	0.772800
C791	C79	0.511500	0.662600	0.563900
C801	C80	0.441200	0.669100	0.506900
C811	C81	0.449700	0.737600	0.460800
C821	C82	0.534400	0.796200	0.472700
C831	C83	0.603000	0.784400	0.529600
C841	C84	0.366200	0.752400	0.403700
C851	C85	0.965600	0.153600	0.270400
C861	C86	0.024600	0.079700	0.288200
C871	C87	0.000900	0.003000	0.254300
C881	C88	0.916800	0.001300	0.205200
C891	C89	0.862500	0.077500	0.190500
C901	C90	0.064600	0.921800	0.272800
C911	C91	0.988500	0.337400	0.063900
C921	C92	0.058800	0.330900	0.006900
C931	C93	0.050300	0.262400	0.960800
C941	C94	0.965600	0.203800	0.972700
C951	C95	0.897000	0.215600	0.029600
C961	C96	0.133800	0.247600	0.903700
N91	N9	0.386600	0.345900	0.778100
N101	N10	0.409400	0.220000	0.924000
N111	N11	0.113400	0.654100	0.278100
N121	N12	0.090600	0.780000	0.424000
N131	N13	0.613400	0.845900	0.721900
N141	N14	0.590600	0.720000	0.576000
N151	N15	0.886600	0.154100	0.221900
N161	N16	0.909400	0.280000	0.076000
O171	O17	0.526400	0.651100	0.742600
O181	O18	0.654200	0.568300	0.694700
O191	O19	0.649600	0.328800	0.117400
O201	O20	0.688000	0.188600	0.116700
O211	O21	0.973600	0.348900	0.242600
O221	O22	0.845800	0.431700	0.194700
O231	O23	0.850400	0.671200	0.617400
O241	O24	0.812000	0.811400	0.616700
O251	O25	0.473600	0.151100	0.757400
O261	O26	0.345800	0.068300	0.805300
O271	O27	0.350400	0.828800	0.382600
O281	O28	0.312000	0.688600	0.383300
O291	O29	0.026400	0.848900	0.257400
O301	O30	0.154200	0.931700	0.305300
O311	O31	0.149600	0.171200	0.882600
O321	O32	0.188000	0.311400	0.883300
