data_ECOROD_clean_PM
_symmetry_space_group_name_H-M	'P1'
_cell_length_a	7.799000
_cell_length_b	9.212000
_cell_length_c	10.784000
_cell_angle_alpha	107.595000
_cell_angle_beta	92.877000
_cell_angle_gamma	110.248000
_symmetry_Int_Tables_number 1

loop_
_symmetry_equiv_pos_as_xyz
'x,y,z'

loop_
_atom_site_label
_atom_site_type_symbol
_atom_site_fract_x
_atom_site_fract_y
_atom_site_fract_z
Co11	Co1	0.348480	0.859160	0.870490
Co21	Co2	0.651520	0.140840	0.129510
Co31	Co3	0.000000	0.000000	0.000000
H11	H1	0.676500	0.018400	0.588300
H21	H2	0.878000	0.145800	0.643000
H31	H3	0.823500	0.478000	0.569300
H41	H4	0.968700	0.428100	0.631100
H51	H5	0.935100	0.392200	0.862200
H61	H6	0.761300	0.407300	0.920000
H71	H7	0.156600	0.003600	0.784100
H81	H8	0.303300	0.136600	0.904200
H91	H9	0.323500	0.981600	0.411700
H101	H10	0.122000	0.854200	0.357000
H111	H11	0.176500	0.522000	0.430700
H121	H12	0.031300	0.571900	0.368900
H131	H13	0.064900	0.607800	0.137800
H141	H14	0.238700	0.592700	0.080000
H151	H15	0.843400	0.996400	0.215900
H161	H16	0.696700	0.863400	0.095800
C11	C1	0.698400	0.188000	0.768700
C21	C2	0.750900	0.131400	0.632800
C31	C3	0.718300	0.233200	0.552000
C41	C4	0.842300	0.415700	0.621000
C51	C5	0.791700	0.478500	0.757600
C61	C6	0.807900	0.373900	0.840900
C71	C7	0.740100	0.100600	0.858100
C81	C8	0.749000	0.174100	0.410600
C91	C9	0.923200	0.655700	0.831900
C101	C10	0.301600	0.812000	0.231300
C111	C11	0.249100	0.868600	0.367200
C121	C12	0.281700	0.766800	0.448000
C131	C13	0.157700	0.584300	0.379000
C141	C14	0.208300	0.521500	0.242400
C151	C15	0.192100	0.626100	0.159100
C161	C16	0.259900	0.899400	0.141900
C171	C17	0.251000	0.825900	0.589400
C181	C18	0.076800	0.344300	0.168100
O11	O1	0.895900	0.092800	0.870500
O21	O2	0.615600	0.047000	0.923800
O31	O3	0.869500	0.113900	0.383500
O41	O4	0.648100	0.191100	0.325400
O51	O5	0.853900	0.762200	0.878500
O61	O6	0.093200	0.682000	0.846700
O71	O7	0.213900	0.027000	0.871500
O81	O8	0.104100	0.907200	0.129500
O91	O9	0.384400	0.953000	0.076200
O101	O10	0.130500	0.886100	0.616500
O111	O11	0.351900	0.808900	0.674600
O121	O12	0.146100	0.237800	0.121500
O131	O13	0.906800	0.318000	0.153300
O141	O14	0.786100	0.973000	0.128500
