data_ECORIX_clean_PM
_symmetry_space_group_name_H-M	'P1'
_cell_length_a	7.694000
_cell_length_b	9.210000
_cell_length_c	10.764000
_cell_angle_alpha	108.598000
_cell_angle_beta	92.300000
_cell_angle_gamma	109.814000
_symmetry_Int_Tables_number 1

loop_
_symmetry_equiv_pos_as_xyz
'x,y,z'

loop_
_atom_site_label
_atom_site_type_symbol
_atom_site_fract_x
_atom_site_fract_y
_atom_site_fract_z
Ni11	Ni1	0.850270	0.865850	0.872170
Ni21	Ni2	0.149730	0.134150	0.127830
Ni31	Ni3	0.500000	0.000000	0.000000
H11	H1	0.617100	0.858100	0.361000
H21	H2	0.820100	0.986000	0.414600
H31	H3	0.526300	0.578300	0.373300
H41	H4	0.672800	0.527700	0.434100
H51	H5	0.726200	0.588700	0.077900
H61	H6	0.555500	0.609900	0.142400
H71	H7	0.804600	0.138800	0.917100
H81	H8	0.661000	0.009000	0.792800
H91	H9	0.382900	0.141900	0.639000
H101	H10	0.179900	0.014000	0.585400
H111	H11	0.473700	0.421700	0.626700
H121	H12	0.327200	0.472300	0.565900
H131	H13	0.273800	0.411300	0.922100
H141	H14	0.444500	0.390100	0.857600
H151	H15	0.195400	0.861200	0.082900
H161	H16	0.339000	0.991000	0.207200
C11	C1	0.759900	0.898600	0.141200
C21	C2	0.799100	0.810900	0.231900
C31	C3	0.745500	0.872200	0.370300
C41	C4	0.780800	0.772500	0.450500
C51	C5	0.653900	0.588800	0.381800
C61	C6	0.703100	0.521400	0.242900
C71	C7	0.683600	0.625100	0.159600
C81	C8	0.752800	0.834500	0.594600
C91	C9	0.566200	0.343600	0.168900
C101	C10	0.240100	0.101400	0.858800
C111	C11	0.200900	0.189100	0.768100
C121	C12	0.254500	0.127800	0.629700
C131	C13	0.219200	0.227500	0.549500
C141	C14	0.346100	0.411200	0.618200
C151	C15	0.296900	0.478600	0.757100
C161	C16	0.316400	0.374900	0.840400
C171	C17	0.247200	0.165500	0.405400
C181	C18	0.433800	0.656400	0.831100
O11	O1	0.605100	0.910000	0.127200
O21	O2	0.890800	0.948300	0.076300
O31	O3	0.715000	0.029100	0.880200
O41	O4	0.396500	0.317300	0.155500
O51	O5	0.639500	0.235300	0.125200
O61	O6	0.636700	0.899700	0.625700
O71	O7	0.852700	0.810900	0.676200
O81	O8	0.394900	0.090000	0.872800
O91	O9	0.109200	0.051700	0.923700
O101	O10	0.285000	0.970900	0.119800
O111	O11	0.603500	0.682700	0.844500
O121	O12	0.360500	0.764700	0.874800
O131	O13	0.363300	0.100300	0.374300
O141	O14	0.147300	0.189100	0.323800
