data_ECUCUB_clean_PM
_symmetry_space_group_name_H-M	'P1'
_cell_length_a	6.044000
_cell_length_b	10.780000
_cell_length_c	11.486000
_cell_angle_alpha	68.710000
_cell_angle_beta	75.010000
_cell_angle_gamma	87.610000
_symmetry_Int_Tables_number 1

loop_
_symmetry_equiv_pos_as_xyz
'x,y,z'

loop_
_atom_site_label
_atom_site_type_symbol
_atom_site_fract_x
_atom_site_fract_y
_atom_site_fract_z
Yb11	Yb1	0.739080	0.877730	0.544790
Yb21	Yb2	0.260920	0.122270	0.455210
H11	H1	0.231500	0.970500	0.010900
H21	H2	0.301700	0.623500	0.285500
H31	H3	0.142400	0.624300	0.968600
H41	H4	0.105800	0.975100	0.830200
H51	H5	0.010100	0.839000	0.829700
H61	H6	0.380600	0.978600	0.180000
H71	H7	0.454000	0.844000	0.276600
H81	H8	0.365600	0.430300	0.225800
H91	H9	0.276700	0.424200	0.108500
H101	H10	0.768500	0.029500	0.989100
H111	H11	0.698300	0.376500	0.714500
H121	H12	0.857600	0.375700	0.031400
H131	H13	0.894200	0.024900	0.169800
H141	H14	0.989900	0.161000	0.170300
H151	H15	0.619400	0.021400	0.820000
H161	H16	0.546000	0.156000	0.723400
H171	H17	0.634400	0.569700	0.774200
H181	H18	0.723300	0.575800	0.891500
C11	C1	0.182000	0.808100	0.970600
C21	C2	0.229000	0.875800	0.043000
C31	C3	0.273000	0.809700	0.160400
C41	C4	0.271000	0.671300	0.204200
C51	C5	0.226000	0.602800	0.133700
C61	C6	0.178000	0.671800	0.017300
C71	C7	0.142000	0.882400	0.838700
C81	C8	0.352000	0.883800	0.733000
C91	C9	0.328000	0.885700	0.238100
C101	C10	0.121000	0.886800	0.344500
C111	C11	0.238000	0.453400	0.183400
C121	C12	0.026000	0.376900	0.276500
C131	C13	0.818000	0.191900	0.029400
C141	C14	0.771000	0.124200	0.957000
C151	C15	0.727000	0.190300	0.839600
C161	C16	0.729000	0.328700	0.795800
C171	C17	0.774000	0.397200	0.866300
C181	C18	0.822000	0.328200	0.982700
C191	C19	0.858000	0.117600	0.161300
C201	C20	0.648000	0.116200	0.267000
C211	C21	0.672000	0.114300	0.761900
C221	C22	0.879000	0.113200	0.655500
C231	C23	0.762000	0.546600	0.816600
C241	C24	0.974000	0.623100	0.723500
O11	O1	0.510200	0.811100	0.754700
O21	O2	0.363100	0.961200	0.618100
O31	O3	0.126000	0.964300	0.403700
O41	O4	0.945000	0.815400	0.375400
O51	O5	0.051000	0.260600	0.352500
O61	O6	0.835000	0.420400	0.274800
O71	O7	0.489800	0.188900	0.245300
O81	O8	0.636900	0.038800	0.381900
O91	O9	0.874000	0.035700	0.596300
O101	O10	0.055000	0.184600	0.624600
O111	O11	0.949000	0.739400	0.647500
O121	O12	0.165000	0.579600	0.725200
