data_ECUDIR_charged_PM
_symmetry_space_group_name_H-M	'P1'
_cell_length_a	9.522100
_cell_length_b	12.906500
_cell_length_c	12.906500
_cell_angle_alpha	92.020700
_cell_angle_beta	90.000000
_cell_angle_gamma	90.000000
_symmetry_Int_Tables_number 1

loop_
_symmetry_equiv_pos_as_xyz
'x,y,z'

loop_
_atom_site_label
_atom_site_type_symbol
_atom_site_fract_x
_atom_site_fract_y
_atom_site_fract_z
U11	U1	0.121360	0.400940	0.819260
U21	U2	0.621360	0.599060	0.180740
U31	U3	0.621360	0.180740	0.599060
U41	U4	0.121360	0.819260	0.400940
U51	U5	0.295070	0.293040	0.293040
U61	U6	0.795070	0.706960	0.706960
P11	P1	0.248800	0.571580	0.270320
P21	P2	0.316000	0.463550	0.069790
P31	P3	0.748800	0.428420	0.729680
P41	P4	0.816000	0.536450	0.930210
P51	P5	0.748800	0.729680	0.428420
P61	P6	0.816000	0.930210	0.536450
P71	P7	0.248800	0.270320	0.571580
P81	P8	0.316000	0.069790	0.463550
H11	H1	0.150000	0.713000	0.127000
H21	H2	0.300000	0.684000	0.074000
H31	H3	0.150000	0.656000	0.018000
H41	H4	0.031100	0.506600	0.073000
H51	H5	0.650000	0.287000	0.873000
H61	H6	0.800000	0.316000	0.926000
H71	H7	0.650000	0.344000	0.982000
H81	H8	0.531100	0.493400	0.927000
H91	H9	0.650000	0.873000	0.287000
H101	H10	0.800000	0.926000	0.316000
H111	H11	0.650000	0.982000	0.344000
H121	H12	0.531100	0.927000	0.493400
H131	H13	0.150000	0.127000	0.713000
H141	H14	0.300000	0.074000	0.684000
H151	H15	0.150000	0.018000	0.656000
H161	H16	0.031100	0.073000	0.506600
C11	C1	0.198200	0.558500	0.134500
C21	C2	0.199800	0.662100	0.083500
C31	C3	0.698200	0.441500	0.865500
C41	C4	0.699800	0.337900	0.916500
C51	C5	0.698200	0.865500	0.441500
C61	C6	0.699800	0.916500	0.337900
C71	C7	0.198200	0.134500	0.558500
C81	C8	0.199800	0.083500	0.662100
O11	O1	0.166000	0.520600	0.765600
O21	O2	0.257100	0.443900	0.963100
O31	O3	0.157400	0.655500	0.321300
O41	O4	0.228700	0.467900	0.319300
O51	O5	0.079100	0.279200	0.870200
O61	O6	0.368200	0.340200	0.804200
O71	O7	0.460700	0.515400	0.064400
O81	O8	0.320200	0.365700	0.133700
O91	O9	0.401600	0.603600	0.269000
O101	O10	0.057600	0.514900	0.133300
O111	O11	0.666000	0.479400	0.234400
O121	O12	0.757100	0.556100	0.036900
O131	O13	0.657400	0.344500	0.678700
O141	O14	0.728700	0.532100	0.680700
O151	O15	0.579100	0.720800	0.129800
O161	O16	0.868200	0.659800	0.195800
O171	O17	0.960700	0.484600	0.935600
O181	O18	0.820200	0.634300	0.866300
O191	O19	0.901600	0.396400	0.731000
O201	O20	0.557600	0.485100	0.866700
O211	O21	0.666000	0.234400	0.479400
O221	O22	0.757100	0.036900	0.556100
O231	O23	0.657400	0.678700	0.344500
O241	O24	0.728700	0.680700	0.532100
O251	O25	0.579100	0.129800	0.720800
O261	O26	0.868200	0.195800	0.659800
O271	O27	0.960700	0.935600	0.484600
O281	O28	0.820200	0.866300	0.634300
O291	O29	0.901600	0.731000	0.396400
O301	O30	0.557600	0.866700	0.485100
O311	O31	0.166000	0.765600	0.520600
O321	O32	0.257100	0.963100	0.443900
O331	O33	0.157400	0.321300	0.655500
O341	O34	0.228700	0.319300	0.467900
O351	O35	0.079100	0.870200	0.279200
O361	O36	0.368200	0.804200	0.340200
O371	O37	0.460700	0.064400	0.515400
O381	O38	0.320200	0.133700	0.365700
O391	O39	0.401600	0.269000	0.603600
O401	O40	0.057600	0.133300	0.514900
O411	O41	0.123000	0.259300	0.259300
O421	O42	0.385000	0.162300	0.162300
O431	O43	0.470900	0.325100	0.325100
O441	O44	0.623000	0.740700	0.740700
O451	O45	0.885000	0.837700	0.837700
O461	O46	0.970900	0.674900	0.674900
