data_ECUDEM_clean_PM
_symmetry_space_group_name_H-M	'P1'
_cell_length_a	8.431000
_cell_length_b	10.841000
_cell_length_c	11.114000
_cell_angle_alpha	64.430000
_cell_angle_beta	80.440000
_cell_angle_gamma	73.820000
_symmetry_Int_Tables_number 1

loop_
_symmetry_equiv_pos_as_xyz
'x,y,z'

loop_
_atom_site_label
_atom_site_type_symbol
_atom_site_fract_x
_atom_site_fract_y
_atom_site_fract_z
Sm11	Sm1	0.748620	0.003710	0.002230
Sm21	Sm2	0.251380	0.996290	0.997770
H11	H1	0.750800	0.953800	0.518800
H21	H2	0.097600	0.606200	0.520300
H31	H3	0.762700	0.569400	0.824100
H41	H4	0.527500	0.762000	0.815800
H51	H5	0.508900	0.908400	0.688000
H61	H6	0.022900	0.964400	0.375600
H71	H7	0.118900	0.825600	0.352000
H81	H8	0.067200	0.373700	0.675000
H91	H9	0.930500	0.354400	0.795400
H101	H10	0.249200	0.046200	0.481200
H111	H11	0.902400	0.393800	0.479700
H121	H12	0.237300	0.430600	0.175900
H131	H13	0.472500	0.238000	0.184200
H141	H14	0.491100	0.091600	0.312000
H151	H15	0.977100	0.035600	0.624400
H161	H16	0.881100	0.174400	0.648000
H171	H17	0.932800	0.626300	0.325000
H181	H18	0.069500	0.645600	0.204600
C11	C1	0.731000	0.768000	0.682800
C21	C2	0.797000	0.855500	0.559100
C31	C3	0.932000	0.791000	0.499200
C41	C4	0.002000	0.647000	0.561000
C51	C5	0.934000	0.561000	0.680600
C61	C6	0.805000	0.625000	0.739000
C71	C7	0.587000	0.835000	0.755000
C81	C8	0.636000	0.899000	0.833700
C91	C9	0.009000	0.879000	0.370000
C101	C10	0.887500	0.923000	0.253000
C111	C11	0.017000	0.406000	0.746000
C121	C12	0.149000	0.367000	0.841000
C131	C13	0.269000	0.232000	0.317200
C141	C14	0.203000	0.144500	0.440900
C151	C15	0.068000	0.209000	0.500800
C161	C16	0.998000	0.353000	0.439000
C171	C17	0.066000	0.439000	0.319400
C181	C18	0.195000	0.375000	0.261000
C191	C19	0.413000	0.165000	0.245000
C201	C20	0.364000	0.101000	0.166300
C211	C21	0.991000	0.121000	0.630000
C221	C22	0.112500	0.077000	0.747000
C231	C23	0.983000	0.594000	0.254000
C241	C24	0.851000	0.633000	0.159000
O11	O1	0.528300	0.938800	0.914000
O21	O2	0.780000	0.913100	0.823900
O31	O3	0.707300	0.990500	0.227700
O41	O4	0.000900	0.948800	0.131100
O51	O5	0.215000	0.237200	0.888500
O61	O6	0.183000	0.458000	0.861000
O71	O7	0.471700	0.061200	0.086000
O81	O8	0.220000	0.086900	0.176100
O91	O9	0.292700	0.009500	0.772300
O101	O10	0.999100	0.051200	0.868900
O111	O11	0.785000	0.762800	0.111500
O121	O12	0.817000	0.542000	0.139000
