data_ECUDOX_clean_PM
_symmetry_space_group_name_H-M	'P1'
_cell_length_a	9.511500
_cell_length_b	12.920000
_cell_length_c	12.920000
_cell_angle_alpha	91.981900
_cell_angle_beta	90.000000
_cell_angle_gamma	90.000000
_symmetry_Int_Tables_number 1

loop_
_symmetry_equiv_pos_as_xyz
'x,y,z'

loop_
_atom_site_label
_atom_site_type_symbol
_atom_site_fract_x
_atom_site_fract_y
_atom_site_fract_z
U11	U1	0.777060	0.680400	0.099180
U21	U2	0.277060	0.319600	0.900820
U31	U3	0.277060	0.900820	0.319600
U41	U4	0.777060	0.099180	0.680400
U51	U5	0.948120	0.206130	0.206130
U61	U6	0.448120	0.793870	0.793870
P11	P1	0.904300	0.229890	0.927810
P21	P2	0.970600	0.430290	0.036190
P31	P3	0.404300	0.770110	0.072190
P41	P4	0.470600	0.569710	0.963810
P51	P5	0.404300	0.072190	0.770110
P61	P6	0.470600	0.963810	0.569710
P71	P7	0.904300	0.927810	0.229890
P81	P8	0.970600	0.036190	0.430290
H11	H1	0.952500	0.419200	0.812200
H21	H2	0.796700	0.385600	0.790200
H31	H3	0.828200	0.490300	0.850700
H41	H4	0.690600	0.429300	0.997300
H51	H5	0.452500	0.580800	0.187800
H61	H6	0.296700	0.614400	0.209800
H71	H7	0.328200	0.509700	0.149300
H81	H8	0.190600	0.570700	0.002700
H91	H9	0.452500	0.187800	0.580800
H101	H10	0.296700	0.209800	0.614400
H111	H11	0.328200	0.149300	0.509700
H121	H12	0.190600	0.002700	0.570700
H131	H13	0.952500	0.812200	0.419200
H141	H14	0.796700	0.790200	0.385600
H151	H15	0.828200	0.850700	0.490300
H161	H16	0.690600	0.997300	0.429300
C11	C1	0.855000	0.364400	0.940400
C21	C2	0.858400	0.420000	0.839200
C31	C3	0.355000	0.635600	0.059600
C41	C4	0.358400	0.580000	0.160800
C51	C5	0.355000	0.059600	0.635600
C61	C6	0.358400	0.160800	0.580000
C71	C7	0.855000	0.940400	0.364400
C81	C8	0.858400	0.839200	0.420000
O11	O1	0.909700	0.535600	0.057400
O21	O2	0.813600	0.177900	0.845100
O31	O3	0.885600	0.178300	0.031900
O41	O4	0.114500	0.435800	0.983600
O51	O5	0.972100	0.366500	0.135100
O61	O6	0.058500	0.233100	0.895100
O71	O7	0.711500	0.368900	0.983100
O81	O8	0.409700	0.464400	0.942600
O91	O9	0.313600	0.822100	0.154900
O101	O10	0.385600	0.821700	0.968100
O111	O11	0.614500	0.564200	0.016400
O121	O12	0.472100	0.633500	0.864900
O131	O13	0.558500	0.766900	0.104900
O141	O14	0.211500	0.631100	0.016900
O151	O15	0.409700	0.942600	0.464400
O161	O16	0.313600	0.154900	0.822100
O171	O17	0.385600	0.968100	0.821700
O181	O18	0.614500	0.016400	0.564200
O191	O19	0.472100	0.864900	0.633500
O201	O20	0.558500	0.104900	0.766900
O211	O21	0.211500	0.016900	0.631100
O221	O22	0.909700	0.057400	0.535600
O231	O23	0.813600	0.845100	0.177900
O241	O24	0.885600	0.031900	0.178300
O251	O25	0.114500	0.983600	0.435800
O261	O26	0.972100	0.135100	0.366500
O271	O27	0.058500	0.895100	0.233100
O281	O28	0.711500	0.983100	0.368900
