data_ECUGEQ_clean_PM
_symmetry_space_group_name_H-M	'P1'
_cell_length_a	9.616400
_cell_length_b	18.574200
_cell_length_c	18.088900
_cell_angle_alpha	90.000000
_cell_angle_beta	91.280000
_cell_angle_gamma	90.000000
_symmetry_Int_Tables_number 1

loop_
_symmetry_equiv_pos_as_xyz
'x,y,z'

loop_
_atom_site_label
_atom_site_type_symbol
_atom_site_fract_x
_atom_site_fract_y
_atom_site_fract_z
U11	U1	0.469570	0.198200	0.708200
U21	U2	0.972160	0.264790	0.989710
U31	U3	0.252640	0.462690	0.874800
P11	P1	0.835800	0.154000	0.664000
P21	P2	0.781400	0.168900	0.829100
P31	P3	0.267800	0.265200	0.868000
P41	P4	0.343200	0.331600	0.012700
C11	C1	0.893700	0.191300	0.753000
C21	C2	0.903000	0.276000	0.747100
H11	H1	0.961600	0.288800	0.706900
H21	H2	0.941500	0.295100	0.792400
H31	H3	0.811700	0.295500	0.738500
C31	C3	0.391900	0.263200	0.945700
C41	C4	0.390000	0.185800	0.980600
H41	H4	0.454600	0.183600	0.021600
H51	H5	0.297900	0.175300	0.997400
H61	H6	0.415300	0.151000	0.944000
O11	O1	0.333400	0.218700	0.809300
O21	O2	0.434600	0.321400	0.081100
O31	O3	0.188800	0.318600	0.027700
O41	O4	0.132300	0.232500	0.895200
O51	O5	0.844200	0.200900	0.898800
O61	O6	0.248800	0.342900	0.844600
O71	O7	0.371400	0.405300	0.976900
O81	O8	0.836200	0.073500	0.669700
O91	O9	0.785000	0.085200	0.833300
O101	O10	0.528400	0.282000	0.920600
H71	H7	0.551000	0.254000	0.887800
O111	O11	0.689000	0.183800	0.652200
O121	O12	0.637500	0.199100	0.809100
O131	O13	0.934800	0.181200	0.606400
O141	O14	0.031800	0.164500	0.769100
H81	H8	0.086000	0.180900	0.739100
U41	U4	0.530430	0.698200	0.791800
U51	U5	0.027840	0.764790	0.510290
U61	U6	0.747360	0.962690	0.625200
P51	P5	0.164200	0.654000	0.836000
P61	P6	0.218600	0.668900	0.670900
P71	P7	0.732200	0.765200	0.632000
P81	P8	0.656800	0.831600	0.487300
C51	C5	0.106300	0.691300	0.747000
C61	C6	0.097000	0.776000	0.752900
H91	H9	0.038400	0.788800	0.793100
H101	H10	0.058500	0.795100	0.707600
H111	H11	0.188300	0.795500	0.761500
C71	C7	0.608100	0.763200	0.554300
C81	C8	0.610000	0.685800	0.519400
H121	H12	0.545400	0.683600	0.478400
H131	H13	0.702100	0.675300	0.502600
H141	H14	0.584700	0.651000	0.556000
O151	O15	0.666600	0.718700	0.690700
O161	O16	0.565400	0.821400	0.418900
O171	O17	0.811200	0.818600	0.472300
O181	O18	0.867700	0.732500	0.604800
O191	O19	0.155800	0.700900	0.601200
O201	O20	0.751200	0.842900	0.655400
O211	O21	0.628600	0.905300	0.523100
O221	O22	0.163800	0.573500	0.830300
O231	O23	0.215000	0.585200	0.666700
O241	O24	0.471600	0.782000	0.579400
H151	H15	0.449000	0.754000	0.612200
O251	O25	0.311000	0.683800	0.847800
O261	O26	0.362500	0.699100	0.690900
O271	O27	0.065200	0.681200	0.893600
O281	O28	0.968200	0.664500	0.730900
H161	H16	0.914000	0.680900	0.760900
U71	U7	0.530430	0.801800	0.291800
U81	U8	0.027840	0.735210	0.010290
U91	U9	0.747360	0.537310	0.125200
P91	P9	0.164200	0.846000	0.336000
P101	P10	0.218600	0.831100	0.170900
P111	P11	0.732200	0.734800	0.132000
P121	P12	0.656800	0.668400	0.987300
C91	C9	0.106300	0.808700	0.247000
C101	C10	0.097000	0.724000	0.252900
H171	H17	0.038400	0.711200	0.293100
H181	H18	0.058500	0.704900	0.207600
H191	H19	0.188300	0.704500	0.261500
C111	C11	0.608100	0.736800	0.054300
C121	C12	0.610000	0.814200	0.019400
H201	H20	0.545400	0.816400	0.978400
H211	H21	0.702100	0.824700	0.002600
H221	H22	0.584700	0.849000	0.056000
O291	O29	0.666600	0.781300	0.190700
O301	O30	0.565400	0.678600	0.918900
O311	O31	0.811200	0.681400	0.972300
O321	O32	0.867700	0.767500	0.104800
O331	O33	0.155800	0.799100	0.101200
O341	O34	0.751200	0.657100	0.155400
O351	O35	0.628600	0.594700	0.023100
O361	O36	0.163800	0.926500	0.330300
O371	O37	0.215000	0.914800	0.166700
O381	O38	0.471600	0.718000	0.079400
H231	H23	0.449000	0.746000	0.112200
O391	O39	0.311000	0.816200	0.347800
O401	O40	0.362500	0.800900	0.190900
O411	O41	0.065200	0.818800	0.393600
O421	O42	0.968200	0.835500	0.230900
H241	H24	0.914000	0.819100	0.260900
U101	U10	0.469570	0.301800	0.208200
U111	U11	0.972160	0.235210	0.489710
U121	U12	0.252640	0.037310	0.374800
P131	P13	0.835800	0.346000	0.164000
P141	P14	0.781400	0.331100	0.329100
P151	P15	0.267800	0.234800	0.368000
P161	P16	0.343200	0.168400	0.512700
C131	C13	0.893700	0.308700	0.253000
C141	C14	0.903000	0.224000	0.247100
H251	H25	0.961600	0.211200	0.206900
H261	H26	0.941500	0.204900	0.292400
H271	H27	0.811700	0.204500	0.238500
C151	C15	0.391900	0.236800	0.445700
C161	C16	0.390000	0.314200	0.480600
H281	H28	0.454600	0.316400	0.521600
H291	H29	0.297900	0.324700	0.497400
H301	H30	0.415300	0.349000	0.444000
O431	O43	0.333400	0.281300	0.309300
O441	O44	0.434600	0.178600	0.581100
O451	O45	0.188800	0.181400	0.527700
O461	O46	0.132300	0.267500	0.395200
O471	O47	0.844200	0.299100	0.398800
O481	O48	0.248800	0.157100	0.344600
O491	O49	0.371400	0.094700	0.476900
O501	O50	0.836200	0.426500	0.169700
O511	O51	0.785000	0.414800	0.333300
O521	O52	0.528400	0.218000	0.420600
H311	H31	0.551000	0.246000	0.387800
O531	O53	0.689000	0.316200	0.152200
O541	O54	0.637500	0.300900	0.309100
O551	O55	0.934800	0.318800	0.106400
O561	O56	0.031800	0.335500	0.269100
H321	H32	0.086000	0.319100	0.239100
