data_EDAPIK_clean_h_PM
_symmetry_space_group_name_H-M	'P1'
_cell_length_a	8.995000
_cell_length_b	23.485000
_cell_length_c	23.485000
_cell_angle_alpha	90.000000
_cell_angle_beta	90.000000
_cell_angle_gamma	90.000000
_symmetry_Int_Tables_number 1

loop_
_symmetry_equiv_pos_as_xyz
'x,y,z'

loop_
_atom_site_label
_atom_site_type_symbol
_atom_site_fract_x
_atom_site_fract_y
_atom_site_fract_z
Cu11	Cu1	0.500000	0.176640	0.176640
Cu21	Cu2	0.500000	0.823360	0.823360
Cu31	Cu3	0.000000	0.323360	0.676640
Cu41	Cu4	0.000000	0.676640	0.323360
C11	C1	0.232800	0.164100	0.106590
C21	C2	0.143400	0.154200	0.060110
C31	C3	0.213800	0.146900	0.007080
C41	C4	0.373300	0.147450	0.005260
C51	C5	0.446800	0.153510	0.055990
C61	C6	0.384200	0.135980	0.907680
C71	C7	0.106100	0.209200	0.643900
C81	C8	0.190000	0.160700	0.649200
C91	C9	0.268900	0.149450	0.699830
C101	C10	0.260100	0.186090	0.741580
C111	C11	0.176900	0.237700	0.733970
C121	C12	0.427000	0.132980	0.802090
C131	C13	0.232800	0.835900	0.893410
C141	C14	0.143400	0.845800	0.939890
C151	C15	0.213800	0.853100	0.992920
C161	C16	0.373300	0.852550	0.994740
C171	C17	0.446800	0.846490	0.944010
C181	C18	0.384200	0.864020	0.092320
C191	C19	0.106100	0.790800	0.356100
C201	C20	0.190000	0.839300	0.350800
C211	C21	0.268900	0.850550	0.300170
C221	C22	0.260100	0.813910	0.258420
C231	C23	0.176900	0.762300	0.266030
C241	C24	0.427000	0.867020	0.197910
C251	C25	0.732800	0.393410	0.664100
C261	C26	0.643400	0.439890	0.654200
C271	C27	0.713800	0.492920	0.646900
C281	C28	0.873300	0.494740	0.647450
C291	C29	0.946800	0.444010	0.653510
C301	C30	0.884200	0.592320	0.635980
C311	C31	0.606100	0.856100	0.709200
C321	C32	0.690000	0.850800	0.660700
C331	C33	0.768900	0.800170	0.649450
C341	C34	0.760100	0.758420	0.686090
C351	C35	0.676900	0.766030	0.737700
C361	C36	0.927000	0.697910	0.632980
C371	C37	0.732800	0.606590	0.335900
C381	C38	0.643400	0.560110	0.345800
C391	C39	0.713800	0.507080	0.353100
C401	C40	0.873300	0.505260	0.352550
C411	C41	0.946800	0.555990	0.346490
C421	C42	0.884200	0.407680	0.364020
C431	C43	0.606100	0.143900	0.290800
C441	C44	0.690000	0.149200	0.339300
C451	C45	0.768900	0.199830	0.350550
C461	C46	0.760100	0.241580	0.313910
C471	C47	0.676900	0.233970	0.262300
C481	C48	0.927000	0.302090	0.367020
C491	C49	0.267200	0.335900	0.606590
C501	C50	0.356600	0.345800	0.560110
C511	C51	0.286200	0.353100	0.507080
C521	C52	0.126700	0.352550	0.505260
C531	C53	0.053200	0.346490	0.555990
C541	C54	0.115800	0.364020	0.407680
C551	C55	0.393900	0.290800	0.143900
C561	C56	0.310000	0.339300	0.149200
C571	C57	0.231100	0.350550	0.199830
C581	C58	0.239900	0.313910	0.241580
C591	C59	0.323100	0.262300	0.233970
C601	C60	0.073000	0.367020	0.302090
C611	C61	0.267200	0.664100	0.393410
C621	C62	0.356600	0.654200	0.439890
C631	C63	0.286200	0.646900	0.492920
C641	C64	0.126700	0.647450	0.494740
C651	C65	0.053200	0.653510	0.444010
C661	C66	0.115800	0.635980	0.592320
C671	C67	0.393900	0.709200	0.856100
C681	C68	0.310000	0.660700	0.850800
C691	C69	0.231100	0.649450	0.800170
C701	C70	0.239900	0.686090	0.758420
C711	C71	0.323100	0.737700	0.766030
C721	C72	0.073000	0.632980	0.697910
C731	C73	0.767200	0.106590	0.164100
C741	C74	0.856600	0.060110	0.154200
C751	C75	0.786200	0.007080	0.146900
C761	C76	0.626700	0.005260	0.147450
C771	C77	0.553200	0.055990	0.153510
C781	C78	0.615800	0.907680	0.135980
C791	C79	0.893900	0.643900	0.209200
C801	C80	0.810000	0.649200	0.160700
C811	C81	0.731100	0.699830	0.149450
C821	C82	0.739900	0.741580	0.186090
C831	C83	0.823100	0.733970	0.237700
C841	C84	0.573000	0.802090	0.132980
C851	C85	0.767200	0.893410	0.835900
C861	C86	0.856600	0.939890	0.845800
C871	C87	0.786200	0.992920	0.853100
C881	C88	0.626700	0.994740	0.852550
C891	C89	0.553200	0.944010	0.846490
C901	C90	0.615800	0.092320	0.864020
C911	C91	0.893900	0.356100	0.790800
C921	C92	0.810000	0.350800	0.839300
C931	C93	0.731100	0.300170	0.850550
C941	C94	0.739900	0.258420	0.813910
C951	C95	0.823100	0.266030	0.762300
C961	C96	0.573000	0.197910	0.867020
C971	C97	0.500000	0.141190	0.858810
C981	C98	0.500000	0.858810	0.141190
C991	C99	0.000000	0.641190	0.641190
C1001	C100	0.000000	0.358810	0.358810
N11	N1	0.378900	0.161570	0.106240
N21	N2	0.106100	0.248040	0.687700
N31	N3	0.378900	0.838430	0.893760
N41	N4	0.106100	0.751960	0.312300
N51	N5	0.878900	0.393760	0.661570
N61	N6	0.606100	0.812300	0.748040
N71	N7	0.878900	0.606240	0.338430
N81	N8	0.606100	0.187700	0.251960
N91	N9	0.121100	0.338430	0.606240
N101	N10	0.393900	0.251960	0.187700
N111	N11	0.121100	0.661570	0.393760
N121	N12	0.393900	0.748040	0.812300
N131	N13	0.621100	0.106240	0.161570
N141	N14	0.893900	0.687700	0.248040
N151	N15	0.621100	0.893760	0.838430
N161	N16	0.893900	0.312300	0.751960
O11	O1	0.456000	0.140830	0.958700
O21	O2	0.328900	0.182730	0.793560
O31	O3	0.456000	0.859170	0.041300
O41	O4	0.328900	0.817270	0.206440
O51	O5	0.956000	0.541300	0.640830
O61	O6	0.828900	0.706440	0.682730
O71	O7	0.956000	0.458700	0.359170
O81	O8	0.828900	0.293560	0.317270
O91	O9	0.044000	0.359170	0.458700
O101	O10	0.171100	0.317270	0.293560
O111	O11	0.044000	0.640830	0.541300
O121	O12	0.171100	0.682730	0.706440
O131	O13	0.544000	0.958700	0.140830
O141	O14	0.671100	0.793560	0.182730
O151	O15	0.544000	0.041300	0.859170
O161	O16	0.671100	0.206440	0.817270
H11	H1	0.180920	0.175460	0.149400
H21	H2	0.017550	0.152190	0.065460
H31	H3	0.144290	0.140750	0.966960
H41	H4	0.573420	0.151830	0.057190
H51	H5	0.261680	0.129230	0.897250
H61	H6	0.037950	0.216740	0.603680
H71	H7	0.196360	0.129070	0.612460
H81	H8	0.338520	0.109070	0.703720
H91	H9	0.172640	0.270690	0.769540
H101	H10	0.453430	0.093650	0.775510
H111	H11	0.180920	0.824540	0.850600
H121	H12	0.017550	0.847810	0.934540
H131	H13	0.144290	0.859250	0.033040
H141	H14	0.573420	0.848170	0.942810
H151	H15	0.261680	0.870770	0.102750
H161	H16	0.037950	0.783260	0.396320
H171	H17	0.196360	0.870930	0.387540
H181	H18	0.338520	0.890930	0.296280
H191	H19	0.172640	0.729310	0.230460
H201	H20	0.453430	0.906350	0.224490
H211	H21	0.680920	0.350600	0.675460
H221	H22	0.517550	0.434540	0.652190
H231	H23	0.644290	0.533040	0.640750
H241	H24	0.073420	0.442810	0.651830
H251	H25	0.761680	0.602750	0.629230
H261	H26	0.537950	0.896320	0.716740
H271	H27	0.696360	0.887540	0.629070
H281	H28	0.838520	0.796280	0.609070
H291	H29	0.672640	0.730460	0.770690
H301	H30	0.953430	0.724490	0.593650
H311	H31	0.680920	0.649400	0.324540
H321	H32	0.517550	0.565460	0.347810
H331	H33	0.644290	0.466960	0.359250
H341	H34	0.073420	0.557190	0.348170
H351	H35	0.761680	0.397250	0.370770
H361	H36	0.537950	0.103680	0.283260
H371	H37	0.696360	0.112460	0.370930
H381	H38	0.838520	0.203720	0.390930
H391	H39	0.672640	0.269540	0.229310
H401	H40	0.953430	0.275510	0.406350
H411	H41	0.926580	0.348170	0.557190
H421	H42	0.238320	0.370770	0.397250
H431	H43	0.462050	0.283260	0.103680
H441	H44	0.303640	0.370930	0.112460
H451	H45	0.161480	0.390930	0.203720
H461	H46	0.327360	0.229310	0.269540
H471	H47	0.046570	0.406350	0.275510
H481	H48	0.926580	0.651830	0.442810
H491	H49	0.238320	0.629230	0.602750
H501	H50	0.462050	0.716740	0.896320
H511	H51	0.303640	0.629070	0.887540
H521	H52	0.161480	0.609070	0.796280
H531	H53	0.327360	0.770690	0.730460
H541	H54	0.046570	0.593650	0.724490
H551	H55	0.819080	0.149400	0.175460
H561	H56	0.982450	0.065460	0.152190
H571	H57	0.855710	0.966960	0.140750
H581	H58	0.426580	0.057190	0.151830
H591	H59	0.738320	0.897250	0.129230
H601	H60	0.962050	0.603680	0.216740
H611	H61	0.803640	0.612460	0.129070
H621	H62	0.661480	0.703720	0.109070
H631	H63	0.827360	0.769540	0.270690
H641	H64	0.546570	0.775510	0.093650
H651	H65	0.819080	0.850600	0.824540
H661	H66	0.982450	0.934540	0.847810
H671	H67	0.855710	0.033040	0.859250
H681	H68	0.426580	0.942810	0.848170
H691	H69	0.738320	0.102750	0.870770
H701	H70	0.962050	0.396320	0.783260
H711	H71	0.803640	0.387540	0.870930
H721	H72	0.661480	0.296280	0.890930
H731	H73	0.827360	0.230460	0.729310
H741	H74	0.546570	0.224490	0.906350
