data_EDAVOV_clean_PM
_symmetry_space_group_name_H-M	'P1'
_cell_length_a	6.987500
_cell_length_b	15.756300
_cell_length_c	15.756300
_cell_angle_alpha	62.145900
_cell_angle_beta	81.499100
_cell_angle_gamma	98.500900
_symmetry_Int_Tables_number 1

loop_
_symmetry_equiv_pos_as_xyz
'x,y,z'

loop_
_atom_site_label
_atom_site_type_symbol
_atom_site_fract_x
_atom_site_fract_y
_atom_site_fract_z
Cu11	Cu1	0.539000	0.432200	0.098290
Cu21	Cu2	0.637290	0.098290	0.469510
Cu31	Cu3	0.106800	0.469510	0.432200
Cu41	Cu4	0.461000	0.567800	0.901710
Cu51	Cu5	0.362710	0.901710	0.530490
Cu61	Cu6	0.893200	0.530490	0.567800
H11	H1	0.797600	0.341100	0.284300
H21	H2	0.878900	0.307600	0.209400
H31	H3	0.040900	0.488600	0.139000
H41	H4	0.225400	0.650100	0.046700
H51	H5	0.278500	0.813700	0.929200
H61	H6	0.037900	0.864800	0.843200
H71	H7	0.753300	0.754000	0.870100
H81	H8	0.081900	0.284300	0.374600
H91	H9	0.088300	0.209400	0.483000
H101	H10	0.179900	0.139000	0.372400
H111	H11	0.272100	0.046700	0.303200
H121	H12	0.207700	0.929200	0.257100
H131	H13	0.881100	0.843200	0.292000
H141	H14	0.623400	0.870100	0.375900
H151	H15	0.456500	0.374600	0.341100
H161	H16	0.571300	0.483000	0.307600
H171	H17	0.552300	0.372400	0.488600
H181	H18	0.575300	0.303200	0.650100
H191	H19	0.464800	0.257100	0.813700
H201	H20	0.173100	0.292000	0.864800
H211	H21	0.999300	0.375900	0.754000
H221	H22	0.202400	0.658900	0.715700
H231	H23	0.121100	0.692400	0.790600
H241	H24	0.959100	0.511400	0.861000
H251	H25	0.774600	0.349900	0.953300
H261	H26	0.721500	0.186300	0.070800
H271	H27	0.962100	0.135200	0.156800
H281	H28	0.246700	0.246000	0.129900
H291	H29	0.918100	0.715700	0.625400
H301	H30	0.911700	0.790600	0.517000
H311	H31	0.820100	0.861000	0.627600
H321	H32	0.727900	0.953300	0.696800
H331	H33	0.792300	0.070800	0.742900
H341	H34	0.118900	0.156800	0.708000
H351	H35	0.376600	0.129900	0.624100
H361	H36	0.543500	0.625400	0.658900
H371	H37	0.428700	0.517000	0.692400
H381	H38	0.447700	0.627600	0.511400
H391	H39	0.424700	0.696800	0.349900
H401	H40	0.535200	0.742900	0.186300
H411	H41	0.826900	0.708000	0.135200
H421	H42	0.000700	0.624100	0.246000
C11	C1	0.572420	0.263630	0.258070
C21	C2	0.774280	0.333930	0.228590
C31	C3	0.933240	0.501580	0.110760
C41	C4	0.954770	0.600670	0.030960
C51	C5	0.129860	0.670570	0.011490
C61	C6	0.162020	0.768250	0.941590
C71	C7	0.018190	0.798200	0.889730
C81	C8	0.847480	0.731610	0.905670
C91	C9	0.812140	0.630210	0.974790
C101	C10	0.830490	0.258070	0.478300
C111	C11	0.002870	0.228590	0.437480
C121	C12	0.044000	0.110760	0.387660
C131	C13	0.985730	0.030960	0.368370
C141	C14	0.141350	0.011490	0.317940
C151	C15	0.103610	0.941590	0.290160
C161	C16	0.907920	0.889730	0.312070
C171	C17	0.753150	0.905670	0.362720
C181	C18	0.786930	0.974790	0.395000
C191	C19	0.308790	0.478300	0.263630
C201	C20	0.440350	0.437480	0.333930
C211	C21	0.431660	0.387660	0.501580
C221	C22	0.354100	0.368370	0.600670
C231	C23	0.459290	0.317940	0.670570
C241	C24	0.393770	0.290160	0.768250
C251	C25	0.219990	0.312070	0.798200
C261	C26	0.115870	0.362720	0.731610
C271	C27	0.181930	0.395000	0.630210
C281	C28	0.427580	0.736370	0.741930
C291	C29	0.225720	0.666070	0.771410
C301	C30	0.066760	0.498420	0.889240
C311	C31	0.045230	0.399330	0.969040
C321	C32	0.870140	0.329430	0.988510
C331	C33	0.837980	0.231750	0.058410
C341	C34	0.981810	0.201800	0.110270
C351	C35	0.152520	0.268390	0.094330
C361	C36	0.187860	0.369790	0.025210
C371	C37	0.169510	0.741930	0.521700
C381	C38	0.997130	0.771410	0.562520
C391	C39	0.956000	0.889240	0.612340
C401	C40	0.014270	0.969040	0.631630
C411	C41	0.858650	0.988510	0.682060
C421	C42	0.896390	0.058410	0.709840
C431	C43	0.092080	0.110270	0.687930
C441	C44	0.246850	0.094330	0.637280
C451	C45	0.213070	0.025210	0.605000
C461	C46	0.691210	0.521700	0.736370
C471	C47	0.559650	0.562520	0.666070
C481	C48	0.568340	0.612340	0.498420
C491	C49	0.645900	0.631630	0.399330
C501	C50	0.540710	0.682060	0.329430
C511	C51	0.606230	0.709840	0.231750
C521	C52	0.780010	0.687930	0.201800
C531	C53	0.884130	0.637280	0.268390
C541	C54	0.818070	0.605000	0.369790
N11	N1	0.778220	0.430440	0.145580
N21	N2	0.923800	0.145580	0.423980
N31	N3	0.347780	0.423980	0.430440
N41	N4	0.221780	0.569560	0.854420
N51	N5	0.076200	0.854420	0.576020
N61	N6	0.652220	0.576020	0.569560
O11	O1	0.449420	0.296690	0.206830
O21	O2	0.535310	0.179150	0.329620
O31	O3	0.650890	0.565110	0.985140
O41	O4	0.656250	0.206830	0.496480
O51	O5	0.864930	0.329620	0.491230
O61	O6	0.636030	0.985140	0.449750
O71	O7	0.152730	0.496480	0.296690
O81	O8	0.356160	0.491230	0.179150
O91	O9	0.085780	0.449750	0.565110
O101	O10	0.550580	0.703310	0.793170
O111	O11	0.464690	0.820850	0.670380
O121	O12	0.349110	0.434890	0.014860
O131	O13	0.343750	0.793170	0.503520
O141	O14	0.135070	0.670380	0.508770
O151	O15	0.363970	0.014860	0.550250
O161	O16	0.847270	0.503520	0.703310
O171	O17	0.643840	0.508770	0.820850
O181	O18	0.914220	0.550250	0.434890
