data_EDECOG_clean_PM
_symmetry_space_group_name_H-M	'P1'
_cell_length_a	23.532000
_cell_length_b	23.532000
_cell_length_c	23.181000
_cell_angle_alpha	90.000000
_cell_angle_beta	90.000000
_cell_angle_gamma	90.000000
_symmetry_Int_Tables_number 1

loop_
_symmetry_equiv_pos_as_xyz
'x,y,z'

loop_
_atom_site_label
_atom_site_type_symbol
_atom_site_fract_x
_atom_site_fract_y
_atom_site_fract_z
Ni11	Ni1	0.002000	0.740590	0.139100
Au11	Au1	0.864840	0.639830	0.276700
Au21	Au2	0.134460	0.839130	0.995400
Au31	Au3	0.894890	0.594160	0.016800
N11	N1	0.947500	0.709900	0.198500
N21	N2	0.057400	0.769000	0.075900
N31	N3	0.975100	0.673300	0.088900
N41	N4	0.028000	0.807600	0.190200
N51	N5	0.067200	0.695100	0.174400
N61	N6	0.941200	0.785600	0.099500
C11	C1	0.916100	0.683800	0.226400
C21	C2	0.086600	0.790900	0.042700
C31	C3	0.948400	0.641000	0.061900
C41	C4	0.052500	0.840000	0.216500
C51	C5	0.104600	0.676700	0.197000
C61	C6	0.910800	0.816100	0.069600
Ni21	Ni2	0.502000	0.240590	0.639100
Au41	Au4	0.364840	0.139830	0.776700
Au51	Au5	0.634460	0.339130	0.495400
Au61	Au6	0.394890	0.094160	0.516800
N71	N7	0.447500	0.209900	0.698500
N81	N8	0.557400	0.269000	0.575900
N91	N9	0.475100	0.173300	0.588900
N101	N10	0.528000	0.307600	0.690200
N111	N11	0.567200	0.195100	0.674400
N121	N12	0.441200	0.285600	0.599500
C71	C7	0.416100	0.183800	0.726400
C81	C8	0.586600	0.290900	0.542700
C91	C9	0.448400	0.141000	0.561900
C101	C10	0.552500	0.340000	0.716500
C111	C11	0.604600	0.176700	0.697000
C121	C12	0.410800	0.316100	0.569600
Ni31	Ni3	0.498000	0.759410	0.639100
Au71	Au7	0.635160	0.860170	0.776700
Au81	Au8	0.365540	0.660870	0.495400
Au91	Au9	0.605110	0.905840	0.516800
N131	N13	0.552500	0.790100	0.698500
N141	N14	0.442600	0.731000	0.575900
N151	N15	0.524900	0.826700	0.588900
N161	N16	0.472000	0.692400	0.690200
N171	N17	0.432800	0.804900	0.674400
N181	N18	0.558800	0.714400	0.599500
C131	C13	0.583900	0.816200	0.726400
C141	C14	0.413400	0.709100	0.542700
C151	C15	0.551600	0.859000	0.561900
C161	C16	0.447500	0.660000	0.716500
C171	C17	0.395400	0.823300	0.697000
C181	C18	0.589200	0.683900	0.569600
Ni41	Ni4	0.998000	0.259410	0.139100
Au101	Au10	0.135160	0.360170	0.276700
Au111	Au11	0.865540	0.160870	0.995400
Au121	Au12	0.105110	0.405840	0.016800
N191	N19	0.052500	0.290100	0.198500
N201	N20	0.942600	0.231000	0.075900
N211	N21	0.024900	0.326700	0.088900
N221	N22	0.972000	0.192400	0.190200
N231	N23	0.932800	0.304900	0.174400
N241	N24	0.058800	0.214400	0.099500
C191	C19	0.083900	0.316200	0.226400
C201	C20	0.913400	0.209100	0.042700
C211	C21	0.051600	0.359000	0.061900
C221	C22	0.947500	0.160000	0.216500
C231	C23	0.895400	0.323300	0.197000
C241	C24	0.089200	0.183900	0.069600
Ni51	Ni5	0.259410	0.502000	0.389100
Au131	Au13	0.360170	0.364840	0.526700
Au141	Au14	0.160870	0.634460	0.245400
Au151	Au15	0.405840	0.394890	0.266800
N251	N25	0.290100	0.447500	0.448500
N261	N26	0.231000	0.557400	0.325900
N271	N27	0.326700	0.475100	0.338900
N281	N28	0.192400	0.528000	0.440200
N291	N29	0.304900	0.567200	0.424400
N301	N30	0.214400	0.441200	0.349500
C251	C25	0.316200	0.416100	0.476400
C261	C26	0.209100	0.586600	0.292700
C271	C27	0.359000	0.448400	0.311900
C281	C28	0.160000	0.552500	0.466500
C291	C29	0.323300	0.604600	0.447000
C301	C30	0.183900	0.410800	0.319600
Ni61	Ni6	0.759410	0.002000	0.889100
Au161	Au16	0.860170	0.864840	0.026700
Au171	Au17	0.660870	0.134460	0.745400
Au181	Au18	0.905840	0.894890	0.766800
N311	N31	0.790100	0.947500	0.948500
N321	N32	0.731000	0.057400	0.825900
N331	N33	0.826700	0.975100	0.838900
N341	N34	0.692400	0.028000	0.940200
N351	N35	0.804900	0.067200	0.924400
N361	N36	0.714400	0.941200	0.849500
C311	C31	0.816200	0.916100	0.976400
C321	C32	0.709100	0.086600	0.792700
C331	C33	0.859000	0.948400	0.811900
C341	C34	0.660000	0.052500	0.966500
C351	C35	0.823300	0.104600	0.947000
C361	C36	0.683900	0.910800	0.819600
Ni71	Ni7	0.240590	0.998000	0.889100
Au191	Au19	0.139830	0.135160	0.026700
Au201	Au20	0.339130	0.865540	0.745400
Au211	Au21	0.094160	0.105110	0.766800
N371	N37	0.209900	0.052500	0.948500
N381	N38	0.269000	0.942600	0.825900
N391	N39	0.173300	0.024900	0.838900
N401	N40	0.307600	0.972000	0.940200
N411	N41	0.195100	0.932800	0.924400
N421	N42	0.285600	0.058800	0.849500
C371	C37	0.183800	0.083900	0.976400
C381	C38	0.290900	0.913400	0.792700
C391	C39	0.141000	0.051600	0.811900
C401	C40	0.340000	0.947500	0.966500
C411	C41	0.176700	0.895400	0.947000
C421	C42	0.316100	0.089200	0.819600
Ni81	Ni8	0.740590	0.498000	0.389100
Au221	Au22	0.639830	0.635160	0.526700
Au231	Au23	0.839130	0.365540	0.245400
Au241	Au24	0.594160	0.605110	0.266800
N431	N43	0.709900	0.552500	0.448500
N441	N44	0.769000	0.442600	0.325900
N451	N45	0.673300	0.524900	0.338900
N461	N46	0.807600	0.472000	0.440200
N471	N47	0.695100	0.432800	0.424400
N481	N48	0.785600	0.558800	0.349500
C431	C43	0.683800	0.583900	0.476400
C441	C44	0.790900	0.413400	0.292700
C451	C45	0.641000	0.551600	0.311900
C461	C46	0.840000	0.447500	0.466500
C471	C47	0.676700	0.395400	0.447000
C481	C48	0.816100	0.589200	0.319600
Ni91	Ni9	0.002000	0.259410	0.639100
Au251	Au25	0.864840	0.360170	0.776700
Au261	Au26	0.134460	0.160870	0.495400
Au271	Au27	0.894890	0.405840	0.516800
N491	N49	0.947500	0.290100	0.698500
N501	N50	0.057400	0.231000	0.575900
N511	N51	0.975100	0.326700	0.588900
N521	N52	0.028000	0.192400	0.690200
N531	N53	0.067200	0.304900	0.674400
N541	N54	0.941200	0.214400	0.599500
C491	C49	0.916100	0.316200	0.726400
C501	C50	0.086600	0.209100	0.542700
C511	C51	0.948400	0.359000	0.561900
C521	C52	0.052500	0.160000	0.716500
C531	C53	0.104600	0.323300	0.697000
C541	C54	0.910800	0.183900	0.569600
Ni101	Ni10	0.502000	0.759410	0.139100
Au281	Au28	0.364840	0.860170	0.276700
Au291	Au29	0.634460	0.660870	0.995400
Au301	Au30	0.394890	0.905840	0.016800
N551	N55	0.447500	0.790100	0.198500
N561	N56	0.557400	0.731000	0.075900
N571	N57	0.475100	0.826700	0.088900
N581	N58	0.528000	0.692400	0.190200
N591	N59	0.567200	0.804900	0.174400
N601	N60	0.441200	0.714400	0.099500
C551	C55	0.416100	0.816200	0.226400
C561	C56	0.586600	0.709100	0.042700
C571	C57	0.448400	0.859000	0.061900
C581	C58	0.552500	0.660000	0.216500
C591	C59	0.604600	0.823300	0.197000
C601	C60	0.410800	0.683900	0.069600
Ni111	Ni11	0.498000	0.240590	0.139100
Au311	Au31	0.635160	0.139830	0.276700
Au321	Au32	0.365540	0.339130	0.995400
Au331	Au33	0.605110	0.094160	0.016800
N611	N61	0.552500	0.209900	0.198500
N621	N62	0.442600	0.269000	0.075900
N631	N63	0.524900	0.173300	0.088900
N641	N64	0.472000	0.307600	0.190200
N651	N65	0.432800	0.195100	0.174400
N661	N66	0.558800	0.285600	0.099500
C611	C61	0.583900	0.183800	0.226400
C621	C62	0.413400	0.290900	0.042700
C631	C63	0.551600	0.141000	0.061900
C641	C64	0.447500	0.340000	0.216500
C651	C65	0.395400	0.176700	0.197000
C661	C66	0.589200	0.316100	0.069600
Ni121	Ni12	0.998000	0.740590	0.639100
Au341	Au34	0.135160	0.639830	0.776700
Au351	Au35	0.865540	0.839130	0.495400
Au361	Au36	0.105110	0.594160	0.516800
N671	N67	0.052500	0.709900	0.698500
N681	N68	0.942600	0.769000	0.575900
N691	N69	0.024900	0.673300	0.588900
N701	N70	0.972000	0.807600	0.690200
N711	N71	0.932800	0.695100	0.674400
N721	N72	0.058800	0.785600	0.599500
C671	C67	0.083900	0.683800	0.726400
C681	C68	0.913400	0.790900	0.542700
C691	C69	0.051600	0.641000	0.561900
C701	C70	0.947500	0.840000	0.716500
C711	C71	0.895400	0.676700	0.697000
C721	C72	0.089200	0.816100	0.569600
Ni131	Ni13	0.259410	0.498000	0.889100
Au371	Au37	0.360170	0.635160	0.026700
Au381	Au38	0.160870	0.365540	0.745400
Au391	Au39	0.405840	0.605110	0.766800
N731	N73	0.290100	0.552500	0.948500
N741	N74	0.231000	0.442600	0.825900
N751	N75	0.326700	0.524900	0.838900
N761	N76	0.192400	0.472000	0.940200
N771	N77	0.304900	0.432800	0.924400
N781	N78	0.214400	0.558800	0.849500
C731	C73	0.316200	0.583900	0.976400
C741	C74	0.209100	0.413400	0.792700
C751	C75	0.359000	0.551600	0.811900
C761	C76	0.160000	0.447500	0.966500
C771	C77	0.323300	0.395400	0.947000
C781	C78	0.183900	0.589200	0.819600
Ni141	Ni14	0.759410	0.998000	0.389100
Au401	Au40	0.860170	0.135160	0.526700
Au411	Au41	0.660870	0.865540	0.245400
Au421	Au42	0.905840	0.105110	0.266800
N791	N79	0.790100	0.052500	0.448500
N801	N80	0.731000	0.942600	0.325900
N811	N81	0.826700	0.024900	0.338900
N821	N82	0.692400	0.972000	0.440200
N831	N83	0.804900	0.932800	0.424400
N841	N84	0.714400	0.058800	0.349500
C791	C79	0.816200	0.083900	0.476400
C801	C80	0.709100	0.913400	0.292700
C811	C81	0.859000	0.051600	0.311900
C821	C82	0.660000	0.947500	0.466500
C831	C83	0.823300	0.895400	0.447000
C841	C84	0.683900	0.089200	0.319600
Ni151	Ni15	0.240590	0.002000	0.389100
Au431	Au43	0.139830	0.864840	0.526700
Au441	Au44	0.339130	0.134460	0.245400
Au451	Au45	0.094160	0.894890	0.266800
N851	N85	0.209900	0.947500	0.448500
N861	N86	0.269000	0.057400	0.325900
N871	N87	0.173300	0.975100	0.338900
N881	N88	0.307600	0.028000	0.440200
N891	N89	0.195100	0.067200	0.424400
N901	N90	0.285600	0.941200	0.349500
C851	C85	0.183800	0.916100	0.476400
C861	C86	0.290900	0.086600	0.292700
C871	C87	0.141000	0.948400	0.311900
C881	C88	0.340000	0.052500	0.466500
C891	C89	0.176700	0.104600	0.447000
C901	C90	0.316100	0.910800	0.319600
Ni161	Ni16	0.740590	0.502000	0.889100
Au461	Au46	0.639830	0.364840	0.026700
Au471	Au47	0.839130	0.634460	0.745400
Au481	Au48	0.594160	0.394890	0.766800
N911	N91	0.709900	0.447500	0.948500
N921	N92	0.769000	0.557400	0.825900
N931	N93	0.673300	0.475100	0.838900
N941	N94	0.807600	0.528000	0.940200
N951	N95	0.695100	0.567200	0.924400
N961	N96	0.785600	0.441200	0.849500
C911	C91	0.683800	0.416100	0.976400
C921	C92	0.790900	0.586600	0.792700
C931	C93	0.641000	0.448400	0.811900
C941	C94	0.840000	0.552500	0.966500
C951	C95	0.676700	0.604600	0.947000
C961	C96	0.816100	0.410800	0.819600
