data_EDORIY_charged_PM
_symmetry_space_group_name_H-M	'P1'
_cell_length_a	14.189400
_cell_length_b	26.734600
_cell_length_c	27.132300
_cell_angle_alpha	79.455500
_cell_angle_beta	74.841800
_cell_angle_gamma	74.610800
_symmetry_Int_Tables_number 1

loop_
_symmetry_equiv_pos_as_xyz
'x,y,z'

loop_
_atom_site_label
_atom_site_type_symbol
_atom_site_fract_x
_atom_site_fract_y
_atom_site_fract_z
Cu11	Cu1	0.949730	0.388930	0.885270
Cu21	Cu2	0.677960	0.170440	0.982620
Cu31	Cu3	0.642450	0.178220	0.395880
Cu41	Cu4	0.223930	0.111070	0.614730
Cu51	Cu5	0.831020	0.329560	0.517380
Cu61	Cu6	0.216550	0.321780	0.104120
Cu71	Cu7	0.050270	0.611070	0.114730
Cu81	Cu8	0.322040	0.829560	0.017380
Cu91	Cu9	0.357550	0.821780	0.604120
Cu101	Cu10	0.776070	0.888930	0.385270
Cu111	Cu11	0.168980	0.670440	0.482620
Cu121	Cu12	0.783450	0.678220	0.895880
H11	H1	0.855800	0.543700	0.763500
H21	H2	0.879200	0.573700	0.803100
H31	H3	0.968500	0.547100	0.759500
H41	H4	0.136200	0.417900	0.890700
H51	H5	0.292900	0.375300	0.909500
H61	H6	0.193300	0.243100	0.952700
H71	H7	0.047300	0.285600	0.929800
H81	H8	0.876500	0.320800	0.983200
H91	H9	0.720200	0.310500	0.036100
H101	H10	0.588700	0.441000	0.956800
H111	H11	0.745500	0.451200	0.910400
H121	H12	0.998900	0.119900	0.663900
H131	H13	0.892400	0.134500	0.742100
H141	H14	0.093700	0.202200	0.773800
H151	H15	0.193900	0.189800	0.694000
H161	H16	0.631200	0.382300	0.581300
H171	H17	0.494100	0.440000	0.574600
H181	H18	0.641900	0.495400	0.433400
H191	H19	0.779600	0.430600	0.446800
H201	H20	0.593500	0.274700	0.918500
H211	H21	0.442400	0.320600	0.897800
H221	H22	0.305500	0.221200	0.002800
H231	H23	0.456900	0.173900	0.019900
H241	H24	0.544200	0.211000	0.073000
H251	H25	0.539800	0.213900	0.159900
H261	H26	0.831100	0.140700	0.135300
H271	H27	0.828400	0.139400	0.050400
H281	H28	0.810200	0.179800	0.294400
H291	H29	0.823600	0.180200	0.208000
H301	H30	0.537200	0.165700	0.239900
H311	H31	0.527800	0.168600	0.326000
H321	H32	0.700600	0.126100	0.492700
H331	H33	0.830300	0.102500	0.530100
H341	H34	0.572000	0.325600	0.094200
H351	H35	0.851300	0.199100	0.372500
H361	H36	0.439000	0.145400	0.443600
H371	H37	0.381000	0.075300	0.491300
H381	H38	0.666800	0.989600	0.465400
H391	H39	0.716100	0.064200	0.421800
H401	H40	0.326500	0.277900	0.368500
H411	H41	0.297700	0.290800	0.426600
H421	H42	0.352600	0.328000	0.381600
H431	H43	0.811100	0.090700	0.920700
H441	H44	0.918600	0.089400	0.839000
H451	H45	0.898000	0.244700	0.830500
H461	H46	0.790400	0.246000	0.912200
H471	H47	0.163000	0.956300	0.736500
H481	H48	0.256000	0.926300	0.696900
H491	H49	0.275100	0.952900	0.740500
H501	H50	0.444800	0.082100	0.609300
H511	H51	0.577700	0.124700	0.590500
H521	H52	0.389100	0.256900	0.547300
H531	H53	0.262700	0.214400	0.570200
H541	H54	0.180500	0.179200	0.516800
H551	H55	0.066800	0.189500	0.463900
H561	H56	0.986500	0.059000	0.543200
H571	H57	0.107100	0.048800	0.589600
H581	H58	0.782700	0.380100	0.836100
H591	H59	0.769000	0.365500	0.757900
H601	H60	0.069700	0.297800	0.726200
H611	H61	0.077700	0.310200	0.806000
H621	H62	0.594800	0.117700	0.918700
H631	H63	0.508700	0.060000	0.925400
H641	H64	0.570700	0.004600	0.066600
H651	H65	0.657000	0.069400	0.053200
H661	H66	0.786700	0.225300	0.581500
H671	H67	0.660800	0.179400	0.602200
H681	H68	0.529500	0.278800	0.497200
H691	H69	0.650700	0.326100	0.480100
H701	H70	0.828200	0.289000	0.427000
H711	H71	0.913600	0.286100	0.340100
H721	H72	0.107100	0.359300	0.364700
H731	H73	0.018200	0.360600	0.449600
H741	H74	0.284400	0.320200	0.205600
H751	H75	0.211800	0.319800	0.292000
H761	H76	0.942800	0.334300	0.260100
H771	H77	0.022400	0.331400	0.174000
H781	H78	0.319400	0.373900	0.007300
H791	H79	0.462900	0.397500	0.969900
H801	H80	0.991800	0.174400	0.405800
H811	H81	0.422900	0.300900	0.127500
H821	H82	0.028000	0.354600	0.056400
H831	H83	0.947600	0.424700	0.008700
H841	H84	0.121800	0.510400	0.034600
H851	H85	0.202100	0.435800	0.078200
H861	H86	0.972900	0.222100	0.131500
H871	H87	0.015100	0.209200	0.073400
H881	H88	0.062200	0.172000	0.118400
H891	H89	0.822500	0.409300	0.579300
H901	H90	0.847000	0.410600	0.661000
H911	H91	0.973200	0.255300	0.669500
H921	H92	0.948600	0.254000	0.587800
H931	H93	0.144200	0.456300	0.236500
H941	H94	0.120800	0.426300	0.196900
H951	H95	0.031500	0.452900	0.240500
H961	H96	0.863800	0.582100	0.109300
H971	H97	0.707100	0.624700	0.090500
H981	H98	0.806700	0.756900	0.047300
H991	H99	0.952700	0.714400	0.070200
H1001	H100	0.123500	0.679200	0.016800
H1011	H101	0.279800	0.689500	0.963900
H1021	H102	0.411300	0.559000	0.043200
H1031	H103	0.254500	0.548800	0.089600
H1041	H104	0.001100	0.880100	0.336100
H1051	H105	0.107600	0.865500	0.257900
H1061	H106	0.906300	0.797800	0.226200
H1071	H107	0.806100	0.810200	0.306000
H1081	H108	0.368800	0.617700	0.418700
H1091	H109	0.505900	0.560000	0.425400
H1101	H110	0.358100	0.504600	0.566600
H1111	H111	0.220400	0.569400	0.553200
H1121	H112	0.406500	0.725300	0.081500
H1131	H113	0.557600	0.679400	0.102200
H1141	H114	0.694500	0.778800	0.997200
H1151	H115	0.543100	0.826100	0.980100
H1161	H116	0.455800	0.789000	0.927000
H1171	H117	0.460200	0.786100	0.840100
H1181	H118	0.168900	0.859300	0.864700
H1191	H119	0.171600	0.860600	0.949600
H1201	H120	0.189800	0.820200	0.705600
H1211	H121	0.176400	0.819800	0.792000
H1221	H122	0.462800	0.834300	0.760100
H1231	H123	0.472200	0.831400	0.674000
H1241	H124	0.299400	0.873900	0.507300
H1251	H125	0.169700	0.897500	0.469900
H1261	H126	0.428000	0.674400	0.905800
H1271	H127	0.148700	0.800900	0.627500
H1281	H128	0.561000	0.854600	0.556400
H1291	H129	0.619000	0.924700	0.508700
H1301	H130	0.333200	0.010400	0.534600
H1311	H131	0.283900	0.935800	0.578200
H1321	H132	0.673500	0.722100	0.631500
H1331	H133	0.702300	0.709200	0.573400
H1341	H134	0.647400	0.672000	0.618400
H1351	H135	0.188900	0.909300	0.079300
H1361	H136	0.081400	0.910600	0.161000
H1371	H137	0.102000	0.755300	0.169500
H1381	H138	0.209600	0.754000	0.087800
H1391	H139	0.837000	0.043700	0.263500
H1401	H140	0.744000	0.073700	0.303100
H1411	H141	0.724900	0.047100	0.259500
H1421	H142	0.555200	0.917900	0.390700
H1431	H143	0.422300	0.875300	0.409500
H1441	H144	0.610900	0.743100	0.452700
H1451	H145	0.737300	0.785600	0.429800
H1461	H146	0.819500	0.820800	0.483200
H1471	H147	0.933200	0.810500	0.536100
H1481	H148	0.013500	0.941000	0.456800
H1491	H149	0.892900	0.951200	0.410400
H1501	H150	0.217300	0.619900	0.163900
H1511	H151	0.231000	0.634500	0.242100
H1521	H152	0.930300	0.702200	0.273800
H1531	H153	0.922300	0.689800	0.194000
H1541	H154	0.405200	0.882300	0.081300
H1551	H155	0.491300	0.940000	0.074600
H1561	H156	0.429300	0.995400	0.933400
H1571	H157	0.343000	0.930600	0.946800
H1581	H158	0.213300	0.774700	0.418500
H1591	H159	0.339200	0.820600	0.397800
H1601	H160	0.470500	0.721200	0.502800
H1611	H161	0.349300	0.673900	0.519900
H1621	H162	0.171800	0.711000	0.573000
H1631	H163	0.086400	0.713900	0.659900
H1641	H164	0.892900	0.640700	0.635300
H1651	H165	0.981800	0.639400	0.550400
H1661	H166	0.715600	0.679800	0.794400
H1671	H167	0.788200	0.680200	0.708000
H1681	H168	0.057200	0.665700	0.739900
H1691	H169	0.977600	0.668600	0.826000
H1701	H170	0.680600	0.626100	0.992700
H1711	H171	0.537100	0.602500	0.030100
H1721	H172	0.008200	0.825600	0.594200
H1731	H173	0.577100	0.699100	0.872500
H1741	H174	0.972000	0.645400	0.943600
H1751	H175	0.052400	0.575300	0.991300
H1761	H176	0.878200	0.489600	0.965400
H1771	H177	0.797900	0.564200	0.921800
H1781	H178	0.027100	0.777900	0.868500
H1791	H179	0.984900	0.790800	0.926600
H1801	H180	0.937800	0.828000	0.881600
H1811	H181	0.177500	0.590700	0.420700
H1821	H182	0.153000	0.589400	0.339000
H1831	H183	0.026800	0.744700	0.330500
H1841	H184	0.051400	0.746000	0.412200
C11	C1	0.919500	0.495600	0.818000
C21	C2	0.904500	0.544000	0.783200
C31	C3	0.149600	0.381400	0.901600
C41	C4	0.242800	0.356300	0.914100
C51	C5	0.260800	0.303200	0.933200
C61	C6	0.185000	0.278800	0.938800
C71	C7	0.097700	0.304500	0.924900
C81	C8	0.817100	0.346000	0.978400
C91	C9	0.723100	0.338400	0.008800
C101	C10	0.636700	0.371100	0.998900
C111	C11	0.646600	0.415300	0.962700
C121	C12	0.741200	0.421400	0.935400
C131	C13	0.017100	0.137100	0.686500
C141	C14	0.953500	0.145600	0.733400
C151	C15	0.975900	0.170200	0.768800
C161	C16	0.073000	0.186000	0.751400
C171	C17	0.133300	0.178000	0.704200
C181	C18	0.632700	0.405400	0.550200
C191	C19	0.551600	0.440000	0.547200
C201	C20	0.545500	0.479300	0.503300
C211	C21	0.637400	0.472400	0.464800
C221	C22	0.719500	0.432800	0.472800
C231	C23	0.533900	0.263400	0.936000
C241	C24	0.444000	0.291200	0.923400
C251	C25	0.359500	0.275700	0.947900
C261	C26	0.365200	0.232200	0.984800
C271	C27	0.454100	0.204600	0.995800
C281	C28	0.603400	0.196600	0.085600
C291	C29	0.600300	0.197900	0.138100
C301	C30	0.686000	0.175400	0.158200
C311	C31	0.770200	0.155100	0.124100
C321	C32	0.768700	0.154900	0.073100
C331	C33	0.753500	0.177600	0.283200
C341	C34	0.761700	0.178000	0.231400
C351	C35	0.680600	0.175100	0.212700
C361	C36	0.593600	0.170000	0.250000
C371	C37	0.588800	0.170800	0.301600
C381	C38	0.760300	0.137000	0.474600
C391	C39	0.836200	0.123300	0.497500
C401	C40	0.538600	0.360900	0.025900
C411	C41	0.521900	0.334400	0.074800
C421	C42	0.846900	0.178600	0.405200
C431	C43	0.486300	0.113500	0.449100
C441	C44	0.450800	0.071700	0.477100
C451	C45	0.519000	0.022600	0.485000
C461	C46	0.617700	0.021300	0.462700
C471	C47	0.646600	0.066500	0.435900
C481	C48	0.444500	0.260300	0.401300
C491	C49	0.347300	0.291900	0.393900
C501	C50	0.828900	0.121800	0.902400
C511	C51	0.892500	0.121200	0.853800
C521	C52	0.918000	0.166900	0.827100
C531	C53	0.879900	0.213400	0.848800
C541	C54	0.816200	0.214200	0.897400
C551	C55	0.233100	0.004400	0.682000
C561	C56	0.231700	0.956000	0.716800
C571	C57	0.432600	0.118600	0.598400
C581	C58	0.513200	0.143700	0.585900
C591	C59	0.497200	0.196800	0.566800
C601	C60	0.402600	0.221200	0.561200
C611	C61	0.327100	0.195500	0.575100
C621	C62	0.141500	0.154000	0.521600
C631	C63	0.070300	0.161600	0.491200
C641	C64	0.006700	0.128900	0.501100
C651	C65	0.024600	0.084700	0.537300
C661	C66	0.098000	0.078600	0.564600
C671	C67	0.840700	0.362900	0.813500
C681	C68	0.832500	0.354400	0.766600
C691	C69	0.914900	0.329800	0.731200
C701	C70	0.010400	0.314000	0.748600
C711	C71	0.015500	0.322000	0.795800
C721	C72	0.588300	0.094600	0.949800
C731	C73	0.538800	0.060000	0.952800
C741	C74	0.528100	0.020700	0.996700
C751	C75	0.574600	0.027600	0.035200
C761	C76	0.625100	0.067200	0.027200
C771	C77	0.733300	0.236600	0.564000
C781	C78	0.658600	0.208800	0.576600
C791	C79	0.583100	0.224300	0.552100
C801	C80	0.582200	0.267800	0.515200
C811	C81	0.654500	0.295400	0.504200
C821	C82	0.885600	0.303400	0.414400
C831	C83	0.936300	0.302100	0.361900
C841	C84	0.019600	0.324600	0.341800
C851	C85	0.049400	0.344900	0.375900
C861	C86	0.996700	0.345100	0.426900
C871	C87	0.214300	0.322400	0.216800
C881	C88	0.171100	0.322000	0.268600
C891	C89	0.068400	0.324900	0.287300
C901	C90	0.013600	0.330000	0.250000
C911	C91	0.061200	0.329200	0.198400
C921	C92	0.371900	0.363000	0.025400
C931	C93	0.457000	0.376700	0.002500
C941	C94	0.925400	0.139100	0.474100
C951	C95	0.931100	0.165600	0.425200
C961	C96	0.430700	0.321400	0.094800
C971	C97	0.048900	0.386500	0.050900
C981	C98	0.999600	0.428300	0.022900
C991	C99	0.026600	0.477400	0.015000
C1001	C100	0.101700	0.478700	0.037300
C1011	C101	0.149000	0.433500	0.064100
C1021	C102	0.106100	0.239700	0.098700
C1031	C103	0.033100	0.208100	0.106100
C1041	C104	0.853100	0.378200	0.597600
C1051	C105	0.867500	0.378800	0.646200
C1061	C106	0.912000	0.333100	0.672900
C1071	C107	0.942100	0.286600	0.651200
C1081	C108	0.927800	0.285800	0.602600
C1091	C109	0.080500	0.504400	0.182000
C1101	C110	0.095500	0.456000	0.216800
C1111	C111	0.850400	0.618600	0.098400
C1121	C112	0.757200	0.643700	0.085900
C1131	C113	0.739200	0.696800	0.066800
C1141	C114	0.815000	0.721200	0.061200
C1151	C115	0.902300	0.695500	0.075100
C1161	C116	0.182900	0.654000	0.021600
C1171	C117	0.276900	0.661600	0.991200
C1181	C118	0.363300	0.628900	0.001100
C1191	C119	0.353400	0.584700	0.037300
C1201	C120	0.258800	0.578600	0.064600
C1211	C121	0.982900	0.862900	0.313500
C1221	C122	0.046500	0.854400	0.266600
C1231	C123	0.024100	0.829800	0.231200
C1241	C124	0.927000	0.814000	0.248600
C1251	C125	0.866700	0.822000	0.295800
C1261	C126	0.367300	0.594600	0.449800
C1271	C127	0.448400	0.560000	0.452800
C1281	C128	0.454500	0.520700	0.496700
C1291	C129	0.362600	0.527600	0.535200
C1301	C130	0.280500	0.567200	0.527200
C1311	C131	0.466100	0.736600	0.064000
C1321	C132	0.556000	0.708800	0.076600
C1331	C133	0.640500	0.724300	0.052100
C1341	C134	0.634800	0.767800	0.015200
C1351	C135	0.545900	0.795400	0.004200
C1361	C136	0.396600	0.803400	0.914400
C1371	C137	0.399700	0.802100	0.861900
C1381	C138	0.314000	0.824600	0.841800
C1391	C139	0.229800	0.844900	0.875900
C1401	C140	0.231300	0.845100	0.926900
C1411	C141	0.246500	0.822400	0.716800
C1421	C142	0.238300	0.822000	0.768600
C1431	C143	0.319400	0.824900	0.787300
C1441	C144	0.406400	0.830000	0.750000
C1451	C145	0.411200	0.829200	0.698400
C1461	C146	0.239700	0.863000	0.525400
C1471	C147	0.163800	0.876700	0.502500
C1481	C148	0.461400	0.639100	0.974100
C1491	C149	0.478100	0.665600	0.925200
C1501	C150	0.153100	0.821400	0.594800
C1511	C151	0.513700	0.886500	0.550900
C1521	C152	0.549200	0.928300	0.522900
C1531	C153	0.481000	0.977400	0.515000
C1541	C154	0.382300	0.978700	0.537300
C1551	C155	0.353400	0.933500	0.564100
C1561	C156	0.555500	0.739700	0.598700
C1571	C157	0.652700	0.708100	0.606100
C1581	C158	0.171100	0.878200	0.097600
C1591	C159	0.107500	0.878800	0.146200
C1601	C160	0.082000	0.833100	0.172900
C1611	C161	0.120100	0.786600	0.151200
C1621	C162	0.183800	0.785800	0.102600
C1631	C163	0.766900	0.995600	0.318000
C1641	C164	0.768300	0.044000	0.283200
C1651	C165	0.567400	0.881400	0.401600
C1661	C166	0.486800	0.856300	0.414100
C1671	C167	0.502800	0.803200	0.433200
C1681	C168	0.597400	0.778800	0.438800
C1691	C169	0.672900	0.804500	0.424900
C1701	C170	0.858500	0.846000	0.478400
C1711	C171	0.929700	0.838400	0.508800
C1721	C172	0.993300	0.871100	0.498900
C1731	C173	0.975400	0.915300	0.462700
C1741	C174	0.902000	0.921400	0.435400
C1751	C175	0.159300	0.637100	0.186500
C1761	C176	0.167500	0.645600	0.233400
C1771	C177	0.085100	0.670200	0.268800
C1781	C178	0.989600	0.686000	0.251400
C1791	C179	0.984500	0.678000	0.204200
C1801	C180	0.411700	0.905400	0.050200
C1811	C181	0.461200	0.940000	0.047200
C1821	C182	0.471900	0.979300	0.003300
C1831	C183	0.425400	0.972400	0.964800
C1841	C184	0.374900	0.932800	0.972800
C1851	C185	0.266700	0.763400	0.436000
C1861	C186	0.341400	0.791200	0.423400
C1871	C187	0.416900	0.775700	0.447900
C1881	C188	0.417800	0.732200	0.484800
C1891	C189	0.345500	0.704600	0.495800
C1901	C190	0.114400	0.696600	0.585600
C1911	C191	0.063700	0.697900	0.638100
C1921	C192	0.980400	0.675400	0.658200
C1931	C193	0.950600	0.655100	0.624100
C1941	C194	0.003300	0.654900	0.573100
C1951	C195	0.785700	0.677600	0.783200
C1961	C196	0.828900	0.678000	0.731400
C1971	C197	0.931600	0.675100	0.712700
C1981	C198	0.986400	0.670000	0.750000
C1991	C199	0.938800	0.670800	0.801600
C2001	C200	0.628100	0.637000	0.974600
C2011	C201	0.543000	0.623300	0.997500
C2021	C202	0.074600	0.860900	0.525900
C2031	C203	0.068900	0.834400	0.574800
C2041	C204	0.569300	0.678600	0.905200
C2051	C205	0.951100	0.613500	0.949100
C2061	C206	0.000400	0.571700	0.977100
C2071	C207	0.973400	0.522600	0.985000
C2081	C208	0.898300	0.521300	0.962700
C2091	C209	0.851000	0.566500	0.935900
C2101	C210	0.893900	0.760300	0.901300
C2111	C211	0.966900	0.791900	0.893900
C2121	C212	0.146900	0.621800	0.402400
C2131	C213	0.132500	0.621200	0.353800
C2141	C214	0.088000	0.666900	0.327100
C2151	C215	0.057900	0.713400	0.348800
C2161	C216	0.072200	0.714200	0.397400
N11	N1	0.932600	0.457600	0.844200
N21	N2	0.078300	0.354700	0.904700
N31	N3	0.824400	0.388700	0.942300
N41	N4	0.108400	0.152900	0.670900
N51	N5	0.720100	0.397700	0.514300
N61	N6	0.540000	0.221700	0.971700
N71	N7	0.685000	0.176100	0.054700
N81	N8	0.668700	0.174500	0.318300
N91	N9	0.759800	0.165200	0.427200
N101	N10	0.584400	0.112300	0.428700
N111	N11	0.519300	0.234800	0.405000
N121	N12	0.790600	0.168400	0.924200
N131	N13	0.234400	0.042400	0.655800
N141	N14	0.337700	0.145300	0.595300
N151	N15	0.155400	0.111300	0.557700
N161	N16	0.932200	0.347100	0.829100
N171	N17	0.632100	0.102300	0.985700
N181	N18	0.733400	0.278300	0.528300
N191	N19	0.915800	0.323900	0.445300
N201	N20	0.161500	0.325500	0.181700
N211	N21	0.352200	0.334800	0.072800
N221	N22	0.125400	0.387700	0.071300
N231	N23	0.159100	0.265200	0.095000
N241	N24	0.883200	0.331600	0.575800
N251	N25	0.067400	0.542400	0.155800
N261	N26	0.921700	0.645300	0.095300
N271	N27	0.175600	0.611300	0.057700
N281	N28	0.891600	0.847100	0.329100
N291	N29	0.279900	0.602300	0.485700
N301	N30	0.460000	0.778300	0.028300
N311	N31	0.315000	0.823900	0.945300
N321	N32	0.331300	0.825500	0.681700
N331	N33	0.240200	0.834800	0.572800
N341	N34	0.415600	0.887700	0.571300
N351	N35	0.480700	0.765200	0.595000
N361	N36	0.209400	0.831600	0.075800
N371	N37	0.765600	0.957600	0.344200
N381	N38	0.662300	0.854700	0.404700
N391	N39	0.844600	0.888700	0.442300
N401	N40	0.067800	0.652900	0.170900
N411	N41	0.367900	0.897700	0.014300
N421	N42	0.266600	0.721700	0.471700
N431	N43	0.084200	0.676100	0.554700
N441	N44	0.838500	0.674500	0.818300
N451	N45	0.647800	0.665200	0.927200
N461	N46	0.874600	0.612300	0.928700
N471	N47	0.840900	0.734800	0.905000
N481	N48	0.116800	0.668400	0.424200
P11	P1	0.579090	0.447320	0.235300
W11	W1	0.660090	0.561050	0.242590
W21	W2	0.826240	0.463590	0.177670
W31	W3	0.472940	0.566810	0.167390
W41	W4	0.405230	0.543340	0.309280
W51	W5	0.755990	0.444820	0.309020
W61	W6	0.644560	0.472940	0.098820
W71	W7	0.501420	0.425010	0.372330
W81	W8	0.749150	0.345100	0.166740
W91	W9	0.408740	0.454930	0.156970
W101	W10	0.331850	0.434510	0.298930
W111	W11	0.685470	0.324040	0.298440
W121	W12	0.513550	0.329550	0.228950
O11	O1	0.675500	0.620800	0.245200
O21	O2	0.723700	0.518800	0.295800
O31	O3	0.533400	0.557400	0.291800
O41	O4	0.583700	0.574500	0.191700
O51	O5	0.778000	0.534600	0.194200
O61	O6	0.666600	0.469500	0.239100
O71	O7	0.939700	0.466400	0.140400
O81	O8	0.853400	0.445000	0.244600
O91	O9	0.743200	0.483400	0.128600
O101	O10	0.816400	0.394400	0.176600
O111	O11	0.422100	0.628700	0.144500
O121	O12	0.570200	0.542800	0.107800
O131	O13	0.387500	0.530200	0.151600
O141	O14	0.405100	0.561900	0.237100
O151	O15	0.543200	0.473400	0.187200
O161	O16	0.331400	0.598000	0.334600
O171	O17	0.306500	0.504000	0.312400
O181	O18	0.436600	0.497800	0.368000
O191	O19	0.492400	0.457900	0.282500
O201	O20	0.831400	0.434500	0.351300
O211	O21	0.752600	0.375900	0.300300
O221	O22	0.625200	0.446700	0.352300
O231	O23	0.699900	0.478200	0.034800
O241	O24	0.690000	0.399500	0.122500
O251	O25	0.518800	0.457100	0.100300
O261	O26	0.488500	0.407600	0.437200
O271	O27	0.575000	0.362300	0.344500
O281	O28	0.381600	0.414300	0.361300
O291	O29	0.840100	0.307000	0.125800
O301	O30	0.768700	0.309500	0.233700
O311	O31	0.636500	0.314500	0.178500
O321	O32	0.614700	0.388000	0.233000
O331	O33	0.317600	0.449800	0.129400
O341	O34	0.339800	0.456700	0.227500
O351	O35	0.467200	0.385000	0.178600
O361	O36	0.215200	0.422100	0.319700
O371	O37	0.415700	0.369600	0.277200
O381	O38	0.734200	0.273100	0.338500
O391	O39	0.588700	0.297000	0.279800
O401	O40	0.458000	0.281800	0.224200
P21	P2	0.261710	0.052680	0.264700
W131	W13	0.463730	0.938950	0.257410
W141	W14	0.467500	0.036410	0.322330
W151	W15	0.207140	0.933190	0.332610
W161	W16	0.257850	0.956660	0.190720
W171	W17	0.509830	0.055180	0.190980
W181	W18	0.216320	0.027060	0.401180
W191	W19	0.298760	0.074990	0.127670
W201	W20	0.260990	0.154900	0.333260
W211	W21	0.020640	0.045070	0.343030
W221	W22	0.065290	0.065490	0.201070
W231	W23	0.307950	0.175960	0.201560
W241	W24	0.072050	0.170450	0.271050
O411	O41	0.541500	0.879200	0.254800
O421	O42	0.538300	0.981200	0.204200
O431	O43	0.382600	0.942600	0.208200
O441	O44	0.349900	0.925500	0.308300
O451	O45	0.506800	0.965400	0.305800
O461	O46	0.375200	0.030500	0.260900
O471	O47	0.546500	0.033600	0.359600
O481	O48	0.543000	0.055000	0.255400
O491	O49	0.355200	0.016600	0.371400
O501	O50	0.387400	0.105600	0.323400
O511	O51	0.195300	0.871300	0.355500
O521	O52	0.220800	0.957200	0.392200
O531	O53	0.069300	0.969800	0.348400
O541	O54	0.204100	0.938100	0.262900
O551	O55	0.203800	0.026600	0.312800
O561	O56	0.264000	0.902000	0.165400
O571	O57	0.122900	0.996000	0.187600
O581	O58	0.302400	0.002200	0.132000
O591	O59	0.232800	0.042100	0.217500
O601	O60	0.617200	0.065500	0.148700
O611	O61	0.428800	0.124100	0.199700
O621	O62	0.424200	0.053300	0.147700
O631	O63	0.212900	0.021800	0.465200
O641	O64	0.212000	0.100500	0.377500
O651	O65	0.076200	0.042900	0.399700
O661	O66	0.333300	0.092400	0.062800
O671	O67	0.281800	0.137700	0.155500
O681	O68	0.157200	0.085700	0.138700
O691	O69	0.272900	0.193000	0.374200
O701	O70	0.311900	0.190500	0.266300
O711	O71	0.129500	0.185500	0.321500
O721	O72	0.235700	0.112000	0.267000
O731	O73	0.896800	0.050200	0.370600
O741	O74	0.024000	0.043300	0.272500
O751	O75	0.030800	0.115000	0.321400
O761	O76	0.957000	0.077900	0.180300
O771	O77	0.062500	0.130400	0.222800
O781	O78	0.345800	0.226900	0.161500
O791	O79	0.165500	0.203000	0.220200
O801	O80	0.964000	0.218200	0.275800
P31	P3	0.420910	0.552680	0.764700
W251	W25	0.339910	0.438950	0.757410
W261	W26	0.173760	0.536410	0.822330
W271	W27	0.527060	0.433190	0.832610
W281	W28	0.594770	0.456660	0.690720
W291	W29	0.244010	0.555180	0.690980
W301	W30	0.355440	0.527060	0.901180
W311	W31	0.498580	0.574990	0.627670
W321	W32	0.250850	0.654900	0.833260
W331	W33	0.591260	0.545070	0.843030
W341	W34	0.668150	0.565490	0.701070
W351	W35	0.314530	0.675960	0.701560
W361	W36	0.486450	0.670450	0.771050
O811	O81	0.324500	0.379200	0.754800
O821	O82	0.276300	0.481200	0.704200
O831	O83	0.466600	0.442600	0.708200
O841	O84	0.416300	0.425500	0.808300
O851	O85	0.222000	0.465400	0.805800
O861	O86	0.333400	0.530500	0.760900
O871	O87	0.060300	0.533600	0.859600
O881	O88	0.146600	0.555000	0.755400
O891	O89	0.256800	0.516600	0.871400
O901	O90	0.183600	0.605600	0.823400
O911	O91	0.577900	0.371300	0.855500
O921	O92	0.429800	0.457200	0.892200
O931	O93	0.612500	0.469800	0.848400
O941	O94	0.594900	0.438100	0.762900
O951	O95	0.456800	0.526600	0.812800
O961	O96	0.668600	0.402000	0.665400
O971	O97	0.693500	0.496000	0.687600
O981	O98	0.563400	0.502200	0.632000
O991	O99	0.507600	0.542100	0.717500
O1001	O100	0.168600	0.565500	0.648700
O1011	O101	0.247400	0.624100	0.699700
O1021	O102	0.374800	0.553300	0.647700
O1031	O103	0.300100	0.521800	0.965200
O1041	O104	0.310000	0.600500	0.877500
O1051	O105	0.481200	0.542900	0.899700
O1061	O106	0.511500	0.592400	0.562800
O1071	O107	0.425000	0.637700	0.655500
O1081	O108	0.618400	0.585700	0.638700
O1091	O109	0.159900	0.693000	0.874200
O1101	O110	0.231300	0.690500	0.766300
O1111	O111	0.363500	0.685500	0.821500
O1121	O112	0.385300	0.612000	0.767000
O1131	O113	0.682400	0.550200	0.870600
O1141	O114	0.660200	0.543300	0.772500
O1151	O115	0.532800	0.615000	0.821400
O1161	O116	0.784800	0.577900	0.680300
O1171	O117	0.584300	0.630400	0.722800
O1181	O118	0.265800	0.726900	0.661500
O1191	O119	0.411300	0.703000	0.720200
O1201	O120	0.542000	0.718200	0.775800
P41	P4	0.738290	0.947320	0.735300
W371	W37	0.536270	0.061050	0.742590
W381	W38	0.532500	0.963590	0.677670
W391	W39	0.792860	0.066810	0.667390
W401	W40	0.742150	0.043340	0.809280
W411	W41	0.490170	0.944820	0.809020
W421	W42	0.783680	0.972940	0.598820
W431	W43	0.701240	0.925010	0.872330
W441	W44	0.739010	0.845100	0.666740
W451	W45	0.979360	0.954930	0.656970
W461	W46	0.934710	0.934510	0.798930
W471	W47	0.692050	0.824040	0.798440
W481	W48	0.927950	0.829550	0.728950
O1211	O121	0.458500	0.120800	0.745200
O1221	O122	0.461700	0.018800	0.795800
O1231	O123	0.617400	0.057400	0.791800
O1241	O124	0.650100	0.074500	0.691700
O1251	O125	0.493200	0.034600	0.694200
O1261	O126	0.624800	0.969500	0.739100
O1271	O127	0.453500	0.966400	0.640400
O1281	O128	0.457000	0.945000	0.744600
O1291	O129	0.644800	0.983400	0.628600
O1301	O130	0.612600	0.894400	0.676600
O1311	O131	0.804700	0.128700	0.644500
O1321	O132	0.779200	0.042800	0.607800
O1331	O133	0.930700	0.030200	0.651600
O1341	O134	0.795900	0.061900	0.737100
O1351	O135	0.796200	0.973400	0.687200
O1361	O136	0.736000	0.098000	0.834600
O1371	O137	0.877100	0.004000	0.812400
O1381	O138	0.697600	0.997800	0.868000
O1391	O139	0.767200	0.957900	0.782500
O1401	O140	0.382800	0.934500	0.851300
O1411	O141	0.571200	0.875900	0.800300
O1421	O142	0.575800	0.946700	0.852300
O1431	O143	0.787100	0.978200	0.534800
O1441	O144	0.788000	0.899500	0.622500
O1451	O145	0.923800	0.957100	0.600300
O1461	O146	0.666700	0.907600	0.937200
O1471	O147	0.718200	0.862300	0.844500
O1481	O148	0.842800	0.914300	0.861300
O1491	O149	0.727100	0.807000	0.625800
O1501	O150	0.688100	0.809500	0.733700
O1511	O151	0.870500	0.814500	0.678500
O1521	O152	0.764300	0.888000	0.733000
O1531	O153	0.103200	0.949800	0.629400
O1541	O154	0.976000	0.956700	0.727500
O1551	O155	0.969200	0.885000	0.678600
O1561	O156	0.043000	0.922100	0.819700
O1571	O157	0.937500	0.869600	0.777200
O1581	O158	0.654200	0.773100	0.838500
O1591	O159	0.834500	0.797000	0.779800
O1601	O160	0.036000	0.781800	0.724200
