data_EFAYEQ_clean_h_PM
_symmetry_space_group_name_H-M	'P1'
_cell_length_a	29.439200
_cell_length_b	29.439200
_cell_length_c	59.616800
_cell_angle_alpha	127.936500
_cell_angle_beta	127.936500
_cell_angle_gamma	90.412900
_symmetry_Int_Tables_number 1

loop_
_symmetry_equiv_pos_as_xyz
'x,y,z'

loop_
_atom_site_label
_atom_site_type_symbol
_atom_site_fract_x
_atom_site_fract_y
_atom_site_fract_z
Cu11	Cu1	0.679980	0.466120	0.972960
Cu21	Cu2	0.502730	0.966690	0.973310
Cu31	Cu3	0.819290	0.533230	0.026570
Cu41	Cu4	0.002970	0.966990	0.973530
H51	H5	0.736290	0.358580	0.088960
H61	H6	0.137870	0.763040	0.409140
H71	H7	0.079100	0.758500	0.423880
H81	H8	0.071390	0.849060	0.470150
H91	H9	0.939190	0.840930	0.372500
H101	H10	0.946910	0.750380	0.326230
H111	H11	0.744290	0.269540	0.077420
H121	H12	0.650470	0.145470	0.029840
H131	H13	0.654620	0.257150	0.125690
H141	H14	0.748440	0.381230	0.173260
H151	H15	0.932820	0.554570	0.174230
H161	H16	0.910040	0.561890	0.128150
H171	H17	0.671880	0.423610	0.026860
H181	H18	0.694540	0.416110	0.072810
H191	H19	0.693930	0.765700	0.073570
H201	H20	0.669630	0.642580	0.027810
H211	H21	0.906990	0.757250	0.126560
H221	H22	0.931110	0.880330	0.172120
H231	H23	0.734510	0.859860	0.087390
H241	H24	0.757280	0.732270	0.924350
H251	H25	0.848350	0.856380	0.970810
H261	H26	0.841120	0.745070	0.873520
H271	H27	0.750240	0.620980	0.827230
H281	H28	0.766480	0.638400	0.912630
H291	H29	0.802790	0.582690	0.925510
H301	H30	0.827810	0.576580	0.972510
H311	H31	0.590060	0.436380	0.871780
H321	H32	0.565080	0.442570	0.824790
H331	H33	0.117700	0.563710	0.326160
H341	H34	0.241240	0.588670	0.371920
H351	H35	0.354560	0.825740	0.470300
H361	H36	0.231070	0.800750	0.424540
H371	H37	0.739230	0.919830	0.075040
H381	H38	0.648630	0.927010	0.028400
H391	H39	0.657320	0.061050	0.126240
H401	H40	0.747900	0.053880	0.172880
C411	C41	0.907800	0.879600	0.952400
C421	C42	0.593300	0.997300	0.046300
C431	C43	0.905490	0.532310	0.224900
C441	C44	0.859430	0.464370	0.201500
C451	C45	0.799200	0.402520	0.153100
C461	C46	0.785000	0.408600	0.128100
C471	C47	0.831030	0.476510	0.151500
C481	C48	0.891280	0.538360	0.199900
C491	C49	0.964240	0.591040	0.273200
C501	C50	0.032340	0.604600	0.296700
C511	C51	0.094190	0.665810	0.345100
C521	C52	0.087890	0.713490	0.370000
C531	C53	0.019910	0.700010	0.346600
C541	C54	0.958070	0.638810	0.298200
C551	C55	0.013520	0.749740	0.372700
C561	C56	0.047840	0.776940	0.412400
C571	C57	0.043570	0.827030	0.438000
C581	C58	0.004900	0.849820	0.423800
C591	C59	0.970480	0.822520	0.384000
C601	C60	0.974750	0.772430	0.358400
C611	C61	0.751240	0.331940	0.127800
C621	C62	0.724220	0.266780	0.088200
C631	C63	0.672370	0.198150	0.061900
C641	C64	0.647640	0.194760	0.075300
C651	C65	0.674670	0.259910	0.114900
C661	C66	0.726530	0.328550	0.141200
C671	C67	0.814930	0.485010	0.126000
C681	C68	0.874480	0.525280	0.141280
C691	C69	0.861880	0.529340	0.115800
C701	C70	0.789790	0.493170	0.075100
C711	C71	0.730210	0.452870	0.059800
C721	C72	0.742720	0.448740	0.085200
C731	C73	0.813830	0.829550	0.125300
C741	C74	0.741550	0.763810	0.085400
C751	C75	0.728100	0.695700	0.060100
C761	C76	0.787080	0.693400	0.074800
C771	C77	0.859360	0.759140	0.114700
C781	C78	0.872690	0.827170	0.139900
C791	C79	0.800860	0.978100	0.151300
C801	C80	0.783520	0.908360	0.126530
C811	C81	0.826720	0.898480	0.150100
C821	C82	0.887330	0.958410	0.198500
C831	C83	0.904760	0.028240	0.223360
C841	C84	0.861570	0.038130	0.199800
C851	C85	0.748910	0.670030	0.873300
C861	C86	0.776050	0.735130	0.913000
C871	C87	0.826400	0.803800	0.938700
C881	C88	0.849550	0.807310	0.924600
C891	C89	0.822410	0.742210	0.884900
C901	C90	0.772140	0.673620	0.859300
C911	C91	0.595500	0.472500	0.776700
C921	C92	0.611410	0.460910	0.799600
C931	C93	0.672310	0.519970	0.848000
C941	C94	0.717250	0.590650	0.873500
C951	C95	0.701280	0.602240	0.850600
C961	C96	0.640370	0.543190	0.802200
C971	C97	0.682620	0.513020	0.872700
C981	C98	0.755230	0.550010	0.913500
C991	C99	0.769080	0.546600	0.939500
C1001	C100	0.710230	0.506090	0.924600
C1011	C101	0.637630	0.469090	0.883800
C1021	C102	0.623780	0.472520	0.857800
C1031	C103	0.167910	0.680950	0.373000
C1041	C104	0.170670	0.622270	0.358400
C1051	C105	0.238960	0.636080	0.383700
C1061	C106	0.304500	0.708580	0.423600
C1071	C107	0.301640	0.767160	0.438100
C1081	C108	0.233350	0.753350	0.412800
C1091	C109	0.748450	0.986550	0.126500
C1101	C110	0.720940	0.951420	0.086500
C1111	C111	0.670830	0.955390	0.060700
C1121	C112	0.648230	0.994490	0.074900
C1131	C113	0.675640	0.029500	0.114800
C1141	C114	0.725740	0.025540	0.140600
C1151	C115	0.592100	0.117500	0.046000
C1161	C116	0.770500	0.495300	0.046100
C1171	C117	0.772000	0.622400	0.048100
C1181	C118	0.717700	0.499100	0.950100
C1191	C119	0.378700	0.724100	0.452300
C1201	C120	0.000400	0.905400	0.451600
C1211	C121	0.917400	0.146000	0.227200
C1221	C122	0.909100	0.209100	0.242400
C1231	C123	0.583100	0.577700	0.773800
C1241	C124	0.548400	0.571200	0.738100
C1251	C125	0.910000	0.646600	0.234600
C1261	C126	0.967900	0.730500	0.271500
C1271	C127	0.848600	0.575000	0.264500
C1281	C128	0.766800	0.541000	0.224700
O1291	O129	0.919610	0.931250	0.982700
O1301	O130	0.926770	0.876450	0.938300
O1311	O131	0.576720	0.970340	0.013900
O1321	O132	0.572650	0.030090	0.061100
O1331	O133	0.971130	0.929710	0.439900
O1341	O134	0.827370	0.622530	0.060000
O1351	O135	0.710620	0.565100	0.014600
O1361	O136	0.711070	0.472930	0.016000
O1371	O137	0.829530	0.528790	0.061400
O1381	O138	0.436370	0.789630	0.485900
O1391	O139	0.379500	0.670880	0.440700
O1401	O140	0.669540	0.470620	0.939400
O1411	O141	0.786640	0.527580	0.983400
O1421	O142	0.027990	0.923270	0.485200
O1431	O143	0.578000	0.066420	0.015400
O1441	O144	0.572610	0.123830	0.061500
O1451	O145	0.875100	0.103300	0.221900
O1461	O146	0.622400	0.548000	0.776400
O1471	O147	0.937700	0.606900	0.226000
O1481	O148	0.891700	0.624500	0.274500
H1491	H149	0.870920	0.459510	0.221720
H1501	H150	0.037420	0.566050	0.276560
H1511	H151	0.922300	0.950460	0.217580
H1521	H152	0.575040	0.403790	0.778990
H1531	H153	0.977570	0.170930	0.255030
H1541	H154	0.893680	0.110880	0.193530
H1551	H155	0.894870	0.218080	0.258090
H1561	H156	0.863550	0.192230	0.211120
H1571	H157	0.962950	0.262120	0.268870
H1581	H158	0.537700	0.547090	0.763840
H1591	H159	0.623390	0.637920	0.809330
H1601	H160	0.534270	0.610260	0.745140
H1611	H161	0.496380	0.512520	0.701990
H1621	H162	0.589190	0.586070	0.741080
H1631	H163	0.857640	0.621830	0.201160
H1641	H164	0.896840	0.640820	0.247520
H1651	H165	0.970400	0.737330	0.255340
H1661	H166	0.024210	0.752220	0.301740
H1671	H167	0.950900	0.762520	0.284060
H1681	H168	0.854380	0.529710	0.253090
H1691	H169	0.866750	0.605610	0.295970
H1701	H170	0.729050	0.486940	0.206290
H1711	H171	0.755260	0.530670	0.199310
H1721	H172	0.756520	0.580630	0.239520
Cu1731	Cu173	0.533880	0.320020	0.527040
Cu1741	Cu174	0.033310	0.497270	0.526690
Cu1751	Cu175	0.466770	0.180710	0.473430
Cu1761	Cu176	0.033010	0.997030	0.526470
H1771	H177	0.641420	0.263710	0.411040
H1781	H178	0.236960	0.862130	0.090860
H1791	H179	0.241500	0.920900	0.076120
H1801	H180	0.150940	0.928610	0.029850
H1811	H181	0.159070	0.060810	0.127500
H1821	H182	0.249620	0.053090	0.173770
H1831	H183	0.730460	0.255710	0.422580
H1841	H184	0.854530	0.349530	0.470160
H1851	H185	0.742850	0.345380	0.374310
H1861	H186	0.618770	0.251560	0.326740
H1871	H187	0.445430	0.067180	0.325770
H1881	H188	0.438110	0.089960	0.371850
H1891	H189	0.576390	0.328120	0.473140
H1901	H190	0.583890	0.305460	0.427190
H1911	H191	0.234300	0.306070	0.426430
H1921	H192	0.357420	0.330370	0.472190
H1931	H193	0.242750	0.093010	0.373440
H1941	H194	0.119670	0.068890	0.327880
H1951	H195	0.140140	0.265490	0.412610
H1961	H196	0.267730	0.242720	0.575650
H1971	H197	0.143620	0.151650	0.529190
H1981	H198	0.254930	0.158880	0.626480
H1991	H199	0.379020	0.249760	0.672770
H2001	H200	0.361600	0.233520	0.587370
H2011	H201	0.417310	0.197210	0.574490
H2021	H202	0.423420	0.172190	0.527490
H2031	H203	0.563620	0.409940	0.628220
H2041	H204	0.557430	0.434920	0.675210
H2051	H205	0.436290	0.882300	0.173840
H2061	H206	0.411330	0.758760	0.128080
H2071	H207	0.174260	0.645440	0.029700
H2081	H208	0.199250	0.768930	0.075460
H2091	H209	0.080170	0.260770	0.424960
H2101	H210	0.072990	0.351370	0.471600
H2111	H211	0.938950	0.342680	0.373760
H2121	H212	0.946120	0.252100	0.327120
C2131	C213	0.120400	0.092200	0.547600
C2141	C214	0.002700	0.406700	0.453700
C2151	C215	0.467690	0.094510	0.275100
C2161	C216	0.535630	0.140570	0.298500
C2171	C217	0.597480	0.200800	0.346900
C2181	C218	0.591400	0.215000	0.371900
C2191	C219	0.523490	0.168970	0.348500
C2201	C220	0.461640	0.108720	0.300100
C2211	C221	0.408960	0.035760	0.226800
C2221	C222	0.395400	0.967660	0.203300
C2231	C223	0.334190	0.905810	0.154900
C2241	C224	0.286510	0.912110	0.130000
C2251	C225	0.299990	0.980090	0.153400
C2261	C226	0.361190	0.041930	0.201800
C2271	C227	0.250260	0.986480	0.127300
C2281	C228	0.223060	0.952160	0.087600
C2291	C229	0.172970	0.956430	0.062000
C2301	C230	0.150180	0.995100	0.076200
C2311	C231	0.177480	0.029520	0.116000
C2321	C232	0.227570	0.025250	0.141600
C2331	C233	0.668060	0.248760	0.372200
C2341	C234	0.733220	0.275780	0.411800
C2351	C235	0.801850	0.327630	0.438100
C2361	C236	0.805240	0.352360	0.424700
C2371	C237	0.740090	0.325330	0.385100
C2381	C238	0.671450	0.273470	0.358800
C2391	C239	0.514990	0.185070	0.374000
C2401	C240	0.474720	0.125520	0.358720
C2411	C241	0.470660	0.138120	0.384200
C2421	C242	0.506830	0.210210	0.424900
C2431	C243	0.547130	0.269790	0.440200
C2441	C244	0.551260	0.257280	0.414800
C2451	C245	0.170450	0.186170	0.374700
C2461	C246	0.236190	0.258450	0.414600
C2471	C247	0.304300	0.271900	0.439900
C2481	C248	0.306600	0.212920	0.425200
C2491	C249	0.240860	0.140640	0.385300
C2501	C250	0.172830	0.127310	0.360100
C2511	C251	0.021900	0.199140	0.348700
C2521	C252	0.091640	0.216480	0.373470
C2531	C253	0.101520	0.173280	0.349900
C2541	C254	0.041590	0.112670	0.301500
C2551	C255	0.971760	0.095240	0.276640
C2561	C256	0.961870	0.138430	0.300200
C2571	C257	0.329970	0.251090	0.626700
C2581	C258	0.264870	0.223950	0.587000
C2591	C259	0.196200	0.173600	0.561300
C2601	C260	0.192690	0.150450	0.575400
C2611	C261	0.257790	0.177590	0.615100
C2621	C262	0.326380	0.227860	0.640700
C2631	C263	0.527500	0.404500	0.723300
C2641	C264	0.539090	0.388590	0.700400
C2651	C265	0.480030	0.327690	0.652000
C2661	C266	0.409350	0.282750	0.626500
C2671	C267	0.397760	0.298720	0.649400
C2681	C268	0.456810	0.359630	0.697800
C2691	C269	0.486980	0.317380	0.627300
C2701	C270	0.449990	0.244770	0.586500
C2711	C271	0.453400	0.230920	0.560500
C2721	C272	0.493910	0.289770	0.575400
C2731	C273	0.530910	0.362370	0.616200
C2741	C274	0.527480	0.376220	0.642200
C2751	C275	0.319050	0.832090	0.127000
C2761	C276	0.377730	0.829330	0.141600
C2771	C277	0.363920	0.761040	0.116300
C2781	C278	0.291420	0.695500	0.076400
C2791	C279	0.232840	0.698360	0.061900
C2801	C280	0.246650	0.766650	0.087200
C2811	C281	0.013450	0.251550	0.373500
C2821	C282	0.048580	0.279060	0.413500
C2831	C283	0.044610	0.329170	0.439300
C2841	C284	0.005510	0.351770	0.425100
C2851	C285	0.970500	0.324360	0.385200
C2861	C286	0.974460	0.274260	0.359400
C2871	C287	0.882500	0.407900	0.454000
C2881	C288	0.504700	0.229500	0.453900
C2891	C289	0.377600	0.228000	0.451900
C2901	C290	0.500900	0.282300	0.549900
C2911	C291	0.275900	0.621300	0.047700
C2921	C292	0.094600	0.999600	0.048400
C2931	C293	0.854000	0.082600	0.272800
C2941	C294	0.790900	0.090900	0.257600
C2951	C295	0.422300	0.416900	0.726200
C2961	C296	0.428800	0.451600	0.761900
C2971	C297	0.353400	0.090000	0.265400
C2981	C298	0.269500	0.032100	0.228500
C2991	C299	0.425000	0.151400	0.235500
C3001	C300	0.459000	0.233200	0.275300
O3011	O301	0.068750	0.080390	0.517300
O3021	O302	0.123550	0.073230	0.561700
O3031	O303	0.029660	0.423280	0.486100
O3041	O304	0.969910	0.427350	0.438900
O3051	O305	0.070290	0.028870	0.060100
O3061	O306	0.377470	0.172630	0.440000
O3071	O307	0.434900	0.289380	0.485400
O3081	O308	0.527070	0.288930	0.484000
O3091	O309	0.471210	0.170470	0.438600
O3101	O310	0.210370	0.563630	0.014100
O3111	O311	0.329120	0.620500	0.059300
O3121	O312	0.529380	0.330460	0.560600
O3131	O313	0.472420	0.213360	0.516600
O3141	O314	0.076730	0.972010	0.014800
O3151	O315	0.933580	0.422000	0.484600
O3161	O316	0.876170	0.427390	0.438500
O3171	O317	0.896700	0.124900	0.278100
O3181	O318	0.452000	0.377600	0.723600
O3191	O319	0.393100	0.062300	0.274000
O3201	O320	0.375500	0.108300	0.225500
H3211	H321	0.540490	0.129080	0.278280
H3221	H322	0.433950	0.962580	0.223440
H3231	H323	0.049540	0.077700	0.282420
H3241	H324	0.596210	0.424960	0.721010
H3251	H325	0.829070	0.022430	0.244970
H3261	H326	0.889120	0.106320	0.306470
H3271	H327	0.781920	0.105130	0.241910
H3281	H328	0.807770	0.136450	0.288880
H3291	H329	0.737880	0.037050	0.231130
H3301	H330	0.452910	0.462300	0.736160
H3311	H331	0.362080	0.376610	0.690670
H3321	H332	0.389740	0.465730	0.754860
H3331	H333	0.487480	0.503620	0.798010
H3341	H334	0.413930	0.410810	0.758920
H3351	H335	0.378170	0.142360	0.298840
H3361	H336	0.359180	0.103160	0.252480
H3371	H337	0.262670	0.029600	0.244660
H3381	H338	0.247780	0.975790	0.198260
H3391	H339	0.237480	0.049100	0.215940
H3401	H340	0.470290	0.145620	0.246910
H3411	H341	0.394390	0.133250	0.204030
H3421	H342	0.513060	0.270950	0.293710
H3431	H343	0.469330	0.244740	0.300690
H3441	H344	0.419370	0.243480	0.260480
Cu3451	Cu345	0.320020	0.533880	0.027040
Cu3461	Cu346	0.497270	0.033310	0.026690
Cu3471	Cu347	0.180710	0.466770	0.973430
Cu3481	Cu348	0.997030	0.033010	0.026470
H3491	H349	0.263710	0.641420	0.911040
H3501	H350	0.862130	0.236960	0.590860
H3511	H351	0.920900	0.241500	0.576120
H3521	H352	0.928610	0.150940	0.529850
H3531	H353	0.060810	0.159070	0.627500
H3541	H354	0.053090	0.249620	0.673770
H3551	H355	0.255710	0.730460	0.922580
H3561	H356	0.349530	0.854530	0.970160
H3571	H357	0.345380	0.742850	0.874310
H3581	H358	0.251560	0.618770	0.826740
H3591	H359	0.067180	0.445430	0.825770
H3601	H360	0.089960	0.438110	0.871850
H3611	H361	0.328120	0.576390	0.973140
H3621	H362	0.305460	0.583890	0.927190
H3631	H363	0.306070	0.234300	0.926430
H3641	H364	0.330370	0.357420	0.972190
H3651	H365	0.093010	0.242750	0.873440
H3661	H366	0.068890	0.119670	0.827880
H3671	H367	0.265490	0.140140	0.912610
H3681	H368	0.242720	0.267730	0.075650
H3691	H369	0.151650	0.143620	0.029190
H3701	H370	0.158880	0.254930	0.126480
H3711	H371	0.249760	0.379020	0.172770
H3721	H372	0.233520	0.361600	0.087370
H3731	H373	0.197210	0.417310	0.074490
H3741	H374	0.172190	0.423420	0.027490
H3751	H375	0.409940	0.563620	0.128220
H3761	H376	0.434920	0.557430	0.175210
H3771	H377	0.882300	0.436290	0.673840
H3781	H378	0.758760	0.411330	0.628080
H3791	H379	0.645440	0.174260	0.529700
H3801	H380	0.768930	0.199250	0.575460
H3811	H381	0.260770	0.080170	0.924960
H3821	H382	0.351370	0.072990	0.971600
H3831	H383	0.342680	0.938950	0.873760
H3841	H384	0.252100	0.946120	0.827120
C3851	C385	0.092200	0.120400	0.047600
C3861	C386	0.406700	0.002700	0.953700
C3871	C387	0.094510	0.467690	0.775100
C3881	C388	0.140570	0.535630	0.798500
C3891	C389	0.200800	0.597480	0.846900
C3901	C390	0.215000	0.591400	0.871900
C3911	C391	0.168970	0.523490	0.848500
C3921	C392	0.108720	0.461640	0.800100
C3931	C393	0.035760	0.408960	0.726800
C3941	C394	0.967660	0.395400	0.703300
C3951	C395	0.905810	0.334190	0.654900
C3961	C396	0.912110	0.286510	0.630000
C3971	C397	0.980090	0.299990	0.653400
C3981	C398	0.041930	0.361190	0.701800
C3991	C399	0.986480	0.250260	0.627300
C4001	C400	0.952160	0.223060	0.587600
C4011	C401	0.956430	0.172970	0.562000
C4021	C402	0.995100	0.150180	0.576200
C4031	C403	0.029520	0.177480	0.616000
C4041	C404	0.025250	0.227570	0.641600
C4051	C405	0.248760	0.668060	0.872200
C4061	C406	0.275780	0.733220	0.911800
C4071	C407	0.327630	0.801850	0.938100
C4081	C408	0.352360	0.805240	0.924700
C4091	C409	0.325330	0.740090	0.885100
C4101	C410	0.273470	0.671450	0.858800
C4111	C411	0.185070	0.514990	0.874000
C4121	C412	0.125520	0.474720	0.858720
C4131	C413	0.138120	0.470660	0.884200
C4141	C414	0.210210	0.506830	0.924900
C4151	C415	0.269790	0.547130	0.940200
C4161	C416	0.257280	0.551260	0.914800
C4171	C417	0.186170	0.170450	0.874700
C4181	C418	0.258450	0.236190	0.914600
C4191	C419	0.271900	0.304300	0.939900
C4201	C420	0.212920	0.306600	0.925200
C4211	C421	0.140640	0.240860	0.885300
C4221	C422	0.127310	0.172830	0.860100
C4231	C423	0.199140	0.021900	0.848700
C4241	C424	0.216480	0.091640	0.873470
C4251	C425	0.173280	0.101520	0.849900
C4261	C426	0.112670	0.041590	0.801500
C4271	C427	0.095240	0.971760	0.776640
C4281	C428	0.138430	0.961870	0.800200
C4291	C429	0.251090	0.329970	0.126700
C4301	C430	0.223950	0.264870	0.087000
C4311	C431	0.173600	0.196200	0.061300
C4321	C432	0.150450	0.192690	0.075400
C4331	C433	0.177590	0.257790	0.115100
C4341	C434	0.227860	0.326380	0.140700
C4351	C435	0.404500	0.527500	0.223300
C4361	C436	0.388590	0.539090	0.200400
C4371	C437	0.327690	0.480030	0.152000
C4381	C438	0.282750	0.409350	0.126500
C4391	C439	0.298720	0.397760	0.149400
C4401	C440	0.359630	0.456810	0.197800
C4411	C441	0.317380	0.486980	0.127300
C4421	C442	0.244770	0.449990	0.086500
C4431	C443	0.230920	0.453400	0.060500
C4441	C444	0.289770	0.493910	0.075400
C4451	C445	0.362370	0.530910	0.116200
C4461	C446	0.376220	0.527480	0.142200
C4471	C447	0.832090	0.319050	0.627000
C4481	C448	0.829330	0.377730	0.641600
C4491	C449	0.761040	0.363920	0.616300
C4501	C450	0.695500	0.291420	0.576400
C4511	C451	0.698360	0.232840	0.561900
C4521	C452	0.766650	0.246650	0.587200
C4531	C453	0.251550	0.013450	0.873500
C4541	C454	0.279060	0.048580	0.913500
C4551	C455	0.329170	0.044610	0.939300
C4561	C456	0.351770	0.005510	0.925100
C4571	C457	0.324360	0.970500	0.885200
C4581	C458	0.274260	0.974460	0.859400
C4591	C459	0.407900	0.882500	0.954000
C4601	C460	0.229500	0.504700	0.953900
C4611	C461	0.228000	0.377600	0.951900
C4621	C462	0.282300	0.500900	0.049900
C4631	C463	0.621300	0.275900	0.547700
C4641	C464	0.999600	0.094600	0.548400
C4651	C465	0.082600	0.854000	0.772800
C4661	C466	0.090900	0.790900	0.757600
C4671	C467	0.416900	0.422300	0.226200
C4681	C468	0.451600	0.428800	0.261900
C4691	C469	0.090000	0.353400	0.765400
C4701	C470	0.032100	0.269500	0.728500
C4711	C471	0.151400	0.425000	0.735500
C4721	C472	0.233200	0.459000	0.775300
O4731	O473	0.080390	0.068750	0.017300
O4741	O474	0.073230	0.123550	0.061700
O4751	O475	0.423280	0.029660	0.986100
O4761	O476	0.427350	0.969910	0.938900
O4771	O477	0.028870	0.070290	0.560100
O4781	O478	0.172630	0.377470	0.940000
O4791	O479	0.289380	0.434900	0.985400
O4801	O480	0.288930	0.527070	0.984000
O4811	O481	0.170470	0.471210	0.938600
O4821	O482	0.563630	0.210370	0.514100
O4831	O483	0.620500	0.329120	0.559300
O4841	O484	0.330460	0.529380	0.060600
O4851	O485	0.213360	0.472420	0.016600
O4861	O486	0.972010	0.076730	0.514800
O4871	O487	0.422000	0.933580	0.984600
O4881	O488	0.427390	0.876170	0.938500
O4891	O489	0.124900	0.896700	0.778100
O4901	O490	0.377600	0.452000	0.223600
O4911	O491	0.062300	0.393100	0.774000
O4921	O492	0.108300	0.375500	0.725500
H4931	H493	0.129080	0.540490	0.778280
H4941	H494	0.962580	0.433950	0.723440
H4951	H495	0.077700	0.049540	0.782420
H4961	H496	0.424960	0.596210	0.221010
H4971	H497	0.022430	0.829070	0.744970
H4981	H498	0.106320	0.889120	0.806470
H4991	H499	0.105130	0.781920	0.741910
H5001	H500	0.136450	0.807770	0.788880
H5011	H501	0.037050	0.737880	0.731130
H5021	H502	0.462300	0.452910	0.236160
H5031	H503	0.376610	0.362080	0.190670
H5041	H504	0.465730	0.389740	0.254860
H5051	H505	0.503620	0.487480	0.298010
H5061	H506	0.410810	0.413930	0.258920
H5071	H507	0.142360	0.378170	0.798840
H5081	H508	0.103160	0.359180	0.752480
H5091	H509	0.029600	0.262670	0.744660
H5101	H510	0.975790	0.247780	0.698260
H5111	H511	0.049100	0.237480	0.715940
H5121	H512	0.145620	0.470290	0.746910
H5131	H513	0.133250	0.394390	0.704030
H5141	H514	0.270950	0.513060	0.793710
H5151	H515	0.244740	0.469330	0.800690
H5161	H516	0.243480	0.419370	0.760480
Cu5171	Cu517	0.466120	0.679980	0.472960
Cu5181	Cu518	0.966690	0.502730	0.473310
Cu5191	Cu519	0.533230	0.819290	0.526570
Cu5201	Cu520	0.966990	0.002970	0.473530
H5211	H521	0.358580	0.736290	0.588960
H5221	H522	0.763040	0.137870	0.909140
H5231	H523	0.758500	0.079100	0.923880
H5241	H524	0.849060	0.071390	0.970150
H5251	H525	0.840930	0.939190	0.872500
H5261	H526	0.750380	0.946910	0.826230
H5271	H527	0.269540	0.744290	0.577420
H5281	H528	0.145470	0.650470	0.529840
H5291	H529	0.257150	0.654620	0.625690
H5301	H530	0.381230	0.748440	0.673260
H5311	H531	0.554570	0.932820	0.674230
H5321	H532	0.561890	0.910040	0.628150
H5331	H533	0.423610	0.671880	0.526860
H5341	H534	0.416110	0.694540	0.572810
H5351	H535	0.765700	0.693930	0.573570
H5361	H536	0.642580	0.669630	0.527810
H5371	H537	0.757250	0.906990	0.626560
H5381	H538	0.880330	0.931110	0.672120
H5391	H539	0.859860	0.734510	0.587390
H5401	H540	0.732270	0.757280	0.424350
H5411	H541	0.856380	0.848350	0.470810
H5421	H542	0.745070	0.841120	0.373520
H5431	H543	0.620980	0.750240	0.327230
H5441	H544	0.638400	0.766480	0.412630
H5451	H545	0.582690	0.802790	0.425510
H5461	H546	0.576580	0.827810	0.472510
H5471	H547	0.436380	0.590060	0.371780
H5481	H548	0.442570	0.565080	0.324790
H5491	H549	0.563710	0.117700	0.826160
H5501	H550	0.588670	0.241240	0.871920
H5511	H551	0.825740	0.354560	0.970300
H5521	H552	0.800750	0.231070	0.924540
H5531	H553	0.919830	0.739230	0.575040
H5541	H554	0.927010	0.648630	0.528400
H5551	H555	0.061050	0.657320	0.626240
H5561	H556	0.053880	0.747900	0.672880
C5571	C557	0.879600	0.907800	0.452400
C5581	C558	0.997300	0.593300	0.546300
C5591	C559	0.532310	0.905490	0.724900
C5601	C560	0.464370	0.859430	0.701500
C5611	C561	0.402520	0.799200	0.653100
C5621	C562	0.408600	0.785000	0.628100
C5631	C563	0.476510	0.831030	0.651500
C5641	C564	0.538360	0.891280	0.699900
C5651	C565	0.591040	0.964240	0.773200
C5661	C566	0.604600	0.032340	0.796700
C5671	C567	0.665810	0.094190	0.845100
C5681	C568	0.713490	0.087890	0.870000
C5691	C569	0.700010	0.019910	0.846600
C5701	C570	0.638810	0.958070	0.798200
C5711	C571	0.749740	0.013520	0.872700
C5721	C572	0.776940	0.047840	0.912400
C5731	C573	0.827030	0.043570	0.938000
C5741	C574	0.849820	0.004900	0.923800
C5751	C575	0.822520	0.970480	0.884000
C5761	C576	0.772430	0.974750	0.858400
C5771	C577	0.331940	0.751240	0.627800
C5781	C578	0.266780	0.724220	0.588200
C5791	C579	0.198150	0.672370	0.561900
C5801	C580	0.194760	0.647640	0.575300
C5811	C581	0.259910	0.674670	0.614900
C5821	C582	0.328550	0.726530	0.641200
C5831	C583	0.485010	0.814930	0.626000
C5841	C584	0.525280	0.874480	0.641280
C5851	C585	0.529340	0.861880	0.615800
C5861	C586	0.493170	0.789790	0.575100
C5871	C587	0.452870	0.730210	0.559800
C5881	C588	0.448740	0.742720	0.585200
C5891	C589	0.829550	0.813830	0.625300
C5901	C590	0.763810	0.741550	0.585400
C5911	C591	0.695700	0.728100	0.560100
C5921	C592	0.693400	0.787080	0.574800
C5931	C593	0.759140	0.859360	0.614700
C5941	C594	0.827170	0.872690	0.639900
C5951	C595	0.978100	0.800860	0.651300
C5961	C596	0.908360	0.783520	0.626530
C5971	C597	0.898480	0.826720	0.650100
C5981	C598	0.958410	0.887330	0.698500
C5991	C599	0.028240	0.904760	0.723360
C6001	C600	0.038130	0.861570	0.699800
C6011	C601	0.670030	0.748910	0.373300
C6021	C602	0.735130	0.776050	0.413000
C6031	C603	0.803800	0.826400	0.438700
C6041	C604	0.807310	0.849550	0.424600
C6051	C605	0.742210	0.822410	0.384900
C6061	C606	0.673620	0.772140	0.359300
C6071	C607	0.472500	0.595500	0.276700
C6081	C608	0.460910	0.611410	0.299600
C6091	C609	0.519970	0.672310	0.348000
C6101	C610	0.590650	0.717250	0.373500
C6111	C611	0.602240	0.701280	0.350600
C6121	C612	0.543190	0.640370	0.302200
C6131	C613	0.513020	0.682620	0.372700
C6141	C614	0.550010	0.755230	0.413500
C6151	C615	0.546600	0.769080	0.439500
C6161	C616	0.506090	0.710230	0.424600
C6171	C617	0.469090	0.637630	0.383800
C6181	C618	0.472520	0.623780	0.357800
C6191	C619	0.680950	0.167910	0.873000
C6201	C620	0.622270	0.170670	0.858400
C6211	C621	0.636080	0.238960	0.883700
C6221	C622	0.708580	0.304500	0.923600
C6231	C623	0.767160	0.301640	0.938100
C6241	C624	0.753350	0.233350	0.912800
C6251	C625	0.986550	0.748450	0.626500
C6261	C626	0.951420	0.720940	0.586500
C6271	C627	0.955390	0.670830	0.560700
C6281	C628	0.994490	0.648230	0.574900
C6291	C629	0.029500	0.675640	0.614800
C6301	C630	0.025540	0.725740	0.640600
C6311	C631	0.117500	0.592100	0.546000
C6321	C632	0.495300	0.770500	0.546100
C6331	C633	0.622400	0.772000	0.548100
C6341	C634	0.499100	0.717700	0.450100
C6351	C635	0.724100	0.378700	0.952300
C6361	C636	0.905400	0.000400	0.951600
C6371	C637	0.146000	0.917400	0.727200
C6381	C638	0.209100	0.909100	0.742400
C6391	C639	0.577700	0.583100	0.273800
C6401	C640	0.571200	0.548400	0.238100
C6411	C641	0.646600	0.910000	0.734600
C6421	C642	0.730500	0.967900	0.771500
C6431	C643	0.575000	0.848600	0.764500
C6441	C644	0.541000	0.766800	0.724700
O6451	O645	0.931250	0.919610	0.482700
O6461	O646	0.876450	0.926770	0.438300
O6471	O647	0.970340	0.576720	0.513900
O6481	O648	0.030090	0.572650	0.561100
O6491	O649	0.929710	0.971130	0.939900
O6501	O650	0.622530	0.827370	0.560000
O6511	O651	0.565100	0.710620	0.514600
O6521	O652	0.472930	0.711070	0.516000
O6531	O653	0.528790	0.829530	0.561400
O6541	O654	0.789630	0.436370	0.985900
O6551	O655	0.670880	0.379500	0.940700
O6561	O656	0.470620	0.669540	0.439400
O6571	O657	0.527580	0.786640	0.483400
O6581	O658	0.923270	0.027990	0.985200
O6591	O659	0.066420	0.578000	0.515400
O6601	O660	0.123830	0.572610	0.561500
O6611	O661	0.103300	0.875100	0.721900
O6621	O662	0.548000	0.622400	0.276400
O6631	O663	0.606900	0.937700	0.726000
O6641	O664	0.624500	0.891700	0.774500
H6651	H665	0.459510	0.870920	0.721720
H6661	H666	0.566050	0.037420	0.776560
H6671	H667	0.950460	0.922300	0.717580
H6681	H668	0.403790	0.575040	0.278990
H6691	H669	0.170930	0.977570	0.755030
H6701	H670	0.110880	0.893680	0.693530
H6711	H671	0.218080	0.894870	0.758090
H6721	H672	0.192230	0.863550	0.711120
H6731	H673	0.262120	0.962950	0.768870
H6741	H674	0.547090	0.537700	0.263840
H6751	H675	0.637920	0.623390	0.309330
H6761	H676	0.610260	0.534270	0.245140
H6771	H677	0.512520	0.496380	0.201990
H6781	H678	0.586070	0.589190	0.241080
H6791	H679	0.621830	0.857640	0.701160
H6801	H680	0.640820	0.896840	0.747520
H6811	H681	0.737330	0.970400	0.755340
H6821	H682	0.752220	0.024210	0.801740
H6831	H683	0.762520	0.950900	0.784060
H6841	H684	0.529710	0.854380	0.753090
H6851	H685	0.605610	0.866750	0.795970
H6861	H686	0.486940	0.729050	0.706290
H6871	H687	0.530670	0.755260	0.699310
H6881	H688	0.580630	0.756520	0.739520
