data_EFESEP_clean_PM
_symmetry_space_group_name_H-M	'P1'
_cell_length_a	25.107000
_cell_length_b	25.107000
_cell_length_c	23.531000
_cell_angle_alpha	90.000000
_cell_angle_beta	90.000000
_cell_angle_gamma	90.000000
_symmetry_Int_Tables_number 1

loop_
_symmetry_equiv_pos_as_xyz
'x,y,z'

loop_
_atom_site_label
_atom_site_type_symbol
_atom_site_fract_x
_atom_site_fract_y
_atom_site_fract_z
C11	C1	0.137300	0.208600	0.786300
C21	C2	0.272000	0.993000	0.834400
H11	H1	0.292000	0.000400	0.868800
H21	H2	0.296100	0.988100	0.802500
C31	C3	0.258800	0.896900	0.852700
H31	H3	0.266700	0.894300	0.893000
H41	H4	0.292000	0.899900	0.832000
C41	C4	0.228000	0.848000	0.833100
H51	H5	0.241800	0.816000	0.851000
H61	H6	0.190500	0.851300	0.842500
C51	C5	0.207300	0.844300	0.597700
H71	H7	0.169500	0.843700	0.589000
H81	H8	0.223300	0.812000	0.583100
C61	C6	0.026290	0.570300	0.570200
C71	C7	0.149100	0.673700	0.791700
C81	C8	0.094300	0.668600	0.810300
H91	H9	0.069500	0.694700	0.800900
C91	C9	0.079200	0.625200	0.841900
H101	H10	0.043800	0.621400	0.852600
C101	C10	0.115300	0.587600	0.857700
C111	C11	0.167400	0.592000	0.840900
H111	H11	0.191900	0.565900	0.851400
C121	C12	0.183900	0.634600	0.808400
H121	H12	0.219400	0.637000	0.797600
C131	C13	0.097000	0.540300	0.892900
O11	O1	0.132790	0.376010	0.898940
O21	O2	0.046000	0.359730	0.883760
O31	O3	0.226600	0.941000	0.842200
O41	O4	0.976970	0.572440	0.579210
O51	O5	0.047440	0.539770	0.533810
O61	O6	0.133180	0.506370	0.905920
O71	O7	0.050350	0.537790	0.906400
C141	C14	0.095000	0.348800	0.879100
C151	C15	0.108400	0.297900	0.847300
C161	C16	0.159400	0.278600	0.851200
H131	H13	0.184600	0.296000	0.873300
C171	C17	0.173100	0.231200	0.820900
H141	H14	0.206800	0.216200	0.825100
C181	C18	0.085700	0.228600	0.785000
H151	H15	0.059700	0.211200	0.763700
C191	C19	0.072700	0.273800	0.814900
H161	H16	0.038400	0.287700	0.812300
C201	C20	0.151300	0.160900	0.749200
C211	C21	0.173900	0.116700	0.775100
H171	H17	0.178900	0.117100	0.814200
C221	C22	0.189300	0.072100	0.745200
C231	C23	0.180300	0.072000	0.685700
C241	C24	0.158200	0.115600	0.658700
H181	H18	0.152300	0.115400	0.619700
C251	C25	0.144500	0.161400	0.692500
C261	C26	0.128400	0.208560	0.658500
C271	C27	0.086900	0.207400	0.619900
H191	H19	0.066200	0.176700	0.617500
C281	C28	0.075100	0.249100	0.585400
H201	H20	0.047100	0.246600	0.559700
C291	C29	0.105700	0.296240	0.588700
C301	C30	0.144600	0.298700	0.630000
H211	H21	0.163900	0.330100	0.634700
C311	C31	0.155400	0.255800	0.664200
H221	H22	0.181700	0.258800	0.692000
C321	C32	0.095700	0.341400	0.548000
C331	C33	0.232500	0.030300	0.823700
H231	H23	0.246600	0.065600	0.831300
H241	H24	0.203200	0.024200	0.849900
C341	C34	0.232900	0.892300	0.571000
H251	H25	0.269200	0.896200	0.584700
H261	H26	0.233900	0.888300	0.530000
C351	C35	0.230100	0.984300	0.576600
H271	H27	0.238300	0.987600	0.536500
H281	H28	0.263300	0.983700	0.597700
C361	C36	0.196500	0.030800	0.595600
H291	H29	0.211300	0.064200	0.582200
H301	H30	0.160300	0.027400	0.581800
C371	C37	0.198700	0.804600	0.687900
C381	C38	0.210000	0.804000	0.745600
C391	C39	0.191600	0.760700	0.780100
H311	H31	0.197600	0.760600	0.819100
C401	C40	0.164300	0.718600	0.754200
C411	C41	0.153800	0.720400	0.697500
C421	C42	0.170600	0.762900	0.666300
H321	H32	0.162300	0.763400	0.627800
C431	C43	0.121900	0.679400	0.668200
C441	C44	0.065700	0.682000	0.666500
H331	H33	0.048500	0.708700	0.686900
C451	C45	0.035400	0.646600	0.635900
H341	H34	0.998500	0.649500	0.635800
C461	C46	0.060000	0.606400	0.605130
C471	C47	0.113900	0.603930	0.605000
H351	H35	0.130700	0.578000	0.583200
C481	C48	0.144900	0.639200	0.636600
H361	H36	0.181700	0.635500	0.636400
O81	O8	0.044930	0.433950	0.967270
O91	O9	0.212660	0.028860	0.767500
O101	O10	0.235400	0.845660	0.770850
O111	O11	0.214940	0.847600	0.657100
O121	O12	0.201970	0.938080	0.586300
O131	O13	0.198270	0.027690	0.659040
O141	O14	0.063500	0.332770	0.509130
O151	O15	0.122480	0.383120	0.555630
Zn11	Zn1	0.037690	0.407730	0.048330
Zn21	Zn2	0.119080	0.439940	0.944800
C491	C49	0.862700	0.791400	0.786300
C501	C50	0.728000	0.007000	0.834400
H371	H37	0.708000	0.999600	0.868800
H381	H38	0.703900	0.011900	0.802500
C511	C51	0.741200	0.103100	0.852700
H391	H39	0.733300	0.105700	0.893000
H401	H40	0.708000	0.100100	0.832000
C521	C52	0.772000	0.152000	0.833100
H411	H41	0.758200	0.184000	0.851000
H421	H42	0.809500	0.148700	0.842500
C531	C53	0.792700	0.155700	0.597700
H431	H43	0.830500	0.156300	0.589000
H441	H44	0.776700	0.188000	0.583100
C541	C54	0.973710	0.429700	0.570200
C551	C55	0.850900	0.326300	0.791700
C561	C56	0.905700	0.331400	0.810300
H451	H45	0.930500	0.305300	0.800900
C571	C57	0.920800	0.374800	0.841900
H461	H46	0.956200	0.378600	0.852600
C581	C58	0.884700	0.412400	0.857700
C591	C59	0.832600	0.408000	0.840900
H471	H47	0.808100	0.434100	0.851400
C601	C60	0.816100	0.365400	0.808400
H481	H48	0.780600	0.363000	0.797600
C611	C61	0.903000	0.459700	0.892900
O161	O16	0.867210	0.623990	0.898940
O171	O17	0.954000	0.640270	0.883760
O181	O18	0.773400	0.059000	0.842200
O191	O19	0.023030	0.427560	0.579210
O201	O20	0.952560	0.460230	0.533810
O211	O21	0.866820	0.493630	0.905920
O221	O22	0.949650	0.462210	0.906400
C621	C62	0.905000	0.651200	0.879100
C631	C63	0.891600	0.702100	0.847300
C641	C64	0.840600	0.721400	0.851200
H491	H49	0.815400	0.704000	0.873300
C651	C65	0.826900	0.768800	0.820900
H501	H50	0.793200	0.783800	0.825100
C661	C66	0.914300	0.771400	0.785000
H511	H51	0.940300	0.788800	0.763700
C671	C67	0.927300	0.726200	0.814900
H521	H52	0.961600	0.712300	0.812300
C681	C68	0.848700	0.839100	0.749200
C691	C69	0.826100	0.883300	0.775100
H531	H53	0.821100	0.882900	0.814200
C701	C70	0.810700	0.927900	0.745200
C711	C71	0.819700	0.928000	0.685700
C721	C72	0.841800	0.884400	0.658700
H541	H54	0.847700	0.884600	0.619700
C731	C73	0.855500	0.838600	0.692500
C741	C74	0.871600	0.791440	0.658500
C751	C75	0.913100	0.792600	0.619900
H551	H55	0.933800	0.823300	0.617500
C761	C76	0.924900	0.750900	0.585400
H561	H56	0.952900	0.753400	0.559700
C771	C77	0.894300	0.703760	0.588700
C781	C78	0.855400	0.701300	0.630000
H571	H57	0.836100	0.669900	0.634700
C791	C79	0.844600	0.744200	0.664200
H581	H58	0.818300	0.741200	0.692000
C801	C80	0.904300	0.658600	0.548000
C811	C81	0.767500	0.969700	0.823700
H591	H59	0.753400	0.934400	0.831300
H601	H60	0.796800	0.975800	0.849900
C821	C82	0.767100	0.107700	0.571000
H611	H61	0.730800	0.103800	0.584700
H621	H62	0.766100	0.111700	0.530000
C831	C83	0.769900	0.015700	0.576600
H631	H63	0.761700	0.012400	0.536500
H641	H64	0.736700	0.016300	0.597700
C841	C84	0.803500	0.969200	0.595600
H651	H65	0.788700	0.935800	0.582200
H661	H66	0.839700	0.972600	0.581800
C851	C85	0.801300	0.195400	0.687900
C861	C86	0.790000	0.196000	0.745600
C871	C87	0.808400	0.239300	0.780100
H671	H67	0.802400	0.239400	0.819100
C881	C88	0.835700	0.281400	0.754200
C891	C89	0.846200	0.279600	0.697500
C901	C90	0.829400	0.237100	0.666300
H681	H68	0.837700	0.236600	0.627800
C911	C91	0.878100	0.320600	0.668200
C921	C92	0.934300	0.318000	0.666500
H691	H69	0.951500	0.291300	0.686900
C931	C93	0.964600	0.353400	0.635900
H701	H70	0.001500	0.350500	0.635800
C941	C94	0.940000	0.393600	0.605130
C951	C95	0.886100	0.396070	0.605000
H711	H71	0.869300	0.422000	0.583200
C961	C96	0.855100	0.360800	0.636600
H721	H72	0.818300	0.364500	0.636400
O231	O23	0.955070	0.566050	0.967270
O241	O24	0.787340	0.971140	0.767500
O251	O25	0.764600	0.154340	0.770850
O261	O26	0.785060	0.152400	0.657100
O271	O27	0.798030	0.061920	0.586300
O281	O28	0.801730	0.972310	0.659040
O291	O29	0.936500	0.667230	0.509130
O301	O30	0.877520	0.616880	0.555630
Zn31	Zn3	0.962310	0.592270	0.048330
Zn41	Zn4	0.880920	0.560060	0.944800
C971	C97	0.291400	0.362700	0.286300
C981	C98	0.507000	0.228000	0.334400
H731	H73	0.499600	0.208000	0.368800
H741	H74	0.511900	0.203900	0.302500
C991	C99	0.603100	0.241200	0.352700
H751	H75	0.605700	0.233300	0.393000
H761	H76	0.600100	0.208000	0.332000
C1001	C100	0.652000	0.272000	0.333100
H771	H77	0.684000	0.258200	0.351000
H781	H78	0.648700	0.309500	0.342500
C1011	C101	0.655700	0.292700	0.097700
H791	H79	0.656300	0.330500	0.089000
H801	H80	0.688000	0.276700	0.083100
C1021	C102	0.929700	0.473710	0.070200
C1031	C103	0.826300	0.350900	0.291700
C1041	C104	0.831400	0.405700	0.310300
H811	H81	0.805300	0.430500	0.300900
C1051	C105	0.874800	0.420800	0.341900
H821	H82	0.878600	0.456200	0.352600
C1061	C106	0.912400	0.384700	0.357700
C1071	C107	0.908000	0.332600	0.340900
H831	H83	0.934100	0.308100	0.351400
C1081	C108	0.865400	0.316100	0.308400
H841	H84	0.863000	0.280600	0.297600
C1091	C109	0.959700	0.403000	0.392900
O311	O31	0.123990	0.367210	0.398940
O321	O32	0.140270	0.454000	0.383760
O331	O33	0.559000	0.273400	0.342200
O341	O34	0.927560	0.523030	0.079210
O351	O35	0.960230	0.452560	0.033810
O361	O36	0.993630	0.366820	0.405920
O371	O37	0.962210	0.449650	0.406400
C1101	C110	0.151200	0.405000	0.379100
C1111	C111	0.202100	0.391600	0.347300
C1121	C112	0.221400	0.340600	0.351200
H851	H85	0.204000	0.315400	0.373300
C1131	C113	0.268800	0.326900	0.320900
H861	H86	0.283800	0.293200	0.325100
C1141	C114	0.271400	0.414300	0.285000
H871	H87	0.288800	0.440300	0.263700
C1151	C115	0.226200	0.427300	0.314900
H881	H88	0.212300	0.461600	0.312300
C1161	C116	0.339100	0.348700	0.249200
C1171	C117	0.383300	0.326100	0.275100
H891	H89	0.382900	0.321100	0.314200
C1181	C118	0.427900	0.310700	0.245200
C1191	C119	0.428000	0.319700	0.185700
C1201	C120	0.384400	0.341800	0.158700
H901	H90	0.384600	0.347700	0.119700
C1211	C121	0.338600	0.355500	0.192500
C1221	C122	0.291440	0.371600	0.158500
C1231	C123	0.292600	0.413100	0.119900
H911	H91	0.323300	0.433800	0.117500
C1241	C124	0.250900	0.424900	0.085400
H921	H92	0.253400	0.452900	0.059700
C1251	C125	0.203760	0.394300	0.088700
C1261	C126	0.201300	0.355400	0.130000
H931	H93	0.169900	0.336100	0.134700
C1271	C127	0.244200	0.344600	0.164200
H941	H94	0.241200	0.318300	0.192000
C1281	C128	0.158600	0.404300	0.048000
C1291	C129	0.469700	0.267500	0.323700
H951	H95	0.434400	0.253400	0.331300
H961	H96	0.475800	0.296800	0.349900
C1301	C130	0.607700	0.267100	0.071000
H971	H97	0.603800	0.230800	0.084700
H981	H98	0.611700	0.266100	0.030000
C1311	C131	0.515700	0.269900	0.076600
H991	H99	0.512400	0.261700	0.036500
H1001	H100	0.516300	0.236700	0.097700
C1321	C132	0.469200	0.303500	0.095600
H1011	H101	0.435800	0.288700	0.082200
H1021	H102	0.472600	0.339700	0.081800
C1331	C133	0.695400	0.301300	0.187900
C1341	C134	0.696000	0.290000	0.245600
C1351	C135	0.739300	0.308400	0.280100
H1031	H103	0.739400	0.302400	0.319100
C1361	C136	0.781400	0.335700	0.254200
C1371	C137	0.779600	0.346200	0.197500
C1381	C138	0.737100	0.329400	0.166300
H1041	H104	0.736600	0.337700	0.127800
C1391	C139	0.820600	0.378100	0.168200
C1401	C140	0.818000	0.434300	0.166500
H1051	H105	0.791300	0.451500	0.186900
C1411	C141	0.853400	0.464600	0.135900
H1061	H106	0.850500	0.501500	0.135800
C1421	C142	0.893600	0.440000	0.105130
C1431	C143	0.896070	0.386100	0.105000
H1071	H107	0.922000	0.369300	0.083200
C1441	C144	0.860800	0.355100	0.136600
H1081	H108	0.864500	0.318300	0.136400
O381	O38	0.066050	0.455070	0.467270
O391	O39	0.471140	0.287340	0.267500
O401	O40	0.654340	0.264600	0.270850
O411	O41	0.652400	0.285060	0.157100
O421	O42	0.561920	0.298030	0.086300
O431	O43	0.472310	0.301730	0.159040
O441	O44	0.167230	0.436500	0.009130
O451	O45	0.116880	0.377520	0.055630
Zn51	Zn5	0.092270	0.462310	0.548330
Zn61	Zn6	0.060060	0.380920	0.444800
C1451	C145	0.708600	0.637300	0.286300
C1461	C146	0.493000	0.772000	0.334400
H1091	H109	0.500400	0.792000	0.368800
H1101	H110	0.488100	0.796100	0.302500
C1471	C147	0.396900	0.758800	0.352700
H1111	H111	0.394300	0.766700	0.393000
H1121	H112	0.399900	0.792000	0.332000
C1481	C148	0.348000	0.728000	0.333100
H1131	H113	0.316000	0.741800	0.351000
H1141	H114	0.351300	0.690500	0.342500
C1491	C149	0.344300	0.707300	0.097700
H1151	H115	0.343700	0.669500	0.089000
H1161	H116	0.312000	0.723300	0.083100
C1501	C150	0.070300	0.526290	0.070200
C1511	C151	0.173700	0.649100	0.291700
C1521	C152	0.168600	0.594300	0.310300
H1171	H117	0.194700	0.569500	0.300900
C1531	C153	0.125200	0.579200	0.341900
H1181	H118	0.121400	0.543800	0.352600
C1541	C154	0.087600	0.615300	0.357700
C1551	C155	0.092000	0.667400	0.340900
H1191	H119	0.065900	0.691900	0.351400
C1561	C156	0.134600	0.683900	0.308400
H1201	H120	0.137000	0.719400	0.297600
C1571	C157	0.040300	0.597000	0.392900
O461	O46	0.876010	0.632790	0.398940
O471	O47	0.859730	0.546000	0.383760
O481	O48	0.441000	0.726600	0.342200
O491	O49	0.072440	0.476970	0.079210
O501	O50	0.039770	0.547440	0.033810
O511	O51	0.006370	0.633180	0.405920
O521	O52	0.037790	0.550350	0.406400
C1581	C158	0.848800	0.595000	0.379100
C1591	C159	0.797900	0.608400	0.347300
C1601	C160	0.778600	0.659400	0.351200
H1211	H121	0.796000	0.684600	0.373300
C1611	C161	0.731200	0.673100	0.320900
H1221	H122	0.716200	0.706800	0.325100
C1621	C162	0.728600	0.585700	0.285000
H1231	H123	0.711200	0.559700	0.263700
C1631	C163	0.773800	0.572700	0.314900
H1241	H124	0.787700	0.538400	0.312300
C1641	C164	0.660900	0.651300	0.249200
C1651	C165	0.616700	0.673900	0.275100
H1251	H125	0.617100	0.678900	0.314200
C1661	C166	0.572100	0.689300	0.245200
C1671	C167	0.572000	0.680300	0.185700
C1681	C168	0.615600	0.658200	0.158700
H1261	H126	0.615400	0.652300	0.119700
C1691	C169	0.661400	0.644500	0.192500
C1701	C170	0.708560	0.628400	0.158500
C1711	C171	0.707400	0.586900	0.119900
H1271	H127	0.676700	0.566200	0.117500
C1721	C172	0.749100	0.575100	0.085400
H1281	H128	0.746600	0.547100	0.059700
C1731	C173	0.796240	0.605700	0.088700
C1741	C174	0.798700	0.644600	0.130000
H1291	H129	0.830100	0.663900	0.134700
C1751	C175	0.755800	0.655400	0.164200
H1301	H130	0.758800	0.681700	0.192000
C1761	C176	0.841400	0.595700	0.048000
C1771	C177	0.530300	0.732500	0.323700
H1311	H131	0.565600	0.746600	0.331300
H1321	H132	0.524200	0.703200	0.349900
C1781	C178	0.392300	0.732900	0.071000
H1331	H133	0.396200	0.769200	0.084700
H1341	H134	0.388300	0.733900	0.030000
C1791	C179	0.484300	0.730100	0.076600
H1351	H135	0.487600	0.738300	0.036500
H1361	H136	0.483700	0.763300	0.097700
C1801	C180	0.530800	0.696500	0.095600
H1371	H137	0.564200	0.711300	0.082200
H1381	H138	0.527400	0.660300	0.081800
C1811	C181	0.304600	0.698700	0.187900
C1821	C182	0.304000	0.710000	0.245600
C1831	C183	0.260700	0.691600	0.280100
H1391	H139	0.260600	0.697600	0.319100
C1841	C184	0.218600	0.664300	0.254200
C1851	C185	0.220400	0.653800	0.197500
C1861	C186	0.262900	0.670600	0.166300
H1401	H140	0.263400	0.662300	0.127800
C1871	C187	0.179400	0.621900	0.168200
C1881	C188	0.182000	0.565700	0.166500
H1411	H141	0.208700	0.548500	0.186900
C1891	C189	0.146600	0.535400	0.135900
H1421	H142	0.149500	0.498500	0.135800
C1901	C190	0.106400	0.560000	0.105130
C1911	C191	0.103930	0.613900	0.105000
H1431	H143	0.078000	0.630700	0.083200
C1921	C192	0.139200	0.644900	0.136600
H1441	H144	0.135500	0.681700	0.136400
O531	O53	0.933950	0.544930	0.467270
O541	O54	0.528860	0.712660	0.267500
O551	O55	0.345660	0.735400	0.270850
O561	O56	0.347600	0.714940	0.157100
O571	O57	0.438080	0.701970	0.086300
O581	O58	0.527690	0.698270	0.159040
O591	O59	0.832770	0.563500	0.009130
O601	O60	0.883120	0.622480	0.055630
Zn71	Zn7	0.907730	0.537690	0.548330
Zn81	Zn8	0.939940	0.619080	0.444800
Zn91	Zn9	0.000000	0.500000	0.966560
Zn101	Zn10	0.000000	0.500000	0.466560
C1931	C193	0.208600	0.862700	0.213700
C1941	C194	0.993000	0.728000	0.165600
H1451	H145	0.000400	0.708000	0.131200
H1461	H146	0.988100	0.703900	0.197500
C1951	C195	0.896900	0.741200	0.147300
H1471	H147	0.894300	0.733300	0.107000
H1481	H148	0.899900	0.708000	0.168000
C1961	C196	0.848000	0.772000	0.166900
H1491	H149	0.816000	0.758200	0.149000
H1501	H150	0.851300	0.809500	0.157500
C1971	C197	0.844300	0.792700	0.402300
H1511	H151	0.843700	0.830500	0.411000
H1521	H152	0.812000	0.776700	0.416900
C1981	C198	0.570300	0.973710	0.429800
C1991	C199	0.673700	0.850900	0.208300
C2001	C200	0.668600	0.905700	0.189700
H1531	H153	0.694700	0.930500	0.199100
C2011	C201	0.625200	0.920800	0.158100
H1541	H154	0.621400	0.956200	0.147400
C2021	C202	0.587600	0.884700	0.142300
C2031	C203	0.592000	0.832600	0.159100
H1551	H155	0.565900	0.808100	0.148600
C2041	C204	0.634600	0.816100	0.191600
H1561	H156	0.637000	0.780600	0.202400
C2051	C205	0.540300	0.903000	0.107100
O611	O61	0.376010	0.867210	0.101060
O621	O62	0.359730	0.954000	0.116240
O631	O63	0.941000	0.773400	0.157800
O641	O64	0.572440	0.023030	0.420790
O651	O65	0.539770	0.952560	0.466190
O661	O66	0.506370	0.866820	0.094080
O671	O67	0.537790	0.949650	0.093600
C2061	C206	0.348800	0.905000	0.120900
C2071	C207	0.297900	0.891600	0.152700
C2081	C208	0.278600	0.840600	0.148800
H1571	H157	0.296000	0.815400	0.126700
C2091	C209	0.231200	0.826900	0.179100
H1581	H158	0.216200	0.793200	0.174900
C2101	C210	0.228600	0.914300	0.215000
H1591	H159	0.211200	0.940300	0.236300
C2111	C211	0.273800	0.927300	0.185100
H1601	H160	0.287700	0.961600	0.187700
C2121	C212	0.160900	0.848700	0.250800
C2131	C213	0.116700	0.826100	0.224900
H1611	H161	0.117100	0.821100	0.185800
C2141	C214	0.072100	0.810700	0.254800
C2151	C215	0.072000	0.819700	0.314300
C2161	C216	0.115600	0.841800	0.341300
H1621	H162	0.115400	0.847700	0.380300
C2171	C217	0.161400	0.855500	0.307500
C2181	C218	0.208560	0.871600	0.341500
C2191	C219	0.207400	0.913100	0.380100
H1631	H163	0.176700	0.933800	0.382500
C2201	C220	0.249100	0.924900	0.414600
H1641	H164	0.246600	0.952900	0.440300
C2211	C221	0.296240	0.894300	0.411300
C2221	C222	0.298700	0.855400	0.370000
H1651	H165	0.330100	0.836100	0.365300
C2231	C223	0.255800	0.844600	0.335800
H1661	H166	0.258800	0.818300	0.308000
C2241	C224	0.341400	0.904300	0.452000
C2251	C225	0.030300	0.767500	0.176300
H1671	H167	0.065600	0.753400	0.168700
H1681	H168	0.024200	0.796800	0.150100
C2261	C226	0.892300	0.767100	0.429000
H1691	H169	0.896200	0.730800	0.415300
H1701	H170	0.888300	0.766100	0.470000
C2271	C227	0.984300	0.769900	0.423400
H1711	H171	0.987600	0.761700	0.463500
H1721	H172	0.983700	0.736700	0.402300
C2281	C228	0.030800	0.803500	0.404400
H1731	H173	0.064200	0.788700	0.417800
H1741	H174	0.027400	0.839700	0.418200
C2291	C229	0.804600	0.801300	0.312100
C2301	C230	0.804000	0.790000	0.254400
C2311	C231	0.760700	0.808400	0.219900
H1751	H175	0.760600	0.802400	0.180900
C2321	C232	0.718600	0.835700	0.245800
C2331	C233	0.720400	0.846200	0.302500
C2341	C234	0.762900	0.829400	0.333700
H1761	H176	0.763400	0.837700	0.372200
C2351	C235	0.679400	0.878100	0.331800
C2361	C236	0.682000	0.934300	0.333500
H1771	H177	0.708700	0.951500	0.313100
C2371	C237	0.646600	0.964600	0.364100
H1781	H178	0.649500	0.001500	0.364200
C2381	C238	0.606400	0.940000	0.394870
C2391	C239	0.603930	0.886100	0.395000
H1791	H179	0.578000	0.869300	0.416800
C2401	C240	0.639200	0.855100	0.363400
H1801	H180	0.635500	0.818300	0.363600
O681	O68	0.433950	0.955070	0.032730
O691	O69	0.028860	0.787340	0.232500
O701	O70	0.845660	0.764600	0.229150
O711	O71	0.847600	0.785060	0.342900
O721	O72	0.938080	0.798030	0.413700
O731	O73	0.027690	0.801730	0.340960
O741	O74	0.332770	0.936500	0.490870
O751	O75	0.383120	0.877520	0.444370
Zn111	Zn11	0.407730	0.962310	0.951670
Zn121	Zn12	0.439940	0.880920	0.055200
C2411	C241	0.791400	0.137300	0.213700
C2421	C242	0.007000	0.272000	0.165600
H1811	H181	0.999600	0.292000	0.131200
H1821	H182	0.011900	0.296100	0.197500
C2431	C243	0.103100	0.258800	0.147300
H1831	H183	0.105700	0.266700	0.107000
H1841	H184	0.100100	0.292000	0.168000
C2441	C244	0.152000	0.228000	0.166900
H1851	H185	0.184000	0.241800	0.149000
H1861	H186	0.148700	0.190500	0.157500
C2451	C245	0.155700	0.207300	0.402300
H1871	H187	0.156300	0.169500	0.411000
H1881	H188	0.188000	0.223300	0.416900
C2461	C246	0.429700	0.026290	0.429800
C2471	C247	0.326300	0.149100	0.208300
C2481	C248	0.331400	0.094300	0.189700
H1891	H189	0.305300	0.069500	0.199100
C2491	C249	0.374800	0.079200	0.158100
H1901	H190	0.378600	0.043800	0.147400
C2501	C250	0.412400	0.115300	0.142300
C2511	C251	0.408000	0.167400	0.159100
H1911	H191	0.434100	0.191900	0.148600
C2521	C252	0.365400	0.183900	0.191600
H1921	H192	0.363000	0.219400	0.202400
C2531	C253	0.459700	0.097000	0.107100
O761	O76	0.623990	0.132790	0.101060
O771	O77	0.640270	0.046000	0.116240
O781	O78	0.059000	0.226600	0.157800
O791	O79	0.427560	0.976970	0.420790
O801	O80	0.460230	0.047440	0.466190
O811	O81	0.493630	0.133180	0.094080
O821	O82	0.462210	0.050350	0.093600
C2541	C254	0.651200	0.095000	0.120900
C2551	C255	0.702100	0.108400	0.152700
C2561	C256	0.721400	0.159400	0.148800
H1931	H193	0.704000	0.184600	0.126700
C2571	C257	0.768800	0.173100	0.179100
H1941	H194	0.783800	0.206800	0.174900
C2581	C258	0.771400	0.085700	0.215000
H1951	H195	0.788800	0.059700	0.236300
C2591	C259	0.726200	0.072700	0.185100
H1961	H196	0.712300	0.038400	0.187700
C2601	C260	0.839100	0.151300	0.250800
C2611	C261	0.883300	0.173900	0.224900
H1971	H197	0.882900	0.178900	0.185800
C2621	C262	0.927900	0.189300	0.254800
C2631	C263	0.928000	0.180300	0.314300
C2641	C264	0.884400	0.158200	0.341300
H1981	H198	0.884600	0.152300	0.380300
C2651	C265	0.838600	0.144500	0.307500
C2661	C266	0.791440	0.128400	0.341500
C2671	C267	0.792600	0.086900	0.380100
H1991	H199	0.823300	0.066200	0.382500
C2681	C268	0.750900	0.075100	0.414600
H2001	H200	0.753400	0.047100	0.440300
C2691	C269	0.703760	0.105700	0.411300
C2701	C270	0.701300	0.144600	0.370000
H2011	H201	0.669900	0.163900	0.365300
C2711	C271	0.744200	0.155400	0.335800
H2021	H202	0.741200	0.181700	0.308000
C2721	C272	0.658600	0.095700	0.452000
C2731	C273	0.969700	0.232500	0.176300
H2031	H203	0.934400	0.246600	0.168700
H2041	H204	0.975800	0.203200	0.150100
C2741	C274	0.107700	0.232900	0.429000
H2051	H205	0.103800	0.269200	0.415300
H2061	H206	0.111700	0.233900	0.470000
C2751	C275	0.015700	0.230100	0.423400
H2071	H207	0.012400	0.238300	0.463500
H2081	H208	0.016300	0.263300	0.402300
C2761	C276	0.969200	0.196500	0.404400
H2091	H209	0.935800	0.211300	0.417800
H2101	H210	0.972600	0.160300	0.418200
C2771	C277	0.195400	0.198700	0.312100
C2781	C278	0.196000	0.210000	0.254400
C2791	C279	0.239300	0.191600	0.219900
H2111	H211	0.239400	0.197600	0.180900
C2801	C280	0.281400	0.164300	0.245800
C2811	C281	0.279600	0.153800	0.302500
C2821	C282	0.237100	0.170600	0.333700
H2121	H212	0.236600	0.162300	0.372200
C2831	C283	0.320600	0.121900	0.331800
C2841	C284	0.318000	0.065700	0.333500
H2131	H213	0.291300	0.048500	0.313100
C2851	C285	0.353400	0.035400	0.364100
H2141	H214	0.350500	0.998500	0.364200
C2861	C286	0.393600	0.060000	0.394870
C2871	C287	0.396070	0.113900	0.395000
H2151	H215	0.422000	0.130700	0.416800
C2881	C288	0.360800	0.144900	0.363400
H2161	H216	0.364500	0.181700	0.363600
O831	O83	0.566050	0.044930	0.032730
O841	O84	0.971140	0.212660	0.232500
O851	O85	0.154340	0.235400	0.229150
O861	O86	0.152400	0.214940	0.342900
O871	O87	0.061920	0.201970	0.413700
O881	O88	0.972310	0.198270	0.340960
O891	O89	0.667230	0.063500	0.490870
O901	O90	0.616880	0.122480	0.444370
Zn131	Zn13	0.592270	0.037690	0.951670
Zn141	Zn14	0.560060	0.119080	0.055200
C2891	C289	0.362700	0.708600	0.713700
C2901	C290	0.228000	0.493000	0.665600
H2171	H217	0.208000	0.500400	0.631200
H2181	H218	0.203900	0.488100	0.697500
C2911	C291	0.241200	0.396900	0.647300
H2191	H219	0.233300	0.394300	0.607000
H2201	H220	0.208000	0.399900	0.668000
C2921	C292	0.272000	0.348000	0.666900
H2211	H221	0.258200	0.316000	0.649000
H2221	H222	0.309500	0.351300	0.657500
C2931	C293	0.292700	0.344300	0.902300
H2231	H223	0.330500	0.343700	0.911000
H2241	H224	0.276700	0.312000	0.916900
C2941	C294	0.473710	0.070300	0.929800
C2951	C295	0.350900	0.173700	0.708300
C2961	C296	0.405700	0.168600	0.689700
H2251	H225	0.430500	0.194700	0.699100
C2971	C297	0.420800	0.125200	0.658100
H2261	H226	0.456200	0.121400	0.647400
C2981	C298	0.384700	0.087600	0.642300
C2991	C299	0.332600	0.092000	0.659100
H2271	H227	0.308100	0.065900	0.648600
C3001	C300	0.316100	0.134600	0.691600
H2281	H228	0.280600	0.137000	0.702400
C3011	C301	0.403000	0.040300	0.607100
O911	O91	0.367210	0.876010	0.601060
O921	O92	0.454000	0.859730	0.616240
O931	O93	0.273400	0.441000	0.657800
O941	O94	0.523030	0.072440	0.920790
O951	O95	0.452560	0.039770	0.966190
O961	O96	0.366820	0.006370	0.594080
O971	O97	0.449650	0.037790	0.593600
C3021	C302	0.405000	0.848800	0.620900
C3031	C303	0.391600	0.797900	0.652700
C3041	C304	0.340600	0.778600	0.648800
H2291	H229	0.315400	0.796000	0.626700
C3051	C305	0.326900	0.731200	0.679100
H2301	H230	0.293200	0.716200	0.674900
C3061	C306	0.414300	0.728600	0.715000
H2311	H231	0.440300	0.711200	0.736300
C3071	C307	0.427300	0.773800	0.685100
H2321	H232	0.461600	0.787700	0.687700
C3081	C308	0.348700	0.660900	0.750800
C3091	C309	0.326100	0.616700	0.724900
H2331	H233	0.321100	0.617100	0.685800
C3101	C310	0.310700	0.572100	0.754800
C3111	C311	0.319700	0.572000	0.814300
C3121	C312	0.341800	0.615600	0.841300
H2341	H234	0.347700	0.615400	0.880300
C3131	C313	0.355500	0.661400	0.807500
C3141	C314	0.371600	0.708560	0.841500
C3151	C315	0.413100	0.707400	0.880100
H2351	H235	0.433800	0.676700	0.882500
C3161	C316	0.424900	0.749100	0.914600
H2361	H236	0.452900	0.746600	0.940300
C3171	C317	0.394300	0.796240	0.911300
C3181	C318	0.355400	0.798700	0.870000
H2371	H237	0.336100	0.830100	0.865300
C3191	C319	0.344600	0.755800	0.835800
H2381	H238	0.318300	0.758800	0.808000
C3201	C320	0.404300	0.841400	0.952000
C3211	C321	0.267500	0.530300	0.676300
H2391	H239	0.253400	0.565600	0.668700
H2401	H240	0.296800	0.524200	0.650100
C3221	C322	0.267100	0.392300	0.929000
H2411	H241	0.230800	0.396200	0.915300
H2421	H242	0.266100	0.388300	0.970000
C3231	C323	0.269900	0.484300	0.923400
H2431	H243	0.261700	0.487600	0.963500
H2441	H244	0.236700	0.483700	0.902300
C3241	C324	0.303500	0.530800	0.904400
H2451	H245	0.288700	0.564200	0.917800
H2461	H246	0.339700	0.527400	0.918200
C3251	C325	0.301300	0.304600	0.812100
C3261	C326	0.290000	0.304000	0.754400
C3271	C327	0.308400	0.260700	0.719900
H2471	H247	0.302400	0.260600	0.680900
C3281	C328	0.335700	0.218600	0.745800
C3291	C329	0.346200	0.220400	0.802500
C3301	C330	0.329400	0.262900	0.833700
H2481	H248	0.337700	0.263400	0.872200
C3311	C331	0.378100	0.179400	0.831800
C3321	C332	0.434300	0.182000	0.833500
H2491	H249	0.451500	0.208700	0.813100
C3331	C333	0.464600	0.146600	0.864100
H2501	H250	0.501500	0.149500	0.864200
C3341	C334	0.440000	0.106400	0.894870
C3351	C335	0.386100	0.103930	0.895000
H2511	H251	0.369300	0.078000	0.916800
C3361	C336	0.355100	0.139200	0.863400
H2521	H252	0.318300	0.135500	0.863600
O981	O98	0.455070	0.933950	0.532730
O991	O99	0.287340	0.528860	0.732500
O1001	O100	0.264600	0.345660	0.729150
O1011	O101	0.285060	0.347600	0.842900
O1021	O102	0.298030	0.438080	0.913700
O1031	O103	0.301730	0.527690	0.840960
O1041	O104	0.436500	0.832770	0.990870
O1051	O105	0.377520	0.883120	0.944370
Zn151	Zn15	0.462310	0.907730	0.451670
Zn161	Zn16	0.380920	0.939940	0.555200
C3371	C337	0.637300	0.291400	0.713700
C3381	C338	0.772000	0.507000	0.665600
H2531	H253	0.792000	0.499600	0.631200
H2541	H254	0.796100	0.511900	0.697500
C3391	C339	0.758800	0.603100	0.647300
H2551	H255	0.766700	0.605700	0.607000
H2561	H256	0.792000	0.600100	0.668000
C3401	C340	0.728000	0.652000	0.666900
H2571	H257	0.741800	0.684000	0.649000
H2581	H258	0.690500	0.648700	0.657500
C3411	C341	0.707300	0.655700	0.902300
H2591	H259	0.669500	0.656300	0.911000
H2601	H260	0.723300	0.688000	0.916900
C3421	C342	0.526290	0.929700	0.929800
C3431	C343	0.649100	0.826300	0.708300
C3441	C344	0.594300	0.831400	0.689700
H2611	H261	0.569500	0.805300	0.699100
C3451	C345	0.579200	0.874800	0.658100
H2621	H262	0.543800	0.878600	0.647400
C3461	C346	0.615300	0.912400	0.642300
C3471	C347	0.667400	0.908000	0.659100
H2631	H263	0.691900	0.934100	0.648600
C3481	C348	0.683900	0.865400	0.691600
H2641	H264	0.719400	0.863000	0.702400
C3491	C349	0.597000	0.959700	0.607100
O1061	O106	0.632790	0.123990	0.601060
O1071	O107	0.546000	0.140270	0.616240
O1081	O108	0.726600	0.559000	0.657800
O1091	O109	0.476970	0.927560	0.920790
O1101	O110	0.547440	0.960230	0.966190
O1111	O111	0.633180	0.993630	0.594080
O1121	O112	0.550350	0.962210	0.593600
C3501	C350	0.595000	0.151200	0.620900
C3511	C351	0.608400	0.202100	0.652700
C3521	C352	0.659400	0.221400	0.648800
H2651	H265	0.684600	0.204000	0.626700
C3531	C353	0.673100	0.268800	0.679100
H2661	H266	0.706800	0.283800	0.674900
C3541	C354	0.585700	0.271400	0.715000
H2671	H267	0.559700	0.288800	0.736300
C3551	C355	0.572700	0.226200	0.685100
H2681	H268	0.538400	0.212300	0.687700
C3561	C356	0.651300	0.339100	0.750800
C3571	C357	0.673900	0.383300	0.724900
H2691	H269	0.678900	0.382900	0.685800
C3581	C358	0.689300	0.427900	0.754800
C3591	C359	0.680300	0.428000	0.814300
C3601	C360	0.658200	0.384400	0.841300
H2701	H270	0.652300	0.384600	0.880300
C3611	C361	0.644500	0.338600	0.807500
C3621	C362	0.628400	0.291440	0.841500
C3631	C363	0.586900	0.292600	0.880100
H2711	H271	0.566200	0.323300	0.882500
C3641	C364	0.575100	0.250900	0.914600
H2721	H272	0.547100	0.253400	0.940300
C3651	C365	0.605700	0.203760	0.911300
C3661	C366	0.644600	0.201300	0.870000
H2731	H273	0.663900	0.169900	0.865300
C3671	C367	0.655400	0.244200	0.835800
H2741	H274	0.681700	0.241200	0.808000
C3681	C368	0.595700	0.158600	0.952000
C3691	C369	0.732500	0.469700	0.676300
H2751	H275	0.746600	0.434400	0.668700
H2761	H276	0.703200	0.475800	0.650100
C3701	C370	0.732900	0.607700	0.929000
H2771	H277	0.769200	0.603800	0.915300
H2781	H278	0.733900	0.611700	0.970000
C3711	C371	0.730100	0.515700	0.923400
H2791	H279	0.738300	0.512400	0.963500
H2801	H280	0.763300	0.516300	0.902300
C3721	C372	0.696500	0.469200	0.904400
H2811	H281	0.711300	0.435800	0.917800
H2821	H282	0.660300	0.472600	0.918200
C3731	C373	0.698700	0.695400	0.812100
C3741	C374	0.710000	0.696000	0.754400
C3751	C375	0.691600	0.739300	0.719900
H2831	H283	0.697600	0.739400	0.680900
C3761	C376	0.664300	0.781400	0.745800
C3771	C377	0.653800	0.779600	0.802500
C3781	C378	0.670600	0.737100	0.833700
H2841	H284	0.662300	0.736600	0.872200
C3791	C379	0.621900	0.820600	0.831800
C3801	C380	0.565700	0.818000	0.833500
H2851	H285	0.548500	0.791300	0.813100
C3811	C381	0.535400	0.853400	0.864100
H2861	H286	0.498500	0.850500	0.864200
C3821	C382	0.560000	0.893600	0.894870
C3831	C383	0.613900	0.896070	0.895000
H2871	H287	0.630700	0.922000	0.916800
C3841	C384	0.644900	0.860800	0.863400
H2881	H288	0.681700	0.864500	0.863600
O1131	O113	0.544930	0.066050	0.532730
O1141	O114	0.712660	0.471140	0.732500
O1151	O115	0.735400	0.654340	0.729150
O1161	O116	0.714940	0.652400	0.842900
O1171	O117	0.701970	0.561920	0.913700
O1181	O118	0.698270	0.472310	0.840960
O1191	O119	0.563500	0.167230	0.990870
O1201	O120	0.622480	0.116880	0.944370
Zn171	Zn17	0.537690	0.092270	0.451670
Zn181	Zn18	0.619080	0.060060	0.555200
Zn191	Zn19	0.500000	0.000000	0.033440
Zn201	Zn20	0.500000	0.000000	0.533440
