data_EFOGOX_clean_PM
_symmetry_space_group_name_H-M	'P1'
_cell_length_a	31.818100
_cell_length_b	31.818100
_cell_length_c	31.818100
_cell_angle_alpha	90.000000
_cell_angle_beta	90.000000
_cell_angle_gamma	90.000000
_symmetry_Int_Tables_number 1

loop_
_symmetry_equiv_pos_as_xyz
'x,y,z'

loop_
_atom_site_label
_atom_site_type_symbol
_atom_site_fract_x
_atom_site_fract_y
_atom_site_fract_z
N11	N1	0.705920	0.953750	0.737780
N21	N2	0.654380	0.000160	0.686340
N31	N3	0.707590	0.004630	0.642080
C11	C1	0.778270	0.941400	0.763820
H11	H1	0.789500	0.958900	0.742400
C21	C2	0.804500	0.922900	0.793300
H21	H2	0.834000	0.927400	0.792100
C31	C3	0.787500	0.897700	0.824200
H31	H3	0.805400	0.885200	0.844500
C41	C4	0.744300	0.890400	0.826100
H41	H4	0.733000	0.872700	0.847200
C51	C5	0.718000	0.909300	0.796750
H51	H5	0.688400	0.905200	0.798000
C61	C6	0.735400	0.933990	0.766040
N41	N4	0.722750	0.968690	0.705000
C71	C7	0.694310	0.989910	0.679590
C81	C8	0.641750	0.021610	0.651500
H61	H6	0.614400	0.032700	0.647200
C91	C9	0.674380	0.024840	0.623630
H71	H7	0.674000	0.038300	0.597000
H81	H8	0.770300	0.004000	0.647400
N51	N5	0.205920	0.453750	0.237780
N61	N6	0.154380	0.500160	0.186340
N71	N7	0.207590	0.504630	0.142080
C101	C10	0.278270	0.441400	0.263820
H91	H9	0.289500	0.458900	0.242400
C111	C11	0.304500	0.422900	0.293300
H101	H10	0.334000	0.427400	0.292100
C121	C12	0.287500	0.397700	0.324200
H111	H11	0.305400	0.385200	0.344500
C131	C13	0.244300	0.390400	0.326100
H121	H12	0.233000	0.372700	0.347200
C141	C14	0.218000	0.409300	0.296750
H131	H13	0.188400	0.405200	0.298000
C151	C15	0.235400	0.433990	0.266040
N81	N8	0.222750	0.468690	0.205000
C161	C16	0.194310	0.489910	0.179590
C171	C17	0.141750	0.521610	0.151500
H141	H14	0.114400	0.532700	0.147200
C181	C18	0.174380	0.524840	0.123630
H151	H15	0.174000	0.538300	0.097000
H161	H16	0.270300	0.504000	0.147400
N91	N9	0.794080	0.046250	0.237780
N101	N10	0.845620	0.999840	0.186340
N111	N11	0.792410	0.995370	0.142080
C191	C19	0.721730	0.058600	0.263820
H171	H17	0.710500	0.041100	0.242400
C201	C20	0.695500	0.077100	0.293300
H181	H18	0.666000	0.072600	0.292100
C211	C21	0.712500	0.102300	0.324200
H191	H19	0.694600	0.114800	0.344500
C221	C22	0.755700	0.109600	0.326100
H201	H20	0.767000	0.127300	0.347200
C231	C23	0.782000	0.090700	0.296750
H211	H21	0.811600	0.094800	0.298000
C241	C24	0.764600	0.066010	0.266040
N121	N12	0.777250	0.031310	0.205000
C251	C25	0.805690	0.010090	0.179590
C261	C26	0.858250	0.978390	0.151500
H221	H22	0.885600	0.967300	0.147200
C271	C27	0.825620	0.975160	0.123630
H231	H23	0.826000	0.961700	0.097000
H241	H24	0.729700	0.996000	0.147400
N131	N13	0.294080	0.546250	0.737780
N141	N14	0.345620	0.499840	0.686340
N151	N15	0.292410	0.495370	0.642080
C281	C28	0.221730	0.558600	0.763820
H251	H25	0.210500	0.541100	0.742400
C291	C29	0.195500	0.577100	0.793300
H261	H26	0.166000	0.572600	0.792100
C301	C30	0.212500	0.602300	0.824200
H271	H27	0.194600	0.614800	0.844500
C311	C31	0.255700	0.609600	0.826100
H281	H28	0.267000	0.627300	0.847200
C321	C32	0.282000	0.590700	0.796750
H291	H29	0.311600	0.594800	0.798000
C331	C33	0.264600	0.566010	0.766040
N161	N16	0.277250	0.531310	0.705000
C341	C34	0.305690	0.510090	0.679590
C351	C35	0.358250	0.478390	0.651500
H301	H30	0.385600	0.467300	0.647200
C361	C36	0.325620	0.475160	0.623630
H311	H31	0.326000	0.461700	0.597000
H321	H32	0.229700	0.496000	0.647400
N171	N17	0.294080	0.453750	0.762220
N181	N18	0.345620	0.500160	0.813660
N191	N19	0.292410	0.504630	0.857920
C371	C37	0.221730	0.441400	0.736180
H331	H33	0.210500	0.458900	0.757600
C381	C38	0.195500	0.422900	0.706700
H341	H34	0.166000	0.427400	0.707900
C391	C39	0.212500	0.397700	0.675800
H351	H35	0.194600	0.385200	0.655500
C401	C40	0.255700	0.390400	0.673900
H361	H36	0.267000	0.372700	0.652800
C411	C41	0.282000	0.409300	0.703250
H371	H37	0.311600	0.405200	0.702000
C421	C42	0.264600	0.433990	0.733960
N201	N20	0.277250	0.468690	0.795000
C431	C43	0.305690	0.489910	0.820410
C441	C44	0.358250	0.521610	0.848500
H381	H38	0.385600	0.532700	0.852800
C451	C45	0.325620	0.524840	0.876370
H391	H39	0.326000	0.538300	0.903000
H401	H40	0.229700	0.504000	0.852600
N211	N21	0.794080	0.953750	0.262220
N221	N22	0.845620	0.000160	0.313660
N231	N23	0.792410	0.004630	0.357920
C461	C46	0.721730	0.941400	0.236180
H411	H41	0.710500	0.958900	0.257600
C471	C47	0.695500	0.922900	0.206700
H421	H42	0.666000	0.927400	0.207900
C481	C48	0.712500	0.897700	0.175800
H431	H43	0.694600	0.885200	0.155500
C491	C49	0.755700	0.890400	0.173900
H441	H44	0.767000	0.872700	0.152800
C501	C50	0.782000	0.909300	0.203250
H451	H45	0.811600	0.905200	0.202000
C511	C51	0.764600	0.933990	0.233960
N241	N24	0.777250	0.968690	0.295000
C521	C52	0.805690	0.989910	0.320410
C531	C53	0.858250	0.021610	0.348500
H461	H46	0.885600	0.032700	0.352800
C541	C54	0.825620	0.024840	0.376370
H471	H47	0.826000	0.038300	0.403000
H481	H48	0.729700	0.004000	0.352600
N251	N25	0.205920	0.546250	0.262220
N261	N26	0.154380	0.499840	0.313660
N271	N27	0.207590	0.495370	0.357920
C551	C55	0.278270	0.558600	0.236180
H491	H49	0.289500	0.541100	0.257600
C561	C56	0.304500	0.577100	0.206700
H501	H50	0.334000	0.572600	0.207900
C571	C57	0.287500	0.602300	0.175800
H511	H51	0.305400	0.614800	0.155500
C581	C58	0.244300	0.609600	0.173900
H521	H52	0.233000	0.627300	0.152800
C591	C59	0.218000	0.590700	0.203250
H531	H53	0.188400	0.594800	0.202000
C601	C60	0.235400	0.566010	0.233960
N281	N28	0.222750	0.531310	0.295000
C611	C61	0.194310	0.510090	0.320410
C621	C62	0.141750	0.478390	0.348500
H541	H54	0.114400	0.467300	0.352800
C631	C63	0.174380	0.475160	0.376370
H551	H55	0.174000	0.461700	0.403000
H561	H56	0.270300	0.496000	0.352600
N291	N29	0.705920	0.046250	0.762220
N301	N30	0.654380	0.999840	0.813660
N311	N31	0.707590	0.995370	0.857920
C641	C64	0.778270	0.058600	0.736180
H571	H57	0.789500	0.041100	0.757600
C651	C65	0.804500	0.077100	0.706700
H581	H58	0.834000	0.072600	0.707900
C661	C66	0.787500	0.102300	0.675800
H591	H59	0.805400	0.114800	0.655500
C671	C67	0.744300	0.109600	0.673900
H601	H60	0.733000	0.127300	0.652800
C681	C68	0.718000	0.090700	0.703250
H611	H61	0.688400	0.094800	0.702000
C691	C69	0.735400	0.066010	0.733960
N321	N32	0.722750	0.031310	0.795000
C701	C70	0.694310	0.010090	0.820410
C711	C71	0.641750	0.978390	0.848500
H621	H62	0.614400	0.967300	0.852800
C721	C72	0.674380	0.975160	0.876370
H631	H63	0.674000	0.961700	0.903000
H641	H64	0.770300	0.996000	0.852600
N331	N33	0.737780	0.705920	0.953750
N341	N34	0.686340	0.654380	0.000160
N351	N35	0.642080	0.707590	0.004630
C731	C73	0.763820	0.778270	0.941400
H651	H65	0.742400	0.789500	0.958900
C741	C74	0.793300	0.804500	0.922900
H661	H66	0.792100	0.834000	0.927400
C751	C75	0.824200	0.787500	0.897700
H671	H67	0.844500	0.805400	0.885200
C761	C76	0.826100	0.744300	0.890400
H681	H68	0.847200	0.733000	0.872700
C771	C77	0.796750	0.718000	0.909300
H691	H69	0.798000	0.688400	0.905200
C781	C78	0.766040	0.735400	0.933990
N361	N36	0.705000	0.722750	0.968690
C791	C79	0.679590	0.694310	0.989910
C801	C80	0.651500	0.641750	0.021610
H701	H70	0.647200	0.614400	0.032700
C811	C81	0.623630	0.674380	0.024840
H711	H71	0.597000	0.674000	0.038300
H721	H72	0.647400	0.770300	0.004000
N371	N37	0.237780	0.205920	0.453750
N381	N38	0.186340	0.154380	0.500160
N391	N39	0.142080	0.207590	0.504630
C821	C82	0.263820	0.278270	0.441400
H731	H73	0.242400	0.289500	0.458900
C831	C83	0.293300	0.304500	0.422900
H741	H74	0.292100	0.334000	0.427400
C841	C84	0.324200	0.287500	0.397700
H751	H75	0.344500	0.305400	0.385200
C851	C85	0.326100	0.244300	0.390400
H761	H76	0.347200	0.233000	0.372700
C861	C86	0.296750	0.218000	0.409300
H771	H77	0.298000	0.188400	0.405200
C871	C87	0.266040	0.235400	0.433990
N401	N40	0.205000	0.222750	0.468690
C881	C88	0.179590	0.194310	0.489910
C891	C89	0.151500	0.141750	0.521610
H781	H78	0.147200	0.114400	0.532700
C901	C90	0.123630	0.174380	0.524840
H791	H79	0.097000	0.174000	0.538300
H801	H80	0.147400	0.270300	0.504000
N411	N41	0.237780	0.794080	0.046250
N421	N42	0.186340	0.845620	0.999840
N431	N43	0.142080	0.792410	0.995370
C911	C91	0.263820	0.721730	0.058600
H811	H81	0.242400	0.710500	0.041100
C921	C92	0.293300	0.695500	0.077100
H821	H82	0.292100	0.666000	0.072600
C931	C93	0.324200	0.712500	0.102300
H831	H83	0.344500	0.694600	0.114800
C941	C94	0.326100	0.755700	0.109600
H841	H84	0.347200	0.767000	0.127300
C951	C95	0.296750	0.782000	0.090700
H851	H85	0.298000	0.811600	0.094800
C961	C96	0.266040	0.764600	0.066010
N441	N44	0.205000	0.777250	0.031310
C971	C97	0.179590	0.805690	0.010090
C981	C98	0.151500	0.858250	0.978390
H861	H86	0.147200	0.885600	0.967300
C991	C99	0.123630	0.825620	0.975160
H871	H87	0.097000	0.826000	0.961700
H881	H88	0.147400	0.729700	0.996000
N451	N45	0.737780	0.294080	0.546250
N461	N46	0.686340	0.345620	0.499840
N471	N47	0.642080	0.292410	0.495370
C1001	C100	0.763820	0.221730	0.558600
H891	H89	0.742400	0.210500	0.541100
C1011	C101	0.793300	0.195500	0.577100
H901	H90	0.792100	0.166000	0.572600
C1021	C102	0.824200	0.212500	0.602300
H911	H91	0.844500	0.194600	0.614800
C1031	C103	0.826100	0.255700	0.609600
H921	H92	0.847200	0.267000	0.627300
C1041	C104	0.796750	0.282000	0.590700
H931	H93	0.798000	0.311600	0.594800
C1051	C105	0.766040	0.264600	0.566010
N481	N48	0.705000	0.277250	0.531310
C1061	C106	0.679590	0.305690	0.510090
C1071	C107	0.651500	0.358250	0.478390
H941	H94	0.647200	0.385600	0.467300
C1081	C108	0.623630	0.325620	0.475160
H951	H95	0.597000	0.326000	0.461700
H961	H96	0.647400	0.229700	0.496000
N491	N49	0.762220	0.294080	0.453750
N501	N50	0.813660	0.345620	0.500160
N511	N51	0.857920	0.292410	0.504630
C1091	C109	0.736180	0.221730	0.441400
H971	H97	0.757600	0.210500	0.458900
C1101	C110	0.706700	0.195500	0.422900
H981	H98	0.707900	0.166000	0.427400
C1111	C111	0.675800	0.212500	0.397700
H991	H99	0.655500	0.194600	0.385200
C1121	C112	0.673900	0.255700	0.390400
H1001	H100	0.652800	0.267000	0.372700
C1131	C113	0.703250	0.282000	0.409300
H1011	H101	0.702000	0.311600	0.405200
C1141	C114	0.733960	0.264600	0.433990
N521	N52	0.795000	0.277250	0.468690
C1151	C115	0.820410	0.305690	0.489910
C1161	C116	0.848500	0.358250	0.521610
H1021	H102	0.852800	0.385600	0.532700
C1171	C117	0.876370	0.325620	0.524840
H1031	H103	0.903000	0.326000	0.538300
H1041	H104	0.852600	0.229700	0.504000
N531	N53	0.262220	0.794080	0.953750
N541	N54	0.313660	0.845620	0.000160
N551	N55	0.357920	0.792410	0.004630
C1181	C118	0.236180	0.721730	0.941400
H1051	H105	0.257600	0.710500	0.958900
C1191	C119	0.206700	0.695500	0.922900
H1061	H106	0.207900	0.666000	0.927400
C1201	C120	0.175800	0.712500	0.897700
H1071	H107	0.155500	0.694600	0.885200
C1211	C121	0.173900	0.755700	0.890400
H1081	H108	0.152800	0.767000	0.872700
C1221	C122	0.203250	0.782000	0.909300
H1091	H109	0.202000	0.811600	0.905200
C1231	C123	0.233960	0.764600	0.933990
N561	N56	0.295000	0.777250	0.968690
C1241	C124	0.320410	0.805690	0.989910
C1251	C125	0.348500	0.858250	0.021610
H1101	H110	0.352800	0.885600	0.032700
C1261	C126	0.376370	0.825620	0.024840
H1111	H111	0.403000	0.826000	0.038300
H1121	H112	0.352600	0.729700	0.004000
N571	N57	0.262220	0.205920	0.546250
N581	N58	0.313660	0.154380	0.499840
N591	N59	0.357920	0.207590	0.495370
C1271	C127	0.236180	0.278270	0.558600
H1131	H113	0.257600	0.289500	0.541100
C1281	C128	0.206700	0.304500	0.577100
H1141	H114	0.207900	0.334000	0.572600
C1291	C129	0.175800	0.287500	0.602300
H1151	H115	0.155500	0.305400	0.614800
C1301	C130	0.173900	0.244300	0.609600
H1161	H116	0.152800	0.233000	0.627300
C1311	C131	0.203250	0.218000	0.590700
H1171	H117	0.202000	0.188400	0.594800
C1321	C132	0.233960	0.235400	0.566010
N601	N60	0.295000	0.222750	0.531310
C1331	C133	0.320410	0.194310	0.510090
C1341	C134	0.348500	0.141750	0.478390
H1181	H118	0.352800	0.114400	0.467300
C1351	C135	0.376370	0.174380	0.475160
H1191	H119	0.403000	0.174000	0.461700
H1201	H120	0.352600	0.270300	0.496000
N611	N61	0.762220	0.705920	0.046250
N621	N62	0.813660	0.654380	0.999840
N631	N63	0.857920	0.707590	0.995370
C1361	C136	0.736180	0.778270	0.058600
H1211	H121	0.757600	0.789500	0.041100
C1371	C137	0.706700	0.804500	0.077100
H1221	H122	0.707900	0.834000	0.072600
C1381	C138	0.675800	0.787500	0.102300
H1231	H123	0.655500	0.805400	0.114800
C1391	C139	0.673900	0.744300	0.109600
H1241	H124	0.652800	0.733000	0.127300
C1401	C140	0.703250	0.718000	0.090700
H1251	H125	0.702000	0.688400	0.094800
C1411	C141	0.733960	0.735400	0.066010
N641	N64	0.795000	0.722750	0.031310
C1421	C142	0.820410	0.694310	0.010090
C1431	C143	0.848500	0.641750	0.978390
H1261	H126	0.852800	0.614400	0.967300
C1441	C144	0.876370	0.674380	0.975160
H1271	H127	0.903000	0.674000	0.961700
H1281	H128	0.852600	0.770300	0.996000
N651	N65	0.953750	0.737780	0.705920
N661	N66	0.000160	0.686340	0.654380
N671	N67	0.004630	0.642080	0.707590
C1451	C145	0.941400	0.763820	0.778270
H1291	H129	0.958900	0.742400	0.789500
C1461	C146	0.922900	0.793300	0.804500
H1301	H130	0.927400	0.792100	0.834000
C1471	C147	0.897700	0.824200	0.787500
H1311	H131	0.885200	0.844500	0.805400
C1481	C148	0.890400	0.826100	0.744300
H1321	H132	0.872700	0.847200	0.733000
C1491	C149	0.909300	0.796750	0.718000
H1331	H133	0.905200	0.798000	0.688400
C1501	C150	0.933990	0.766040	0.735400
N681	N68	0.968690	0.705000	0.722750
C1511	C151	0.989910	0.679590	0.694310
C1521	C152	0.021610	0.651500	0.641750
H1341	H134	0.032700	0.647200	0.614400
C1531	C153	0.024840	0.623630	0.674380
H1351	H135	0.038300	0.597000	0.674000
H1361	H136	0.004000	0.647400	0.770300
N691	N69	0.453750	0.237780	0.205920
N701	N70	0.500160	0.186340	0.154380
N711	N71	0.504630	0.142080	0.207590
C1541	C154	0.441400	0.263820	0.278270
H1371	H137	0.458900	0.242400	0.289500
C1551	C155	0.422900	0.293300	0.304500
H1381	H138	0.427400	0.292100	0.334000
C1561	C156	0.397700	0.324200	0.287500
H1391	H139	0.385200	0.344500	0.305400
C1571	C157	0.390400	0.326100	0.244300
H1401	H140	0.372700	0.347200	0.233000
C1581	C158	0.409300	0.296750	0.218000
H1411	H141	0.405200	0.298000	0.188400
C1591	C159	0.433990	0.266040	0.235400
N721	N72	0.468690	0.205000	0.222750
C1601	C160	0.489910	0.179590	0.194310
C1611	C161	0.521610	0.151500	0.141750
H1421	H142	0.532700	0.147200	0.114400
C1621	C162	0.524840	0.123630	0.174380
H1431	H143	0.538300	0.097000	0.174000
H1441	H144	0.504000	0.147400	0.270300
N731	N73	0.046250	0.237780	0.794080
N741	N74	0.999840	0.186340	0.845620
N751	N75	0.995370	0.142080	0.792410
C1631	C163	0.058600	0.263820	0.721730
H1451	H145	0.041100	0.242400	0.710500
C1641	C164	0.077100	0.293300	0.695500
H1461	H146	0.072600	0.292100	0.666000
C1651	C165	0.102300	0.324200	0.712500
H1471	H147	0.114800	0.344500	0.694600
C1661	C166	0.109600	0.326100	0.755700
H1481	H148	0.127300	0.347200	0.767000
C1671	C167	0.090700	0.296750	0.782000
H1491	H149	0.094800	0.298000	0.811600
C1681	C168	0.066010	0.266040	0.764600
N761	N76	0.031310	0.205000	0.777250
C1691	C169	0.010090	0.179590	0.805690
C1701	C170	0.978390	0.151500	0.858250
H1501	H150	0.967300	0.147200	0.885600
C1711	C171	0.975160	0.123630	0.825620
H1511	H151	0.961700	0.097000	0.826000
H1521	H152	0.996000	0.147400	0.729700
N771	N77	0.546250	0.737780	0.294080
N781	N78	0.499840	0.686340	0.345620
N791	N79	0.495370	0.642080	0.292410
C1721	C172	0.558600	0.763820	0.221730
H1531	H153	0.541100	0.742400	0.210500
C1731	C173	0.577100	0.793300	0.195500
H1541	H154	0.572600	0.792100	0.166000
C1741	C174	0.602300	0.824200	0.212500
H1551	H155	0.614800	0.844500	0.194600
C1751	C175	0.609600	0.826100	0.255700
H1561	H156	0.627300	0.847200	0.267000
C1761	C176	0.590700	0.796750	0.282000
H1571	H157	0.594800	0.798000	0.311600
C1771	C177	0.566010	0.766040	0.264600
N801	N80	0.531310	0.705000	0.277250
C1781	C178	0.510090	0.679590	0.305690
C1791	C179	0.478390	0.651500	0.358250
H1581	H158	0.467300	0.647200	0.385600
C1801	C180	0.475160	0.623630	0.325620
H1591	H159	0.461700	0.597000	0.326000
H1601	H160	0.496000	0.647400	0.229700
N811	N81	0.453750	0.762220	0.294080
N821	N82	0.500160	0.813660	0.345620
N831	N83	0.504630	0.857920	0.292410
C1811	C181	0.441400	0.736180	0.221730
H1611	H161	0.458900	0.757600	0.210500
C1821	C182	0.422900	0.706700	0.195500
H1621	H162	0.427400	0.707900	0.166000
C1831	C183	0.397700	0.675800	0.212500
H1631	H163	0.385200	0.655500	0.194600
C1841	C184	0.390400	0.673900	0.255700
H1641	H164	0.372700	0.652800	0.267000
C1851	C185	0.409300	0.703250	0.282000
H1651	H165	0.405200	0.702000	0.311600
C1861	C186	0.433990	0.733960	0.264600
N841	N84	0.468690	0.795000	0.277250
C1871	C187	0.489910	0.820410	0.305690
C1881	C188	0.521610	0.848500	0.358250
H1661	H166	0.532700	0.852800	0.385600
C1891	C189	0.524840	0.876370	0.325620
H1671	H167	0.538300	0.903000	0.326000
H1681	H168	0.504000	0.852600	0.229700
N851	N85	0.953750	0.262220	0.794080
N861	N86	0.000160	0.313660	0.845620
N871	N87	0.004630	0.357920	0.792410
C1901	C190	0.941400	0.236180	0.721730
H1691	H169	0.958900	0.257600	0.710500
C1911	C191	0.922900	0.206700	0.695500
H1701	H170	0.927400	0.207900	0.666000
C1921	C192	0.897700	0.175800	0.712500
H1711	H171	0.885200	0.155500	0.694600
C1931	C193	0.890400	0.173900	0.755700
H1721	H172	0.872700	0.152800	0.767000
C1941	C194	0.909300	0.203250	0.782000
H1731	H173	0.905200	0.202000	0.811600
C1951	C195	0.933990	0.233960	0.764600
N881	N88	0.968690	0.295000	0.777250
C1961	C196	0.989910	0.320410	0.805690
C1971	C197	0.021610	0.348500	0.858250
H1741	H174	0.032700	0.352800	0.885600
C1981	C198	0.024840	0.376370	0.825620
H1751	H175	0.038300	0.403000	0.826000
H1761	H176	0.004000	0.352600	0.729700
N891	N89	0.546250	0.262220	0.205920
N901	N90	0.499840	0.313660	0.154380
N911	N91	0.495370	0.357920	0.207590
C1991	C199	0.558600	0.236180	0.278270
H1771	H177	0.541100	0.257600	0.289500
C2001	C200	0.577100	0.206700	0.304500
H1781	H178	0.572600	0.207900	0.334000
C2011	C201	0.602300	0.175800	0.287500
H1791	H179	0.614800	0.155500	0.305400
C2021	C202	0.609600	0.173900	0.244300
H1801	H180	0.627300	0.152800	0.233000
C2031	C203	0.590700	0.203250	0.218000
H1811	H181	0.594800	0.202000	0.188400
C2041	C204	0.566010	0.233960	0.235400
N921	N92	0.531310	0.295000	0.222750
C2051	C205	0.510090	0.320410	0.194310
C2061	C206	0.478390	0.348500	0.141750
H1821	H182	0.467300	0.352800	0.114400
C2071	C207	0.475160	0.376370	0.174380
H1831	H183	0.461700	0.403000	0.174000
H1841	H184	0.496000	0.352600	0.270300
N931	N93	0.046250	0.762220	0.705920
N941	N94	0.999840	0.813660	0.654380
N951	N95	0.995370	0.857920	0.707590
C2081	C208	0.058600	0.736180	0.778270
H1851	H185	0.041100	0.757600	0.789500
C2091	C209	0.077100	0.706700	0.804500
H1861	H186	0.072600	0.707900	0.834000
C2101	C210	0.102300	0.675800	0.787500
H1871	H187	0.114800	0.655500	0.805400
C2111	C211	0.109600	0.673900	0.744300
H1881	H188	0.127300	0.652800	0.733000
C2121	C212	0.090700	0.703250	0.718000
H1891	H189	0.094800	0.702000	0.688400
C2131	C213	0.066010	0.733960	0.735400
N961	N96	0.031310	0.795000	0.722750
C2141	C214	0.010090	0.820410	0.694310
C2151	C215	0.978390	0.848500	0.641750
H1901	H190	0.967300	0.852800	0.614400
C2161	C216	0.975160	0.876370	0.674380
H1911	H191	0.961700	0.903000	0.674000
H1921	H192	0.996000	0.852600	0.770300
N971	N97	0.703750	0.955920	0.512220
N981	N98	0.750160	0.904380	0.563660
N991	N99	0.754630	0.957590	0.607920
C2171	C217	0.691400	0.028270	0.486180
H1931	H193	0.708900	0.039500	0.507600
C2181	C218	0.672900	0.054500	0.456700
H1941	H194	0.677400	0.084000	0.457900
C2191	C219	0.647700	0.037500	0.425800
H1951	H195	0.635200	0.055400	0.405500
C2201	C220	0.640400	0.994300	0.423900
H1961	H196	0.622700	0.983000	0.402800
C2211	C221	0.659300	0.968000	0.453250
H1971	H197	0.655200	0.938400	0.452000
C2221	C222	0.683990	0.985400	0.483960
N1001	N100	0.718690	0.972750	0.545000
C2231	C223	0.739910	0.944310	0.570410
C2241	C224	0.771610	0.891750	0.598500
H1981	H198	0.782700	0.864400	0.602800
C2251	C225	0.774840	0.924380	0.626370
H1991	H199	0.788300	0.924000	0.653000
H2001	H200	0.754000	0.020300	0.602600
N1011	N101	0.203750	0.455920	0.012220
N1021	N102	0.250160	0.404380	0.063660
N1031	N103	0.254630	0.457590	0.107920
C2261	C226	0.191400	0.528270	0.986180
H2011	H201	0.208900	0.539500	0.007600
C2271	C227	0.172900	0.554500	0.956700
H2021	H202	0.177400	0.584000	0.957900
C2281	C228	0.147700	0.537500	0.925800
H2031	H203	0.135200	0.555400	0.905500
C2291	C229	0.140400	0.494300	0.923900
H2041	H204	0.122700	0.483000	0.902800
C2301	C230	0.159300	0.468000	0.953250
H2051	H205	0.155200	0.438400	0.952000
C2311	C231	0.183990	0.485400	0.983960
N1041	N104	0.218690	0.472750	0.045000
C2321	C232	0.239910	0.444310	0.070410
C2331	C233	0.271610	0.391750	0.098500
H2061	H206	0.282700	0.364400	0.102800
C2341	C234	0.274840	0.424380	0.126370
H2071	H207	0.288300	0.424000	0.153000
H2081	H208	0.254000	0.520300	0.102600
N1051	N105	0.796250	0.044080	0.012220
N1061	N106	0.749840	0.095620	0.063660
N1071	N107	0.745370	0.042410	0.107920
C2351	C235	0.808600	0.971730	0.986180
H2091	H209	0.791100	0.960500	0.007600
C2361	C236	0.827100	0.945500	0.956700
H2101	H210	0.822600	0.916000	0.957900
C2371	C237	0.852300	0.962500	0.925800
H2111	H211	0.864800	0.944600	0.905500
C2381	C238	0.859600	0.005700	0.923900
H2121	H212	0.877300	0.017000	0.902800
C2391	C239	0.840700	0.032000	0.953250
H2131	H213	0.844800	0.061600	0.952000
C2401	C240	0.816010	0.014600	0.983960
N1081	N108	0.781310	0.027250	0.045000
C2411	C241	0.760090	0.055690	0.070410
C2421	C242	0.728390	0.108250	0.098500
H2141	H214	0.717300	0.135600	0.102800
C2431	C243	0.725160	0.075620	0.126370
H2151	H215	0.711700	0.076000	0.153000
H2161	H216	0.746000	0.979700	0.102600
N1091	N109	0.296250	0.544080	0.512220
N1101	N110	0.249840	0.595620	0.563660
N1111	N111	0.245370	0.542410	0.607920
C2441	C244	0.308600	0.471730	0.486180
H2171	H217	0.291100	0.460500	0.507600
C2451	C245	0.327100	0.445500	0.456700
H2181	H218	0.322600	0.416000	0.457900
C2461	C246	0.352300	0.462500	0.425800
H2191	H219	0.364800	0.444600	0.405500
C2471	C247	0.359600	0.505700	0.423900
H2201	H220	0.377300	0.517000	0.402800
C2481	C248	0.340700	0.532000	0.453250
H2211	H221	0.344800	0.561600	0.452000
C2491	C249	0.316010	0.514600	0.483960
N1121	N112	0.281310	0.527250	0.545000
C2501	C250	0.260090	0.555690	0.570410
C2511	C251	0.228390	0.608250	0.598500
H2221	H222	0.217300	0.635600	0.602800
C2521	C252	0.225160	0.575620	0.626370
H2231	H223	0.211700	0.576000	0.653000
H2241	H224	0.246000	0.479700	0.602600
N1131	N113	0.203750	0.544080	0.487780
N1141	N114	0.250160	0.595620	0.436340
N1151	N115	0.254630	0.542410	0.392080
C2531	C253	0.191400	0.471730	0.513820
H2251	H225	0.208900	0.460500	0.492400
C2541	C254	0.172900	0.445500	0.543300
H2261	H226	0.177400	0.416000	0.542100
C2551	C255	0.147700	0.462500	0.574200
H2271	H227	0.135200	0.444600	0.594500
C2561	C256	0.140400	0.505700	0.576100
H2281	H228	0.122700	0.517000	0.597200
C2571	C257	0.159300	0.532000	0.546750
H2291	H229	0.155200	0.561600	0.548000
C2581	C258	0.183990	0.514600	0.516040
N1161	N116	0.218690	0.527250	0.455000
C2591	C259	0.239910	0.555690	0.429590
C2601	C260	0.271610	0.608250	0.401500
H2301	H230	0.282700	0.635600	0.397200
C2611	C261	0.274840	0.575620	0.373630
H2311	H231	0.288300	0.576000	0.347000
H2321	H232	0.254000	0.479700	0.397400
N1171	N117	0.703750	0.044080	0.987780
N1181	N118	0.750160	0.095620	0.936340
N1191	N119	0.754630	0.042410	0.892080
C2621	C262	0.691400	0.971730	0.013820
H2331	H233	0.708900	0.960500	0.992400
C2631	C263	0.672900	0.945500	0.043300
H2341	H234	0.677400	0.916000	0.042100
C2641	C264	0.647700	0.962500	0.074200
H2351	H235	0.635200	0.944600	0.094500
C2651	C265	0.640400	0.005700	0.076100
H2361	H236	0.622700	0.017000	0.097200
C2661	C266	0.659300	0.032000	0.046750
H2371	H237	0.655200	0.061600	0.048000
C2671	C267	0.683990	0.014600	0.016040
N1201	N120	0.718690	0.027250	0.955000
C2681	C268	0.739910	0.055690	0.929590
C2691	C269	0.771610	0.108250	0.901500
H2381	H238	0.782700	0.135600	0.897200
C2701	C270	0.774840	0.075620	0.873630
H2391	H239	0.788300	0.076000	0.847000
H2401	H240	0.754000	0.979700	0.897400
N1211	N121	0.296250	0.455920	0.987780
N1221	N122	0.249840	0.404380	0.936340
N1231	N123	0.245370	0.457590	0.892080
C2711	C271	0.308600	0.528270	0.013820
H2411	H241	0.291100	0.539500	0.992400
C2721	C272	0.327100	0.554500	0.043300
H2421	H242	0.322600	0.584000	0.042100
C2731	C273	0.352300	0.537500	0.074200
H2431	H243	0.364800	0.555400	0.094500
C2741	C274	0.359600	0.494300	0.076100
H2441	H244	0.377300	0.483000	0.097200
C2751	C275	0.340700	0.468000	0.046750
H2451	H245	0.344800	0.438400	0.048000
C2761	C276	0.316010	0.485400	0.016040
N1241	N124	0.281310	0.472750	0.955000
C2771	C277	0.260090	0.444310	0.929590
C2781	C278	0.228390	0.391750	0.901500
H2461	H246	0.217300	0.364400	0.897200
C2791	C279	0.225160	0.424380	0.873630
H2471	H247	0.211700	0.424000	0.847000
H2481	H248	0.246000	0.520300	0.897400
N1251	N125	0.796250	0.955920	0.487780
N1261	N126	0.749840	0.904380	0.436340
N1271	N127	0.745370	0.957590	0.392080
C2801	C280	0.808600	0.028270	0.513820
H2491	H249	0.791100	0.039500	0.492400
C2811	C281	0.827100	0.054500	0.543300
H2501	H250	0.822600	0.084000	0.542100
C2821	C282	0.852300	0.037500	0.574200
H2511	H251	0.864800	0.055400	0.594500
C2831	C283	0.859600	0.994300	0.576100
H2521	H252	0.877300	0.983000	0.597200
C2841	C284	0.840700	0.968000	0.546750
H2531	H253	0.844800	0.938400	0.548000
C2851	C285	0.816010	0.985400	0.516040
N1281	N128	0.781310	0.972750	0.455000
C2861	C286	0.760090	0.944310	0.429590
C2871	C287	0.728390	0.891750	0.401500
H2541	H254	0.717300	0.864400	0.397200
C2881	C288	0.725160	0.924380	0.373630
H2551	H255	0.711700	0.924000	0.347000
H2561	H256	0.746000	0.020300	0.397400
N1291	N129	0.455920	0.987780	0.296250
N1301	N130	0.404380	0.936340	0.249840
N1311	N131	0.457590	0.892080	0.245370
C2891	C289	0.528270	0.013820	0.308600
H2571	H257	0.539500	0.992400	0.291100
C2901	C290	0.554500	0.043300	0.327100
H2581	H258	0.584000	0.042100	0.322600
C2911	C291	0.537500	0.074200	0.352300
H2591	H259	0.555400	0.094500	0.364800
C2921	C292	0.494300	0.076100	0.359600
H2601	H260	0.483000	0.097200	0.377300
C2931	C293	0.468000	0.046750	0.340700
H2611	H261	0.438400	0.048000	0.344800
C2941	C294	0.485400	0.016040	0.316010
N1321	N132	0.472750	0.955000	0.281310
C2951	C295	0.444310	0.929590	0.260090
C2961	C296	0.391750	0.901500	0.228390
H2621	H262	0.364400	0.897200	0.217300
C2971	C297	0.424380	0.873630	0.225160
H2631	H263	0.424000	0.847000	0.211700
H2641	H264	0.520300	0.897400	0.246000
N1331	N133	0.955920	0.487780	0.796250
N1341	N134	0.904380	0.436340	0.749840
N1351	N135	0.957590	0.392080	0.745370
C2981	C298	0.028270	0.513820	0.808600
H2651	H265	0.039500	0.492400	0.791100
C2991	C299	0.054500	0.543300	0.827100
H2661	H266	0.084000	0.542100	0.822600
C3001	C300	0.037500	0.574200	0.852300
H2671	H267	0.055400	0.594500	0.864800
C3011	C301	0.994300	0.576100	0.859600
H2681	H268	0.983000	0.597200	0.877300
C3021	C302	0.968000	0.546750	0.840700
H2691	H269	0.938400	0.548000	0.844800
C3031	C303	0.985400	0.516040	0.816010
N1361	N136	0.972750	0.455000	0.781310
C3041	C304	0.944310	0.429590	0.760090
C3051	C305	0.891750	0.401500	0.728390
H2701	H270	0.864400	0.397200	0.717300
C3061	C306	0.924380	0.373630	0.725160
H2711	H271	0.924000	0.347000	0.711700
H2721	H272	0.020300	0.397400	0.746000
N1371	N137	0.544080	0.487780	0.203750
N1381	N138	0.595620	0.436340	0.250160
N1391	N139	0.542410	0.392080	0.254630
C3071	C307	0.471730	0.513820	0.191400
H2731	H273	0.460500	0.492400	0.208900
C3081	C308	0.445500	0.543300	0.172900
H2741	H274	0.416000	0.542100	0.177400
C3091	C309	0.462500	0.574200	0.147700
H2751	H275	0.444600	0.594500	0.135200
C3101	C310	0.505700	0.576100	0.140400
H2761	H276	0.517000	0.597200	0.122700
C3111	C311	0.532000	0.546750	0.159300
H2771	H277	0.561600	0.548000	0.155200
C3121	C312	0.514600	0.516040	0.183990
N1401	N140	0.527250	0.455000	0.218690
C3131	C313	0.555690	0.429590	0.239910
C3141	C314	0.608250	0.401500	0.271610
H2781	H278	0.635600	0.397200	0.282700
C3151	C315	0.575620	0.373630	0.274840
H2791	H279	0.576000	0.347000	0.288300
H2801	H280	0.479700	0.397400	0.254000
N1411	N141	0.044080	0.987780	0.703750
N1421	N142	0.095620	0.936340	0.750160
N1431	N143	0.042410	0.892080	0.754630
C3161	C316	0.971730	0.013820	0.691400
H2811	H281	0.960500	0.992400	0.708900
C3171	C317	0.945500	0.043300	0.672900
H2821	H282	0.916000	0.042100	0.677400
C3181	C318	0.962500	0.074200	0.647700
H2831	H283	0.944600	0.094500	0.635200
C3191	C319	0.005700	0.076100	0.640400
H2841	H284	0.017000	0.097200	0.622700
C3201	C320	0.032000	0.046750	0.659300
H2851	H285	0.061600	0.048000	0.655200
C3211	C321	0.014600	0.016040	0.683990
N1441	N144	0.027250	0.955000	0.718690
C3221	C322	0.055690	0.929590	0.739910
C3231	C323	0.108250	0.901500	0.771610
H2861	H286	0.135600	0.897200	0.782700
C3241	C324	0.075620	0.873630	0.774840
H2871	H287	0.076000	0.847000	0.788300
H2881	H288	0.979700	0.897400	0.754000
N1451	N145	0.044080	0.012220	0.796250
N1461	N146	0.095620	0.063660	0.749840
N1471	N147	0.042410	0.107920	0.745370
C3251	C325	0.971730	0.986180	0.808600
H2891	H289	0.960500	0.007600	0.791100
C3261	C326	0.945500	0.956700	0.827100
H2901	H290	0.916000	0.957900	0.822600
C3271	C327	0.962500	0.925800	0.852300
H2911	H291	0.944600	0.905500	0.864800
C3281	C328	0.005700	0.923900	0.859600
H2921	H292	0.017000	0.902800	0.877300
C3291	C329	0.032000	0.953250	0.840700
H2931	H293	0.061600	0.952000	0.844800
C3301	C330	0.014600	0.983960	0.816010
N1481	N148	0.027250	0.045000	0.781310
C3311	C331	0.055690	0.070410	0.760090
C3321	C332	0.108250	0.098500	0.728390
H2941	H294	0.135600	0.102800	0.717300
C3331	C333	0.075620	0.126370	0.725160
H2951	H295	0.076000	0.153000	0.711700
H2961	H296	0.979700	0.102600	0.746000
N1491	N149	0.544080	0.512220	0.296250
N1501	N150	0.595620	0.563660	0.249840
N1511	N151	0.542410	0.607920	0.245370
C3341	C334	0.471730	0.486180	0.308600
H2971	H297	0.460500	0.507600	0.291100
C3351	C335	0.445500	0.456700	0.327100
H2981	H298	0.416000	0.457900	0.322600
C3361	C336	0.462500	0.425800	0.352300
H2991	H299	0.444600	0.405500	0.364800
C3371	C337	0.505700	0.423900	0.359600
H3001	H300	0.517000	0.402800	0.377300
C3381	C338	0.532000	0.453250	0.340700
H3011	H301	0.561600	0.452000	0.344800
C3391	C339	0.514600	0.483960	0.316010
N1521	N152	0.527250	0.545000	0.281310
C3401	C340	0.555690	0.570410	0.260090
C3411	C341	0.608250	0.598500	0.228390
H3021	H302	0.635600	0.602800	0.217300
C3421	C342	0.575620	0.626370	0.225160
H3031	H303	0.576000	0.653000	0.211700
H3041	H304	0.479700	0.602600	0.246000
N1531	N153	0.955920	0.512220	0.703750
N1541	N154	0.904380	0.563660	0.750160
N1551	N155	0.957590	0.607920	0.754630
C3431	C343	0.028270	0.486180	0.691400
H3051	H305	0.039500	0.507600	0.708900
C3441	C344	0.054500	0.456700	0.672900
H3061	H306	0.084000	0.457900	0.677400
C3451	C345	0.037500	0.425800	0.647700
H3071	H307	0.055400	0.405500	0.635200
C3461	C346	0.994300	0.423900	0.640400
H3081	H308	0.983000	0.402800	0.622700
C3471	C347	0.968000	0.453250	0.659300
H3091	H309	0.938400	0.452000	0.655200
C3481	C348	0.985400	0.483960	0.683990
N1561	N156	0.972750	0.545000	0.718690
C3491	C349	0.944310	0.570410	0.739910
C3501	C350	0.891750	0.598500	0.771610
H3101	H310	0.864400	0.602800	0.782700
C3511	C351	0.924380	0.626370	0.774840
H3111	H311	0.924000	0.653000	0.788300
H3121	H312	0.020300	0.602600	0.754000
N1571	N157	0.455920	0.012220	0.203750
N1581	N158	0.404380	0.063660	0.250160
N1591	N159	0.457590	0.107920	0.254630
C3521	C352	0.528270	0.986180	0.191400
H3131	H313	0.539500	0.007600	0.208900
C3531	C353	0.554500	0.956700	0.172900
H3141	H314	0.584000	0.957900	0.177400
C3541	C354	0.537500	0.925800	0.147700
H3151	H315	0.555400	0.905500	0.135200
C3551	C355	0.494300	0.923900	0.140400
H3161	H316	0.483000	0.902800	0.122700
C3561	C356	0.468000	0.953250	0.159300
H3171	H317	0.438400	0.952000	0.155200
C3571	C357	0.485400	0.983960	0.183990
N1601	N160	0.472750	0.045000	0.218690
C3581	C358	0.444310	0.070410	0.239910
C3591	C359	0.391750	0.098500	0.271610
H3181	H318	0.364400	0.102800	0.282700
C3601	C360	0.424380	0.126370	0.274840
H3191	H319	0.424000	0.153000	0.288300
H3201	H320	0.520300	0.102600	0.254000
N1611	N161	0.487780	0.203750	0.544080
N1621	N162	0.436340	0.250160	0.595620
N1631	N163	0.392080	0.254630	0.542410
C3611	C361	0.513820	0.191400	0.471730
H3211	H321	0.492400	0.208900	0.460500
C3621	C362	0.543300	0.172900	0.445500
H3221	H322	0.542100	0.177400	0.416000
C3631	C363	0.574200	0.147700	0.462500
H3231	H323	0.594500	0.135200	0.444600
C3641	C364	0.576100	0.140400	0.505700
H3241	H324	0.597200	0.122700	0.517000
C3651	C365	0.546750	0.159300	0.532000
H3251	H325	0.548000	0.155200	0.561600
C3661	C366	0.516040	0.183990	0.514600
N1641	N164	0.455000	0.218690	0.527250
C3671	C367	0.429590	0.239910	0.555690
C3681	C368	0.401500	0.271610	0.608250
H3261	H326	0.397200	0.282700	0.635600
C3691	C369	0.373630	0.274840	0.575620
H3271	H327	0.347000	0.288300	0.576000
H3281	H328	0.397400	0.254000	0.479700
N1651	N165	0.987780	0.703750	0.044080
N1661	N166	0.936340	0.750160	0.095620
N1671	N167	0.892080	0.754630	0.042410
C3701	C370	0.013820	0.691400	0.971730
H3291	H329	0.992400	0.708900	0.960500
C3711	C371	0.043300	0.672900	0.945500
H3301	H330	0.042100	0.677400	0.916000
C3721	C372	0.074200	0.647700	0.962500
H3311	H331	0.094500	0.635200	0.944600
C3731	C373	0.076100	0.640400	0.005700
H3321	H332	0.097200	0.622700	0.017000
C3741	C374	0.046750	0.659300	0.032000
H3331	H333	0.048000	0.655200	0.061600
C3751	C375	0.016040	0.683990	0.014600
N1681	N168	0.955000	0.718690	0.027250
C3761	C376	0.929590	0.739910	0.055690
C3771	C377	0.901500	0.771610	0.108250
H3341	H334	0.897200	0.782700	0.135600
C3781	C378	0.873630	0.774840	0.075620
H3351	H335	0.847000	0.788300	0.076000
H3361	H336	0.897400	0.754000	0.979700
N1691	N169	0.987780	0.296250	0.455920
N1701	N170	0.936340	0.249840	0.404380
N1711	N171	0.892080	0.245370	0.457590
C3791	C379	0.013820	0.308600	0.528270
H3371	H337	0.992400	0.291100	0.539500
C3801	C380	0.043300	0.327100	0.554500
H3381	H338	0.042100	0.322600	0.584000
C3811	C381	0.074200	0.352300	0.537500
H3391	H339	0.094500	0.364800	0.555400
C3821	C382	0.076100	0.359600	0.494300
H3401	H340	0.097200	0.377300	0.483000
C3831	C383	0.046750	0.340700	0.468000
H3411	H341	0.048000	0.344800	0.438400
C3841	C384	0.016040	0.316010	0.485400
N1721	N172	0.955000	0.281310	0.472750
C3851	C385	0.929590	0.260090	0.444310
C3861	C386	0.901500	0.228390	0.391750
H3421	H342	0.897200	0.217300	0.364400
C3871	C387	0.873630	0.225160	0.424380
H3431	H343	0.847000	0.211700	0.424000
H3441	H344	0.897400	0.246000	0.520300
N1731	N173	0.487780	0.796250	0.955920
N1741	N174	0.436340	0.749840	0.904380
N1751	N175	0.392080	0.745370	0.957590
C3881	C388	0.513820	0.808600	0.028270
H3451	H345	0.492400	0.791100	0.039500
C3891	C389	0.543300	0.827100	0.054500
H3461	H346	0.542100	0.822600	0.084000
C3901	C390	0.574200	0.852300	0.037500
H3471	H347	0.594500	0.864800	0.055400
C3911	C391	0.576100	0.859600	0.994300
H3481	H348	0.597200	0.877300	0.983000
C3921	C392	0.546750	0.840700	0.968000
H3491	H349	0.548000	0.844800	0.938400
C3931	C393	0.516040	0.816010	0.985400
N1761	N176	0.455000	0.781310	0.972750
C3941	C394	0.429590	0.760090	0.944310
C3951	C395	0.401500	0.728390	0.891750
H3501	H350	0.397200	0.717300	0.864400
C3961	C396	0.373630	0.725160	0.924380
H3511	H351	0.347000	0.711700	0.924000
H3521	H352	0.397400	0.746000	0.020300
N1771	N177	0.512220	0.703750	0.955920
N1781	N178	0.563660	0.750160	0.904380
N1791	N179	0.607920	0.754630	0.957590
C3971	C397	0.486180	0.691400	0.028270
H3531	H353	0.507600	0.708900	0.039500
C3981	C398	0.456700	0.672900	0.054500
H3541	H354	0.457900	0.677400	0.084000
C3991	C399	0.425800	0.647700	0.037500
H3551	H355	0.405500	0.635200	0.055400
C4001	C400	0.423900	0.640400	0.994300
H3561	H356	0.402800	0.622700	0.983000
C4011	C401	0.453250	0.659300	0.968000
H3571	H357	0.452000	0.655200	0.938400
C4021	C402	0.483960	0.683990	0.985400
N1801	N180	0.545000	0.718690	0.972750
C4031	C403	0.570410	0.739910	0.944310
C4041	C404	0.598500	0.771610	0.891750
H3581	H358	0.602800	0.782700	0.864400
C4051	C405	0.626370	0.774840	0.924380
H3591	H359	0.653000	0.788300	0.924000
H3601	H360	0.602600	0.754000	0.020300
N1811	N181	0.012220	0.203750	0.455920
N1821	N182	0.063660	0.250160	0.404380
N1831	N183	0.107920	0.254630	0.457590
C4061	C406	0.986180	0.191400	0.528270
H3611	H361	0.007600	0.208900	0.539500
C4071	C407	0.956700	0.172900	0.554500
H3621	H362	0.957900	0.177400	0.584000
C4081	C408	0.925800	0.147700	0.537500
H3631	H363	0.905500	0.135200	0.555400
C4091	C409	0.923900	0.140400	0.494300
H3641	H364	0.902800	0.122700	0.483000
C4101	C410	0.953250	0.159300	0.468000
H3651	H365	0.952000	0.155200	0.438400
C4111	C411	0.983960	0.183990	0.485400
N1841	N184	0.045000	0.218690	0.472750
C4121	C412	0.070410	0.239910	0.444310
C4131	C413	0.098500	0.271610	0.391750
H3661	H366	0.102800	0.282700	0.364400
C4141	C414	0.126370	0.274840	0.424380
H3671	H367	0.153000	0.288300	0.424000
H3681	H368	0.102600	0.254000	0.520300
N1851	N185	0.012220	0.796250	0.044080
N1861	N186	0.063660	0.749840	0.095620
N1871	N187	0.107920	0.745370	0.042410
C4151	C415	0.986180	0.808600	0.971730
H3691	H369	0.007600	0.791100	0.960500
C4161	C416	0.956700	0.827100	0.945500
H3701	H370	0.957900	0.822600	0.916000
C4171	C417	0.925800	0.852300	0.962500
H3711	H371	0.905500	0.864800	0.944600
C4181	C418	0.923900	0.859600	0.005700
H3721	H372	0.902800	0.877300	0.017000
C4191	C419	0.953250	0.840700	0.032000
H3731	H373	0.952000	0.844800	0.061600
C4201	C420	0.983960	0.816010	0.014600
N1881	N188	0.045000	0.781310	0.027250
C4211	C421	0.070410	0.760090	0.055690
C4221	C422	0.098500	0.728390	0.108250
H3741	H374	0.102800	0.717300	0.135600
C4231	C423	0.126370	0.725160	0.075620
H3751	H375	0.153000	0.711700	0.076000
H3761	H376	0.102600	0.746000	0.979700
N1891	N189	0.512220	0.296250	0.544080
N1901	N190	0.563660	0.249840	0.595620
N1911	N191	0.607920	0.245370	0.542410
C4241	C424	0.486180	0.308600	0.471730
H3771	H377	0.507600	0.291100	0.460500
C4251	C425	0.456700	0.327100	0.445500
H3781	H378	0.457900	0.322600	0.416000
C4261	C426	0.425800	0.352300	0.462500
H3791	H379	0.405500	0.364800	0.444600
C4271	C427	0.423900	0.359600	0.505700
H3801	H380	0.402800	0.377300	0.517000
C4281	C428	0.453250	0.340700	0.532000
H3811	H381	0.452000	0.344800	0.561600
C4291	C429	0.483960	0.316010	0.514600
N1921	N192	0.545000	0.281310	0.527250
C4301	C430	0.570410	0.260090	0.555690
C4311	C431	0.598500	0.228390	0.608250
H3821	H382	0.602800	0.217300	0.635600
C4321	C432	0.626370	0.225160	0.575620
H3831	H383	0.653000	0.211700	0.576000
H3841	H384	0.602600	0.246000	0.479700
N1931	N193	0.294080	0.046250	0.262220
N1941	N194	0.345620	0.999840	0.313660
N1951	N195	0.292410	0.995370	0.357920
C4331	C433	0.221730	0.058600	0.236180
H3851	H385	0.210500	0.041100	0.257600
C4341	C434	0.195500	0.077100	0.206700
H3861	H386	0.166000	0.072600	0.207900
C4351	C435	0.212500	0.102300	0.175800
H3871	H387	0.194600	0.114800	0.155500
C4361	C436	0.255700	0.109600	0.173900
H3881	H388	0.267000	0.127300	0.152800
C4371	C437	0.282000	0.090700	0.203250
H3891	H389	0.311600	0.094800	0.202000
C4381	C438	0.264600	0.066010	0.233960
N1961	N196	0.277250	0.031310	0.295000
C4391	C439	0.305690	0.010090	0.320410
C4401	C440	0.358250	0.978390	0.348500
H3901	H390	0.385600	0.967300	0.352800
C4411	C441	0.325620	0.975160	0.376370
H3911	H391	0.326000	0.961700	0.403000
H3921	H392	0.229700	0.996000	0.352600
N1971	N197	0.794080	0.546250	0.762220
N1981	N198	0.845620	0.499840	0.813660
N1991	N199	0.792410	0.495370	0.857920
C4421	C442	0.721730	0.558600	0.736180
H3931	H393	0.710500	0.541100	0.757600
C4431	C443	0.695500	0.577100	0.706700
H3941	H394	0.666000	0.572600	0.707900
C4441	C444	0.712500	0.602300	0.675800
H3951	H395	0.694600	0.614800	0.655500
C4451	C445	0.755700	0.609600	0.673900
H3961	H396	0.767000	0.627300	0.652800
C4461	C446	0.782000	0.590700	0.703250
H3971	H397	0.811600	0.594800	0.702000
C4471	C447	0.764600	0.566010	0.733960
N2001	N200	0.777250	0.531310	0.795000
C4481	C448	0.805690	0.510090	0.820410
C4491	C449	0.858250	0.478390	0.848500
H3981	H398	0.885600	0.467300	0.852800
C4501	C450	0.825620	0.475160	0.876370
H3991	H399	0.826000	0.461700	0.903000
H4001	H400	0.729700	0.496000	0.852600
N2011	N201	0.205920	0.953750	0.762220
N2021	N202	0.154380	0.000160	0.813660
N2031	N203	0.207590	0.004630	0.857920
C4511	C451	0.278270	0.941400	0.736180
H4011	H401	0.289500	0.958900	0.757600
C4521	C452	0.304500	0.922900	0.706700
H4021	H402	0.334000	0.927400	0.707900
C4531	C453	0.287500	0.897700	0.675800
H4031	H403	0.305400	0.885200	0.655500
C4541	C454	0.244300	0.890400	0.673900
H4041	H404	0.233000	0.872700	0.652800
C4551	C455	0.218000	0.909300	0.703250
H4051	H405	0.188400	0.905200	0.702000
C4561	C456	0.235400	0.933990	0.733960
N2041	N204	0.222750	0.968690	0.795000
C4571	C457	0.194310	0.989910	0.820410
C4581	C458	0.141750	0.021610	0.848500
H4061	H406	0.114400	0.032700	0.852800
C4591	C459	0.174380	0.024840	0.876370
H4071	H407	0.174000	0.038300	0.903000
H4081	H408	0.270300	0.004000	0.852600
N2051	N205	0.705920	0.453750	0.262220
N2061	N206	0.654380	0.500160	0.313660
N2071	N207	0.707590	0.504630	0.357920
C4601	C460	0.778270	0.441400	0.236180
H4091	H409	0.789500	0.458900	0.257600
C4611	C461	0.804500	0.422900	0.206700
H4101	H410	0.834000	0.427400	0.207900
C4621	C462	0.787500	0.397700	0.175800
H4111	H411	0.805400	0.385200	0.155500
C4631	C463	0.744300	0.390400	0.173900
H4121	H412	0.733000	0.372700	0.152800
C4641	C464	0.718000	0.409300	0.203250
H4131	H413	0.688400	0.405200	0.202000
C4651	C465	0.735400	0.433990	0.233960
N2081	N208	0.722750	0.468690	0.295000
C4661	C466	0.694310	0.489910	0.320410
C4671	C467	0.641750	0.521610	0.348500
H4141	H414	0.614400	0.532700	0.352800
C4681	C468	0.674380	0.524840	0.376370
H4151	H415	0.674000	0.538300	0.403000
H4161	H416	0.770300	0.504000	0.352600
N2091	N209	0.705920	0.546250	0.237780
N2101	N210	0.654380	0.499840	0.186340
N2111	N211	0.707590	0.495370	0.142080
C4691	C469	0.778270	0.558600	0.263820
H4171	H417	0.789500	0.541100	0.242400
C4701	C470	0.804500	0.577100	0.293300
H4181	H418	0.834000	0.572600	0.292100
C4711	C471	0.787500	0.602300	0.324200
H4191	H419	0.805400	0.614800	0.344500
C4721	C472	0.744300	0.609600	0.326100
H4201	H420	0.733000	0.627300	0.347200
C4731	C473	0.718000	0.590700	0.296750
H4211	H421	0.688400	0.594800	0.298000
C4741	C474	0.735400	0.566010	0.266040
N2121	N212	0.722750	0.531310	0.205000
C4751	C475	0.694310	0.510090	0.179590
C4761	C476	0.641750	0.478390	0.151500
H4221	H422	0.614400	0.467300	0.147200
C4771	C477	0.674380	0.475160	0.123630
H4231	H423	0.674000	0.461700	0.097000
H4241	H424	0.770300	0.496000	0.147400
N2131	N213	0.205920	0.046250	0.737780
N2141	N214	0.154380	0.999840	0.686340
N2151	N215	0.207590	0.995370	0.642080
C4781	C478	0.278270	0.058600	0.763820
H4251	H425	0.289500	0.041100	0.742400
C4791	C479	0.304500	0.077100	0.793300
H4261	H426	0.334000	0.072600	0.792100
C4801	C480	0.287500	0.102300	0.824200
H4271	H427	0.305400	0.114800	0.844500
C4811	C481	0.244300	0.109600	0.826100
H4281	H428	0.233000	0.127300	0.847200
C4821	C482	0.218000	0.090700	0.796750
H4291	H429	0.188400	0.094800	0.798000
C4831	C483	0.235400	0.066010	0.766040
N2161	N216	0.222750	0.031310	0.705000
C4841	C484	0.194310	0.010090	0.679590
C4851	C485	0.141750	0.978390	0.651500
H4301	H430	0.114400	0.967300	0.647200
C4861	C486	0.174380	0.975160	0.623630
H4311	H431	0.174000	0.961700	0.597000
H4321	H432	0.270300	0.996000	0.647400
N2171	N217	0.794080	0.453750	0.737780
N2181	N218	0.845620	0.500160	0.686340
N2191	N219	0.792410	0.504630	0.642080
C4871	C487	0.721730	0.441400	0.763820
H4331	H433	0.710500	0.458900	0.742400
C4881	C488	0.695500	0.422900	0.793300
H4341	H434	0.666000	0.427400	0.792100
C4891	C489	0.712500	0.397700	0.824200
H4351	H435	0.694600	0.385200	0.844500
C4901	C490	0.755700	0.390400	0.826100
H4361	H436	0.767000	0.372700	0.847200
C4911	C491	0.782000	0.409300	0.796750
H4371	H437	0.811600	0.405200	0.798000
C4921	C492	0.764600	0.433990	0.766040
N2201	N220	0.777250	0.468690	0.705000
C4931	C493	0.805690	0.489910	0.679590
C4941	C494	0.858250	0.521610	0.651500
H4381	H438	0.885600	0.532700	0.647200
C4951	C495	0.825620	0.524840	0.623630
H4391	H439	0.826000	0.538300	0.597000
H4401	H440	0.729700	0.504000	0.647400
N2211	N221	0.294080	0.953750	0.237780
N2221	N222	0.345620	0.000160	0.186340
N2231	N223	0.292410	0.004630	0.142080
C4961	C496	0.221730	0.941400	0.263820
H4411	H441	0.210500	0.958900	0.242400
C4971	C497	0.195500	0.922900	0.293300
H4421	H442	0.166000	0.927400	0.292100
C4981	C498	0.212500	0.897700	0.324200
H4431	H443	0.194600	0.885200	0.344500
C4991	C499	0.255700	0.890400	0.326100
H4441	H444	0.267000	0.872700	0.347200
C5001	C500	0.282000	0.909300	0.296750
H4451	H445	0.311600	0.905200	0.298000
C5011	C501	0.264600	0.933990	0.266040
N2241	N224	0.277250	0.968690	0.205000
C5021	C502	0.305690	0.989910	0.179590
C5031	C503	0.358250	0.021610	0.151500
H4461	H446	0.385600	0.032700	0.147200
C5041	C504	0.325620	0.024840	0.123630
H4471	H447	0.326000	0.038300	0.097000
H4481	H448	0.229700	0.004000	0.147400
N2251	N225	0.262220	0.294080	0.046250
N2261	N226	0.313660	0.345620	0.999840
N2271	N227	0.357920	0.292410	0.995370
C5051	C505	0.236180	0.221730	0.058600
H4491	H449	0.257600	0.210500	0.041100
C5061	C506	0.206700	0.195500	0.077100
H4501	H450	0.207900	0.166000	0.072600
C5071	C507	0.175800	0.212500	0.102300
H4511	H451	0.155500	0.194600	0.114800
C5081	C508	0.173900	0.255700	0.109600
H4521	H452	0.152800	0.267000	0.127300
C5091	C509	0.203250	0.282000	0.090700
H4531	H453	0.202000	0.311600	0.094800
C5101	C510	0.233960	0.264600	0.066010
N2281	N228	0.295000	0.277250	0.031310
C5111	C511	0.320410	0.305690	0.010090
C5121	C512	0.348500	0.358250	0.978390
H4541	H454	0.352800	0.385600	0.967300
C5131	C513	0.376370	0.325620	0.975160
H4551	H455	0.403000	0.326000	0.961700
H4561	H456	0.352600	0.229700	0.996000
N2291	N229	0.762220	0.794080	0.546250
N2301	N230	0.813660	0.845620	0.499840
N2311	N231	0.857920	0.792410	0.495370
C5141	C514	0.736180	0.721730	0.558600
H4571	H457	0.757600	0.710500	0.541100
C5151	C515	0.706700	0.695500	0.577100
H4581	H458	0.707900	0.666000	0.572600
C5161	C516	0.675800	0.712500	0.602300
H4591	H459	0.655500	0.694600	0.614800
C5171	C517	0.673900	0.755700	0.609600
H4601	H460	0.652800	0.767000	0.627300
C5181	C518	0.703250	0.782000	0.590700
H4611	H461	0.702000	0.811600	0.594800
C5191	C519	0.733960	0.764600	0.566010
N2321	N232	0.795000	0.777250	0.531310
C5201	C520	0.820410	0.805690	0.510090
C5211	C521	0.848500	0.858250	0.478390
H4621	H462	0.852800	0.885600	0.467300
C5221	C522	0.876370	0.825620	0.475160
H4631	H463	0.903000	0.826000	0.461700
H4641	H464	0.852600	0.729700	0.496000
N2331	N233	0.762220	0.205920	0.953750
N2341	N234	0.813660	0.154380	0.000160
N2351	N235	0.857920	0.207590	0.004630
C5231	C523	0.736180	0.278270	0.941400
H4651	H465	0.757600	0.289500	0.958900
C5241	C524	0.706700	0.304500	0.922900
H4661	H466	0.707900	0.334000	0.927400
C5251	C525	0.675800	0.287500	0.897700
H4671	H467	0.655500	0.305400	0.885200
C5261	C526	0.673900	0.244300	0.890400
H4681	H468	0.652800	0.233000	0.872700
C5271	C527	0.703250	0.218000	0.909300
H4691	H469	0.702000	0.188400	0.905200
C5281	C528	0.733960	0.235400	0.933990
N2361	N236	0.795000	0.222750	0.968690
C5291	C529	0.820410	0.194310	0.989910
C5301	C530	0.848500	0.141750	0.021610
H4701	H470	0.852800	0.114400	0.032700
C5311	C531	0.876370	0.174380	0.024840
H4711	H471	0.903000	0.174000	0.038300
H4721	H472	0.852600	0.270300	0.004000
N2371	N237	0.262220	0.705920	0.453750
N2381	N238	0.313660	0.654380	0.500160
N2391	N239	0.357920	0.707590	0.504630
C5321	C532	0.236180	0.778270	0.441400
H4731	H473	0.257600	0.789500	0.458900
C5331	C533	0.206700	0.804500	0.422900
H4741	H474	0.207900	0.834000	0.427400
C5341	C534	0.175800	0.787500	0.397700
H4751	H475	0.155500	0.805400	0.385200
C5351	C535	0.173900	0.744300	0.390400
H4761	H476	0.152800	0.733000	0.372700
C5361	C536	0.203250	0.718000	0.409300
H4771	H477	0.202000	0.688400	0.405200
C5371	C537	0.233960	0.735400	0.433990
N2401	N240	0.295000	0.722750	0.468690
C5381	C538	0.320410	0.694310	0.489910
C5391	C539	0.348500	0.641750	0.521610
H4781	H478	0.352800	0.614400	0.532700
C5401	C540	0.376370	0.674380	0.524840
H4791	H479	0.403000	0.674000	0.538300
H4801	H480	0.352600	0.770300	0.504000
N2411	N241	0.237780	0.705920	0.546250
N2421	N242	0.186340	0.654380	0.499840
N2431	N243	0.142080	0.707590	0.495370
C5411	C541	0.263820	0.778270	0.558600
H4811	H481	0.242400	0.789500	0.541100
C5421	C542	0.293300	0.804500	0.577100
H4821	H482	0.292100	0.834000	0.572600
C5431	C543	0.324200	0.787500	0.602300
H4831	H483	0.344500	0.805400	0.614800
C5441	C544	0.326100	0.744300	0.609600
H4841	H484	0.347200	0.733000	0.627300
C5451	C545	0.296750	0.718000	0.590700
H4851	H485	0.298000	0.688400	0.594800
C5461	C546	0.266040	0.735400	0.566010
N2441	N244	0.205000	0.722750	0.531310
C5471	C547	0.179590	0.694310	0.510090
C5481	C548	0.151500	0.641750	0.478390
H4861	H486	0.147200	0.614400	0.467300
C5491	C549	0.123630	0.674380	0.475160
H4871	H487	0.097000	0.674000	0.461700
H4881	H488	0.147400	0.770300	0.496000
N2451	N245	0.737780	0.205920	0.046250
N2461	N246	0.686340	0.154380	0.999840
N2471	N247	0.642080	0.207590	0.995370
C5501	C550	0.763820	0.278270	0.058600
H4891	H489	0.742400	0.289500	0.041100
C5511	C551	0.793300	0.304500	0.077100
H4901	H490	0.792100	0.334000	0.072600
C5521	C552	0.824200	0.287500	0.102300
H4911	H491	0.844500	0.305400	0.114800
C5531	C553	0.826100	0.244300	0.109600
H4921	H492	0.847200	0.233000	0.127300
C5541	C554	0.796750	0.218000	0.090700
H4931	H493	0.798000	0.188400	0.094800
C5551	C555	0.766040	0.235400	0.066010
N2481	N248	0.705000	0.222750	0.031310
C5561	C556	0.679590	0.194310	0.010090
C5571	C557	0.651500	0.141750	0.978390
H4941	H494	0.647200	0.114400	0.967300
C5581	C558	0.623630	0.174380	0.975160
H4951	H495	0.597000	0.174000	0.961700
H4961	H496	0.647400	0.270300	0.996000
N2491	N249	0.737780	0.794080	0.453750
N2501	N250	0.686340	0.845620	0.500160
N2511	N251	0.642080	0.792410	0.504630
C5591	C559	0.763820	0.721730	0.441400
H4971	H497	0.742400	0.710500	0.458900
C5601	C560	0.793300	0.695500	0.422900
H4981	H498	0.792100	0.666000	0.427400
C5611	C561	0.824200	0.712500	0.397700
H4991	H499	0.844500	0.694600	0.385200
C5621	C562	0.826100	0.755700	0.390400
H5001	H500	0.847200	0.767000	0.372700
C5631	C563	0.796750	0.782000	0.409300
H5011	H501	0.798000	0.811600	0.405200
C5641	C564	0.766040	0.764600	0.433990
N2521	N252	0.705000	0.777250	0.468690
C5651	C565	0.679590	0.805690	0.489910
C5661	C566	0.651500	0.858250	0.521610
H5021	H502	0.647200	0.885600	0.532700
C5671	C567	0.623630	0.825620	0.524840
H5031	H503	0.597000	0.826000	0.538300
H5041	H504	0.647400	0.729700	0.504000
N2531	N253	0.237780	0.294080	0.953750
N2541	N254	0.186340	0.345620	0.000160
N2551	N255	0.142080	0.292410	0.004630
C5681	C568	0.263820	0.221730	0.941400
H5051	H505	0.242400	0.210500	0.958900
C5691	C569	0.293300	0.195500	0.922900
H5061	H506	0.292100	0.166000	0.927400
C5701	C570	0.324200	0.212500	0.897700
H5071	H507	0.344500	0.194600	0.885200
C5711	C571	0.326100	0.255700	0.890400
H5081	H508	0.347200	0.267000	0.872700
C5721	C572	0.296750	0.282000	0.909300
H5091	H509	0.298000	0.311600	0.905200
C5731	C573	0.266040	0.264600	0.933990
N2561	N256	0.205000	0.277250	0.968690
C5741	C574	0.179590	0.305690	0.989910
C5751	C575	0.151500	0.358250	0.021610
H5101	H510	0.147200	0.385600	0.032700
C5761	C576	0.123630	0.325620	0.024840
H5111	H511	0.097000	0.326000	0.038300
H5121	H512	0.147400	0.229700	0.004000
N2571	N257	0.046250	0.262220	0.294080
N2581	N258	0.999840	0.313660	0.345620
N2591	N259	0.995370	0.357920	0.292410
C5771	C577	0.058600	0.236180	0.221730
H5131	H513	0.041100	0.257600	0.210500
C5781	C578	0.077100	0.206700	0.195500
H5141	H514	0.072600	0.207900	0.166000
C5791	C579	0.102300	0.175800	0.212500
H5151	H515	0.114800	0.155500	0.194600
C5801	C580	0.109600	0.173900	0.255700
H5161	H516	0.127300	0.152800	0.267000
C5811	C581	0.090700	0.203250	0.282000
H5171	H517	0.094800	0.202000	0.311600
C5821	C582	0.066010	0.233960	0.264600
N2601	N260	0.031310	0.295000	0.277250
C5831	C583	0.010090	0.320410	0.305690
C5841	C584	0.978390	0.348500	0.358250
H5181	H518	0.967300	0.352800	0.385600
C5851	C585	0.975160	0.376370	0.325620
H5191	H519	0.961700	0.403000	0.326000
H5201	H520	0.996000	0.352600	0.229700
N2611	N261	0.546250	0.762220	0.794080
N2621	N262	0.499840	0.813660	0.845620
N2631	N263	0.495370	0.857920	0.792410
C5861	C586	0.558600	0.736180	0.721730
H5211	H521	0.541100	0.757600	0.710500
C5871	C587	0.577100	0.706700	0.695500
H5221	H522	0.572600	0.707900	0.666000
C5881	C588	0.602300	0.675800	0.712500
H5231	H523	0.614800	0.655500	0.694600
C5891	C589	0.609600	0.673900	0.755700
H5241	H524	0.627300	0.652800	0.767000
C5901	C590	0.590700	0.703250	0.782000
H5251	H525	0.594800	0.702000	0.811600
C5911	C591	0.566010	0.733960	0.764600
N2641	N264	0.531310	0.795000	0.777250
C5921	C592	0.510090	0.820410	0.805690
C5931	C593	0.478390	0.848500	0.858250
H5261	H526	0.467300	0.852800	0.885600
C5941	C594	0.475160	0.876370	0.825620
H5271	H527	0.461700	0.903000	0.826000
H5281	H528	0.496000	0.852600	0.729700
N2651	N265	0.953750	0.762220	0.205920
N2661	N266	0.000160	0.813660	0.154380
N2671	N267	0.004630	0.857920	0.207590
C5951	C595	0.941400	0.736180	0.278270
H5291	H529	0.958900	0.757600	0.289500
C5961	C596	0.922900	0.706700	0.304500
H5301	H530	0.927400	0.707900	0.334000
C5971	C597	0.897700	0.675800	0.287500
H5311	H531	0.885200	0.655500	0.305400
C5981	C598	0.890400	0.673900	0.244300
H5321	H532	0.872700	0.652800	0.233000
C5991	C599	0.909300	0.703250	0.218000
H5331	H533	0.905200	0.702000	0.188400
C6001	C600	0.933990	0.733960	0.235400
N2681	N268	0.968690	0.795000	0.222750
C6011	C601	0.989910	0.820410	0.194310
C6021	C602	0.021610	0.848500	0.141750
H5341	H534	0.032700	0.852800	0.114400
C6031	C603	0.024840	0.876370	0.174380
H5351	H535	0.038300	0.903000	0.174000
H5361	H536	0.004000	0.852600	0.270300
N2691	N269	0.453750	0.262220	0.705920
N2701	N270	0.500160	0.313660	0.654380
N2711	N271	0.504630	0.357920	0.707590
C6041	C604	0.441400	0.236180	0.778270
H5371	H537	0.458900	0.257600	0.789500
C6051	C605	0.422900	0.206700	0.804500
H5381	H538	0.427400	0.207900	0.834000
C6061	C606	0.397700	0.175800	0.787500
H5391	H539	0.385200	0.155500	0.805400
C6071	C607	0.390400	0.173900	0.744300
H5401	H540	0.372700	0.152800	0.733000
C6081	C608	0.409300	0.203250	0.718000
H5411	H541	0.405200	0.202000	0.688400
C6091	C609	0.433990	0.233960	0.735400
N2721	N272	0.468690	0.295000	0.722750
C6101	C610	0.489910	0.320410	0.694310
C6111	C611	0.521610	0.348500	0.641750
H5421	H542	0.532700	0.352800	0.614400
C6121	C612	0.524840	0.376370	0.674380
H5431	H543	0.538300	0.403000	0.674000
H5441	H544	0.504000	0.352600	0.770300
N2731	N273	0.546250	0.237780	0.705920
N2741	N274	0.499840	0.186340	0.654380
N2751	N275	0.495370	0.142080	0.707590
C6131	C613	0.558600	0.263820	0.778270
H5451	H545	0.541100	0.242400	0.789500
C6141	C614	0.577100	0.293300	0.804500
H5461	H546	0.572600	0.292100	0.834000
C6151	C615	0.602300	0.324200	0.787500
H5471	H547	0.614800	0.344500	0.805400
C6161	C616	0.609600	0.326100	0.744300
H5481	H548	0.627300	0.347200	0.733000
C6171	C617	0.590700	0.296750	0.718000
H5491	H549	0.594800	0.298000	0.688400
C6181	C618	0.566010	0.266040	0.735400
N2761	N276	0.531310	0.205000	0.722750
C6191	C619	0.510090	0.179590	0.694310
C6201	C620	0.478390	0.151500	0.641750
H5501	H550	0.467300	0.147200	0.614400
C6211	C621	0.475160	0.123630	0.674380
H5511	H551	0.461700	0.097000	0.674000
H5521	H552	0.496000	0.147400	0.770300
N2771	N277	0.046250	0.737780	0.205920
N2781	N278	0.999840	0.686340	0.154380
N2791	N279	0.995370	0.642080	0.207590
C6221	C622	0.058600	0.763820	0.278270
H5531	H553	0.041100	0.742400	0.289500
C6231	C623	0.077100	0.793300	0.304500
H5541	H554	0.072600	0.792100	0.334000
C6241	C624	0.102300	0.824200	0.287500
H5551	H555	0.114800	0.844500	0.305400
C6251	C625	0.109600	0.826100	0.244300
H5561	H556	0.127300	0.847200	0.233000
C6261	C626	0.090700	0.796750	0.218000
H5571	H557	0.094800	0.798000	0.188400
C6271	C627	0.066010	0.766040	0.235400
N2801	N280	0.031310	0.705000	0.222750
C6281	C628	0.010090	0.679590	0.194310
C6291	C629	0.978390	0.651500	0.141750
H5581	H558	0.967300	0.647200	0.114400
C6301	C630	0.975160	0.623630	0.174380
H5591	H559	0.961700	0.597000	0.174000
H5601	H560	0.996000	0.647400	0.270300
N2811	N281	0.453750	0.737780	0.794080
N2821	N282	0.500160	0.686340	0.845620
N2831	N283	0.504630	0.642080	0.792410
C6311	C631	0.441400	0.763820	0.721730
H5611	H561	0.458900	0.742400	0.710500
C6321	C632	0.422900	0.793300	0.695500
H5621	H562	0.427400	0.792100	0.666000
C6331	C633	0.397700	0.824200	0.712500
H5631	H563	0.385200	0.844500	0.694600
C6341	C634	0.390400	0.826100	0.755700
H5641	H564	0.372700	0.847200	0.767000
C6351	C635	0.409300	0.796750	0.782000
H5651	H565	0.405200	0.798000	0.811600
C6361	C636	0.433990	0.766040	0.764600
N2841	N284	0.468690	0.705000	0.777250
C6371	C637	0.489910	0.679590	0.805690
C6381	C638	0.521610	0.651500	0.858250
H5661	H566	0.532700	0.647200	0.885600
C6391	C639	0.524840	0.623630	0.825620
H5671	H567	0.538300	0.597000	0.826000
H5681	H568	0.504000	0.647400	0.729700
N2851	N285	0.953750	0.237780	0.294080
N2861	N286	0.000160	0.186340	0.345620
N2871	N287	0.004630	0.142080	0.292410
C6401	C640	0.941400	0.263820	0.221730
H5691	H569	0.958900	0.242400	0.210500
C6411	C641	0.922900	0.293300	0.195500
H5701	H570	0.927400	0.292100	0.166000
C6421	C642	0.897700	0.324200	0.212500
H5711	H571	0.885200	0.344500	0.194600
C6431	C643	0.890400	0.326100	0.255700
H5721	H572	0.872700	0.347200	0.267000
C6441	C644	0.909300	0.296750	0.282000
H5731	H573	0.905200	0.298000	0.311600
C6451	C645	0.933990	0.266040	0.264600
N2881	N288	0.968690	0.205000	0.277250
C6461	C646	0.989910	0.179590	0.305690
C6471	C647	0.021610	0.151500	0.358250
H5741	H574	0.032700	0.147200	0.385600
C6481	C648	0.024840	0.123630	0.325620
H5751	H575	0.038300	0.097000	0.326000
H5761	H576	0.004000	0.147400	0.229700
N2891	N289	0.296250	0.044080	0.487780
N2901	N290	0.249840	0.095620	0.436340
N2911	N291	0.245370	0.042410	0.392080
C6491	C649	0.308600	0.971730	0.513820
H5771	H577	0.291100	0.960500	0.492400
C6501	C650	0.327100	0.945500	0.543300
H5781	H578	0.322600	0.916000	0.542100
C6511	C651	0.352300	0.962500	0.574200
H5791	H579	0.364800	0.944600	0.594500
C6521	C652	0.359600	0.005700	0.576100
H5801	H580	0.377300	0.017000	0.597200
C6531	C653	0.340700	0.032000	0.546750
H5811	H581	0.344800	0.061600	0.548000
C6541	C654	0.316010	0.014600	0.516040
N2921	N292	0.281310	0.027250	0.455000
C6551	C655	0.260090	0.055690	0.429590
C6561	C656	0.228390	0.108250	0.401500
H5821	H582	0.217300	0.135600	0.397200
C6571	C657	0.225160	0.075620	0.373630
H5831	H583	0.211700	0.076000	0.347000
H5841	H584	0.246000	0.979700	0.397400
N2931	N293	0.796250	0.544080	0.987780
N2941	N294	0.749840	0.595620	0.936340
N2951	N295	0.745370	0.542410	0.892080
C6581	C658	0.808600	0.471730	0.013820
H5851	H585	0.791100	0.460500	0.992400
C6591	C659	0.827100	0.445500	0.043300
H5861	H586	0.822600	0.416000	0.042100
C6601	C660	0.852300	0.462500	0.074200
H5871	H587	0.864800	0.444600	0.094500
C6611	C661	0.859600	0.505700	0.076100
H5881	H588	0.877300	0.517000	0.097200
C6621	C662	0.840700	0.532000	0.046750
H5891	H589	0.844800	0.561600	0.048000
C6631	C663	0.816010	0.514600	0.016040
N2961	N296	0.781310	0.527250	0.955000
C6641	C664	0.760090	0.555690	0.929590
C6651	C665	0.728390	0.608250	0.901500
H5901	H590	0.717300	0.635600	0.897200
C6661	C666	0.725160	0.575620	0.873630
H5911	H591	0.711700	0.576000	0.847000
H5921	H592	0.746000	0.479700	0.897400
N2971	N297	0.203750	0.955920	0.987780
N2981	N298	0.250160	0.904380	0.936340
N2991	N299	0.254630	0.957590	0.892080
C6671	C667	0.191400	0.028270	0.013820
H5931	H593	0.208900	0.039500	0.992400
C6681	C668	0.172900	0.054500	0.043300
H5941	H594	0.177400	0.084000	0.042100
C6691	C669	0.147700	0.037500	0.074200
H5951	H595	0.135200	0.055400	0.094500
C6701	C670	0.140400	0.994300	0.076100
H5961	H596	0.122700	0.983000	0.097200
C6711	C671	0.159300	0.968000	0.046750
H5971	H597	0.155200	0.938400	0.048000
C6721	C672	0.183990	0.985400	0.016040
N3001	N300	0.218690	0.972750	0.955000
C6731	C673	0.239910	0.944310	0.929590
C6741	C674	0.271610	0.891750	0.901500
H5981	H598	0.282700	0.864400	0.897200
C6751	C675	0.274840	0.924380	0.873630
H5991	H599	0.288300	0.924000	0.847000
H6001	H600	0.254000	0.020300	0.897400
N3011	N301	0.703750	0.455920	0.487780
N3021	N302	0.750160	0.404380	0.436340
N3031	N303	0.754630	0.457590	0.392080
C6761	C676	0.691400	0.528270	0.513820
H6011	H601	0.708900	0.539500	0.492400
C6771	C677	0.672900	0.554500	0.543300
H6021	H602	0.677400	0.584000	0.542100
C6781	C678	0.647700	0.537500	0.574200
H6031	H603	0.635200	0.555400	0.594500
C6791	C679	0.640400	0.494300	0.576100
H6041	H604	0.622700	0.483000	0.597200
C6801	C680	0.659300	0.468000	0.546750
H6051	H605	0.655200	0.438400	0.548000
C6811	C681	0.683990	0.485400	0.516040
N3041	N304	0.718690	0.472750	0.455000
C6821	C682	0.739910	0.444310	0.429590
C6831	C683	0.771610	0.391750	0.401500
H6061	H606	0.782700	0.364400	0.397200
C6841	C684	0.774840	0.424380	0.373630
H6071	H607	0.788300	0.424000	0.347000
H6081	H608	0.754000	0.520300	0.397400
N3051	N305	0.796250	0.455920	0.512220
N3061	N306	0.749840	0.404380	0.563660
N3071	N307	0.745370	0.457590	0.607920
C6851	C685	0.808600	0.528270	0.486180
H6091	H609	0.791100	0.539500	0.507600
C6861	C686	0.827100	0.554500	0.456700
H6101	H610	0.822600	0.584000	0.457900
C6871	C687	0.852300	0.537500	0.425800
H6111	H611	0.864800	0.555400	0.405500
C6881	C688	0.859600	0.494300	0.423900
H6121	H612	0.877300	0.483000	0.402800
C6891	C689	0.840700	0.468000	0.453250
H6131	H613	0.844800	0.438400	0.452000
C6901	C690	0.816010	0.485400	0.483960
N3081	N308	0.781310	0.472750	0.545000
C6911	C691	0.760090	0.444310	0.570410
C6921	C692	0.728390	0.391750	0.598500
H6141	H614	0.717300	0.364400	0.602800
C6931	C693	0.725160	0.424380	0.626370
H6151	H615	0.711700	0.424000	0.653000
H6161	H616	0.746000	0.520300	0.602600
N3091	N309	0.296250	0.955920	0.012220
N3101	N310	0.249840	0.904380	0.063660
N3111	N311	0.245370	0.957590	0.107920
C6941	C694	0.308600	0.028270	0.986180
H6171	H617	0.291100	0.039500	0.007600
C6951	C695	0.327100	0.054500	0.956700
H6181	H618	0.322600	0.084000	0.957900
C6961	C696	0.352300	0.037500	0.925800
H6191	H619	0.364800	0.055400	0.905500
C6971	C697	0.359600	0.994300	0.923900
H6201	H620	0.377300	0.983000	0.902800
C6981	C698	0.340700	0.968000	0.953250
H6211	H621	0.344800	0.938400	0.952000
C6991	C699	0.316010	0.985400	0.983960
N3121	N312	0.281310	0.972750	0.045000
C7001	C700	0.260090	0.944310	0.070410
C7011	C701	0.228390	0.891750	0.098500
H6221	H622	0.217300	0.864400	0.102800
C7021	C702	0.225160	0.924380	0.126370
H6231	H623	0.211700	0.924000	0.153000
H6241	H624	0.246000	0.020300	0.102600
N3131	N313	0.703750	0.544080	0.012220
N3141	N314	0.750160	0.595620	0.063660
N3151	N315	0.754630	0.542410	0.107920
C7031	C703	0.691400	0.471730	0.986180
H6251	H625	0.708900	0.460500	0.007600
C7041	C704	0.672900	0.445500	0.956700
H6261	H626	0.677400	0.416000	0.957900
C7051	C705	0.647700	0.462500	0.925800
H6271	H627	0.635200	0.444600	0.905500
C7061	C706	0.640400	0.505700	0.923900
H6281	H628	0.622700	0.517000	0.902800
C7071	C707	0.659300	0.532000	0.953250
H6291	H629	0.655200	0.561600	0.952000
C7081	C708	0.683990	0.514600	0.983960
N3161	N316	0.718690	0.527250	0.045000
C7091	C709	0.739910	0.555690	0.070410
C7101	C710	0.771610	0.608250	0.098500
H6301	H630	0.782700	0.635600	0.102800
C7111	C711	0.774840	0.575620	0.126370
H6311	H631	0.788300	0.576000	0.153000
H6321	H632	0.754000	0.479700	0.102600
N3171	N317	0.203750	0.044080	0.512220
N3181	N318	0.250160	0.095620	0.563660
N3191	N319	0.254630	0.042410	0.607920
C7121	C712	0.191400	0.971730	0.486180
H6331	H633	0.208900	0.960500	0.507600
C7131	C713	0.172900	0.945500	0.456700
H6341	H634	0.177400	0.916000	0.457900
C7141	C714	0.147700	0.962500	0.425800
H6351	H635	0.135200	0.944600	0.405500
C7151	C715	0.140400	0.005700	0.423900
H6361	H636	0.122700	0.017000	0.402800
C7161	C716	0.159300	0.032000	0.453250
H6371	H637	0.155200	0.061600	0.452000
C7171	C717	0.183990	0.014600	0.483960
N3201	N320	0.218690	0.027250	0.545000
C7181	C718	0.239910	0.055690	0.570410
C7191	C719	0.271610	0.108250	0.598500
H6381	H638	0.282700	0.135600	0.602800
C7201	C720	0.274840	0.075620	0.626370
H6391	H639	0.288300	0.076000	0.653000
H6401	H640	0.254000	0.979700	0.602600
N3211	N321	0.544080	0.012220	0.703750
N3221	N322	0.595620	0.063660	0.750160
N3231	N323	0.542410	0.107920	0.754630
C7211	C721	0.471730	0.986180	0.691400
H6411	H641	0.460500	0.007600	0.708900
C7221	C722	0.445500	0.956700	0.672900
H6421	H642	0.416000	0.957900	0.677400
C7231	C723	0.462500	0.925800	0.647700
H6431	H643	0.444600	0.905500	0.635200
C7241	C724	0.505700	0.923900	0.640400
H6441	H644	0.517000	0.902800	0.622700
C7251	C725	0.532000	0.953250	0.659300
H6451	H645	0.561600	0.952000	0.655200
C7261	C726	0.514600	0.983960	0.683990
N3241	N324	0.527250	0.045000	0.718690
C7271	C727	0.555690	0.070410	0.739910
C7281	C728	0.608250	0.098500	0.771610
H6461	H646	0.635600	0.102800	0.782700
C7291	C729	0.575620	0.126370	0.774840
H6471	H647	0.576000	0.153000	0.788300
H6481	H648	0.479700	0.102600	0.754000
N3251	N325	0.044080	0.512220	0.203750
N3261	N326	0.095620	0.563660	0.250160
N3271	N327	0.042410	0.607920	0.254630
C7301	C730	0.971730	0.486180	0.191400
H6491	H649	0.960500	0.507600	0.208900
C7311	C731	0.945500	0.456700	0.172900
H6501	H650	0.916000	0.457900	0.177400
C7321	C732	0.962500	0.425800	0.147700
H6511	H651	0.944600	0.405500	0.135200
C7331	C733	0.005700	0.423900	0.140400
H6521	H652	0.017000	0.402800	0.122700
C7341	C734	0.032000	0.453250	0.159300
H6531	H653	0.061600	0.452000	0.155200
C7351	C735	0.014600	0.483960	0.183990
N3281	N328	0.027250	0.545000	0.218690
C7361	C736	0.055690	0.570410	0.239910
C7371	C737	0.108250	0.598500	0.271610
H6541	H654	0.135600	0.602800	0.282700
C7381	C738	0.075620	0.626370	0.274840
H6551	H655	0.076000	0.653000	0.288300
H6561	H656	0.979700	0.602600	0.254000
N3291	N329	0.455920	0.512220	0.796250
N3301	N330	0.404380	0.563660	0.749840
N3311	N331	0.457590	0.607920	0.745370
C7391	C739	0.528270	0.486180	0.808600
H6571	H657	0.539500	0.507600	0.791100
C7401	C740	0.554500	0.456700	0.827100
H6581	H658	0.584000	0.457900	0.822600
C7411	C741	0.537500	0.425800	0.852300
H6591	H659	0.555400	0.405500	0.864800
C7421	C742	0.494300	0.423900	0.859600
H6601	H660	0.483000	0.402800	0.877300
C7431	C743	0.468000	0.453250	0.840700
H6611	H661	0.438400	0.452000	0.844800
C7441	C744	0.485400	0.483960	0.816010
N3321	N332	0.472750	0.545000	0.781310
C7451	C745	0.444310	0.570410	0.760090
C7461	C746	0.391750	0.598500	0.728390
H6621	H662	0.364400	0.602800	0.717300
C7471	C747	0.424380	0.626370	0.725160
H6631	H663	0.424000	0.653000	0.711700
H6641	H664	0.520300	0.602600	0.746000
N3331	N333	0.955920	0.012220	0.296250
N3341	N334	0.904380	0.063660	0.249840
N3351	N335	0.957590	0.107920	0.245370
C7481	C748	0.028270	0.986180	0.308600
H6651	H665	0.039500	0.007600	0.291100
C7491	C749	0.054500	0.956700	0.327100
H6661	H666	0.084000	0.957900	0.322600
C7501	C750	0.037500	0.925800	0.352300
H6671	H667	0.055400	0.905500	0.364800
C7511	C751	0.994300	0.923900	0.359600
H6681	H668	0.983000	0.902800	0.377300
C7521	C752	0.968000	0.953250	0.340700
H6691	H669	0.938400	0.952000	0.344800
C7531	C753	0.985400	0.983960	0.316010
N3361	N336	0.972750	0.045000	0.281310
C7541	C754	0.944310	0.070410	0.260090
C7551	C755	0.891750	0.098500	0.228390
H6701	H670	0.864400	0.102800	0.217300
C7561	C756	0.924380	0.126370	0.225160
H6711	H671	0.924000	0.153000	0.211700
H6721	H672	0.020300	0.102600	0.246000
N3371	N337	0.955920	0.987780	0.203750
N3381	N338	0.904380	0.936340	0.250160
N3391	N339	0.957590	0.892080	0.254630
C7571	C757	0.028270	0.013820	0.191400
H6731	H673	0.039500	0.992400	0.208900
C7581	C758	0.054500	0.043300	0.172900
H6741	H674	0.084000	0.042100	0.177400
C7591	C759	0.037500	0.074200	0.147700
H6751	H675	0.055400	0.094500	0.135200
C7601	C760	0.994300	0.076100	0.140400
H6761	H676	0.983000	0.097200	0.122700
C7611	C761	0.968000	0.046750	0.159300
H6771	H677	0.938400	0.048000	0.155200
C7621	C762	0.985400	0.016040	0.183990
N3401	N340	0.972750	0.955000	0.218690
C7631	C763	0.944310	0.929590	0.239910
C7641	C764	0.891750	0.901500	0.271610
H6781	H678	0.864400	0.897200	0.282700
C7651	C765	0.924380	0.873630	0.274840
H6791	H679	0.924000	0.847000	0.288300
H6801	H680	0.020300	0.897400	0.254000
N3411	N341	0.455920	0.487780	0.703750
N3421	N342	0.404380	0.436340	0.750160
N3431	N343	0.457590	0.392080	0.754630
C7661	C766	0.528270	0.513820	0.691400
H6811	H681	0.539500	0.492400	0.708900
C7671	C767	0.554500	0.543300	0.672900
H6821	H682	0.584000	0.542100	0.677400
C7681	C768	0.537500	0.574200	0.647700
H6831	H683	0.555400	0.594500	0.635200
C7691	C769	0.494300	0.576100	0.640400
H6841	H684	0.483000	0.597200	0.622700
C7701	C770	0.468000	0.546750	0.659300
H6851	H685	0.438400	0.548000	0.655200
C7711	C771	0.485400	0.516040	0.683990
N3441	N344	0.472750	0.455000	0.718690
C7721	C772	0.444310	0.429590	0.739910
C7731	C773	0.391750	0.401500	0.771610
H6861	H686	0.364400	0.397200	0.782700
C7741	C774	0.424380	0.373630	0.774840
H6871	H687	0.424000	0.347000	0.788300
H6881	H688	0.520300	0.397400	0.754000
N3451	N345	0.044080	0.487780	0.296250
N3461	N346	0.095620	0.436340	0.249840
N3471	N347	0.042410	0.392080	0.245370
C7751	C775	0.971730	0.513820	0.308600
H6891	H689	0.960500	0.492400	0.291100
C7761	C776	0.945500	0.543300	0.327100
H6901	H690	0.916000	0.542100	0.322600
C7771	C777	0.962500	0.574200	0.352300
H6911	H691	0.944600	0.594500	0.364800
C7781	C778	0.005700	0.576100	0.359600
H6921	H692	0.017000	0.597200	0.377300
C7791	C779	0.032000	0.546750	0.340700
H6931	H693	0.061600	0.548000	0.344800
C7801	C780	0.014600	0.516040	0.316010
N3481	N348	0.027250	0.455000	0.281310
C7811	C781	0.055690	0.429590	0.260090
C7821	C782	0.108250	0.401500	0.228390
H6941	H694	0.135600	0.397200	0.217300
C7831	C783	0.075620	0.373630	0.225160
H6951	H695	0.076000	0.347000	0.211700
H6961	H696	0.979700	0.397400	0.246000
N3491	N349	0.544080	0.987780	0.796250
N3501	N350	0.595620	0.936340	0.749840
N3511	N351	0.542410	0.892080	0.745370
C7841	C784	0.471730	0.013820	0.808600
H6971	H697	0.460500	0.992400	0.791100
C7851	C785	0.445500	0.043300	0.827100
H6981	H698	0.416000	0.042100	0.822600
C7861	C786	0.462500	0.074200	0.852300
H6991	H699	0.444600	0.094500	0.864800
C7871	C787	0.505700	0.076100	0.859600
H7001	H700	0.517000	0.097200	0.877300
C7881	C788	0.532000	0.046750	0.840700
H7011	H701	0.561600	0.048000	0.844800
C7891	C789	0.514600	0.016040	0.816010
N3521	N352	0.527250	0.955000	0.781310
C7901	C790	0.555690	0.929590	0.760090
C7911	C791	0.608250	0.901500	0.728390
H7021	H702	0.635600	0.897200	0.717300
C7921	C792	0.575620	0.873630	0.725160
H7031	H703	0.576000	0.847000	0.711700
H7041	H704	0.479700	0.897400	0.746000
N3531	N353	0.512220	0.796250	0.455920
N3541	N354	0.563660	0.749840	0.404380
N3551	N355	0.607920	0.745370	0.457590
C7931	C793	0.486180	0.808600	0.528270
H7051	H705	0.507600	0.791100	0.539500
C7941	C794	0.456700	0.827100	0.554500
H7061	H706	0.457900	0.822600	0.584000
C7951	C795	0.425800	0.852300	0.537500
H7071	H707	0.405500	0.864800	0.555400
C7961	C796	0.423900	0.859600	0.494300
H7081	H708	0.402800	0.877300	0.483000
C7971	C797	0.453250	0.840700	0.468000
H7091	H709	0.452000	0.844800	0.438400
C7981	C798	0.483960	0.816010	0.485400
N3561	N356	0.545000	0.781310	0.472750
C7991	C799	0.570410	0.760090	0.444310
C8001	C800	0.598500	0.728390	0.391750
H7101	H710	0.602800	0.717300	0.364400
C8011	C801	0.626370	0.725160	0.424380
H7111	H711	0.653000	0.711700	0.424000
H7121	H712	0.602600	0.746000	0.520300
N3571	N357	0.012220	0.296250	0.955920
N3581	N358	0.063660	0.249840	0.904380
N3591	N359	0.107920	0.245370	0.957590
C8021	C802	0.986180	0.308600	0.028270
H7131	H713	0.007600	0.291100	0.039500
C8031	C803	0.956700	0.327100	0.054500
H7141	H714	0.957900	0.322600	0.084000
C8041	C804	0.925800	0.352300	0.037500
H7151	H715	0.905500	0.364800	0.055400
C8051	C805	0.923900	0.359600	0.994300
H7161	H716	0.902800	0.377300	0.983000
C8061	C806	0.953250	0.340700	0.968000
H7171	H717	0.952000	0.344800	0.938400
C8071	C807	0.983960	0.316010	0.985400
N3601	N360	0.045000	0.281310	0.972750
C8081	C808	0.070410	0.260090	0.944310
C8091	C809	0.098500	0.228390	0.891750
H7181	H718	0.102800	0.217300	0.864400
C8101	C810	0.126370	0.225160	0.924380
H7191	H719	0.153000	0.211700	0.924000
H7201	H720	0.102600	0.246000	0.020300
N3611	N361	0.012220	0.703750	0.544080
N3621	N362	0.063660	0.750160	0.595620
N3631	N363	0.107920	0.754630	0.542410
C8111	C811	0.986180	0.691400	0.471730
H7211	H721	0.007600	0.708900	0.460500
C8121	C812	0.956700	0.672900	0.445500
H7221	H722	0.957900	0.677400	0.416000
C8131	C813	0.925800	0.647700	0.462500
H7231	H723	0.905500	0.635200	0.444600
C8141	C814	0.923900	0.640400	0.505700
H7241	H724	0.902800	0.622700	0.517000
C8151	C815	0.953250	0.659300	0.532000
H7251	H725	0.952000	0.655200	0.561600
C8161	C816	0.983960	0.683990	0.514600
N3641	N364	0.045000	0.718690	0.527250
C8171	C817	0.070410	0.739910	0.555690
C8181	C818	0.098500	0.771610	0.608250
H7261	H726	0.102800	0.782700	0.635600
C8191	C819	0.126370	0.774840	0.575620
H7271	H727	0.153000	0.788300	0.576000
H7281	H728	0.102600	0.754000	0.479700
N3651	N365	0.512220	0.203750	0.044080
N3661	N366	0.563660	0.250160	0.095620
N3671	N367	0.607920	0.254630	0.042410
C8201	C820	0.486180	0.191400	0.971730
H7291	H729	0.507600	0.208900	0.960500
C8211	C821	0.456700	0.172900	0.945500
H7301	H730	0.457900	0.177400	0.916000
C8221	C822	0.425800	0.147700	0.962500
H7311	H731	0.405500	0.135200	0.944600
C8231	C823	0.423900	0.140400	0.005700
H7321	H732	0.402800	0.122700	0.017000
C8241	C824	0.453250	0.159300	0.032000
H7331	H733	0.452000	0.155200	0.061600
C8251	C825	0.483960	0.183990	0.014600
N3681	N368	0.545000	0.218690	0.027250
C8261	C826	0.570410	0.239910	0.055690
C8271	C827	0.598500	0.271610	0.108250
H7341	H734	0.602800	0.282700	0.135600
C8281	C828	0.626370	0.274840	0.075620
H7351	H735	0.653000	0.288300	0.076000
H7361	H736	0.602600	0.254000	0.979700
N3691	N369	0.487780	0.296250	0.044080
N3701	N370	0.436340	0.249840	0.095620
N3711	N371	0.392080	0.245370	0.042410
C8291	C829	0.513820	0.308600	0.971730
H7371	H737	0.492400	0.291100	0.960500
C8301	C830	0.543300	0.327100	0.945500
H7381	H738	0.542100	0.322600	0.916000
C8311	C831	0.574200	0.352300	0.962500
H7391	H739	0.594500	0.364800	0.944600
C8321	C832	0.576100	0.359600	0.005700
H7401	H740	0.597200	0.377300	0.017000
C8331	C833	0.546750	0.340700	0.032000
H7411	H741	0.548000	0.344800	0.061600
C8341	C834	0.516040	0.316010	0.014600
N3721	N372	0.455000	0.281310	0.027250
C8351	C835	0.429590	0.260090	0.055690
C8361	C836	0.401500	0.228390	0.108250
H7421	H742	0.397200	0.217300	0.135600
C8371	C837	0.373630	0.225160	0.075620
H7431	H743	0.347000	0.211700	0.076000
H7441	H744	0.397400	0.246000	0.979700
N3731	N373	0.987780	0.796250	0.544080
N3741	N374	0.936340	0.749840	0.595620
N3751	N375	0.892080	0.745370	0.542410
C8381	C838	0.013820	0.808600	0.471730
H7451	H745	0.992400	0.791100	0.460500
C8391	C839	0.043300	0.827100	0.445500
H7461	H746	0.042100	0.822600	0.416000
C8401	C840	0.074200	0.852300	0.462500
H7471	H747	0.094500	0.864800	0.444600
C8411	C841	0.076100	0.859600	0.505700
H7481	H748	0.097200	0.877300	0.517000
C8421	C842	0.046750	0.840700	0.532000
H7491	H749	0.048000	0.844800	0.561600
C8431	C843	0.016040	0.816010	0.514600
N3761	N376	0.955000	0.781310	0.527250
C8441	C844	0.929590	0.760090	0.555690
C8451	C845	0.901500	0.728390	0.608250
H7501	H750	0.897200	0.717300	0.635600
C8461	C846	0.873630	0.725160	0.575620
H7511	H751	0.847000	0.711700	0.576000
H7521	H752	0.897400	0.746000	0.479700
N3771	N377	0.987780	0.203750	0.955920
N3781	N378	0.936340	0.250160	0.904380
N3791	N379	0.892080	0.254630	0.957590
C8471	C847	0.013820	0.191400	0.028270
H7531	H753	0.992400	0.208900	0.039500
C8481	C848	0.043300	0.172900	0.054500
H7541	H754	0.042100	0.177400	0.084000
C8491	C849	0.074200	0.147700	0.037500
H7551	H755	0.094500	0.135200	0.055400
C8501	C850	0.076100	0.140400	0.994300
H7561	H756	0.097200	0.122700	0.983000
C8511	C851	0.046750	0.159300	0.968000
H7571	H757	0.048000	0.155200	0.938400
C8521	C852	0.016040	0.183990	0.985400
N3801	N380	0.955000	0.218690	0.972750
C8531	C853	0.929590	0.239910	0.944310
C8541	C854	0.901500	0.271610	0.891750
H7581	H758	0.897200	0.282700	0.864400
C8551	C855	0.873630	0.274840	0.924380
H7591	H759	0.847000	0.288300	0.924000
H7601	H760	0.897400	0.254000	0.020300
N3811	N381	0.487780	0.703750	0.455920
N3821	N382	0.436340	0.750160	0.404380
N3831	N383	0.392080	0.754630	0.457590
C8561	C856	0.513820	0.691400	0.528270
H7611	H761	0.492400	0.708900	0.539500
C8571	C857	0.543300	0.672900	0.554500
H7621	H762	0.542100	0.677400	0.584000
C8581	C858	0.574200	0.647700	0.537500
H7631	H763	0.594500	0.635200	0.555400
C8591	C859	0.576100	0.640400	0.494300
H7641	H764	0.597200	0.622700	0.483000
C8601	C860	0.546750	0.659300	0.468000
H7651	H765	0.548000	0.655200	0.438400
C8611	C861	0.516040	0.683990	0.485400
N3841	N384	0.455000	0.718690	0.472750
C8621	C862	0.429590	0.739910	0.444310
C8631	C863	0.401500	0.771610	0.391750
H7661	H766	0.397200	0.782700	0.364400
C8641	C864	0.373630	0.774840	0.424380
H7671	H767	0.347000	0.788300	0.424000
H7681	H768	0.397400	0.754000	0.520300
Cd11	Cd1	0.625000	0.000000	0.750000
Cd21	Cd2	0.875000	0.000000	0.250000
Cd31	Cd3	0.375000	0.500000	0.750000
Cd41	Cd4	0.125000	0.500000	0.250000
Cd51	Cd5	0.750000	0.625000	0.000000
Cd61	Cd6	0.250000	0.875000	0.000000
Cd71	Cd7	0.750000	0.375000	0.500000
Cd81	Cd8	0.250000	0.125000	0.500000
Cd91	Cd9	0.000000	0.750000	0.625000
Cd101	Cd10	0.000000	0.250000	0.875000
Cd111	Cd11	0.500000	0.750000	0.375000
Cd121	Cd12	0.500000	0.250000	0.125000
Cd131	Cd13	0.750000	0.875000	0.500000
Cd141	Cd14	0.750000	0.125000	0.000000
Cd151	Cd15	0.250000	0.625000	0.500000
Cd161	Cd16	0.250000	0.375000	0.000000
Cd171	Cd17	0.375000	0.000000	0.250000
Cd181	Cd18	0.625000	0.500000	0.250000
Cd191	Cd19	0.125000	0.000000	0.750000
Cd201	Cd20	0.875000	0.500000	0.750000
Cd211	Cd21	0.500000	0.250000	0.625000
Cd221	Cd22	0.000000	0.250000	0.375000
Cd231	Cd23	0.500000	0.750000	0.875000
Cd241	Cd24	0.000000	0.750000	0.125000
C8651	C865	0.749190	0.999190	0.625000
C8661	C866	0.249190	0.499190	0.125000
C8671	C867	0.750810	0.000810	0.125000
C8681	C868	0.250810	0.500810	0.625000
C8691	C869	0.250810	0.499190	0.875000
C8701	C870	0.750810	0.999190	0.375000
C8711	C871	0.249190	0.500810	0.375000
C8721	C872	0.749190	0.000810	0.875000
C8731	C873	0.625000	0.749190	0.999190
C8741	C874	0.125000	0.249190	0.499190
C8751	C875	0.125000	0.750810	0.000810
C8761	C876	0.625000	0.250810	0.500810
C8771	C877	0.875000	0.250810	0.499190
C8781	C878	0.375000	0.750810	0.999190
C8791	C879	0.375000	0.249190	0.500810
C8801	C880	0.875000	0.749190	0.000810
C8811	C881	0.999190	0.625000	0.749190
C8821	C882	0.499190	0.125000	0.249190
C8831	C883	0.000810	0.125000	0.750810
C8841	C884	0.500810	0.625000	0.250810
C8851	C885	0.499190	0.875000	0.250810
C8861	C886	0.999190	0.375000	0.750810
C8871	C887	0.500810	0.375000	0.249190
C8881	C888	0.000810	0.875000	0.749190
C8891	C889	0.250810	0.000810	0.375000
C8901	C890	0.750810	0.500810	0.875000
C8911	C891	0.249190	0.999190	0.875000
C8921	C892	0.749190	0.499190	0.375000
C8931	C893	0.749190	0.500810	0.125000
C8941	C894	0.249190	0.000810	0.625000
C8951	C895	0.750810	0.499190	0.625000
C8961	C896	0.250810	0.999190	0.125000
C8971	C897	0.375000	0.250810	0.000810
C8981	C898	0.875000	0.750810	0.500810
C8991	C899	0.875000	0.249190	0.999190
C9001	C900	0.375000	0.749190	0.499190
C9011	C901	0.125000	0.749190	0.500810
C9021	C902	0.625000	0.249190	0.000810
C9031	C903	0.625000	0.750810	0.499190
C9041	C904	0.125000	0.250810	0.999190
C9051	C905	0.000810	0.375000	0.250810
C9061	C906	0.500810	0.875000	0.750810
C9071	C907	0.999190	0.875000	0.249190
C9081	C908	0.499190	0.375000	0.749190
C9091	C909	0.500810	0.125000	0.749190
C9101	C910	0.000810	0.625000	0.249190
C9111	C911	0.499190	0.625000	0.750810
C9121	C912	0.999190	0.125000	0.250810
