data_EGOZAB_clean_PM
_symmetry_space_group_name_H-M	'P1'
_cell_length_a	20.933500
_cell_length_b	20.933500
_cell_length_c	20.933500
_cell_angle_alpha	115.808000
_cell_angle_beta	115.808000
_cell_angle_gamma	115.808000
_symmetry_Int_Tables_number 1

loop_
_symmetry_equiv_pos_as_xyz
'x,y,z'

loop_
_atom_site_label
_atom_site_type_symbol
_atom_site_fract_x
_atom_site_fract_y
_atom_site_fract_z
Cu11	Cu1	0.595380	0.923750	0.752240
Cu21	Cu2	0.547750	0.012710	0.651210
O11	O1	0.493600	0.881400	0.537300
O21	O2	0.527200	0.827900	0.606100
O31	O3	0.724400	0.058500	0.820200
O41	O4	0.701700	0.104700	0.740400
O51	O5	0.510700	0.965900	0.740300
O61	O6	0.403300	0.913800	0.589100
N11	N1	0.475700	0.781000	0.688100
N21	N2	0.681700	0.007300	0.906200
N31	N3	0.144800	0.737100	0.585900
C11	C1	0.417600	0.773500	0.701800
H11	H1	0.442800	0.838500	0.752200
C21	C2	0.320900	0.673100	0.644600
H21	H2	0.279700	0.669700	0.653600
C31	C3	0.286700	0.577900	0.573500
C41	C4	0.350200	0.587100	0.564000
H31	H3	0.330600	0.524800	0.519300
C51	C5	0.443300	0.689000	0.620700
H41	H4	0.485200	0.694200	0.612100
C61	C6	0.487900	0.816600	0.531600
C71	C7	0.704600	0.089300	0.973800
H51	H5	0.675500	0.106300	0.946800
C81	C8	0.917000	0.230100	0.848800
H61	H6	0.871800	0.217100	0.792500
C91	C9	0.876100	0.184700	0.871400
C101	C10	0.945700	0.208300	0.956600
H71	H7	0.920100	0.178700	0.974000
C111	C11	0.723600	0.984000	0.946000
H81	H8	0.705700	0.924400	0.898000
C121	C12	0.757000	0.109200	0.804700
C131	C13	0.250500	0.832300	0.692400
H91	H9	0.262800	0.858900	0.750900
C141	C14	0.341400	0.891700	0.717800
H101	H10	0.414200	0.956800	0.792300
C151	C15	0.323300	0.853800	0.632000
C161	C16	0.216000	0.757800	0.523900
H111	H11	0.201600	0.730700	0.464100
C171	C17	0.129800	0.701800	0.504500
H121	H12	0.056800	0.635600	0.430300
C181	C18	0.419800	0.915700	0.656100
Cu31	Cu3	0.752240	0.595380	0.923750
Cu41	Cu4	0.651210	0.547750	0.012710
O71	O7	0.537300	0.493600	0.881400
O81	O8	0.606100	0.527200	0.827900
O91	O9	0.820200	0.724400	0.058500
O101	O10	0.740400	0.701700	0.104700
O111	O11	0.740300	0.510700	0.965900
O121	O12	0.589100	0.403300	0.913800
N41	N4	0.688100	0.475700	0.781000
N51	N5	0.906200	0.681700	0.007300
N61	N6	0.585900	0.144800	0.737100
C191	C19	0.701800	0.417600	0.773500
H131	H13	0.752200	0.442800	0.838500
C201	C20	0.644600	0.320900	0.673100
H141	H14	0.653600	0.279700	0.669700
C211	C21	0.573500	0.286700	0.577900
C221	C22	0.564000	0.350200	0.587100
H151	H15	0.519300	0.330600	0.524800
C231	C23	0.620700	0.443300	0.689000
H161	H16	0.612100	0.485200	0.694200
C241	C24	0.531600	0.487900	0.816600
C251	C25	0.973800	0.704600	0.089300
H171	H17	0.946800	0.675500	0.106300
C261	C26	0.848800	0.917000	0.230100
H181	H18	0.792500	0.871800	0.217100
C271	C27	0.871400	0.876100	0.184700
C281	C28	0.956600	0.945700	0.208300
H191	H19	0.974000	0.920100	0.178700
C291	C29	0.946000	0.723600	0.984000
H201	H20	0.898000	0.705700	0.924400
C301	C30	0.804700	0.757000	0.109200
C311	C31	0.692400	0.250500	0.832300
H211	H21	0.750900	0.262800	0.858900
C321	C32	0.717800	0.341400	0.891700
H221	H22	0.792300	0.414200	0.956800
C331	C33	0.632000	0.323300	0.853800
C341	C34	0.523900	0.216000	0.757800
H231	H23	0.464100	0.201600	0.730700
C351	C35	0.504500	0.129800	0.701800
H241	H24	0.430300	0.056800	0.635600
C361	C36	0.656100	0.419800	0.915700
Cu51	Cu5	0.923750	0.752240	0.595380
Cu61	Cu6	0.012710	0.651210	0.547750
O131	O13	0.881400	0.537300	0.493600
O141	O14	0.827900	0.606100	0.527200
O151	O15	0.058500	0.820200	0.724400
O161	O16	0.104700	0.740400	0.701700
O171	O17	0.965900	0.740300	0.510700
O181	O18	0.913800	0.589100	0.403300
N71	N7	0.781000	0.688100	0.475700
N81	N8	0.007300	0.906200	0.681700
N91	N9	0.737100	0.585900	0.144800
C371	C37	0.773500	0.701800	0.417600
H251	H25	0.838500	0.752200	0.442800
C381	C38	0.673100	0.644600	0.320900
H261	H26	0.669700	0.653600	0.279700
C391	C39	0.577900	0.573500	0.286700
C401	C40	0.587100	0.564000	0.350200
H271	H27	0.524800	0.519300	0.330600
C411	C41	0.689000	0.620700	0.443300
H281	H28	0.694200	0.612100	0.485200
C421	C42	0.816600	0.531600	0.487900
C431	C43	0.089300	0.973800	0.704600
H291	H29	0.106300	0.946800	0.675500
C441	C44	0.230100	0.848800	0.917000
H301	H30	0.217100	0.792500	0.871800
C451	C45	0.184700	0.871400	0.876100
C461	C46	0.208300	0.956600	0.945700
H311	H31	0.178700	0.974000	0.920100
C471	C47	0.984000	0.946000	0.723600
H321	H32	0.924400	0.898000	0.705700
C481	C48	0.109200	0.804700	0.757000
C491	C49	0.832300	0.692400	0.250500
H331	H33	0.858900	0.750900	0.262800
C501	C50	0.891700	0.717800	0.341400
H341	H34	0.956800	0.792300	0.414200
C511	C51	0.853800	0.632000	0.323300
C521	C52	0.757800	0.523900	0.216000
H351	H35	0.730700	0.464100	0.201600
C531	C53	0.701800	0.504500	0.129800
H361	H36	0.635600	0.430300	0.056800
C541	C54	0.915700	0.656100	0.419800
Cu71	Cu7	0.404620	0.076250	0.247760
Cu81	Cu8	0.452250	0.987290	0.348790
O191	O19	0.506400	0.118600	0.462700
O201	O20	0.472800	0.172100	0.393900
O211	O21	0.275600	0.941500	0.179800
O221	O22	0.298300	0.895300	0.259600
O231	O23	0.489300	0.034100	0.259700
O241	O24	0.596700	0.086200	0.410900
N101	N10	0.524300	0.219000	0.311900
N111	N11	0.318300	0.992700	0.093800
N121	N12	0.855200	0.262900	0.414100
C551	C55	0.582400	0.226500	0.298200
H371	H37	0.557200	0.161500	0.247800
C561	C56	0.679100	0.326900	0.355400
H381	H38	0.720300	0.330300	0.346400
C571	C57	0.713300	0.422100	0.426500
C581	C58	0.649800	0.412900	0.436000
H391	H39	0.669400	0.475200	0.480700
C591	C59	0.556700	0.311000	0.379300
H401	H40	0.514800	0.305800	0.387900
C601	C60	0.512100	0.183400	0.468400
C611	C61	0.295400	0.910700	0.026200
H411	H41	0.324500	0.893700	0.053200
C621	C62	0.083000	0.769900	0.151200
H421	H42	0.128200	0.782900	0.207500
C631	C63	0.123900	0.815300	0.128600
C641	C64	0.054300	0.791700	0.043400
H431	H43	0.079900	0.821300	0.026000
C651	C65	0.276400	0.016000	0.054000
H441	H44	0.294300	0.075600	0.102000
C661	C66	0.243000	0.890800	0.195300
C671	C67	0.749500	0.167700	0.307600
H451	H45	0.737200	0.141100	0.249100
C681	C68	0.658600	0.108300	0.282200
H461	H46	0.585800	0.043200	0.207700
C691	C69	0.676700	0.146200	0.368000
C701	C70	0.784000	0.242200	0.476100
H471	H47	0.798400	0.269300	0.535900
C711	C71	0.870200	0.298200	0.495500
H481	H48	0.943200	0.364400	0.569700
C721	C72	0.580200	0.084300	0.343900
Cu91	Cu9	0.247760	0.404620	0.076250
Cu101	Cu10	0.348790	0.452250	0.987290
O251	O25	0.462700	0.506400	0.118600
O261	O26	0.393900	0.472800	0.172100
O271	O27	0.179800	0.275600	0.941500
O281	O28	0.259600	0.298300	0.895300
O291	O29	0.259700	0.489300	0.034100
O301	O30	0.410900	0.596700	0.086200
N131	N13	0.311900	0.524300	0.219000
N141	N14	0.093800	0.318300	0.992700
N151	N15	0.414100	0.855200	0.262900
C731	C73	0.298200	0.582400	0.226500
H491	H49	0.247800	0.557200	0.161500
C741	C74	0.355400	0.679100	0.326900
H501	H50	0.346400	0.720300	0.330300
C751	C75	0.426500	0.713300	0.422100
C761	C76	0.436000	0.649800	0.412900
H511	H51	0.480700	0.669400	0.475200
C771	C77	0.379300	0.556700	0.311000
H521	H52	0.387900	0.514800	0.305800
C781	C78	0.468400	0.512100	0.183400
C791	C79	0.026200	0.295400	0.910700
H531	H53	0.053200	0.324500	0.893700
C801	C80	0.151200	0.083000	0.769900
H541	H54	0.207500	0.128200	0.782900
C811	C81	0.128600	0.123900	0.815300
C821	C82	0.043400	0.054300	0.791700
H551	H55	0.026000	0.079900	0.821300
C831	C83	0.054000	0.276400	0.016000
H561	H56	0.102000	0.294300	0.075600
C841	C84	0.195300	0.243000	0.890800
C851	C85	0.307600	0.749500	0.167700
H571	H57	0.249100	0.737200	0.141100
C861	C86	0.282200	0.658600	0.108300
H581	H58	0.207700	0.585800	0.043200
C871	C87	0.368000	0.676700	0.146200
C881	C88	0.476100	0.784000	0.242200
H591	H59	0.535900	0.798400	0.269300
C891	C89	0.495500	0.870200	0.298200
H601	H60	0.569700	0.943200	0.364400
C901	C90	0.343900	0.580200	0.084300
Cu111	Cu11	0.076250	0.247760	0.404620
Cu121	Cu12	0.987290	0.348790	0.452250
O311	O31	0.118600	0.462700	0.506400
O321	O32	0.172100	0.393900	0.472800
O331	O33	0.941500	0.179800	0.275600
O341	O34	0.895300	0.259600	0.298300
O351	O35	0.034100	0.259700	0.489300
O361	O36	0.086200	0.410900	0.596700
N161	N16	0.219000	0.311900	0.524300
N171	N17	0.992700	0.093800	0.318300
N181	N18	0.262900	0.414100	0.855200
C911	C91	0.226500	0.298200	0.582400
H611	H61	0.161500	0.247800	0.557200
C921	C92	0.326900	0.355400	0.679100
H621	H62	0.330300	0.346400	0.720300
C931	C93	0.422100	0.426500	0.713300
C941	C94	0.412900	0.436000	0.649800
H631	H63	0.475200	0.480700	0.669400
C951	C95	0.311000	0.379300	0.556700
H641	H64	0.305800	0.387900	0.514800
C961	C96	0.183400	0.468400	0.512100
C971	C97	0.910700	0.026200	0.295400
H651	H65	0.893700	0.053200	0.324500
C981	C98	0.769900	0.151200	0.083000
H661	H66	0.782900	0.207500	0.128200
C991	C99	0.815300	0.128600	0.123900
C1001	C100	0.791700	0.043400	0.054300
H671	H67	0.821300	0.026000	0.079900
C1011	C101	0.016000	0.054000	0.276400
H681	H68	0.075600	0.102000	0.294300
C1021	C102	0.890800	0.195300	0.243000
C1031	C103	0.167700	0.307600	0.749500
H691	H69	0.141100	0.249100	0.737200
C1041	C104	0.108300	0.282200	0.658600
H701	H70	0.043200	0.207700	0.585800
C1051	C105	0.146200	0.368000	0.676700
C1061	C106	0.242200	0.476100	0.784000
H711	H71	0.269300	0.535900	0.798400
C1071	C107	0.298200	0.495500	0.870200
H721	H72	0.364400	0.569700	0.943200
C1081	C108	0.084300	0.343900	0.580200
