data_EHAGUR_clean_PM
_symmetry_space_group_name_H-M	'P1'
_cell_length_a	10.536300
_cell_length_b	11.469800
_cell_length_c	13.411400
_cell_angle_alpha	69.028000
_cell_angle_beta	78.406000
_cell_angle_gamma	63.414000
_symmetry_Int_Tables_number 1

loop_
_symmetry_equiv_pos_as_xyz
'x,y,z'

loop_
_atom_site_label
_atom_site_type_symbol
_atom_site_fract_x
_atom_site_fract_y
_atom_site_fract_z
U11	U1	0.623820	0.712450	0.836960
Dy11	Dy1	0.600330	0.229420	0.749300
C11	C1	0.996400	0.341500	0.853800
C21	C2	0.111000	0.312000	0.910500
H11	H1	0.095800	0.357700	0.959700
C31	C3	0.247900	0.215100	0.894700
C41	C4	0.266600	0.141900	0.823700
C51	C5	0.145700	0.164800	0.775100
H21	H2	0.155700	0.109600	0.734900
C61	C6	0.015500	0.265600	0.786100
C71	C7	0.626000	0.998700	0.451500
H31	H3	0.712600	0.998000	0.418300
C81	C8	0.618600	0.875700	0.506000
C91	C9	0.487900	0.875900	0.557100
C101	C10	0.862100	0.463000	0.860700
C111	C11	0.362300	0.192700	0.957900
C121	C12	0.408300	0.041000	0.794800
C131	C13	0.896400	0.291300	0.725000
C141	C14	0.468000	0.747400	0.622100
C151	C15	0.743100	0.745500	0.508400
O11	O1	0.850400	0.535300	0.914800
O21	O2	0.761900	0.495000	0.803100
O31	O3	0.815000	0.233800	0.772000
O41	O4	0.887700	0.362300	0.628300
O51	O5	0.417000	0.920100	0.820000
O61	O6	0.502100	0.077100	0.751900
O71	O7	0.483600	0.174800	0.916700
O81	O8	0.326300	0.196500	0.052400
O91	O9	0.502000	0.695100	0.718400
O101	O10	0.410700	0.701500	0.581600
O111	O11	0.733000	0.633600	0.533600
O121	O12	0.866100	0.750500	0.479100
U21	U2	0.376180	0.287550	0.163040
Dy21	Dy2	0.399670	0.770580	0.250700
C161	C16	0.003600	0.658500	0.146200
C171	C17	0.889000	0.688000	0.089500
H41	H4	0.904200	0.642300	0.040300
C181	C18	0.752100	0.784900	0.105300
C191	C19	0.733400	0.858100	0.176300
C201	C20	0.854300	0.835200	0.224900
H51	H5	0.844300	0.890400	0.265100
C211	C21	0.984500	0.734400	0.213900
C221	C22	0.374000	0.001300	0.548500
H61	H6	0.287400	0.002000	0.581700
C231	C23	0.381400	0.124300	0.494000
C241	C24	0.512100	0.124100	0.442900
C251	C25	0.137900	0.537000	0.139300
C261	C26	0.637700	0.807300	0.042100
C271	C27	0.591700	0.959000	0.205200
C281	C28	0.103600	0.708700	0.275000
C291	C29	0.532000	0.252600	0.377900
C301	C30	0.256900	0.254500	0.491600
O131	O13	0.149600	0.464700	0.085200
O141	O14	0.238100	0.505000	0.196900
O151	O15	0.185000	0.766200	0.228000
O161	O16	0.112300	0.637700	0.371700
O171	O17	0.583000	0.079900	0.180000
O181	O18	0.497900	0.922900	0.248100
O191	O19	0.516400	0.825200	0.083300
O201	O20	0.673700	0.803500	0.947600
O211	O21	0.498000	0.304900	0.281600
O221	O22	0.589300	0.298500	0.418400
O231	O23	0.267000	0.366400	0.466400
O241	O24	0.133900	0.249500	0.520900
U31	U3	0.000000	0.500000	0.500000
