data_EHEKUY_clean_PM
_symmetry_space_group_name_H-M	'P1'
_cell_length_a	15.297800
_cell_length_b	15.592700
_cell_length_c	22.148000
_cell_angle_alpha	88.841000
_cell_angle_beta	86.538000
_cell_angle_gamma	62.085000
_symmetry_Int_Tables_number 1

loop_
_symmetry_equiv_pos_as_xyz
'x,y,z'

loop_
_atom_site_label
_atom_site_type_symbol
_atom_site_fract_x
_atom_site_fract_y
_atom_site_fract_z
H11	H1	0.676200	0.213900	0.932200
H21	H2	0.495000	0.367800	0.836400
H31	H3	0.493100	0.398700	0.902800
H41	H4	0.514900	0.293500	0.888100
H51	H5	0.625200	0.408400	0.797500
H61	H6	0.791600	0.362400	0.786400
H71	H7	0.903300	0.244500	0.848900
H81	H8	0.093400	0.884100	0.798900
H91	H9	0.112300	0.859800	0.688500
H101	H10	0.093900	0.780200	0.659600
H111	H11	0.191900	0.751700	0.690700
H121	H12	0.042400	0.680400	0.721700
H131	H13	0.975400	0.657500	0.814200
H141	H14	0.966500	0.747600	0.899200
H151	H15	0.955900	0.452700	0.863300
H161	H16	0.812200	0.516700	0.938000
H171	H17	0.756900	0.469100	0.907400
H181	H18	0.706200	0.580700	0.916800
H191	H19	0.678400	0.620400	0.809500
H201	H20	0.743600	0.642900	0.716500
H211	H21	0.914300	0.574300	0.696900
H221	H22	0.280500	0.074500	0.690100
H231	H23	0.280600	0.920700	0.669600
H241	H24	0.382400	0.873500	0.633400
H251	H25	0.288300	0.885600	0.603500
H261	H26	0.302200	0.981700	0.518500
H271	H27	0.277800	0.132200	0.482300
H281	H28	0.253900	0.255800	0.550100
H291	H29	0.596200	0.160900	0.773700
H301	H30	0.766800	0.070900	0.806200
H311	H31	0.854200	0.069600	0.766100
H321	H32	0.806700	0.005500	0.748700
H331	H33	0.826500	0.156700	0.671600
H341	H34	0.715400	0.283300	0.613200
H351	H35	0.544800	0.350000	0.635400
H361	H36	0.285700	0.662000	0.791500
H371	H37	0.281500	0.818700	0.808100
H381	H38	0.382800	0.778000	0.837300
H391	H39	0.287000	0.851700	0.872800
H401	H40	0.306100	0.745900	0.959200
H411	H41	0.288900	0.616000	0.000400
H421	H42	0.272600	0.506000	0.937400
H431	H43	0.680000	0.066200	0.587200
H441	H44	0.516700	0.123200	0.637000
H451	H45	0.495900	0.060700	0.685400
H461	H46	0.500900	0.036800	0.617300
H471	H47	0.629400	0.900700	0.711500
H481	H48	0.800000	0.797100	0.714200
H491	H49	0.911100	0.825900	0.650200
H501	H50	0.901600	0.964400	0.307400
H511	H51	0.822400	0.957300	0.214200
H521	H52	0.853000	0.858500	0.182700
H531	H53	0.920300	0.908000	0.174300
H541	H54	0.977600	0.707800	0.223900
H551	H55	0.062600	0.625300	0.307900
H561	H56	0.067600	0.711100	0.391400
H571	H57	0.323800	0.786100	0.067800
H581	H58	0.505000	0.632200	0.163600
H591	H59	0.506900	0.601300	0.097200
H601	H60	0.485100	0.706500	0.111900
H611	H61	0.374800	0.591600	0.202500
H621	H62	0.208400	0.637600	0.213600
H631	H63	0.096700	0.755500	0.151100
H641	H64	0.906600	0.115900	0.201100
H651	H65	0.887700	0.140200	0.311500
H661	H66	0.906100	0.219800	0.340400
H671	H67	0.808100	0.248300	0.309300
H681	H68	0.957600	0.319600	0.278300
H691	H69	0.024600	0.342500	0.185800
H701	H70	0.033500	0.252400	0.100800
H711	H71	0.044100	0.547300	0.136700
H721	H72	0.187800	0.483300	0.062000
H731	H73	0.243100	0.530900	0.092600
H741	H74	0.293800	0.419300	0.083200
H751	H75	0.321600	0.379600	0.190500
H761	H76	0.256400	0.357100	0.283500
H771	H77	0.085700	0.425700	0.303100
H781	H78	0.719500	0.925500	0.309900
H791	H79	0.719400	0.079300	0.330400
H801	H80	0.617600	0.126500	0.366600
H811	H81	0.711700	0.114400	0.396500
H821	H82	0.697800	0.018300	0.481500
H831	H83	0.722200	0.867800	0.517700
H841	H84	0.746100	0.744200	0.449900
H851	H85	0.403800	0.839100	0.226300
H861	H86	0.233200	0.929100	0.193800
H871	H87	0.145800	0.930400	0.233900
H881	H88	0.193300	0.994500	0.251300
H891	H89	0.173500	0.843300	0.328400
H901	H90	0.284600	0.716700	0.386800
H911	H91	0.455200	0.650000	0.364600
H921	H92	0.714300	0.338000	0.208500
H931	H93	0.718500	0.181300	0.191900
H941	H94	0.617200	0.222000	0.162700
H951	H95	0.713000	0.148300	0.127200
H961	H96	0.693900	0.254100	0.040800
H971	H97	0.711100	0.384000	0.999600
H981	H98	0.727400	0.494000	0.062600
H991	H99	0.320000	0.933800	0.412800
H1001	H100	0.483300	0.876800	0.363000
H1011	H101	0.504100	0.939300	0.314600
H1021	H102	0.499100	0.963200	0.382700
H1031	H103	0.370600	0.099300	0.288500
H1041	H104	0.200000	0.202900	0.285800
H1051	H105	0.088900	0.174100	0.349800
H1061	H106	0.098400	0.035600	0.692600
H1071	H107	0.177600	0.042700	0.785800
H1081	H108	0.147000	0.141500	0.817300
H1091	H109	0.079700	0.092000	0.825700
H1101	H110	0.022400	0.292200	0.776100
H1111	H111	0.937400	0.374700	0.692100
H1121	H112	0.932400	0.288900	0.608600
Ru11	Ru1	0.061840	0.013760	0.978160
Ru21	Ru2	0.265210	0.330410	0.784050
Ru31	Ru3	0.241700	0.433710	0.704930
Ru41	Ru4	0.064390	0.931380	0.517330
Ru51	Ru5	0.938160	0.986240	0.021840
Ru61	Ru6	0.734790	0.669590	0.215950
Ru71	Ru7	0.758300	0.566290	0.295070
Ru81	Ru8	0.935610	0.068620	0.482670
C11	C1	0.871200	0.142000	0.935700
C21	C2	0.801000	0.218300	0.896720
C31	C3	0.699700	0.245400	0.903120
C41	C4	0.632700	0.317000	0.866900
C51	C5	0.523800	0.347800	0.874500
C61	C6	0.669200	0.359600	0.823200
C71	C7	0.768800	0.332200	0.816300
C81	C8	0.835000	0.262300	0.853400
C91	C9	0.022600	0.883300	0.909770
C101	C10	0.029200	0.824300	0.856800
C111	C11	0.069400	0.837700	0.801740
C121	C12	0.075600	0.783900	0.751030
C131	C13	0.122300	0.795300	0.692080
C141	C14	0.039500	0.717300	0.756370
C151	C15	0.999000	0.704100	0.811100
C161	C16	0.993700	0.757500	0.861490
C171	C17	0.247400	0.058900	0.935950
C181	C18	0.317900	0.092500	0.933720
C191	C19	0.297700	0.171500	0.894940
C201	C20	0.407100	0.046600	0.966850
C211	C21	0.455500	0.947600	0.979570
C221	C22	0.546400	0.901000	0.011130
C231	C23	0.060100	0.461000	0.766190
C241	C24	0.951300	0.505600	0.778160
C251	C25	0.911800	0.492000	0.833890
C261	C26	0.810900	0.535100	0.846980
C271	C27	0.767500	0.524100	0.907600
C281	C28	0.748400	0.591200	0.802200
C291	C29	0.786500	0.605500	0.746600
C301	C30	0.888000	0.563400	0.734500
C311	C31	0.254100	0.252100	0.669870
C321	C32	0.265100	0.176900	0.626780
C331	C33	0.280300	0.085700	0.647810
C341	C34	0.294800	0.012200	0.607990
C351	C35	0.313600	0.913700	0.630500
C361	C36	0.293300	0.031300	0.546500
C371	C37	0.277500	0.121100	0.524920
C381	C38	0.263700	0.194000	0.564910
C391	C39	0.446400	0.304300	0.721410
C401	C40	0.555000	0.261900	0.707630
C411	C41	0.620700	0.186300	0.741340
C421	C42	0.722600	0.147000	0.729200
C431	C43	0.794000	0.066000	0.765600
C441	C44	0.757000	0.183600	0.680900
C451	C45	0.691100	0.258800	0.646300
C461	C46	0.590200	0.298300	0.659200
C471	C47	0.265000	0.507000	0.817730
C481	C48	0.276300	0.574600	0.858660
C491	C49	0.286900	0.652600	0.833970
C501	C50	0.298900	0.716700	0.871100
C511	C51	0.313200	0.799100	0.845000
C521	C52	0.298700	0.702400	0.933250
C531	C53	0.288700	0.624800	0.957750
C541	C54	0.278400	0.560000	0.920620
C551	C55	0.256200	0.569100	0.595020
C561	C56	0.298800	0.612300	0.555910
C571	C57	0.241200	0.712600	0.549620
C581	C58	0.397100	0.557300	0.527520
C591	C59	0.444600	0.455200	0.521910
C601	C60	0.544700	0.399500	0.495040
C611	C61	0.875100	0.966100	0.571290
C621	C62	0.805400	0.948600	0.612250
C631	C63	0.704300	0.010800	0.612320
C641	C64	0.637400	0.992600	0.649030
C651	C65	0.528000	0.058900	0.647300
C661	C66	0.674900	0.913200	0.686300
C671	C67	0.776300	0.851400	0.687900
C681	C68	0.841800	0.868700	0.650230
C691	C69	0.986600	0.900900	0.409500
C701	C70	0.984500	0.845500	0.356830
C711	C71	0.934100	0.895200	0.306920
C721	C72	0.931200	0.844900	0.256240
C731	C73	0.876800	0.897300	0.201990
C741	C74	0.979200	0.744000	0.257450
C751	C75	0.029600	0.694600	0.307870
C761	C76	0.032700	0.745000	0.357160
C771	C77	0.128800	0.858000	0.064300
C781	C78	0.199000	0.781700	0.103280
C791	C79	0.300300	0.754600	0.096880
C801	C80	0.367300	0.683000	0.133100
C811	C81	0.476200	0.652200	0.125500
C821	C82	0.330800	0.640400	0.176800
C831	C83	0.231200	0.667800	0.183700
C841	C84	0.165000	0.737700	0.146600
C851	C85	0.977400	0.116700	0.090230
C861	C86	0.970800	0.175700	0.143200
C871	C87	0.930600	0.162300	0.198260
C881	C88	0.924400	0.216100	0.248970
C891	C89	0.877700	0.204700	0.307920
C901	C90	0.960500	0.282700	0.243630
C911	C91	0.001000	0.295900	0.188900
C921	C92	0.006300	0.242500	0.138510
C931	C93	0.752600	0.941100	0.064050
C941	C94	0.682100	0.907500	0.066280
C951	C95	0.702300	0.828500	0.105060
C961	C96	0.592900	0.953400	0.033150
C971	C97	0.544500	0.052400	0.020430
C981	C98	0.453600	0.099000	0.988870
C991	C99	0.939900	0.539000	0.233810
C1001	C100	0.048700	0.494400	0.221840
C1011	C101	0.088200	0.508000	0.166110
C1021	C102	0.189100	0.464900	0.153020
C1031	C103	0.232500	0.475900	0.092400
C1041	C104	0.251600	0.408800	0.197800
C1051	C105	0.213500	0.394500	0.253400
C1061	C106	0.112000	0.436600	0.265500
C1071	C107	0.745900	0.747900	0.330130
C1081	C108	0.734900	0.823100	0.373220
C1091	C109	0.719700	0.914300	0.352190
C1101	C110	0.705200	0.987800	0.392010
C1111	C111	0.686400	0.086300	0.369500
C1121	C112	0.706700	0.968700	0.453500
C1131	C113	0.722500	0.878900	0.475080
C1141	C114	0.736300	0.806000	0.435090
C1151	C115	0.553600	0.695700	0.278590
C1161	C116	0.445000	0.738100	0.292370
C1171	C117	0.379300	0.813700	0.258660
C1181	C118	0.277400	0.853000	0.270800
C1191	C119	0.206000	0.934000	0.234400
C1201	C120	0.243000	0.816400	0.319100
C1211	C121	0.308900	0.741200	0.353700
C1221	C122	0.409800	0.701700	0.340800
C1231	C123	0.735000	0.493000	0.182270
C1241	C124	0.723700	0.425400	0.141340
C1251	C125	0.713100	0.347400	0.166030
C1261	C126	0.701100	0.283300	0.128900
C1271	C127	0.686800	0.200900	0.155000
C1281	C128	0.701300	0.297600	0.066750
C1291	C129	0.711300	0.375200	0.042250
C1301	C130	0.721600	0.440000	0.079380
C1311	C131	0.743800	0.430900	0.404980
C1321	C132	0.701200	0.387700	0.444090
C1331	C133	0.758800	0.287400	0.450380
C1341	C134	0.602900	0.442700	0.472480
C1351	C135	0.555400	0.544800	0.478090
C1361	C136	0.455300	0.600500	0.504960
C1371	C137	0.124900	0.033900	0.428710
C1381	C138	0.194600	0.051400	0.387750
C1391	C139	0.295700	0.989200	0.387680
C1401	C140	0.362600	0.007400	0.350970
C1411	C141	0.472000	0.941100	0.352700
C1421	C142	0.325100	0.086800	0.313700
C1431	C143	0.223700	0.148600	0.312100
C1441	C144	0.158200	0.131300	0.349770
C1451	C145	0.013400	0.099100	0.590500
C1461	C146	0.015500	0.154500	0.643170
C1471	C147	0.065900	0.104800	0.693080
C1481	C148	0.068800	0.155100	0.743760
C1491	C149	0.123200	0.102700	0.798010
C1501	C150	0.020800	0.256000	0.742550
C1511	C151	0.970400	0.305400	0.692130
C1521	C152	0.967300	0.255000	0.642840
S11	S1	0.507170	0.777840	0.982250
S21	S2	0.482170	0.288770	0.521110
S31	S3	0.492830	0.222160	0.017750
S41	S4	0.517830	0.711230	0.478890
N11	N1	0.187100	0.034200	0.938410
N21	N2	0.425200	0.882500	0.960920
N31	N3	0.582600	0.803400	0.015430
N41	N4	0.281300	0.233200	0.861770
N51	N5	0.220400	0.535100	0.628050
N61	N6	0.402000	0.398300	0.538110
N71	N7	0.573600	0.302500	0.492320
N81	N8	0.190000	0.794800	0.546480
N91	N9	0.812900	0.965800	0.061590
N101	N10	0.574800	0.117500	0.039080
N111	N11	0.417400	0.196600	0.984570
N121	N12	0.718700	0.766800	0.138230
N131	N13	0.779600	0.464900	0.371950
N141	N14	0.598000	0.601700	0.461890
N151	N15	0.426400	0.697500	0.507680
N161	N16	0.810000	0.205200	0.453520
O11	O1	0.961720	0.123740	0.930300
O21	O2	0.839710	0.097450	0.972490
O31	O3	0.077990	0.924010	0.909640
O41	O4	0.959710	0.893500	0.953330
O51	O5	0.115760	0.392920	0.800210
O61	O6	0.093310	0.491820	0.721580
O71	O7	0.263310	0.232230	0.726100
O81	O8	0.238950	0.334700	0.648850
O91	O9	0.414250	0.271240	0.765710
O101	O10	0.389370	0.373460	0.688290
O111	O11	0.271020	0.428010	0.839900
O121	O12	0.250680	0.528240	0.762190
O131	O13	0.967360	0.905870	0.570860
O141	O14	0.840480	0.040690	0.536800
O151	O15	0.050990	0.855850	0.448510
O161	O16	0.925710	0.991040	0.414110
O171	O17	0.038280	0.876260	0.069700
O181	O18	0.160290	0.902550	0.027510
O191	O19	0.922010	0.075990	0.090360
O201	O20	0.040290	0.106500	0.046670
O211	O21	0.884240	0.607080	0.199790
O221	O22	0.906690	0.508180	0.278420
O231	O23	0.736690	0.767770	0.273900
O241	O24	0.761050	0.665300	0.351150
O251	O25	0.585750	0.728760	0.234290
O261	O26	0.610630	0.626540	0.311710
O271	O27	0.728980	0.571990	0.160100
O281	O28	0.749320	0.471760	0.237810
O291	O29	0.032640	0.094130	0.429140
O301	O30	0.159520	0.959310	0.463200
O311	O31	0.949010	0.144150	0.551490
O321	O32	0.074290	0.008960	0.585890
