data_EJONOH_clean_PM
_symmetry_space_group_name_H-M	'P1'
_cell_length_a	8.215200
_cell_length_b	8.938700
_cell_length_c	12.396100
_cell_angle_alpha	109.846000
_cell_angle_beta	92.651000
_cell_angle_gamma	106.725000
_symmetry_Int_Tables_number 1

loop_
_symmetry_equiv_pos_as_xyz
'x,y,z'

loop_
_atom_site_label
_atom_site_type_symbol
_atom_site_fract_x
_atom_site_fract_y
_atom_site_fract_z
Co11	Co1	0.032080	0.055850	0.179230
Co21	Co2	0.967920	0.944150	0.820770
Co31	Co3	0.500000	0.500000	0.500000
H11	H1	0.971000	0.224000	0.449000
H21	H2	0.804000	0.376100	0.544400
H31	H3	0.577300	0.335500	0.247700
H41	H4	0.378100	0.867200	0.306200
H51	H5	0.029000	0.776000	0.551000
H61	H6	0.196000	0.623900	0.455600
H71	H7	0.422700	0.664500	0.752300
H81	H8	0.621900	0.132800	0.693800
C11	C1	0.758400	0.169900	0.106800
C21	C2	0.762300	0.226800	0.232500
C31	C3	0.891800	0.246800	0.406200
C41	C4	0.789900	0.337400	0.463800
C51	C5	0.658500	0.314800	0.290400
C61	C6	0.533100	0.854700	0.431200
C71	C7	0.608000	0.935100	0.548600
C81	C8	0.427000	0.920600	0.384200
C91	C9	0.551700	0.691700	0.352800
C101	C10	0.725000	0.872100	0.606200
C111	C11	0.241600	0.830100	0.893200
C121	C12	0.237700	0.773200	0.767500
C131	C13	0.108200	0.753200	0.593800
C141	C14	0.210100	0.662600	0.536200
C151	C15	0.341500	0.685200	0.709600
C161	C16	0.466900	0.145300	0.568800
C171	C17	0.392000	0.064900	0.451400
C181	C18	0.573000	0.079400	0.615800
C191	C19	0.448300	0.308300	0.647200
C201	C20	0.275000	0.127900	0.393800
N11	N1	0.866000	0.091200	0.058060
N21	N2	0.833400	0.063500	0.945120
N31	N3	0.709600	0.122200	0.926800
N41	N4	0.660000	0.190600	0.028500
N51	N5	0.879100	0.191600	0.291040
N61	N6	0.672000	0.370400	0.406140
N71	N7	0.134000	0.908800	0.941940
N81	N8	0.166600	0.936500	0.054880
N91	N9	0.290400	0.877800	0.073200
N101	N10	0.340000	0.809400	0.971500
N111	N11	0.120900	0.808400	0.708960
N121	N12	0.328000	0.629600	0.593860
O11	O1	0.656000	0.693500	0.285200
O21	O2	0.451800	0.558500	0.359650
O31	O3	0.706500	0.717900	0.570580
O41	O4	0.838300	0.980700	0.689000
O51	O5	0.344000	0.306500	0.714800
O61	O6	0.548200	0.441500	0.640350
O71	O7	0.293500	0.282100	0.429420
O81	O8	0.161700	0.019300	0.311000
