data_EJOQUR_clean_PM
_symmetry_space_group_name_H-M	'P1'
_cell_length_a	18.592400
_cell_length_b	18.592400
_cell_length_c	42.229300
_cell_angle_alpha	90.000000
_cell_angle_beta	90.000000
_cell_angle_gamma	90.000000
_symmetry_Int_Tables_number 1

loop_
_symmetry_equiv_pos_as_xyz
'x,y,z'

loop_
_atom_site_label
_atom_site_type_symbol
_atom_site_fract_x
_atom_site_fract_y
_atom_site_fract_z
C11	C1	0.005200	0.322400	0.393850
C21	C2	0.039200	0.279500	0.416080
C31	C3	0.093300	0.313000	0.434680
C41	C4	0.110200	0.382700	0.430900
H11	H1	0.146700	0.402700	0.443100
C51	C5	0.072800	0.426800	0.408400
H21	H2	0.082600	0.475500	0.406100
C61	C6	0.021400	0.392500	0.390260
H31	H3	0.997000	0.418900	0.375000
C71	C7	0.962900	0.287200	0.343650
C81	C8	0.903000	0.293700	0.324630
H41	H4	0.858700	0.305600	0.333400
C91	C9	0.908900	0.282600	0.292960
C101	C10	0.974100	0.264800	0.279670
H51	H5	0.977100	0.254400	0.258200
C111	C11	0.035800	0.262300	0.298600
C121	C12	0.030000	0.273300	0.331040
H61	H6	0.070400	0.271300	0.344000
C131	C13	0.020600	0.201100	0.416180
C141	C14	0.134500	0.269300	0.458690
C151	C15	0.107400	0.245600	0.283860
C161	C16	0.842300	0.284700	0.273010
O11	O1	0.059300	0.161400	0.399780
O21	O2	0.965700	0.182400	0.432390
O31	O3	0.108200	0.213400	0.468260
O41	O4	0.193800	0.298600	0.467910
O51	O5	0.162400	0.266700	0.297980
O61	O6	0.105800	0.212100	0.257950
O71	O7	0.845100	0.257700	0.245700
O81	O8	0.788000	0.314900	0.285460
O91	O9	0.950600	0.290900	0.375970
C171	C17	0.994800	0.677600	0.393850
C181	C18	0.960800	0.720500	0.416080
C191	C19	0.906700	0.687000	0.434680
C201	C20	0.889800	0.617300	0.430900
H71	H7	0.853300	0.597300	0.443100
C211	C21	0.927200	0.573200	0.408400
H81	H8	0.917400	0.524500	0.406100
C221	C22	0.978600	0.607500	0.390260
H91	H9	0.003000	0.581100	0.375000
C231	C23	0.037100	0.712800	0.343650
C241	C24	0.097000	0.706300	0.324630
H101	H10	0.141300	0.694400	0.333400
C251	C25	0.091100	0.717400	0.292960
C261	C26	0.025900	0.735200	0.279670
H111	H11	0.022900	0.745600	0.258200
C271	C27	0.964200	0.737700	0.298600
C281	C28	0.970000	0.726700	0.331040
H121	H12	0.929600	0.728700	0.344000
C291	C29	0.979400	0.798900	0.416180
C301	C30	0.865500	0.730700	0.458690
C311	C31	0.892600	0.754400	0.283860
C321	C32	0.157700	0.715300	0.273010
O101	O10	0.940700	0.838600	0.399780
O111	O11	0.034300	0.817600	0.432390
O121	O12	0.891800	0.786600	0.468260
O131	O13	0.806200	0.701400	0.467910
O141	O14	0.837600	0.733300	0.297980
O151	O15	0.894200	0.787900	0.257950
O161	O16	0.154900	0.742300	0.245700
O171	O17	0.212000	0.685100	0.285460
O181	O18	0.049400	0.709100	0.375970
C331	C33	0.177600	0.505200	0.893850
C341	C34	0.220500	0.539200	0.916080
C351	C35	0.187000	0.593300	0.934680
C361	C36	0.117300	0.610200	0.930900
H131	H13	0.097300	0.646700	0.943100
C371	C37	0.073200	0.572800	0.908400
H141	H14	0.024500	0.582600	0.906100
C381	C38	0.107500	0.521400	0.890260
H151	H15	0.081100	0.497000	0.875000
C391	C39	0.212800	0.462900	0.843650
C401	C40	0.206300	0.403000	0.824630
H161	H16	0.194400	0.358700	0.833400
C411	C41	0.217400	0.408900	0.792960
C421	C42	0.235200	0.474100	0.779670
H171	H17	0.245600	0.477100	0.758200
C431	C43	0.237700	0.535800	0.798600
C441	C44	0.226700	0.530000	0.831040
H181	H18	0.228700	0.570400	0.844000
C451	C45	0.298900	0.520600	0.916180
C461	C46	0.230700	0.634500	0.958690
C471	C47	0.254400	0.607400	0.783860
C481	C48	0.215300	0.342300	0.773010
O191	O19	0.338600	0.559300	0.899780
O201	O20	0.317600	0.465700	0.932390
O211	O21	0.286600	0.608200	0.968260
O221	O22	0.201400	0.693800	0.967910
O231	O23	0.233300	0.662400	0.797980
O241	O24	0.287900	0.605800	0.757950
O251	O25	0.242300	0.345100	0.745700
O261	O26	0.185100	0.288000	0.785460
O271	O27	0.209100	0.450600	0.875970
C491	C49	0.822400	0.494800	0.893850
C501	C50	0.779500	0.460800	0.916080
C511	C51	0.813000	0.406700	0.934680
C521	C52	0.882700	0.389800	0.930900
H191	H19	0.902700	0.353300	0.943100
C531	C53	0.926800	0.427200	0.908400
H201	H20	0.975500	0.417400	0.906100
C541	C54	0.892500	0.478600	0.890260
H211	H21	0.918900	0.503000	0.875000
C551	C55	0.787200	0.537100	0.843650
C561	C56	0.793700	0.597000	0.824630
H221	H22	0.805600	0.641300	0.833400
C571	C57	0.782600	0.591100	0.792960
C581	C58	0.764800	0.525900	0.779670
H231	H23	0.754400	0.522900	0.758200
C591	C59	0.762300	0.464200	0.798600
C601	C60	0.773300	0.470000	0.831040
H241	H24	0.771300	0.429600	0.844000
C611	C61	0.701100	0.479400	0.916180
C621	C62	0.769300	0.365500	0.958690
C631	C63	0.745600	0.392600	0.783860
C641	C64	0.784700	0.657700	0.773010
O281	O28	0.661400	0.440700	0.899780
O291	O29	0.682400	0.534300	0.932390
O301	O30	0.713400	0.391800	0.968260
O311	O31	0.798600	0.306200	0.967910
O321	O32	0.766700	0.337600	0.797980
O331	O33	0.712100	0.394200	0.757950
O341	O34	0.757700	0.654900	0.745700
O351	O35	0.814900	0.712000	0.785460
O361	O36	0.790900	0.549400	0.875970
C651	C65	0.494800	0.822400	0.106150
C661	C66	0.460800	0.779500	0.083920
C671	C67	0.406700	0.813000	0.065320
C681	C68	0.389800	0.882700	0.069100
H251	H25	0.353300	0.902700	0.056900
C691	C69	0.427200	0.926800	0.091600
H261	H26	0.417400	0.975500	0.093900
C701	C70	0.478600	0.892500	0.109740
H271	H27	0.503000	0.918900	0.125000
C711	C71	0.537100	0.787200	0.156350
C721	C72	0.597000	0.793700	0.175370
H281	H28	0.641300	0.805600	0.166600
C731	C73	0.591100	0.782600	0.207040
C741	C74	0.525900	0.764800	0.220330
H291	H29	0.522900	0.754400	0.241800
C751	C75	0.464200	0.762300	0.201400
C761	C76	0.470000	0.773300	0.168960
H301	H30	0.429600	0.771300	0.156000
C771	C77	0.479400	0.701100	0.083820
C781	C78	0.365500	0.769300	0.041310
C791	C79	0.392600	0.745600	0.216140
C801	C80	0.657700	0.784700	0.226990
O371	O37	0.440700	0.661400	0.100220
O381	O38	0.534300	0.682400	0.067610
O391	O39	0.391800	0.713400	0.031740
O401	O40	0.306200	0.798600	0.032090
O411	O41	0.337600	0.766700	0.202020
O421	O42	0.394200	0.712100	0.242050
O431	O43	0.654900	0.757700	0.254300
O441	O44	0.712000	0.814900	0.214540
O451	O45	0.549400	0.790900	0.124030
C811	C81	0.505200	0.177600	0.106150
C821	C82	0.539200	0.220500	0.083920
C831	C83	0.593300	0.187000	0.065320
C841	C84	0.610200	0.117300	0.069100
H311	H31	0.646700	0.097300	0.056900
C851	C85	0.572800	0.073200	0.091600
H321	H32	0.582600	0.024500	0.093900
C861	C86	0.521400	0.107500	0.109740
H331	H33	0.497000	0.081100	0.125000
C871	C87	0.462900	0.212800	0.156350
C881	C88	0.403000	0.206300	0.175370
H341	H34	0.358700	0.194400	0.166600
C891	C89	0.408900	0.217400	0.207040
C901	C90	0.474100	0.235200	0.220330
H351	H35	0.477100	0.245600	0.241800
C911	C91	0.535800	0.237700	0.201400
C921	C92	0.530000	0.226700	0.168960
H361	H36	0.570400	0.228700	0.156000
C931	C93	0.520600	0.298900	0.083820
C941	C94	0.634500	0.230700	0.041310
C951	C95	0.607400	0.254400	0.216140
C961	C96	0.342300	0.215300	0.226990
O461	O46	0.559300	0.338600	0.100220
O471	O47	0.465700	0.317600	0.067610
O481	O48	0.608200	0.286600	0.031740
O491	O49	0.693800	0.201400	0.032090
O501	O50	0.662400	0.233300	0.202020
O511	O51	0.605800	0.287900	0.242050
O521	O52	0.345100	0.242300	0.254300
O531	O53	0.288000	0.185100	0.214540
O541	O54	0.450600	0.209100	0.124030
C971	C97	0.322400	0.005200	0.606150
C981	C98	0.279500	0.039200	0.583920
C991	C99	0.313000	0.093300	0.565320
C1001	C100	0.382700	0.110200	0.569100
H371	H37	0.402700	0.146700	0.556900
C1011	C101	0.426800	0.072800	0.591600
H381	H38	0.475500	0.082600	0.593900
C1021	C102	0.392500	0.021400	0.609740
H391	H39	0.418900	0.997000	0.625000
C1031	C103	0.287200	0.962900	0.656350
C1041	C104	0.293700	0.903000	0.675370
H401	H40	0.305600	0.858700	0.666600
C1051	C105	0.282600	0.908900	0.707040
C1061	C106	0.264800	0.974100	0.720330
H411	H41	0.254400	0.977100	0.741800
C1071	C107	0.262300	0.035800	0.701400
C1081	C108	0.273300	0.030000	0.668960
H421	H42	0.271300	0.070400	0.656000
C1091	C109	0.201100	0.020600	0.583820
C1101	C110	0.269300	0.134500	0.541310
C1111	C111	0.245600	0.107400	0.716140
C1121	C112	0.284700	0.842300	0.726990
O551	O55	0.161400	0.059300	0.600220
O561	O56	0.182400	0.965700	0.567610
O571	O57	0.213400	0.108200	0.531740
O581	O58	0.298600	0.193800	0.532090
O591	O59	0.266700	0.162400	0.702020
O601	O60	0.212100	0.105800	0.742050
O611	O61	0.257700	0.845100	0.754300
O621	O62	0.314900	0.788000	0.714540
O631	O63	0.290900	0.950600	0.624030
C1131	C113	0.677600	0.994800	0.606150
C1141	C114	0.720500	0.960800	0.583920
C1151	C115	0.687000	0.906700	0.565320
C1161	C116	0.617300	0.889800	0.569100
H431	H43	0.597300	0.853300	0.556900
C1171	C117	0.573200	0.927200	0.591600
H441	H44	0.524500	0.917400	0.593900
C1181	C118	0.607500	0.978600	0.609740
H451	H45	0.581100	0.003000	0.625000
C1191	C119	0.712800	0.037100	0.656350
C1201	C120	0.706300	0.097000	0.675370
H461	H46	0.694400	0.141300	0.666600
C1211	C121	0.717400	0.091100	0.707040
C1221	C122	0.735200	0.025900	0.720330
H471	H47	0.745600	0.022900	0.741800
C1231	C123	0.737700	0.964200	0.701400
C1241	C124	0.726700	0.970000	0.668960
H481	H48	0.728700	0.929600	0.656000
C1251	C125	0.798900	0.979400	0.583820
C1261	C126	0.730700	0.865500	0.541310
C1271	C127	0.754400	0.892600	0.716140
C1281	C128	0.715300	0.157700	0.726990
O641	O64	0.838600	0.940700	0.600220
O651	O65	0.817600	0.034300	0.567610
O661	O66	0.786600	0.891800	0.531740
O671	O67	0.701400	0.806200	0.532090
O681	O68	0.733300	0.837600	0.702020
O691	O69	0.787900	0.894200	0.742050
O701	O70	0.742300	0.154900	0.754300
O711	O71	0.685100	0.212000	0.714540
O721	O72	0.709100	0.049400	0.624030
C1291	C129	0.994800	0.677600	0.606150
C1301	C130	0.960800	0.720500	0.583920
C1311	C131	0.906700	0.687000	0.565320
C1321	C132	0.889800	0.617300	0.569100
H491	H49	0.853300	0.597300	0.556900
C1331	C133	0.927200	0.573200	0.591600
H501	H50	0.917400	0.524500	0.593900
C1341	C134	0.978600	0.607500	0.609740
H511	H51	0.003000	0.581100	0.625000
C1351	C135	0.037100	0.712800	0.656350
C1361	C136	0.097000	0.706300	0.675370
H521	H52	0.141300	0.694400	0.666600
C1371	C137	0.091100	0.717400	0.707040
C1381	C138	0.025900	0.735200	0.720330
H531	H53	0.022900	0.745600	0.741800
C1391	C139	0.964200	0.737700	0.701400
C1401	C140	0.970000	0.726700	0.668960
H541	H54	0.929600	0.728700	0.656000
C1411	C141	0.979400	0.798900	0.583820
C1421	C142	0.865500	0.730700	0.541310
C1431	C143	0.892600	0.754400	0.716140
C1441	C144	0.157700	0.715300	0.726990
O731	O73	0.940700	0.838600	0.600220
O741	O74	0.034300	0.817600	0.567610
O751	O75	0.891800	0.786600	0.531740
O761	O76	0.806200	0.701400	0.532090
O771	O77	0.837600	0.733300	0.702020
O781	O78	0.894200	0.787900	0.742050
O791	O79	0.154900	0.742300	0.754300
O801	O80	0.212000	0.685100	0.714540
O811	O81	0.049400	0.709100	0.624030
C1451	C145	0.005200	0.322400	0.606150
C1461	C146	0.039200	0.279500	0.583920
C1471	C147	0.093300	0.313000	0.565320
C1481	C148	0.110200	0.382700	0.569100
H551	H55	0.146700	0.402700	0.556900
C1491	C149	0.072800	0.426800	0.591600
H561	H56	0.082600	0.475500	0.593900
C1501	C150	0.021400	0.392500	0.609740
H571	H57	0.997000	0.418900	0.625000
C1511	C151	0.962900	0.287200	0.656350
C1521	C152	0.903000	0.293700	0.675370
H581	H58	0.858700	0.305600	0.666600
C1531	C153	0.908900	0.282600	0.707040
C1541	C154	0.974100	0.264800	0.720330
H591	H59	0.977100	0.254400	0.741800
C1551	C155	0.035800	0.262300	0.701400
C1561	C156	0.030000	0.273300	0.668960
H601	H60	0.070400	0.271300	0.656000
C1571	C157	0.020600	0.201100	0.583820
C1581	C158	0.134500	0.269300	0.541310
C1591	C159	0.107400	0.245600	0.716140
C1601	C160	0.842300	0.284700	0.726990
O821	O82	0.059300	0.161400	0.600220
O831	O83	0.965700	0.182400	0.567610
O841	O84	0.108200	0.213400	0.531740
O851	O85	0.193800	0.298600	0.532090
O861	O86	0.162400	0.266700	0.702020
O871	O87	0.105800	0.212100	0.742050
O881	O88	0.845100	0.257700	0.754300
O891	O89	0.788000	0.314900	0.714540
O901	O90	0.950600	0.290900	0.624030
C1611	C161	0.822400	0.494800	0.106150
C1621	C162	0.779500	0.460800	0.083920
C1631	C163	0.813000	0.406700	0.065320
C1641	C164	0.882700	0.389800	0.069100
H611	H61	0.902700	0.353300	0.056900
C1651	C165	0.926800	0.427200	0.091600
H621	H62	0.975500	0.417400	0.093900
C1661	C166	0.892500	0.478600	0.109740
H631	H63	0.918900	0.503000	0.125000
C1671	C167	0.787200	0.537100	0.156350
C1681	C168	0.793700	0.597000	0.175370
H641	H64	0.805600	0.641300	0.166600
C1691	C169	0.782600	0.591100	0.207040
C1701	C170	0.764800	0.525900	0.220330
H651	H65	0.754400	0.522900	0.241800
C1711	C171	0.762300	0.464200	0.201400
C1721	C172	0.773300	0.470000	0.168960
H661	H66	0.771300	0.429600	0.156000
C1731	C173	0.701100	0.479400	0.083820
C1741	C174	0.769300	0.365500	0.041310
C1751	C175	0.745600	0.392600	0.216140
C1761	C176	0.784700	0.657700	0.226990
O911	O91	0.661400	0.440700	0.100220
O921	O92	0.682400	0.534300	0.067610
O931	O93	0.713400	0.391800	0.031740
O941	O94	0.798600	0.306200	0.032090
O951	O95	0.766700	0.337600	0.202020
O961	O96	0.712100	0.394200	0.242050
O971	O97	0.757700	0.654900	0.254300
O981	O98	0.814900	0.712000	0.214540
O991	O99	0.790900	0.549400	0.124030
C1771	C177	0.177600	0.505200	0.106150
C1781	C178	0.220500	0.539200	0.083920
C1791	C179	0.187000	0.593300	0.065320
C1801	C180	0.117300	0.610200	0.069100
H671	H67	0.097300	0.646700	0.056900
C1811	C181	0.073200	0.572800	0.091600
H681	H68	0.024500	0.582600	0.093900
C1821	C182	0.107500	0.521400	0.109740
H691	H69	0.081100	0.497000	0.125000
C1831	C183	0.212800	0.462900	0.156350
C1841	C184	0.206300	0.403000	0.175370
H701	H70	0.194400	0.358700	0.166600
C1851	C185	0.217400	0.408900	0.207040
C1861	C186	0.235200	0.474100	0.220330
H711	H71	0.245600	0.477100	0.241800
C1871	C187	0.237700	0.535800	0.201400
C1881	C188	0.226700	0.530000	0.168960
H721	H72	0.228700	0.570400	0.156000
C1891	C189	0.298900	0.520600	0.083820
C1901	C190	0.230700	0.634500	0.041310
C1911	C191	0.254400	0.607400	0.216140
C1921	C192	0.215300	0.342300	0.226990
O1001	O100	0.338600	0.559300	0.100220
O1011	O101	0.317600	0.465700	0.067610
O1021	O102	0.286600	0.608200	0.031740
O1031	O103	0.201400	0.693800	0.032090
O1041	O104	0.233300	0.662400	0.202020
O1051	O105	0.287900	0.605800	0.242050
O1061	O106	0.242300	0.345100	0.254300
O1071	O107	0.185100	0.288000	0.214540
O1081	O108	0.209100	0.450600	0.124030
C1931	C193	0.505200	0.177600	0.893850
C1941	C194	0.539200	0.220500	0.916080
C1951	C195	0.593300	0.187000	0.934680
C1961	C196	0.610200	0.117300	0.930900
H731	H73	0.646700	0.097300	0.943100
C1971	C197	0.572800	0.073200	0.908400
H741	H74	0.582600	0.024500	0.906100
C1981	C198	0.521400	0.107500	0.890260
H751	H75	0.497000	0.081100	0.875000
C1991	C199	0.462900	0.212800	0.843650
C2001	C200	0.403000	0.206300	0.824630
H761	H76	0.358700	0.194400	0.833400
C2011	C201	0.408900	0.217400	0.792960
C2021	C202	0.474100	0.235200	0.779670
H771	H77	0.477100	0.245600	0.758200
C2031	C203	0.535800	0.237700	0.798600
C2041	C204	0.530000	0.226700	0.831040
H781	H78	0.570400	0.228700	0.844000
C2051	C205	0.520600	0.298900	0.916180
C2061	C206	0.634500	0.230700	0.958690
C2071	C207	0.607400	0.254400	0.783860
C2081	C208	0.342300	0.215300	0.773010
O1091	O109	0.559300	0.338600	0.899780
O1101	O110	0.465700	0.317600	0.932390
O1111	O111	0.608200	0.286600	0.968260
O1121	O112	0.693800	0.201400	0.967910
O1131	O113	0.662400	0.233300	0.797980
O1141	O114	0.605800	0.287900	0.757950
O1151	O115	0.345100	0.242300	0.745700
O1161	O116	0.288000	0.185100	0.785460
O1171	O117	0.450600	0.209100	0.875970
C2091	C209	0.494800	0.822400	0.893850
C2101	C210	0.460800	0.779500	0.916080
C2111	C211	0.406700	0.813000	0.934680
C2121	C212	0.389800	0.882700	0.930900
H791	H79	0.353300	0.902700	0.943100
C2131	C213	0.427200	0.926800	0.908400
H801	H80	0.417400	0.975500	0.906100
C2141	C214	0.478600	0.892500	0.890260
H811	H81	0.503000	0.918900	0.875000
C2151	C215	0.537100	0.787200	0.843650
C2161	C216	0.597000	0.793700	0.824630
H821	H82	0.641300	0.805600	0.833400
C2171	C217	0.591100	0.782600	0.792960
C2181	C218	0.525900	0.764800	0.779670
H831	H83	0.522900	0.754400	0.758200
C2191	C219	0.464200	0.762300	0.798600
C2201	C220	0.470000	0.773300	0.831040
H841	H84	0.429600	0.771300	0.844000
C2211	C221	0.479400	0.701100	0.916180
C2221	C222	0.365500	0.769300	0.958690
C2231	C223	0.392600	0.745600	0.783860
C2241	C224	0.657700	0.784700	0.773010
O1181	O118	0.440700	0.661400	0.899780
O1191	O119	0.534300	0.682400	0.932390
O1201	O120	0.391800	0.713400	0.968260
O1211	O121	0.306200	0.798600	0.967910
O1221	O122	0.337600	0.766700	0.797980
O1231	O123	0.394200	0.712100	0.757950
O1241	O124	0.654900	0.757700	0.745700
O1251	O125	0.712000	0.814900	0.785460
O1261	O126	0.549400	0.790900	0.875970
C2251	C225	0.677600	0.994800	0.393850
C2261	C226	0.720500	0.960800	0.416080
C2271	C227	0.687000	0.906700	0.434680
C2281	C228	0.617300	0.889800	0.430900
H851	H85	0.597300	0.853300	0.443100
C2291	C229	0.573200	0.927200	0.408400
H861	H86	0.524500	0.917400	0.406100
C2301	C230	0.607500	0.978600	0.390260
H871	H87	0.581100	0.003000	0.375000
C2311	C231	0.712800	0.037100	0.343650
C2321	C232	0.706300	0.097000	0.324630
H881	H88	0.694400	0.141300	0.333400
C2331	C233	0.717400	0.091100	0.292960
C2341	C234	0.735200	0.025900	0.279670
H891	H89	0.745600	0.022900	0.258200
C2351	C235	0.737700	0.964200	0.298600
C2361	C236	0.726700	0.970000	0.331040
H901	H90	0.728700	0.929600	0.344000
C2371	C237	0.798900	0.979400	0.416180
C2381	C238	0.730700	0.865500	0.458690
C2391	C239	0.754400	0.892600	0.283860
C2401	C240	0.715300	0.157700	0.273010
O1271	O127	0.838600	0.940700	0.399780
O1281	O128	0.817600	0.034300	0.432390
O1291	O129	0.786600	0.891800	0.468260
O1301	O130	0.701400	0.806200	0.467910
O1311	O131	0.733300	0.837600	0.297980
O1321	O132	0.787900	0.894200	0.257950
O1331	O133	0.742300	0.154900	0.245700
O1341	O134	0.685100	0.212000	0.285460
O1351	O135	0.709100	0.049400	0.375970
C2411	C241	0.322400	0.005200	0.393850
C2421	C242	0.279500	0.039200	0.416080
C2431	C243	0.313000	0.093300	0.434680
C2441	C244	0.382700	0.110200	0.430900
H911	H91	0.402700	0.146700	0.443100
C2451	C245	0.426800	0.072800	0.408400
H921	H92	0.475500	0.082600	0.406100
C2461	C246	0.392500	0.021400	0.390260
H931	H93	0.418900	0.997000	0.375000
C2471	C247	0.287200	0.962900	0.343650
C2481	C248	0.293700	0.903000	0.324630
H941	H94	0.305600	0.858700	0.333400
C2491	C249	0.282600	0.908900	0.292960
C2501	C250	0.264800	0.974100	0.279670
H951	H95	0.254400	0.977100	0.258200
C2511	C251	0.262300	0.035800	0.298600
C2521	C252	0.273300	0.030000	0.331040
H961	H96	0.271300	0.070400	0.344000
C2531	C253	0.201100	0.020600	0.416180
C2541	C254	0.269300	0.134500	0.458690
C2551	C255	0.245600	0.107400	0.283860
C2561	C256	0.284700	0.842300	0.273010
O1361	O136	0.161400	0.059300	0.399780
O1371	O137	0.182400	0.965700	0.432390
O1381	O138	0.213400	0.108200	0.468260
O1391	O139	0.298600	0.193800	0.467910
O1401	O140	0.266700	0.162400	0.297980
O1411	O141	0.212100	0.105800	0.257950
O1421	O142	0.257700	0.845100	0.245700
O1431	O143	0.314900	0.788000	0.285460
O1441	O144	0.290900	0.950600	0.375970
Cu11	Cu1	0.056550	0.056550	0.395130
Cu21	Cu2	0.258590	0.258590	0.280040
Cu31	Cu3	0.191820	0.191820	0.232900
Cu41	Cu4	0.943450	0.943450	0.395130
Cu51	Cu5	0.741410	0.741410	0.280040
Cu61	Cu6	0.808180	0.808180	0.232900
Cu71	Cu7	0.443450	0.556550	0.895130
Cu81	Cu8	0.241410	0.758590	0.780040
Cu91	Cu9	0.308180	0.691820	0.732900
Cu101	Cu10	0.556550	0.443450	0.895130
Cu111	Cu11	0.758590	0.241410	0.780040
Cu121	Cu12	0.691820	0.308180	0.732900
Cu131	Cu13	0.443450	0.556550	0.104870
Cu141	Cu14	0.241410	0.758590	0.219960
Cu151	Cu15	0.308180	0.691820	0.267100
Cu161	Cu16	0.556550	0.443450	0.104870
Cu171	Cu17	0.758590	0.241410	0.219960
Cu181	Cu18	0.691820	0.308180	0.267100
Cu191	Cu19	0.056550	0.056550	0.604870
Cu201	Cu20	0.258590	0.258590	0.719960
Cu211	Cu21	0.191820	0.191820	0.767100
Cu221	Cu22	0.943450	0.943450	0.604870
Cu231	Cu23	0.741410	0.741410	0.719960
Cu241	Cu24	0.808180	0.808180	0.767100
Cu251	Cu25	0.906330	0.093670	0.432520
O1451	O145	0.950400	0.049600	0.395430
Cu261	Cu26	0.093670	0.906330	0.432520
O1461	O146	0.049600	0.950400	0.395430
Cu271	Cu27	0.406330	0.406330	0.932520
O1471	O147	0.450400	0.450400	0.895430
Cu281	Cu28	0.593670	0.593670	0.932520
O1481	O148	0.549600	0.549600	0.895430
Cu291	Cu29	0.593670	0.593670	0.067480
O1491	O149	0.549600	0.549600	0.104570
Cu301	Cu30	0.406330	0.406330	0.067480
O1501	O150	0.450400	0.450400	0.104570
Cu311	Cu31	0.093670	0.906330	0.567480
O1511	O151	0.049600	0.950400	0.604570
Cu321	Cu32	0.906330	0.093670	0.567480
O1521	O152	0.950400	0.049600	0.604570
Cu331	Cu33	0.154120	0.154120	0.500000
Cu341	Cu34	0.254970	0.254970	0.500000
Cu351	Cu35	0.845880	0.845880	0.500000
Cu361	Cu36	0.745030	0.745030	0.500000
Cu371	Cu37	0.345880	0.654120	0.000000
Cu381	Cu38	0.245030	0.754970	0.000000
Cu391	Cu39	0.654120	0.345880	0.000000
Cu401	Cu40	0.754970	0.245030	0.000000
