data_EJOQOL_clean_PM
_symmetry_space_group_name_H-M	'P1'
_cell_length_a	27.534000
_cell_length_b	21.630000
_cell_length_c	19.296800
_cell_angle_alpha	90.000000
_cell_angle_beta	120.527000
_cell_angle_gamma	90.000000
_symmetry_Int_Tables_number 1

loop_
_symmetry_equiv_pos_as_xyz
'x,y,z'

loop_
_atom_site_label
_atom_site_type_symbol
_atom_site_fract_x
_atom_site_fract_y
_atom_site_fract_z
Cu11	Cu1	0.120880	0.173350	0.131090
Cu21	Cu2	0.213690	0.111780	0.165280
Cu31	Cu3	0.189760	0.182030	0.412580
K11	K1	0.086380	0.243180	0.315570
C11	C1	0.105230	0.993400	0.251800
C21	C2	0.150840	0.030100	0.297900
C31	C3	0.184100	0.017200	0.380000
C41	C4	0.169400	0.966900	0.412800
H11	H1	0.191900	0.956900	0.466900
C51	C5	0.122000	0.933100	0.364400
H21	H2	0.111900	0.900800	0.386300
C61	C6	0.088400	0.946500	0.282500
H31	H3	0.055600	0.924300	0.249900
C71	C7	0.021270	0.010800	0.126800
C81	C8	0.998100	0.062100	0.142300
H41	H4	0.020800	0.088600	0.184500
C91	C9	0.940300	0.073800	0.094000
C101	C10	0.907200	0.033000	0.031600
H51	H5	0.868600	0.039800	0.999600
C111	C11	0.931700	0.982160	0.017200
C121	C12	0.988250	0.971200	0.064900
H61	H6	0.004300	0.936900	0.055300
C131	C13	0.164880	0.078600	0.255400
C141	C14	0.233300	0.056300	0.435100
C151	C15	0.894840	0.937600	0.952000
C161	C16	0.914000	0.128200	0.108800
C171	C17	0.230400	0.174800	0.777600
C181	C18	0.246700	0.208000	0.731300
C191	C19	0.234100	0.183700	0.655900
C201	C20	0.205000	0.128300	0.631000
H71	H7	0.196200	0.112100	0.581200
C211	C21	0.188800	0.096000	0.678100
H81	H8	0.169200	0.059000	0.659800
C221	C22	0.201700	0.119200	0.752300
H91	H9	0.191400	0.097900	0.784600
C231	C23	0.208000	0.215700	0.871100
C241	C24	0.167800	0.259000	0.822400
H101	H10	0.166200	0.272600	0.775500
C251	C25	0.131200	0.281400	0.842900
C261	C26	0.132300	0.260300	0.913000
H111	H11	0.106700	0.275600	0.926700
C271	C27	0.171000	0.217400	0.959900
C281	C28	0.209600	0.194700	0.939800
H121	H12	0.236300	0.165500	0.972400
C291	C29	0.280300	0.264700	0.767000
C301	C30	0.252000	0.215700	0.605000
C311	C31	0.172400	0.191600	0.032900
C321	C32	0.091000	0.329600	0.792800
O11	O1	0.131220	0.123510	0.225130
O21	O2	0.206370	0.067430	0.247320
O31	O3	0.234070	0.111300	0.414620
O41	O4	0.270400	0.033700	0.498500
O51	O5	0.919780	0.893960	0.940360
O61	O6	0.842930	0.946370	0.914950
O71	O7	0.861440	0.127490	0.075800
O81	O8	0.944300	0.169400	0.149600
O91	O9	0.078540	0.000810	0.168010
O101	O10	0.253340	0.312970	0.765090
O111	O11	0.332870	0.259820	0.801090
O121	O12	0.268900	0.270540	0.624000
O131	O13	0.251400	0.186400	0.548800
O141	O14	0.211580	0.155710	0.076590
O151	O15	0.131960	0.206760	0.043550
O161	O16	0.054700	0.348500	0.811800
O171	O17	0.093600	0.352400	0.736300
O181	O18	0.249050	0.195440	0.855610
O191	O19	0.144000	0.252400	0.403300
Cu41	Cu4	0.620880	0.673350	0.131090
Cu51	Cu5	0.713690	0.611780	0.165280
Cu61	Cu6	0.689760	0.682030	0.412580
K21	K2	0.586380	0.743180	0.315570
C331	C33	0.605230	0.493400	0.251800
C341	C34	0.650840	0.530100	0.297900
C351	C35	0.684100	0.517200	0.380000
C361	C36	0.669400	0.466900	0.412800
H131	H13	0.691900	0.456900	0.466900
C371	C37	0.622000	0.433100	0.364400
H141	H14	0.611900	0.400800	0.386300
C381	C38	0.588400	0.446500	0.282500
H151	H15	0.555600	0.424300	0.249900
C391	C39	0.521270	0.510800	0.126800
C401	C40	0.498100	0.562100	0.142300
H161	H16	0.520800	0.588600	0.184500
C411	C41	0.440300	0.573800	0.094000
C421	C42	0.407200	0.533000	0.031600
H171	H17	0.368600	0.539800	0.999600
C431	C43	0.431700	0.482160	0.017200
C441	C44	0.488250	0.471200	0.064900
H181	H18	0.504300	0.436900	0.055300
C451	C45	0.664880	0.578600	0.255400
C461	C46	0.733300	0.556300	0.435100
C471	C47	0.394840	0.437600	0.952000
C481	C48	0.414000	0.628200	0.108800
C491	C49	0.730400	0.674800	0.777600
C501	C50	0.746700	0.708000	0.731300
C511	C51	0.734100	0.683700	0.655900
C521	C52	0.705000	0.628300	0.631000
H191	H19	0.696200	0.612100	0.581200
C531	C53	0.688800	0.596000	0.678100
H201	H20	0.669200	0.559000	0.659800
C541	C54	0.701700	0.619200	0.752300
H211	H21	0.691400	0.597900	0.784600
C551	C55	0.708000	0.715700	0.871100
C561	C56	0.667800	0.759000	0.822400
H221	H22	0.666200	0.772600	0.775500
C571	C57	0.631200	0.781400	0.842900
C581	C58	0.632300	0.760300	0.913000
H231	H23	0.606700	0.775600	0.926700
C591	C59	0.671000	0.717400	0.959900
C601	C60	0.709600	0.694700	0.939800
H241	H24	0.736300	0.665500	0.972400
C611	C61	0.780300	0.764700	0.767000
C621	C62	0.752000	0.715700	0.605000
C631	C63	0.672400	0.691600	0.032900
C641	C64	0.591000	0.829600	0.792800
O201	O20	0.631220	0.623510	0.225130
O211	O21	0.706370	0.567430	0.247320
O221	O22	0.734070	0.611300	0.414620
O231	O23	0.770400	0.533700	0.498500
O241	O24	0.419780	0.393960	0.940360
O251	O25	0.342930	0.446370	0.914950
O261	O26	0.361440	0.627490	0.075800
O271	O27	0.444300	0.669400	0.149600
O281	O28	0.578540	0.500810	0.168010
O291	O29	0.753340	0.812970	0.765090
O301	O30	0.832870	0.759820	0.801090
O311	O31	0.768900	0.770540	0.624000
O321	O32	0.751400	0.686400	0.548800
O331	O33	0.711580	0.655710	0.076590
O341	O34	0.631960	0.706760	0.043550
O351	O35	0.554700	0.848500	0.811800
O361	O36	0.593600	0.852400	0.736300
O371	O37	0.749050	0.695440	0.855610
O381	O38	0.644000	0.752400	0.403300
Cu71	Cu7	0.879120	0.173350	0.368910
Cu81	Cu8	0.786310	0.111780	0.334720
Cu91	Cu9	0.810240	0.182030	0.087420
K31	K3	0.913620	0.243180	0.184430
C651	C65	0.894770	0.993400	0.248200
C661	C66	0.849160	0.030100	0.202100
C671	C67	0.815900	0.017200	0.120000
C681	C68	0.830600	0.966900	0.087200
H251	H25	0.808100	0.956900	0.033100
C691	C69	0.878000	0.933100	0.135600
H261	H26	0.888100	0.900800	0.113700
C701	C70	0.911600	0.946500	0.217500
H271	H27	0.944400	0.924300	0.250100
C711	C71	0.978730	0.010800	0.373200
C721	C72	0.001900	0.062100	0.357700
H281	H28	0.979200	0.088600	0.315500
C731	C73	0.059700	0.073800	0.406000
C741	C74	0.092800	0.033000	0.468400
H291	H29	0.131400	0.039800	0.500400
C751	C75	0.068300	0.982160	0.482800
C761	C76	0.011750	0.971200	0.435100
H301	H30	0.995700	0.936900	0.444700
C771	C77	0.835120	0.078600	0.244600
C781	C78	0.766700	0.056300	0.064900
C791	C79	0.105160	0.937600	0.548000
C801	C80	0.086000	0.128200	0.391200
C811	C81	0.769600	0.174800	0.722400
C821	C82	0.753300	0.208000	0.768700
C831	C83	0.765900	0.183700	0.844100
C841	C84	0.795000	0.128300	0.869000
H311	H31	0.803800	0.112100	0.918800
C851	C85	0.811200	0.096000	0.821900
H321	H32	0.830800	0.059000	0.840200
C861	C86	0.798300	0.119200	0.747700
H331	H33	0.808600	0.097900	0.715400
C871	C87	0.792000	0.215700	0.628900
C881	C88	0.832200	0.259000	0.677600
H341	H34	0.833800	0.272600	0.724500
C891	C89	0.868800	0.281400	0.657100
C901	C90	0.867700	0.260300	0.587000
H351	H35	0.893300	0.275600	0.573300
C911	C91	0.829000	0.217400	0.540100
C921	C92	0.790400	0.194700	0.560200
H361	H36	0.763700	0.165500	0.527600
C931	C93	0.719700	0.264700	0.733000
C941	C94	0.748000	0.215700	0.895000
C951	C95	0.827600	0.191600	0.467100
C961	C96	0.909000	0.329600	0.707200
O391	O39	0.868780	0.123510	0.274870
O401	O40	0.793630	0.067430	0.252680
O411	O41	0.765930	0.111300	0.085380
O421	O42	0.729600	0.033700	0.001500
O431	O43	0.080220	0.893960	0.559640
O441	O44	0.157070	0.946370	0.585050
O451	O45	0.138560	0.127490	0.424200
O461	O46	0.055700	0.169400	0.350400
O471	O47	0.921460	0.000810	0.331990
O481	O48	0.746660	0.312970	0.734910
O491	O49	0.667130	0.259820	0.698910
O501	O50	0.731100	0.270540	0.876000
O511	O51	0.748600	0.186400	0.951200
O521	O52	0.788420	0.155710	0.423410
O531	O53	0.868040	0.206760	0.456450
O541	O54	0.945300	0.348500	0.688200
O551	O55	0.906400	0.352400	0.763700
O561	O56	0.750950	0.195440	0.644390
O571	O57	0.856000	0.252400	0.096700
Cu101	Cu10	0.379120	0.673350	0.368910
Cu111	Cu11	0.286310	0.611780	0.334720
Cu121	Cu12	0.310240	0.682030	0.087420
K41	K4	0.413620	0.743180	0.184430
C971	C97	0.394770	0.493400	0.248200
C981	C98	0.349160	0.530100	0.202100
C991	C99	0.315900	0.517200	0.120000
C1001	C100	0.330600	0.466900	0.087200
H371	H37	0.308100	0.456900	0.033100
C1011	C101	0.378000	0.433100	0.135600
H381	H38	0.388100	0.400800	0.113700
C1021	C102	0.411600	0.446500	0.217500
H391	H39	0.444400	0.424300	0.250100
C1031	C103	0.478730	0.510800	0.373200
C1041	C104	0.501900	0.562100	0.357700
H401	H40	0.479200	0.588600	0.315500
C1051	C105	0.559700	0.573800	0.406000
C1061	C106	0.592800	0.533000	0.468400
H411	H41	0.631400	0.539800	0.500400
C1071	C107	0.568300	0.482160	0.482800
C1081	C108	0.511750	0.471200	0.435100
H421	H42	0.495700	0.436900	0.444700
C1091	C109	0.335120	0.578600	0.244600
C1101	C110	0.266700	0.556300	0.064900
C1111	C111	0.605160	0.437600	0.548000
C1121	C112	0.586000	0.628200	0.391200
C1131	C113	0.269600	0.674800	0.722400
C1141	C114	0.253300	0.708000	0.768700
C1151	C115	0.265900	0.683700	0.844100
C1161	C116	0.295000	0.628300	0.869000
H431	H43	0.303800	0.612100	0.918800
C1171	C117	0.311200	0.596000	0.821900
H441	H44	0.330800	0.559000	0.840200
C1181	C118	0.298300	0.619200	0.747700
H451	H45	0.308600	0.597900	0.715400
C1191	C119	0.292000	0.715700	0.628900
C1201	C120	0.332200	0.759000	0.677600
H461	H46	0.333800	0.772600	0.724500
C1211	C121	0.368800	0.781400	0.657100
C1221	C122	0.367700	0.760300	0.587000
H471	H47	0.393300	0.775600	0.573300
C1231	C123	0.329000	0.717400	0.540100
C1241	C124	0.290400	0.694700	0.560200
H481	H48	0.263700	0.665500	0.527600
C1251	C125	0.219700	0.764700	0.733000
C1261	C126	0.248000	0.715700	0.895000
C1271	C127	0.327600	0.691600	0.467100
C1281	C128	0.409000	0.829600	0.707200
O581	O58	0.368780	0.623510	0.274870
O591	O59	0.293630	0.567430	0.252680
O601	O60	0.265930	0.611300	0.085380
O611	O61	0.229600	0.533700	0.001500
O621	O62	0.580220	0.393960	0.559640
O631	O63	0.657070	0.446370	0.585050
O641	O64	0.638560	0.627490	0.424200
O651	O65	0.555700	0.669400	0.350400
O661	O66	0.421460	0.500810	0.331990
O671	O67	0.246660	0.812970	0.734910
O681	O68	0.167130	0.759820	0.698910
O691	O69	0.231100	0.770540	0.876000
O701	O70	0.248600	0.686400	0.951200
O711	O71	0.288420	0.655710	0.423410
O721	O72	0.368040	0.706760	0.456450
O731	O73	0.445300	0.848500	0.688200
O741	O74	0.406400	0.852400	0.763700
O751	O75	0.250950	0.695440	0.644390
O761	O76	0.356000	0.752400	0.096700
Cu131	Cu13	0.879120	0.826650	0.868910
Cu141	Cu14	0.786310	0.888220	0.834720
Cu151	Cu15	0.810240	0.817970	0.587420
K51	K5	0.913620	0.756820	0.684430
C1291	C129	0.894770	0.006600	0.748200
C1301	C130	0.849160	0.969900	0.702100
C1311	C131	0.815900	0.982800	0.620000
C1321	C132	0.830600	0.033100	0.587200
H491	H49	0.808100	0.043100	0.533100
C1331	C133	0.878000	0.066900	0.635600
H501	H50	0.888100	0.099200	0.613700
C1341	C134	0.911600	0.053500	0.717500
H511	H51	0.944400	0.075700	0.750100
C1351	C135	0.978730	0.989200	0.873200
C1361	C136	0.001900	0.937900	0.857700
H521	H52	0.979200	0.911400	0.815500
C1371	C137	0.059700	0.926200	0.906000
C1381	C138	0.092800	0.967000	0.968400
H531	H53	0.131400	0.960200	0.000400
C1391	C139	0.068300	0.017840	0.982800
C1401	C140	0.011750	0.028800	0.935100
H541	H54	0.995700	0.063100	0.944700
C1411	C141	0.835120	0.921400	0.744600
C1421	C142	0.766700	0.943700	0.564900
C1431	C143	0.105160	0.062400	0.048000
C1441	C144	0.086000	0.871800	0.891200
C1451	C145	0.769600	0.825200	0.222400
C1461	C146	0.753300	0.792000	0.268700
C1471	C147	0.765900	0.816300	0.344100
C1481	C148	0.795000	0.871700	0.369000
H551	H55	0.803800	0.887900	0.418800
C1491	C149	0.811200	0.904000	0.321900
H561	H56	0.830800	0.941000	0.340200
C1501	C150	0.798300	0.880800	0.247700
H571	H57	0.808600	0.902100	0.215400
C1511	C151	0.792000	0.784300	0.128900
C1521	C152	0.832200	0.741000	0.177600
H581	H58	0.833800	0.727400	0.224500
C1531	C153	0.868800	0.718600	0.157100
C1541	C154	0.867700	0.739700	0.087000
H591	H59	0.893300	0.724400	0.073300
C1551	C155	0.829000	0.782600	0.040100
C1561	C156	0.790400	0.805300	0.060200
H601	H60	0.763700	0.834500	0.027600
C1571	C157	0.719700	0.735300	0.233000
C1581	C158	0.748000	0.784300	0.395000
C1591	C159	0.827600	0.808400	0.967100
C1601	C160	0.909000	0.670400	0.207200
O771	O77	0.868780	0.876490	0.774870
O781	O78	0.793630	0.932570	0.752680
O791	O79	0.765930	0.888700	0.585380
O801	O80	0.729600	0.966300	0.501500
O811	O81	0.080220	0.106040	0.059640
O821	O82	0.157070	0.053630	0.085050
O831	O83	0.138560	0.872510	0.924200
O841	O84	0.055700	0.830600	0.850400
O851	O85	0.921460	0.999190	0.831990
O861	O86	0.746660	0.687030	0.234910
O871	O87	0.667130	0.740180	0.198910
O881	O88	0.731100	0.729460	0.376000
O891	O89	0.748600	0.813600	0.451200
O901	O90	0.788420	0.844290	0.923410
O911	O91	0.868040	0.793240	0.956450
O921	O92	0.945300	0.651500	0.188200
O931	O93	0.906400	0.647600	0.263700
O941	O94	0.750950	0.804560	0.144390
O951	O95	0.856000	0.747600	0.596700
Cu161	Cu16	0.379120	0.326650	0.868910
Cu171	Cu17	0.286310	0.388220	0.834720
Cu181	Cu18	0.310240	0.317970	0.587420
K61	K6	0.413620	0.256820	0.684430
C1611	C161	0.394770	0.506600	0.748200
C1621	C162	0.349160	0.469900	0.702100
C1631	C163	0.315900	0.482800	0.620000
C1641	C164	0.330600	0.533100	0.587200
H611	H61	0.308100	0.543100	0.533100
C1651	C165	0.378000	0.566900	0.635600
H621	H62	0.388100	0.599200	0.613700
C1661	C166	0.411600	0.553500	0.717500
H631	H63	0.444400	0.575700	0.750100
C1671	C167	0.478730	0.489200	0.873200
C1681	C168	0.501900	0.437900	0.857700
H641	H64	0.479200	0.411400	0.815500
C1691	C169	0.559700	0.426200	0.906000
C1701	C170	0.592800	0.467000	0.968400
H651	H65	0.631400	0.460200	0.000400
C1711	C171	0.568300	0.517840	0.982800
C1721	C172	0.511750	0.528800	0.935100
H661	H66	0.495700	0.563100	0.944700
C1731	C173	0.335120	0.421400	0.744600
C1741	C174	0.266700	0.443700	0.564900
C1751	C175	0.605160	0.562400	0.048000
C1761	C176	0.586000	0.371800	0.891200
C1771	C177	0.269600	0.325200	0.222400
C1781	C178	0.253300	0.292000	0.268700
C1791	C179	0.265900	0.316300	0.344100
C1801	C180	0.295000	0.371700	0.369000
H671	H67	0.303800	0.387900	0.418800
C1811	C181	0.311200	0.404000	0.321900
H681	H68	0.330800	0.441000	0.340200
C1821	C182	0.298300	0.380800	0.247700
H691	H69	0.308600	0.402100	0.215400
C1831	C183	0.292000	0.284300	0.128900
C1841	C184	0.332200	0.241000	0.177600
H701	H70	0.333800	0.227400	0.224500
C1851	C185	0.368800	0.218600	0.157100
C1861	C186	0.367700	0.239700	0.087000
H711	H71	0.393300	0.224400	0.073300
C1871	C187	0.329000	0.282600	0.040100
C1881	C188	0.290400	0.305300	0.060200
H721	H72	0.263700	0.334500	0.027600
C1891	C189	0.219700	0.235300	0.233000
C1901	C190	0.248000	0.284300	0.395000
C1911	C191	0.327600	0.308400	0.967100
C1921	C192	0.409000	0.170400	0.207200
O961	O96	0.368780	0.376490	0.774870
O971	O97	0.293630	0.432570	0.752680
O981	O98	0.265930	0.388700	0.585380
O991	O99	0.229600	0.466300	0.501500
O1001	O100	0.580220	0.606040	0.059640
O1011	O101	0.657070	0.553630	0.085050
O1021	O102	0.638560	0.372510	0.924200
O1031	O103	0.555700	0.330600	0.850400
O1041	O104	0.421460	0.499190	0.831990
O1051	O105	0.246660	0.187030	0.234910
O1061	O106	0.167130	0.240180	0.198910
O1071	O107	0.231100	0.229460	0.376000
O1081	O108	0.248600	0.313600	0.451200
O1091	O109	0.288420	0.344290	0.923410
O1101	O110	0.368040	0.293240	0.956450
O1111	O111	0.445300	0.151500	0.188200
O1121	O112	0.406400	0.147600	0.263700
O1131	O113	0.250950	0.304560	0.144390
O1141	O114	0.356000	0.247600	0.596700
Cu191	Cu19	0.120880	0.826650	0.631090
Cu201	Cu20	0.213690	0.888220	0.665280
Cu211	Cu21	0.189760	0.817970	0.912580
K71	K7	0.086380	0.756820	0.815570
C1931	C193	0.105230	0.006600	0.751800
C1941	C194	0.150840	0.969900	0.797900
C1951	C195	0.184100	0.982800	0.880000
C1961	C196	0.169400	0.033100	0.912800
H731	H73	0.191900	0.043100	0.966900
C1971	C197	0.122000	0.066900	0.864400
H741	H74	0.111900	0.099200	0.886300
C1981	C198	0.088400	0.053500	0.782500
H751	H75	0.055600	0.075700	0.749900
C1991	C199	0.021270	0.989200	0.626800
C2001	C200	0.998100	0.937900	0.642300
H761	H76	0.020800	0.911400	0.684500
C2011	C201	0.940300	0.926200	0.594000
C2021	C202	0.907200	0.967000	0.531600
H771	H77	0.868600	0.960200	0.499600
C2031	C203	0.931700	0.017840	0.517200
C2041	C204	0.988250	0.028800	0.564900
H781	H78	0.004300	0.063100	0.555300
C2051	C205	0.164880	0.921400	0.755400
C2061	C206	0.233300	0.943700	0.935100
C2071	C207	0.894840	0.062400	0.452000
C2081	C208	0.914000	0.871800	0.608800
C2091	C209	0.230400	0.825200	0.277600
C2101	C210	0.246700	0.792000	0.231300
C2111	C211	0.234100	0.816300	0.155900
C2121	C212	0.205000	0.871700	0.131000
H791	H79	0.196200	0.887900	0.081200
C2131	C213	0.188800	0.904000	0.178100
H801	H80	0.169200	0.941000	0.159800
C2141	C214	0.201700	0.880800	0.252300
H811	H81	0.191400	0.902100	0.284600
C2151	C215	0.208000	0.784300	0.371100
C2161	C216	0.167800	0.741000	0.322400
H821	H82	0.166200	0.727400	0.275500
C2171	C217	0.131200	0.718600	0.342900
C2181	C218	0.132300	0.739700	0.413000
H831	H83	0.106700	0.724400	0.426700
C2191	C219	0.171000	0.782600	0.459900
C2201	C220	0.209600	0.805300	0.439800
H841	H84	0.236300	0.834500	0.472400
C2211	C221	0.280300	0.735300	0.267000
C2221	C222	0.252000	0.784300	0.105000
C2231	C223	0.172400	0.808400	0.532900
C2241	C224	0.091000	0.670400	0.292800
O1151	O115	0.131220	0.876490	0.725130
O1161	O116	0.206370	0.932570	0.747320
O1171	O117	0.234070	0.888700	0.914620
O1181	O118	0.270400	0.966300	0.998500
O1191	O119	0.919780	0.106040	0.440360
O1201	O120	0.842930	0.053630	0.414950
O1211	O121	0.861440	0.872510	0.575800
O1221	O122	0.944300	0.830600	0.649600
O1231	O123	0.078540	0.999190	0.668010
O1241	O124	0.253340	0.687030	0.265090
O1251	O125	0.332870	0.740180	0.301090
O1261	O126	0.268900	0.729460	0.124000
O1271	O127	0.251400	0.813600	0.048800
O1281	O128	0.211580	0.844290	0.576590
O1291	O129	0.131960	0.793240	0.543550
O1301	O130	0.054700	0.651500	0.311800
O1311	O131	0.093600	0.647600	0.236300
O1321	O132	0.249050	0.804560	0.355610
O1331	O133	0.144000	0.747600	0.903300
Cu221	Cu22	0.620880	0.326650	0.631090
Cu231	Cu23	0.713690	0.388220	0.665280
Cu241	Cu24	0.689760	0.317970	0.912580
K81	K8	0.586380	0.256820	0.815570
C2251	C225	0.605230	0.506600	0.751800
C2261	C226	0.650840	0.469900	0.797900
C2271	C227	0.684100	0.482800	0.880000
C2281	C228	0.669400	0.533100	0.912800
H851	H85	0.691900	0.543100	0.966900
C2291	C229	0.622000	0.566900	0.864400
H861	H86	0.611900	0.599200	0.886300
C2301	C230	0.588400	0.553500	0.782500
H871	H87	0.555600	0.575700	0.749900
C2311	C231	0.521270	0.489200	0.626800
C2321	C232	0.498100	0.437900	0.642300
H881	H88	0.520800	0.411400	0.684500
C2331	C233	0.440300	0.426200	0.594000
C2341	C234	0.407200	0.467000	0.531600
H891	H89	0.368600	0.460200	0.499600
C2351	C235	0.431700	0.517840	0.517200
C2361	C236	0.488250	0.528800	0.564900
H901	H90	0.504300	0.563100	0.555300
C2371	C237	0.664880	0.421400	0.755400
C2381	C238	0.733300	0.443700	0.935100
C2391	C239	0.394840	0.562400	0.452000
C2401	C240	0.414000	0.371800	0.608800
C2411	C241	0.730400	0.325200	0.277600
C2421	C242	0.746700	0.292000	0.231300
C2431	C243	0.734100	0.316300	0.155900
C2441	C244	0.705000	0.371700	0.131000
H911	H91	0.696200	0.387900	0.081200
C2451	C245	0.688800	0.404000	0.178100
H921	H92	0.669200	0.441000	0.159800
C2461	C246	0.701700	0.380800	0.252300
H931	H93	0.691400	0.402100	0.284600
C2471	C247	0.708000	0.284300	0.371100
C2481	C248	0.667800	0.241000	0.322400
H941	H94	0.666200	0.227400	0.275500
C2491	C249	0.631200	0.218600	0.342900
C2501	C250	0.632300	0.239700	0.413000
H951	H95	0.606700	0.224400	0.426700
C2511	C251	0.671000	0.282600	0.459900
C2521	C252	0.709600	0.305300	0.439800
H961	H96	0.736300	0.334500	0.472400
C2531	C253	0.780300	0.235300	0.267000
C2541	C254	0.752000	0.284300	0.105000
C2551	C255	0.672400	0.308400	0.532900
C2561	C256	0.591000	0.170400	0.292800
O1341	O134	0.631220	0.376490	0.725130
O1351	O135	0.706370	0.432570	0.747320
O1361	O136	0.734070	0.388700	0.914620
O1371	O137	0.770400	0.466300	0.998500
O1381	O138	0.419780	0.606040	0.440360
O1391	O139	0.342930	0.553630	0.414950
O1401	O140	0.361440	0.372510	0.575800
O1411	O141	0.444300	0.330600	0.649600
O1421	O142	0.578540	0.499190	0.668010
O1431	O143	0.753340	0.187030	0.265090
O1441	O144	0.832870	0.240180	0.301090
O1451	O145	0.768900	0.229460	0.124000
O1461	O146	0.751400	0.313600	0.048800
O1471	O147	0.711580	0.344290	0.576590
O1481	O148	0.631960	0.293240	0.543550
O1491	O149	0.554700	0.151500	0.311800
O1501	O150	0.593600	0.147600	0.236300
O1511	O151	0.749050	0.304560	0.355610
O1521	O152	0.644000	0.247600	0.903300
Cu251	Cu25	0.000000	0.410270	0.750000
Cu261	Cu26	0.500000	0.910270	0.750000
Cu271	Cu27	0.000000	0.589730	0.250000
Cu281	Cu28	0.500000	0.089730	0.250000
