data_EJORAY_clean_PM
_symmetry_space_group_name_H-M	'P1'
_cell_length_a	10.788000
_cell_length_b	11.252000
_cell_length_c	11.840000
_cell_angle_alpha	100.854000
_cell_angle_beta	110.289000
_cell_angle_gamma	99.777000
_symmetry_Int_Tables_number 1

loop_
_symmetry_equiv_pos_as_xyz
'x,y,z'

loop_
_atom_site_label
_atom_site_type_symbol
_atom_site_fract_x
_atom_site_fract_y
_atom_site_fract_z
Cu11	Cu1	0.642930	0.509990	0.011280
Cu21	Cu2	0.560860	0.385000	0.210960
C11	C1	0.124800	0.073700	0.431700
C21	C2	0.182200	0.188200	0.518300
H11	H1	0.165000	0.260300	0.495500
C31	C3	0.266800	0.195900	0.640900
C41	C4	0.294200	0.086400	0.674000
C51	C5	0.234400	0.972600	0.584200
H21	H2	0.252300	0.900000	0.605700
C61	C6	0.148000	0.964000	0.462100
C71	C7	0.038800	0.163600	0.261600
C81	C8	0.150800	0.212700	0.238400
H31	H3	0.228700	0.183000	0.262700
C91	C9	0.145000	0.307100	0.178000
C101	C10	0.029100	0.351900	0.142600
H41	H4	0.024700	0.413500	0.099900
C111	C11	0.918800	0.303900	0.171300
C121	C12	0.923200	0.207900	0.231000
H51	H5	0.850000	0.174600	0.249700
C131	C13	0.315700	0.324400	0.732700
C141	C14	0.389800	0.091300	0.803200
C151	C15	0.796700	0.357900	0.142200
C161	C16	0.266100	0.360200	0.150800
O11	O1	0.397500	0.407000	0.718300
O21	O2	0.262630	0.340260	0.811550
O31	O3	0.471200	0.190500	0.875510
O41	O4	0.384400	0.986360	0.830340
O51	O5	0.729800	0.346400	0.208940
O61	O6	0.774110	0.411160	0.055820
O71	O7	0.245080	0.422000	0.070790
O81	O8	0.377600	0.339200	0.210320
O91	O9	0.035900	0.058650	0.310100
O101	O10	0.499590	0.399880	0.041480
Cu31	Cu3	0.357070	0.490010	0.988720
Cu41	Cu4	0.439140	0.615000	0.789040
C171	C17	0.875200	0.926300	0.568300
C181	C18	0.817800	0.811800	0.481700
H61	H6	0.835000	0.739700	0.504500
C191	C19	0.733200	0.804100	0.359100
C201	C20	0.705800	0.913600	0.326000
C211	C21	0.765600	0.027400	0.415800
H71	H7	0.747700	0.100000	0.394300
C221	C22	0.852000	0.036000	0.537900
C231	C23	0.961200	0.836400	0.738400
C241	C24	0.849200	0.787300	0.761600
H81	H8	0.771300	0.817000	0.737300
C251	C25	0.855000	0.692900	0.822000
C261	C26	0.970900	0.648100	0.857400
H91	H9	0.975300	0.586500	0.900100
C271	C27	0.081200	0.696100	0.828700
C281	C28	0.076800	0.792100	0.769000
H101	H10	0.150000	0.825400	0.750300
C291	C29	0.684300	0.675600	0.267300
C301	C30	0.610200	0.908700	0.196800
C311	C31	0.203300	0.642100	0.857800
C321	C32	0.733900	0.639800	0.849200
O111	O11	0.602500	0.593000	0.281700
O121	O12	0.737370	0.659740	0.188450
O131	O13	0.528800	0.809500	0.124490
O141	O14	0.615600	0.013640	0.169660
O151	O15	0.270200	0.653600	0.791060
O161	O16	0.225890	0.588840	0.944180
O171	O17	0.754920	0.578000	0.929210
O181	O18	0.622400	0.660800	0.789680
O191	O19	0.964100	0.941350	0.689900
O201	O20	0.500410	0.600120	0.958520
Cu51	Cu5	0.500000	0.000000	0.000000
