data_EJULUS_clean_PM
_symmetry_space_group_name_H-M	'P1'
_cell_length_a	12.321400
_cell_length_b	12.321400
_cell_length_c	26.002600
_cell_angle_alpha	90.000000
_cell_angle_beta	90.000000
_cell_angle_gamma	90.000000
_symmetry_Int_Tables_number 1

loop_
_symmetry_equiv_pos_as_xyz
'x,y,z'

loop_
_atom_site_label
_atom_site_type_symbol
_atom_site_fract_x
_atom_site_fract_y
_atom_site_fract_z
Co11	Co1	0.193670	0.298590	0.315980
C11	C1	0.176600	0.381900	0.404400
C21	C2	0.170400	0.442000	0.454000
C31	C3	0.161000	0.555900	0.454400
H11	H1	0.157800	0.594900	0.423800
C41	C4	0.295700	0.011300	0.253700
H21	H2	0.317400	0.969500	0.225800
C51	C5	0.249700	0.058000	0.327900
N11	N1	0.246000	0.147700	0.299540
N21	N2	0.281400	0.970200	0.301000
N31	N3	0.221400	0.054900	0.378700
H31	H3	0.199800	0.113100	0.393900
H41	H4	0.225200	0.994900	0.395500
N41	N4	0.276300	0.115800	0.250420
O11	O1	0.168900	0.281200	0.403500
O21	O2	0.188800	0.436500	0.362940
Co21	Co2	0.693670	0.798590	0.815980
C61	C6	0.676600	0.881900	0.904400
C71	C7	0.670400	0.942000	0.954000
C81	C8	0.661000	0.055900	0.954400
H51	H5	0.657800	0.094900	0.923800
C91	C9	0.795700	0.511300	0.753700
H61	H6	0.817400	0.469500	0.725800
C101	C10	0.749700	0.558000	0.827900
N51	N5	0.746000	0.647700	0.799540
N61	N6	0.781400	0.470200	0.801000
N71	N7	0.721400	0.554900	0.878700
H71	H7	0.699800	0.613100	0.893900
H81	H8	0.725200	0.494900	0.895500
N81	N8	0.776300	0.615800	0.750420
O31	O3	0.668900	0.781200	0.903500
O41	O4	0.688800	0.936500	0.862940
Co31	Co3	0.806330	0.701410	0.315980
C111	C11	0.823400	0.618100	0.404400
C121	C12	0.829600	0.558000	0.454000
C131	C13	0.839000	0.444100	0.454400
H91	H9	0.842200	0.405100	0.423800
C141	C14	0.704300	0.988700	0.253700
H101	H10	0.682600	0.030500	0.225800
C151	C15	0.750300	0.942000	0.327900
N91	N9	0.754000	0.852300	0.299540
N101	N10	0.718600	0.029800	0.301000
N111	N11	0.778600	0.945100	0.378700
H111	H11	0.800200	0.886900	0.393900
H121	H12	0.774800	0.005100	0.395500
N121	N12	0.723700	0.884200	0.250420
O51	O5	0.831100	0.718800	0.403500
O61	O6	0.811200	0.563500	0.362940
Co41	Co4	0.306330	0.201410	0.815980
C161	C16	0.323400	0.118100	0.904400
C171	C17	0.329600	0.058000	0.954000
C181	C18	0.339000	0.944100	0.954400
H131	H13	0.342200	0.905100	0.923800
C191	C19	0.204300	0.488700	0.753700
H141	H14	0.182600	0.530500	0.725800
C201	C20	0.250300	0.442000	0.827900
N131	N13	0.254000	0.352300	0.799540
N141	N14	0.218600	0.529800	0.801000
N151	N15	0.278600	0.445100	0.878700
H151	H15	0.300200	0.386900	0.893900
H161	H16	0.274800	0.505100	0.895500
N161	N16	0.223700	0.384200	0.750420
O71	O7	0.331100	0.218800	0.903500
O81	O8	0.311200	0.063500	0.862940
Co51	Co5	0.701410	0.193670	0.315980
C211	C21	0.618100	0.176600	0.404400
C221	C22	0.558000	0.170400	0.454000
C231	C23	0.444100	0.161000	0.454400
H171	H17	0.405100	0.157800	0.423800
C241	C24	0.988700	0.295700	0.253700
H181	H18	0.030500	0.317400	0.225800
C251	C25	0.942000	0.249700	0.327900
N171	N17	0.852300	0.246000	0.299540
N181	N18	0.029800	0.281400	0.301000
N191	N19	0.945100	0.221400	0.378700
H191	H19	0.886900	0.199800	0.393900
H201	H20	0.005100	0.225200	0.395500
N201	N20	0.884200	0.276300	0.250420
O91	O9	0.718800	0.168900	0.403500
O101	O10	0.563500	0.188800	0.362940
Co61	Co6	0.201410	0.693670	0.815980
C261	C26	0.118100	0.676600	0.904400
C271	C27	0.058000	0.670400	0.954000
C281	C28	0.944100	0.661000	0.954400
H211	H21	0.905100	0.657800	0.923800
C291	C29	0.488700	0.795700	0.753700
H221	H22	0.530500	0.817400	0.725800
C301	C30	0.442000	0.749700	0.827900
N211	N21	0.352300	0.746000	0.799540
N221	N22	0.529800	0.781400	0.801000
N231	N23	0.445100	0.721400	0.878700
H231	H23	0.386900	0.699800	0.893900
H241	H24	0.505100	0.725200	0.895500
N241	N24	0.384200	0.776300	0.750420
O111	O11	0.218800	0.668900	0.903500
O121	O12	0.063500	0.688800	0.862940
Co71	Co7	0.298590	0.806330	0.315980
C311	C31	0.381900	0.823400	0.404400
C321	C32	0.442000	0.829600	0.454000
C331	C33	0.555900	0.839000	0.454400
H251	H25	0.594900	0.842200	0.423800
C341	C34	0.011300	0.704300	0.253700
H261	H26	0.969500	0.682600	0.225800
C351	C35	0.058000	0.750300	0.327900
N251	N25	0.147700	0.754000	0.299540
N261	N26	0.970200	0.718600	0.301000
N271	N27	0.054900	0.778600	0.378700
H271	H27	0.113100	0.800200	0.393900
H281	H28	0.994900	0.774800	0.395500
N281	N28	0.115800	0.723700	0.250420
O131	O13	0.281200	0.831100	0.403500
O141	O14	0.436500	0.811200	0.362940
Co81	Co8	0.798590	0.306330	0.815980
C361	C36	0.881900	0.323400	0.904400
C371	C37	0.942000	0.329600	0.954000
C381	C38	0.055900	0.339000	0.954400
H291	H29	0.094900	0.342200	0.923800
C391	C39	0.511300	0.204300	0.753700
H301	H30	0.469500	0.182600	0.725800
C401	C40	0.558000	0.250300	0.827900
N291	N29	0.647700	0.254000	0.799540
N301	N30	0.470200	0.218600	0.801000
N311	N31	0.554900	0.278600	0.878700
H311	H31	0.613100	0.300200	0.893900
H321	H32	0.494900	0.274800	0.895500
N321	N32	0.615800	0.223700	0.750420
O151	O15	0.781200	0.331100	0.903500
O161	O16	0.936500	0.311200	0.862940
Co91	Co9	0.806330	0.701410	0.684020
C411	C41	0.823400	0.618100	0.595600
C421	C42	0.829600	0.558000	0.546000
C431	C43	0.839000	0.444100	0.545600
H331	H33	0.842200	0.405100	0.576200
C441	C44	0.704300	0.988700	0.746300
H341	H34	0.682600	0.030500	0.774200
C451	C45	0.750300	0.942000	0.672100
N331	N33	0.754000	0.852300	0.700460
N341	N34	0.718600	0.029800	0.699000
N351	N35	0.778600	0.945100	0.621300
H351	H35	0.800200	0.886900	0.606100
H361	H36	0.774800	0.005100	0.604500
N361	N36	0.723700	0.884200	0.749580
O171	O17	0.831100	0.718800	0.596500
O181	O18	0.811200	0.563500	0.637060
Co101	Co10	0.306330	0.201410	0.184020
C461	C46	0.323400	0.118100	0.095600
C471	C47	0.329600	0.058000	0.046000
C481	C48	0.339000	0.944100	0.045600
H371	H37	0.342200	0.905100	0.076200
C491	C49	0.204300	0.488700	0.246300
H381	H38	0.182600	0.530500	0.274200
C501	C50	0.250300	0.442000	0.172100
N371	N37	0.254000	0.352300	0.200460
N381	N38	0.218600	0.529800	0.199000
N391	N39	0.278600	0.445100	0.121300
H391	H39	0.300200	0.386900	0.106100
H401	H40	0.274800	0.505100	0.104500
N401	N40	0.223700	0.384200	0.249580
O191	O19	0.331100	0.218800	0.096500
O201	O20	0.311200	0.063500	0.137060
Co111	Co11	0.193670	0.298590	0.684020
C511	C51	0.176600	0.381900	0.595600
C521	C52	0.170400	0.442000	0.546000
C531	C53	0.161000	0.555900	0.545600
H411	H41	0.157800	0.594900	0.576200
C541	C54	0.295700	0.011300	0.746300
H421	H42	0.317400	0.969500	0.774200
C551	C55	0.249700	0.058000	0.672100
N411	N41	0.246000	0.147700	0.700460
N421	N42	0.281400	0.970200	0.699000
N431	N43	0.221400	0.054900	0.621300
H431	H43	0.199800	0.113100	0.606100
H441	H44	0.225200	0.994900	0.604500
N441	N44	0.276300	0.115800	0.749580
O211	O21	0.168900	0.281200	0.596500
O221	O22	0.188800	0.436500	0.637060
Co121	Co12	0.693670	0.798590	0.184020
C561	C56	0.676600	0.881900	0.095600
C571	C57	0.670400	0.942000	0.046000
C581	C58	0.661000	0.055900	0.045600
H451	H45	0.657800	0.094900	0.076200
C591	C59	0.795700	0.511300	0.246300
H461	H46	0.817400	0.469500	0.274200
C601	C60	0.749700	0.558000	0.172100
N451	N45	0.746000	0.647700	0.200460
N461	N46	0.781400	0.470200	0.199000
N471	N47	0.721400	0.554900	0.121300
H471	H47	0.699800	0.613100	0.106100
H481	H48	0.725200	0.494900	0.104500
N481	N48	0.776300	0.615800	0.249580
O231	O23	0.668900	0.781200	0.096500
O241	O24	0.688800	0.936500	0.137060
Co131	Co13	0.298590	0.806330	0.684020
C611	C61	0.381900	0.823400	0.595600
C621	C62	0.442000	0.829600	0.546000
C631	C63	0.555900	0.839000	0.545600
H491	H49	0.594900	0.842200	0.576200
C641	C64	0.011300	0.704300	0.746300
H501	H50	0.969500	0.682600	0.774200
C651	C65	0.058000	0.750300	0.672100
N491	N49	0.147700	0.754000	0.700460
N501	N50	0.970200	0.718600	0.699000
N511	N51	0.054900	0.778600	0.621300
H511	H51	0.113100	0.800200	0.606100
H521	H52	0.994900	0.774800	0.604500
N521	N52	0.115800	0.723700	0.749580
O251	O25	0.281200	0.831100	0.596500
O261	O26	0.436500	0.811200	0.637060
Co141	Co14	0.798590	0.306330	0.184020
C661	C66	0.881900	0.323400	0.095600
C671	C67	0.942000	0.329600	0.046000
C681	C68	0.055900	0.339000	0.045600
H531	H53	0.094900	0.342200	0.076200
C691	C69	0.511300	0.204300	0.246300
H541	H54	0.469500	0.182600	0.274200
C701	C70	0.558000	0.250300	0.172100
N531	N53	0.647700	0.254000	0.200460
N541	N54	0.470200	0.218600	0.199000
N551	N55	0.554900	0.278600	0.121300
H551	H55	0.613100	0.300200	0.106100
H561	H56	0.494900	0.274800	0.104500
N561	N56	0.615800	0.223700	0.249580
O271	O27	0.781200	0.331100	0.096500
O281	O28	0.936500	0.311200	0.137060
Co151	Co15	0.701410	0.193670	0.684020
C711	C71	0.618100	0.176600	0.595600
C721	C72	0.558000	0.170400	0.546000
C731	C73	0.444100	0.161000	0.545600
H571	H57	0.405100	0.157800	0.576200
C741	C74	0.988700	0.295700	0.746300
H581	H58	0.030500	0.317400	0.774200
C751	C75	0.942000	0.249700	0.672100
N571	N57	0.852300	0.246000	0.700460
N581	N58	0.029800	0.281400	0.699000
N591	N59	0.945100	0.221400	0.621300
H591	H59	0.886900	0.199800	0.606100
H601	H60	0.005100	0.225200	0.604500
N601	N60	0.884200	0.276300	0.749580
O291	O29	0.718800	0.168900	0.596500
O301	O30	0.563500	0.188800	0.637060
Co161	Co16	0.201410	0.693670	0.184020
C761	C76	0.118100	0.676600	0.095600
C771	C77	0.058000	0.670400	0.046000
C781	C78	0.944100	0.661000	0.045600
H611	H61	0.905100	0.657800	0.076200
C791	C79	0.488700	0.795700	0.246300
H621	H62	0.530500	0.817400	0.274200
C801	C80	0.442000	0.749700	0.172100
N611	N61	0.352300	0.746000	0.200460
N621	N62	0.529800	0.781400	0.199000
N631	N63	0.445100	0.721400	0.121300
H631	H63	0.386900	0.699800	0.106100
H641	H64	0.505100	0.725200	0.104500
N641	N64	0.384200	0.776300	0.249580
O311	O31	0.218800	0.668900	0.096500
O321	O32	0.063500	0.688800	0.137060
C811	C81	0.172400	0.385800	0.500000
H651	H65	0.175200	0.310400	0.500000
C821	C82	0.156600	0.606900	0.500000
H661	H66	0.150200	0.682100	0.500000
C831	C83	0.672400	0.885800	0.000000
H671	H67	0.675200	0.810400	0.000000
C841	C84	0.656600	0.106900	0.000000
H681	H68	0.650200	0.182100	0.000000
C851	C85	0.827600	0.614200	0.500000
H691	H69	0.824800	0.689600	0.500000
C861	C86	0.843400	0.393100	0.500000
H701	H70	0.849800	0.317900	0.500000
C871	C87	0.327600	0.114200	0.000000
H711	H71	0.324800	0.189600	0.000000
C881	C88	0.343400	0.893100	0.000000
H721	H72	0.349800	0.817900	0.000000
C891	C89	0.614200	0.172400	0.500000
H731	H73	0.689600	0.175200	0.500000
C901	C90	0.393100	0.156600	0.500000
H741	H74	0.317900	0.150200	0.500000
C911	C91	0.114200	0.672400	0.000000
H751	H75	0.189600	0.675200	0.000000
C921	C92	0.893100	0.656600	0.000000
H761	H76	0.817900	0.650200	0.000000
C931	C93	0.385800	0.827600	0.500000
H771	H77	0.310400	0.824800	0.500000
C941	C94	0.606900	0.843400	0.500000
H781	H78	0.682100	0.849800	0.500000
C951	C95	0.885800	0.327600	0.000000
H791	H79	0.810400	0.324800	0.000000
C961	C96	0.106900	0.343400	0.000000
H801	H80	0.182100	0.349800	0.000000
