data_EKARUE_clean_PM
_symmetry_space_group_name_H-M	'P1'
_cell_length_a	11.081700
_cell_length_b	13.257300
_cell_length_c	21.725000
_cell_angle_alpha	82.840000
_cell_angle_beta	77.263000
_cell_angle_gamma	71.660000
_symmetry_Int_Tables_number 1

loop_
_symmetry_equiv_pos_as_xyz
'x,y,z'

loop_
_atom_site_label
_atom_site_type_symbol
_atom_site_fract_x
_atom_site_fract_y
_atom_site_fract_z
Cu11	Cu1	0.236210	0.552660	0.749180
Cu21	Cu2	0.254670	0.061570	0.789840
Cu31	Cu3	0.460850	0.206820	0.025420
Cu41	Cu4	0.063370	0.791130	0.444170
Cu51	Cu5	0.763790	0.447340	0.250820
Cu61	Cu6	0.745330	0.938430	0.210160
Cu71	Cu7	0.539150	0.793180	0.974580
Cu81	Cu8	0.936630	0.208870	0.555830
H11	H1	0.966800	0.537600	0.794800
H21	H2	0.722300	0.777900	0.711800
H31	H3	0.900000	0.818900	0.648800
H41	H4	0.103900	0.724600	0.665000
H51	H5	0.446100	0.852600	0.807100
H61	H6	0.089200	0.964000	0.896100
H71	H7	0.091000	0.797800	0.942400
H81	H8	0.277700	0.656600	0.923500
H91	H9	0.500300	0.404100	0.954600
H101	H10	0.742200	0.119000	0.968600
H111	H11	0.908200	0.173500	0.906500
H121	H12	0.873400	0.350200	0.871400
H131	H13	0.898600	0.578000	0.917000
H141	H14	0.582500	0.461400	0.591400
H151	H15	0.792900	0.835200	0.439800
H161	H16	0.611300	0.795200	0.496700
H171	H17	0.631500	0.663200	0.577800
H181	H18	0.013200	0.614100	0.537300
H191	H19	0.208500	0.423000	0.609800
H201	H20	0.411300	0.312400	0.623600
H211	H21	0.428300	0.167200	0.691700
H221	H22	0.050700	0.241300	0.744100
H231	H23	0.513500	0.543500	0.707100
H241	H24	0.351700	0.347600	0.816900
H251	H25	0.550400	0.232700	0.828700
H261	H26	0.738100	0.270400	0.774100
H271	H27	0.656500	0.089600	0.706100
H281	H28	0.922000	0.916100	0.846400
H291	H29	0.033200	0.462400	0.205200
H301	H30	0.277700	0.222100	0.288200
H311	H31	0.100000	0.181100	0.351200
H321	H32	0.896100	0.275400	0.335000
H331	H33	0.553900	0.147400	0.192900
H341	H34	0.910800	0.036000	0.103900
H351	H35	0.909000	0.202200	0.057600
H361	H36	0.722300	0.343400	0.076500
H371	H37	0.499700	0.595900	0.045400
H381	H38	0.257800	0.881000	0.031400
H391	H39	0.091800	0.826500	0.093500
H401	H40	0.126600	0.649800	0.128600
H411	H41	0.101400	0.422000	0.083000
H421	H42	0.417500	0.538600	0.408600
H431	H43	0.207100	0.164800	0.560200
H441	H44	0.388700	0.204800	0.503300
H451	H45	0.368500	0.336800	0.422200
H461	H46	0.986800	0.385900	0.462700
H471	H47	0.791500	0.577000	0.390200
H481	H48	0.588700	0.687600	0.376400
H491	H49	0.571700	0.832800	0.308300
H501	H50	0.949300	0.758700	0.255900
H511	H51	0.486500	0.456500	0.292900
H521	H52	0.648300	0.652400	0.183100
H531	H53	0.449600	0.767300	0.171300
H541	H54	0.261900	0.729600	0.225900
H551	H55	0.343500	0.910400	0.293900
H561	H56	0.078000	0.083900	0.153600
C11	C1	0.953200	0.595900	0.765700
C21	C2	0.827000	0.651500	0.760300
C31	C3	0.806000	0.738100	0.716200
C41	C4	0.910900	0.763200	0.679700
C51	C5	0.033600	0.705000	0.689200
C61	C6	0.720000	0.620300	0.802900
C71	C7	0.650200	0.502800	0.875900
C81	C8	0.510400	0.660300	0.851200
C91	C9	0.383400	0.740400	0.864100
C101	C10	0.373900	0.841800	0.835000
C111	C11	0.163500	0.907000	0.886600
C121	C12	0.164900	0.807600	0.915500
C131	C13	0.275500	0.723700	0.904300
C141	C14	0.680000	0.395000	0.907000
C151	C15	0.583100	0.356900	0.944600
C161	C16	0.725700	0.189600	0.952900
C171	C17	0.826300	0.222100	0.916300
C181	C18	0.805400	0.326100	0.894300
C191	C19	0.123900	0.462600	0.867800
C201	C20	0.065400	0.478300	0.937300
C211	C21	0.939600	0.546500	0.950600
C221	C22	0.128100	0.429800	0.987800
C231	C23	0.261300	0.350400	0.979200
C241	C24	0.365400	0.604200	0.617000
C251	C25	0.430000	0.552800	0.554900
C261	C26	0.549000	0.477200	0.554400
C271	C27	0.379700	0.576100	0.499100
C281	C28	0.251600	0.658400	0.495800
C291	C29	0.801600	0.781700	0.472100
C301	C30	0.692300	0.758200	0.506000
C311	C31	0.704300	0.679400	0.553700
C321	C32	0.827400	0.624400	0.565300
C331	C33	0.931000	0.651700	0.529600
C341	C34	0.844900	0.537900	0.615900
C351	C35	0.759500	0.439900	0.695200
C361	C36	0.976200	0.404200	0.667300
C371	C37	0.107500	0.340900	0.675900
C381	C38	0.216600	0.364600	0.638800
C391	C39	0.336600	0.298100	0.646800
C401	C40	0.346100	0.212000	0.688300
C411	C41	0.124000	0.254500	0.718600
C421	C42	0.643600	0.412300	0.733400
C431	C43	0.521400	0.479200	0.730900
C441	C44	0.426200	0.364800	0.796100
C451	C45	0.545500	0.294700	0.802800
C461	C46	0.656900	0.317000	0.770900
C471	C47	0.058500	0.003200	0.755900
C481	C48	0.918800	0.003700	0.763700
C491	C49	0.838100	0.054200	0.721700
C501	C50	0.709300	0.056100	0.735000
C511	C51	0.657100	0.008300	0.791700
C521	C52	0.739000	0.953700	0.833900
C531	C53	0.867400	0.952600	0.818700
C541	C54	0.887200	0.114400	0.663000
C551	C55	0.511900	0.033500	0.812200
C561	C56	0.691500	0.900200	0.893900
C571	C57	0.046800	0.404100	0.234300
C581	C58	0.173000	0.348500	0.239700
C591	C59	0.194000	0.261900	0.283800
C601	C60	0.089100	0.236800	0.320300
C611	C61	0.966400	0.295000	0.310800
C621	C62	0.280000	0.379700	0.197100
C631	C63	0.349800	0.497200	0.124100
C641	C64	0.489600	0.339700	0.148800
C651	C65	0.616600	0.259600	0.135900
C661	C66	0.626100	0.158200	0.165000
C671	C67	0.836500	0.093000	0.113400
C681	C68	0.835100	0.192400	0.084500
C691	C69	0.724500	0.276300	0.095700
C701	C70	0.320000	0.605000	0.093000
C711	C71	0.416900	0.643100	0.055400
C721	C72	0.274300	0.810400	0.047100
C731	C73	0.173700	0.777900	0.083700
C741	C74	0.194600	0.673900	0.105700
C751	C75	0.876100	0.537400	0.132200
C761	C76	0.934600	0.521700	0.062700
C771	C77	0.060400	0.453500	0.049400
C781	C78	0.871900	0.570200	0.012200
C791	C79	0.738700	0.649600	0.020800
C801	C80	0.634600	0.395800	0.383000
C811	C81	0.570000	0.447200	0.445100
C821	C82	0.451000	0.522800	0.445600
C831	C83	0.620300	0.423900	0.500900
C841	C84	0.748400	0.341600	0.504200
C851	C85	0.198400	0.218300	0.527900
C861	C86	0.307700	0.241800	0.494000
C871	C87	0.295700	0.320600	0.446300
C881	C88	0.172600	0.375600	0.434700
C891	C89	0.069000	0.348300	0.470400
C901	C90	0.155100	0.462100	0.384100
C911	C91	0.240500	0.560100	0.304800
C921	C92	0.023800	0.595800	0.332700
C931	C93	0.892500	0.659100	0.324100
C941	C94	0.783400	0.635400	0.361200
C951	C95	0.663400	0.701900	0.353200
C961	C96	0.653900	0.788000	0.311700
C971	C97	0.876000	0.745500	0.281400
C981	C98	0.356400	0.587700	0.266600
C991	C99	0.478600	0.520800	0.269100
C1001	C100	0.573800	0.635200	0.203900
C1011	C101	0.454500	0.705300	0.197200
C1021	C102	0.343100	0.683000	0.229100
C1031	C103	0.941500	0.996800	0.244100
C1041	C104	0.081200	0.996300	0.236300
C1051	C105	0.161900	0.945800	0.278300
C1061	C106	0.290700	0.943900	0.265000
C1071	C107	0.342900	0.991700	0.208300
C1081	C108	0.261000	0.046300	0.166100
C1091	C109	0.132600	0.047400	0.181300
C1101	C110	0.112800	0.885600	0.337000
C1111	C111	0.488100	0.966500	0.187800
C1121	C112	0.308500	0.099800	0.106100
N11	N1	0.056700	0.621500	0.731600
N21	N2	0.750200	0.527500	0.837100
N31	N3	0.530000	0.567200	0.886800
N41	N4	0.600000	0.685900	0.806300
N51	N5	0.266900	0.923900	0.845000
N61	N6	0.602700	0.256200	0.967200
N71	N7	0.920600	0.730100	0.483900
N81	N8	0.736900	0.521600	0.652700
N91	N9	0.874700	0.380400	0.706200
N101	N10	0.965400	0.482900	0.621100
N111	N11	0.241400	0.187800	0.725500
N121	N12	0.413600	0.456300	0.760900
N131	N13	0.943300	0.378500	0.268400
N141	N14	0.249800	0.472500	0.162900
N151	N15	0.470000	0.432800	0.113200
N161	N16	0.400000	0.314100	0.193700
N171	N17	0.733100	0.076100	0.155000
N181	N18	0.397300	0.743800	0.032800
N191	N19	0.079400	0.269900	0.516100
N201	N20	0.263100	0.478400	0.347300
N211	N21	0.125300	0.619600	0.293800
N221	N22	0.034600	0.517100	0.378900
N231	N23	0.758600	0.812200	0.274500
N241	N24	0.586400	0.543700	0.239100
O11	O1	0.302300	0.550200	0.655900
O21	O2	0.386700	0.686100	0.627300
O31	O3	0.198400	0.722700	0.537100
O41	O4	0.203900	0.659200	0.446900
O51	O5	0.172500	0.537400	0.840300
O61	O6	0.113300	0.390200	0.841300
O71	O7	0.321800	0.337700	0.025100
O81	O8	0.306100	0.301100	0.931100
O91	O9	0.075800	0.067100	0.788900
O101	O10	0.145600	0.935400	0.722900
O111	O11	0.988100	0.139600	0.659300
O121	O12	0.822800	0.139000	0.618400
O131	O13	0.448000	0.029900	0.770900
O141	O14	0.464100	0.060000	0.867300
O151	O15	0.625900	0.839000	0.891800
O161	O16	0.718700	0.918900	0.944000
O171	O17	0.697700	0.449800	0.344100
O181	O18	0.613300	0.313900	0.372700
O191	O19	0.801600	0.277300	0.462900
O201	O20	0.796100	0.340800	0.553100
O211	O21	0.827500	0.462600	0.159700
O221	O22	0.886700	0.609800	0.158700
O231	O23	0.678200	0.662300	0.974900
O241	O24	0.693900	0.698900	0.068900
O251	O25	0.924200	0.932900	0.211100
O261	O26	0.854400	0.064600	0.277100
O271	O27	0.011900	0.860400	0.340700
O281	O28	0.177200	0.861000	0.381600
O291	O29	0.552000	0.970100	0.229100
O301	O30	0.535900	0.940000	0.132700
O311	O31	0.374100	0.161000	0.108200
O321	O32	0.281300	0.081100	0.056000
