data_EKIJAL_clean_PM
_symmetry_space_group_name_H-M	'P1'
_cell_length_a	10.835200
_cell_length_b	6.324600
_cell_length_c	16.883400
_cell_angle_alpha	90.000000
_cell_angle_beta	105.667000
_cell_angle_gamma	90.000000
_symmetry_Int_Tables_number 1

loop_
_symmetry_equiv_pos_as_xyz
'x,y,z'

loop_
_atom_site_label
_atom_site_type_symbol
_atom_site_fract_x
_atom_site_fract_y
_atom_site_fract_z
Ni11	Ni1	0.535020	0.003630	0.917390
C11	C1	0.665100	0.185900	0.662500
C21	C2	0.772600	0.116600	0.734200
C31	C3	0.830400	0.921100	0.737000
H11	H1	0.801100	0.826100	0.694000
C41	C4	0.931000	0.865400	0.803000
H21	H2	0.969000	0.733300	0.803600
C51	C5	0.976500	0.001500	0.868200
H31	H3	0.045500	0.962400	0.911900
C61	C6	0.919900	0.193500	0.868100
C71	C7	0.818800	0.254200	0.800400
H41	H4	0.782200	0.387400	0.799600
C81	C8	0.084600	0.429300	0.959700
H51	H5	0.143600	0.379300	0.933100
C91	C9	0.961600	0.344500	0.938300
C101	C10	0.877200	0.416200	0.981500
C111	C11	0.739800	0.327100	0.966200
O11	O1	0.609300	0.033900	0.618200
O21	O2	0.637200	0.377300	0.650800
O31	O3	0.720900	0.135600	0.966600
O41	O4	0.657300	0.470100	0.955900
O51	O5	0.447400	0.189900	0.983700
H61	H6	0.368300	0.190000	0.958400
Ni21	Ni2	0.464980	0.503630	0.582610
C121	C12	0.334900	0.685900	0.837500
C131	C13	0.227400	0.616600	0.765800
C141	C14	0.169600	0.421100	0.763000
H71	H7	0.198900	0.326100	0.806000
C151	C15	0.069000	0.365400	0.697000
H81	H8	0.031000	0.233300	0.696400
C161	C16	0.023500	0.501500	0.631800
H91	H9	0.954500	0.462400	0.588100
C171	C17	0.080100	0.693500	0.631900
C181	C18	0.181200	0.754200	0.699600
H101	H10	0.217800	0.887400	0.700400
C191	C19	0.915400	0.929300	0.540300
H111	H11	0.856400	0.879300	0.566900
C201	C20	0.038400	0.844500	0.561700
C211	C21	0.122800	0.916200	0.518500
C221	C22	0.260200	0.827100	0.533800
O61	O6	0.390700	0.533900	0.881800
O71	O7	0.362800	0.877300	0.849200
O81	O8	0.279100	0.635600	0.533400
O91	O9	0.342700	0.970100	0.544100
O101	O10	0.552600	0.689900	0.516300
H121	H12	0.631700	0.690000	0.541600
Ni31	Ni3	0.464980	0.996370	0.082610
C231	C23	0.334900	0.814100	0.337500
C241	C24	0.227400	0.883400	0.265800
C251	C25	0.169600	0.078900	0.263000
H131	H13	0.198900	0.173900	0.306000
C261	C26	0.069000	0.134600	0.197000
H141	H14	0.031000	0.266700	0.196400
C271	C27	0.023500	0.998500	0.131800
H151	H15	0.954500	0.037600	0.088100
C281	C28	0.080100	0.806500	0.131900
C291	C29	0.181200	0.745800	0.199600
H161	H16	0.217800	0.612600	0.200400
C301	C30	0.915400	0.570700	0.040300
H171	H17	0.856400	0.620700	0.066900
C311	C31	0.038400	0.655500	0.061700
C321	C32	0.122800	0.583800	0.018500
C331	C33	0.260200	0.672900	0.033800
O111	O11	0.390700	0.966100	0.381800
O121	O12	0.362800	0.622700	0.349200
O131	O13	0.279100	0.864400	0.033400
O141	O14	0.342700	0.529900	0.044100
O151	O15	0.552600	0.810100	0.016300
H181	H18	0.631700	0.810000	0.041600
Ni41	Ni4	0.535020	0.496370	0.417390
C341	C34	0.665100	0.314100	0.162500
C351	C35	0.772600	0.383400	0.234200
C361	C36	0.830400	0.578900	0.237000
H191	H19	0.801100	0.673900	0.194000
C371	C37	0.931000	0.634600	0.303000
H201	H20	0.969000	0.766700	0.303600
C381	C38	0.976500	0.498500	0.368200
H211	H21	0.045500	0.537600	0.411900
C391	C39	0.919900	0.306500	0.368100
C401	C40	0.818800	0.245800	0.300400
H221	H22	0.782200	0.112600	0.299600
C411	C41	0.084600	0.070700	0.459700
H231	H23	0.143600	0.120700	0.433100
C421	C42	0.961600	0.155500	0.438300
C431	C43	0.877200	0.083800	0.481500
C441	C44	0.739800	0.172900	0.466200
O161	O16	0.609300	0.466100	0.118200
O171	O17	0.637200	0.122700	0.150800
O181	O18	0.720900	0.364400	0.466600
O191	O19	0.657300	0.029900	0.455900
O201	O20	0.447400	0.310100	0.483700
H241	H24	0.368300	0.310000	0.458400
Ni51	Ni5	0.500000	0.500000	0.000000
Ni61	Ni6	0.500000	0.000000	0.500000
