data_EKIJEP01_clean_PM
_symmetry_space_group_name_H-M	'P1'
_cell_length_a	10.911000
_cell_length_b	6.413000
_cell_length_c	17.045000
_cell_angle_alpha	90.000000
_cell_angle_beta	105.867000
_cell_angle_gamma	90.000000
_symmetry_Int_Tables_number 1

loop_
_symmetry_equiv_pos_as_xyz
'x,y,z'

loop_
_atom_site_label
_atom_site_type_symbol
_atom_site_fract_x
_atom_site_fract_y
_atom_site_fract_z
Co11	Co1	0.534360	0.996440	0.415790
O11	O1	0.359900	0.126400	0.345200
O21	O2	0.384200	0.462700	0.381500
O31	O3	0.343300	0.032600	0.048600
O41	O4	0.275900	0.361600	0.034600
O51	O5	0.443100	0.809800	0.482600
H11	H1	0.352300	0.809700	0.453500
C11	C1	0.330400	0.315100	0.336000
C21	C2	0.221400	0.383200	0.264200
C31	C3	0.178500	0.244500	0.198600
H21	H2	0.217100	0.114700	0.200000
C41	C4	0.078000	0.300200	0.131200
C51	C5	0.018700	0.494400	0.130800
H31	H3	0.949100	0.530400	0.087700
C61	C6	0.064500	0.634100	0.195400
H41	H4	0.026500	0.763900	0.195000
C71	C7	0.167300	0.576900	0.260100
H51	H5	0.200100	0.672400	0.301600
C81	C8	0.038400	0.152200	0.061800
C91	C9	0.915100	0.069300	0.039800
H61	H6	0.856200	0.118100	0.065800
C101	C10	0.122300	0.084900	0.020200
C111	C11	0.259000	0.170400	0.036500
Co21	Co2	0.465640	0.496440	0.084210
O61	O6	0.640100	0.626400	0.154800
O71	O7	0.615800	0.962700	0.118500
O81	O8	0.656700	0.532600	0.451400
O91	O9	0.724100	0.861600	0.465400
O101	O10	0.556900	0.309800	0.017400
H71	H7	0.647700	0.309700	0.046500
C121	C12	0.669600	0.815100	0.164000
C131	C13	0.778600	0.883200	0.235800
C141	C14	0.821500	0.744500	0.301400
H81	H8	0.782900	0.614700	0.300000
C151	C15	0.922000	0.800200	0.368800
C161	C16	0.981300	0.994400	0.369200
H91	H9	0.050900	0.030400	0.412300
C171	C17	0.935500	0.134100	0.304600
H101	H10	0.973500	0.263900	0.305000
C181	C18	0.832700	0.076900	0.239900
H111	H11	0.799900	0.172400	0.198400
C191	C19	0.961600	0.652200	0.438200
C201	C20	0.084900	0.569300	0.460200
H121	H12	0.143800	0.618100	0.434200
C211	C21	0.877700	0.584900	0.479800
C221	C22	0.741000	0.670400	0.463500
Co31	Co3	0.465640	0.003560	0.584210
O111	O11	0.640100	0.873600	0.654800
O121	O12	0.615800	0.537300	0.618500
O131	O13	0.656700	0.967400	0.951400
O141	O14	0.724100	0.638400	0.965400
O151	O15	0.556900	0.190200	0.517400
H131	H13	0.647700	0.190300	0.546500
C231	C23	0.669600	0.684900	0.664000
C241	C24	0.778600	0.616800	0.735800
C251	C25	0.821500	0.755500	0.801400
H141	H14	0.782900	0.885300	0.800000
C261	C26	0.922000	0.699800	0.868800
C271	C27	0.981300	0.505600	0.869200
H151	H15	0.050900	0.469600	0.912300
C281	C28	0.935500	0.365900	0.804600
H161	H16	0.973500	0.236100	0.805000
C291	C29	0.832700	0.423100	0.739900
H171	H17	0.799900	0.327600	0.698400
C301	C30	0.961600	0.847800	0.938200
C311	C31	0.084900	0.930700	0.960200
H181	H18	0.143800	0.881900	0.934200
C321	C32	0.877700	0.915100	0.979800
C331	C33	0.741000	0.829600	0.963500
Co41	Co4	0.534360	0.503560	0.915790
O161	O16	0.359900	0.373600	0.845200
O171	O17	0.384200	0.037300	0.881500
O181	O18	0.343300	0.467400	0.548600
O191	O19	0.275900	0.138400	0.534600
O201	O20	0.443100	0.690200	0.982600
H191	H19	0.352300	0.690300	0.953500
C341	C34	0.330400	0.184900	0.836000
C351	C35	0.221400	0.116800	0.764200
C361	C36	0.178500	0.255500	0.698600
H201	H20	0.217100	0.385300	0.700000
C371	C37	0.078000	0.199800	0.631200
C381	C38	0.018700	0.005600	0.630800
H211	H21	0.949100	0.969600	0.587700
C391	C39	0.064500	0.865900	0.695400
H221	H22	0.026500	0.736100	0.695000
C401	C40	0.167300	0.923100	0.760100
H231	H23	0.200100	0.827600	0.801600
C411	C41	0.038400	0.347800	0.561800
C421	C42	0.915100	0.430700	0.539800
H241	H24	0.856200	0.381900	0.565800
C431	C43	0.122300	0.415100	0.520200
C441	C44	0.259000	0.329600	0.536500
Co51	Co5	0.500000	0.500000	0.500000
Co61	Co6	0.500000	0.000000	0.000000
