data_EKOKIA_clean_PM
_symmetry_space_group_name_H-M	'P1'
_cell_length_a	15.316200
_cell_length_b	12.618400
_cell_length_c	15.565900
_cell_angle_alpha	90.000000
_cell_angle_beta	96.165000
_cell_angle_gamma	90.000000
_symmetry_Int_Tables_number 1

loop_
_symmetry_equiv_pos_as_xyz
'x,y,z'

loop_
_atom_site_label
_atom_site_type_symbol
_atom_site_fract_x
_atom_site_fract_y
_atom_site_fract_z
Cd11	Cd1	0.682000	0.826460	0.683930
Cd21	Cd2	0.390640	0.830110	0.730820
C11	C1	0.962300	0.760300	0.745400
C21	C2	0.055800	0.777800	0.736200
C31	C3	0.086700	0.873000	0.711100
H11	H1	0.048200	0.928700	0.696600
C41	C4	0.175500	0.886100	0.707200
H21	H2	0.195100	0.952000	0.690700
C51	C5	0.203400	0.717700	0.745200
H31	H3	0.243000	0.661900	0.754800
C61	C6	0.116400	0.697700	0.752500
H41	H4	0.098600	0.630700	0.768300
C71	C7	0.630900	0.506200	0.596900
C81	C8	0.628100	0.431500	0.524000
C91	C9	0.589000	0.462500	0.443400
H51	H5	0.564300	0.529600	0.435700
C101	C10	0.587100	0.393300	0.375200
H61	H6	0.560500	0.415200	0.321700
C111	C11	0.661200	0.266700	0.459700
H71	H7	0.686500	0.199700	0.465300
C121	C12	0.665900	0.331600	0.531200
H81	H8	0.694200	0.308700	0.583800
C131	C13	0.486600	0.947800	0.614500
C141	C14	0.519300	0.019900	0.545450
H91	H9	0.583500	0.016300	0.549700
C151	C15	0.491500	0.135100	0.559500
H101	H10	0.501300	0.175800	0.508600
H111	H11	0.428900	0.136100	0.564500
C161	C16	0.538300	0.189800	0.637900
N11	N1	0.824900	0.776500	0.733900
N21	N2	0.845300	0.694100	0.783300
N31	N3	0.932100	0.681900	0.791100
N41	N4	0.897600	0.821000	0.709300
N51	N5	0.234500	0.811000	0.725400
N61	N6	0.638700	0.650900	0.665300
N71	N7	0.634700	0.575400	0.722430
N81	N8	0.629900	0.482000	0.680840
N91	N9	0.635800	0.609900	0.585290
N101	N10	0.621700	0.296000	0.382110
O11	O1	0.537460	0.886600	0.658640
O21	O2	0.405670	0.950650	0.622980
O31	O3	0.606720	0.153100	0.676880
O41	O4	0.507790	0.277700	0.660040
Cd31	Cd3	0.318000	0.326460	0.816070
Cd41	Cd4	0.609360	0.330110	0.769180
C171	C17	0.037700	0.260300	0.754600
C181	C18	0.944200	0.277800	0.763800
C191	C19	0.913300	0.373000	0.788900
H121	H12	0.951800	0.428700	0.803400
C201	C20	0.824500	0.386100	0.792800
H131	H13	0.804900	0.452000	0.809300
C211	C21	0.796600	0.217700	0.754800
H141	H14	0.757000	0.161900	0.745200
C221	C22	0.883600	0.197700	0.747500
H151	H15	0.901400	0.130700	0.731700
C231	C23	0.369100	0.006200	0.903100
C241	C24	0.371900	0.931500	0.976000
C251	C25	0.411000	0.962500	0.056600
H161	H16	0.435700	0.029600	0.064300
C261	C26	0.412900	0.893300	0.124800
H171	H17	0.439500	0.915200	0.178300
C271	C27	0.338800	0.766700	0.040300
H181	H18	0.313500	0.699700	0.034700
C281	C28	0.334100	0.831600	0.968800
H191	H19	0.305800	0.808700	0.916200
C291	C29	0.513400	0.447800	0.885500
C301	C30	0.480700	0.519900	0.954550
H201	H20	0.416500	0.516300	0.950300
C311	C31	0.508500	0.635100	0.940500
H211	H21	0.498700	0.675800	0.991400
H221	H22	0.571100	0.636100	0.935500
C321	C32	0.461700	0.689800	0.862100
N111	N11	0.175100	0.276500	0.766100
N121	N12	0.154700	0.194100	0.716700
N131	N13	0.067900	0.181900	0.708900
N141	N14	0.102400	0.321000	0.790700
N151	N15	0.765500	0.311000	0.774600
N161	N16	0.361300	0.150900	0.834700
N171	N17	0.365300	0.075400	0.777570
N181	N18	0.370100	0.982000	0.819160
N191	N19	0.364200	0.109900	0.914710
N201	N20	0.378300	0.796000	0.117890
O51	O5	0.462540	0.386600	0.841360
O61	O6	0.594330	0.450650	0.877020
O71	O7	0.393280	0.653100	0.823120
O81	O8	0.492210	0.777700	0.839960
Cd51	Cd5	0.318000	0.173540	0.316070
Cd61	Cd6	0.609360	0.169890	0.269180
C331	C33	0.037700	0.239700	0.254600
C341	C34	0.944200	0.222200	0.263800
C351	C35	0.913300	0.127000	0.288900
H231	H23	0.951800	0.071300	0.303400
C361	C36	0.824500	0.113900	0.292800
H241	H24	0.804900	0.048000	0.309300
C371	C37	0.796600	0.282300	0.254800
H251	H25	0.757000	0.338100	0.245200
C381	C38	0.883600	0.302300	0.247500
H261	H26	0.901400	0.369300	0.231700
C391	C39	0.369100	0.493800	0.403100
C401	C40	0.371900	0.568500	0.476000
C411	C41	0.411000	0.537500	0.556600
H271	H27	0.435700	0.470400	0.564300
C421	C42	0.412900	0.606700	0.624800
H281	H28	0.439500	0.584800	0.678300
C431	C43	0.338800	0.733300	0.540300
H291	H29	0.313500	0.800300	0.534700
C441	C44	0.334100	0.668400	0.468800
H301	H30	0.305800	0.691300	0.416200
C451	C45	0.513400	0.052200	0.385500
C461	C46	0.480700	0.980100	0.454550
H311	H31	0.416500	0.983700	0.450300
C471	C47	0.508500	0.864900	0.440500
H321	H32	0.498700	0.824200	0.491400
H331	H33	0.571100	0.863900	0.435500
C481	C48	0.461700	0.810200	0.362100
N211	N21	0.175100	0.223500	0.266100
N221	N22	0.154700	0.305900	0.216700
N231	N23	0.067900	0.318100	0.208900
N241	N24	0.102400	0.179000	0.290700
N251	N25	0.765500	0.189000	0.274600
N261	N26	0.361300	0.349100	0.334700
N271	N27	0.365300	0.424600	0.277570
N281	N28	0.370100	0.518000	0.319160
N291	N29	0.364200	0.390100	0.414710
N301	N30	0.378300	0.704000	0.617890
O91	O9	0.462540	0.113400	0.341360
O101	O10	0.594330	0.049350	0.377020
O111	O11	0.393280	0.846900	0.323120
O121	O12	0.492210	0.722300	0.339960
Cd71	Cd7	0.682000	0.673540	0.183930
Cd81	Cd8	0.390640	0.669890	0.230820
C491	C49	0.962300	0.739700	0.245400
C501	C50	0.055800	0.722200	0.236200
C511	C51	0.086700	0.627000	0.211100
H341	H34	0.048200	0.571300	0.196600
C521	C52	0.175500	0.613900	0.207200
H351	H35	0.195100	0.548000	0.190700
C531	C53	0.203400	0.782300	0.245200
H361	H36	0.243000	0.838100	0.254800
C541	C54	0.116400	0.802300	0.252500
H371	H37	0.098600	0.869300	0.268300
C551	C55	0.630900	0.993800	0.096900
C561	C56	0.628100	0.068500	0.024000
C571	C57	0.589000	0.037500	0.943400
H381	H38	0.564300	0.970400	0.935700
C581	C58	0.587100	0.106700	0.875200
H391	H39	0.560500	0.084800	0.821700
C591	C59	0.661200	0.233300	0.959700
H401	H40	0.686500	0.300300	0.965300
C601	C60	0.665900	0.168400	0.031200
H411	H41	0.694200	0.191300	0.083800
C611	C61	0.486600	0.552200	0.114500
C621	C62	0.519300	0.480100	0.045450
H421	H42	0.583500	0.483700	0.049700
C631	C63	0.491500	0.364900	0.059500
H431	H43	0.501300	0.324200	0.008600
H441	H44	0.428900	0.363900	0.064500
C641	C64	0.538300	0.310200	0.137900
N311	N31	0.824900	0.723500	0.233900
N321	N32	0.845300	0.805900	0.283300
N331	N33	0.932100	0.818100	0.291100
N341	N34	0.897600	0.679000	0.209300
N351	N35	0.234500	0.689000	0.225400
N361	N36	0.638700	0.849100	0.165300
N371	N37	0.634700	0.924600	0.222430
N381	N38	0.629900	0.018000	0.180840
N391	N39	0.635800	0.890100	0.085290
N401	N40	0.621700	0.204000	0.882110
O131	O13	0.537460	0.613400	0.158640
O141	O14	0.405670	0.549350	0.122980
O151	O15	0.606720	0.346900	0.176880
O161	O16	0.507790	0.222300	0.160040
