data_EKOPIE_clean_PM
_symmetry_space_group_name_H-M	'P1'
_cell_length_a	13.214200
_cell_length_b	17.493800
_cell_length_c	17.493800
_cell_angle_alpha	90.000000
_cell_angle_beta	90.000000
_cell_angle_gamma	90.000000
_symmetry_Int_Tables_number 1

loop_
_symmetry_equiv_pos_as_xyz
'x,y,z'

loop_
_atom_site_label
_atom_site_type_symbol
_atom_site_fract_x
_atom_site_fract_y
_atom_site_fract_z
Sr11	Sr1	0.053320	0.860700	0.611790
Sr21	Sr2	0.553320	0.139300	0.388210
Sr31	Sr3	0.303320	0.888210	0.360700
Sr41	Sr4	0.803320	0.111790	0.639300
Sr51	Sr5	0.196680	0.639300	0.111790
Sr61	Sr6	0.696680	0.360700	0.888210
Sr71	Sr7	0.946680	0.611790	0.860700
Sr81	Sr8	0.446680	0.388210	0.139300
Cd11	Cd1	0.000000	0.665200	0.665200
Cd21	Cd2	0.500000	0.334800	0.334800
Cd31	Cd3	0.250000	0.834800	0.165200
Cd41	Cd4	0.750000	0.165200	0.834800
H11	H1	0.836100	0.620700	0.419800
H21	H2	0.827400	0.622300	0.289100
H31	H3	0.950400	0.686200	0.218000
H41	H4	0.078300	0.758300	0.413000
H51	H5	0.336100	0.379300	0.580200
H61	H6	0.327400	0.377700	0.710900
H71	H7	0.450400	0.313800	0.782000
H81	H8	0.578300	0.241700	0.587000
H91	H9	0.086100	0.080200	0.120700
H101	H10	0.077400	0.210900	0.122300
H111	H11	0.200400	0.282000	0.186200
H121	H12	0.328300	0.087000	0.258300
H131	H13	0.586100	0.919800	0.879300
H141	H14	0.577400	0.789100	0.877700
H151	H15	0.700400	0.718000	0.813800
H161	H16	0.828300	0.913000	0.741700
H171	H17	0.413900	0.879300	0.919800
H181	H18	0.422600	0.877700	0.789100
H191	H19	0.299600	0.813800	0.718000
H201	H20	0.171700	0.741700	0.913000
H211	H21	0.913900	0.120700	0.080200
H221	H22	0.922600	0.122300	0.210900
H231	H23	0.799600	0.186200	0.282000
H241	H24	0.671700	0.258300	0.087000
H251	H25	0.163900	0.419800	0.620700
H261	H26	0.172600	0.289100	0.622300
H271	H27	0.049600	0.218000	0.686200
H281	H28	0.921700	0.413000	0.758300
H291	H29	0.663900	0.580200	0.379300
H301	H30	0.672600	0.710900	0.377700
H311	H31	0.549600	0.782000	0.313800
H321	H32	0.421700	0.587000	0.241700
C11	C1	0.966400	0.686600	0.515400
C21	C2	0.105700	0.770800	0.263700
C31	C3	0.958600	0.689500	0.429000
C41	C4	0.883400	0.648300	0.391700
C51	C5	0.879100	0.648500	0.314000
C61	C6	0.951900	0.687900	0.271100
C71	C7	0.026500	0.729700	0.308900
C81	C8	0.028900	0.730200	0.387600
C91	C9	0.466400	0.313400	0.484600
C101	C10	0.605700	0.229200	0.736300
C111	C11	0.458600	0.310500	0.571000
C121	C12	0.383400	0.351700	0.608300
C131	C13	0.379100	0.351500	0.686000
C141	C14	0.451900	0.312100	0.728900
C151	C15	0.526500	0.270300	0.691100
C161	C16	0.528900	0.269800	0.612400
C171	C17	0.216400	0.984600	0.186600
C181	C18	0.355700	0.236300	0.270800
C191	C19	0.208600	0.071000	0.189500
C201	C20	0.133400	0.108300	0.148300
C211	C21	0.129100	0.186000	0.148500
C221	C22	0.201900	0.228900	0.187900
C231	C23	0.276500	0.191100	0.229700
C241	C24	0.278900	0.112400	0.230200
C251	C25	0.716400	0.015400	0.813400
C261	C26	0.855700	0.763700	0.729200
C271	C27	0.708600	0.929000	0.810500
C281	C28	0.633400	0.891700	0.851700
C291	C29	0.629100	0.814000	0.851500
C301	C30	0.701900	0.771100	0.812100
C311	C31	0.776500	0.808900	0.770300
C321	C32	0.778900	0.887600	0.769800
C331	C33	0.283600	0.813400	0.015400
C341	C34	0.144300	0.729200	0.763700
C351	C35	0.291400	0.810500	0.929000
C361	C36	0.366600	0.851700	0.891700
C371	C37	0.370900	0.851500	0.814000
C381	C38	0.298100	0.812100	0.771100
C391	C39	0.223500	0.770300	0.808900
C401	C40	0.221100	0.769800	0.887600
C411	C41	0.783600	0.186600	0.984600
C421	C42	0.644300	0.270800	0.236300
C431	C43	0.791400	0.189500	0.071000
C441	C44	0.866600	0.148300	0.108300
C451	C45	0.870900	0.148500	0.186000
C461	C46	0.798100	0.187900	0.228900
C471	C47	0.723500	0.229700	0.191100
C481	C48	0.721100	0.230200	0.112400
C491	C49	0.033600	0.515400	0.686600
C501	C50	0.894300	0.263700	0.770800
C511	C51	0.041400	0.429000	0.689500
C521	C52	0.116600	0.391700	0.648300
C531	C53	0.120900	0.314000	0.648500
C541	C54	0.048100	0.271100	0.687900
C551	C55	0.973500	0.308900	0.729700
C561	C56	0.971100	0.387600	0.730200
C571	C57	0.533600	0.484600	0.313400
C581	C58	0.394300	0.736300	0.229200
C591	C59	0.541400	0.571000	0.310500
C601	C60	0.616600	0.608300	0.351700
C611	C61	0.620900	0.686000	0.351500
C621	C62	0.548100	0.728900	0.312100
C631	C63	0.473500	0.691100	0.270300
C641	C64	0.471100	0.612400	0.269800
N11	N1	0.261800	0.897500	0.537900
N21	N2	0.761800	0.102500	0.462100
N31	N3	0.511800	0.962100	0.397500
N41	N4	0.011800	0.037900	0.602500
N51	N5	0.988200	0.602500	0.037900
N61	N6	0.488200	0.397500	0.962100
N71	N7	0.738200	0.537900	0.897500
N81	N8	0.238200	0.462100	0.102500
O11	O1	0.907900	0.645100	0.551700
O21	O2	0.035800	0.724900	0.547300
O31	O3	0.118300	0.753600	0.194700
O41	O4	0.158500	0.819800	0.297300
O51	O5	0.252400	0.895300	0.608800
O61	O6	0.190500	0.872500	0.497300
O71	O7	0.338300	0.923300	0.508000
O81	O8	0.407900	0.354900	0.448300
O91	O9	0.535800	0.275100	0.452700
O101	O10	0.618300	0.246400	0.805300
O111	O11	0.658500	0.180200	0.702700
O121	O12	0.752400	0.104700	0.391200
O131	O13	0.690500	0.127500	0.502700
O141	O14	0.838300	0.076700	0.492000
O151	O15	0.157900	0.948300	0.145100
O161	O16	0.285800	0.952700	0.224900
O171	O17	0.368300	0.305300	0.253600
O181	O18	0.408500	0.202700	0.319800
O191	O19	0.502400	0.891200	0.395300
O201	O20	0.440500	0.002700	0.372500
O211	O21	0.588300	0.992000	0.423300
O221	O22	0.657900	0.051700	0.854900
O231	O23	0.785800	0.047300	0.775100
O241	O24	0.868300	0.694700	0.746400
O251	O25	0.908500	0.797300	0.680200
O261	O26	0.002400	0.108800	0.604700
O271	O27	0.940500	0.997300	0.627500
O281	O28	0.088300	0.008000	0.576700
O291	O29	0.342100	0.854900	0.051700
O301	O30	0.214200	0.775100	0.047300
O311	O31	0.131700	0.746400	0.694700
O321	O32	0.091500	0.680200	0.797300
O331	O33	0.997600	0.604700	0.108800
O341	O34	0.059500	0.627500	0.997300
O351	O35	0.911700	0.576700	0.008000
O361	O36	0.842100	0.145100	0.948300
O371	O37	0.714200	0.224900	0.952700
O381	O38	0.631700	0.253600	0.305300
O391	O39	0.591500	0.319800	0.202700
O401	O40	0.497600	0.395300	0.891200
O411	O41	0.559500	0.372500	0.002700
O421	O42	0.411700	0.423300	0.992000
O431	O43	0.092100	0.551700	0.645100
O441	O44	0.964200	0.547300	0.724900
O451	O45	0.881700	0.194700	0.753600
O461	O46	0.841500	0.297300	0.819800
O471	O47	0.747600	0.608800	0.895300
O481	O48	0.809500	0.497300	0.872500
O491	O49	0.661700	0.508000	0.923300
O501	O50	0.592100	0.448300	0.354900
O511	O51	0.464200	0.452700	0.275100
O521	O52	0.381700	0.805300	0.246400
O531	O53	0.341500	0.702700	0.180200
O541	O54	0.247600	0.391200	0.104700
O551	O55	0.309500	0.502700	0.127500
O561	O56	0.161700	0.492000	0.076700
