data_EKUPEG_clean_PM
_symmetry_space_group_name_H-M	'P1'
_cell_length_a	25.213900
_cell_length_b	26.248600
_cell_length_c	26.248600
_cell_angle_alpha	120.000000
_cell_angle_beta	90.000000
_cell_angle_gamma	90.000000
_symmetry_Int_Tables_number 1

loop_
_symmetry_equiv_pos_as_xyz
'x,y,z'

loop_
_atom_site_label
_atom_site_type_symbol
_atom_site_fract_x
_atom_site_fract_y
_atom_site_fract_z
Cu11	Cu1	0.603400	0.922260	0.942640
Cu21	Cu2	0.685090	0.419450	0.710490
Cu31	Cu3	0.603400	0.020380	0.077740
Cu41	Cu4	0.685090	0.291040	0.580550
Cu51	Cu5	0.603400	0.057360	0.979620
Cu61	Cu6	0.685090	0.289510	0.708960
Cu71	Cu7	0.103400	0.077740	0.057360
Cu81	Cu8	0.185090	0.580550	0.289510
Cu91	Cu9	0.103400	0.979620	0.922260
Cu101	Cu10	0.185090	0.708960	0.419450
Cu111	Cu11	0.103400	0.942640	0.020380
Cu121	Cu12	0.185090	0.710490	0.291040
Cu131	Cu13	0.396600	0.979620	0.057360
Cu141	Cu14	0.314910	0.708960	0.289510
Cu151	Cu15	0.396600	0.942640	0.922260
Cu161	Cu16	0.314910	0.710490	0.419450
Cu171	Cu17	0.396600	0.077740	0.020380
Cu181	Cu18	0.314910	0.580550	0.291040
Cu191	Cu19	0.896600	0.020380	0.942640
Cu201	Cu20	0.814910	0.291040	0.710490
Cu211	Cu21	0.896600	0.057360	0.077740
Cu221	Cu22	0.814910	0.289510	0.580550
Cu231	Cu23	0.896600	0.922260	0.979620
Cu241	Cu24	0.814910	0.419450	0.708960
Cu251	Cu25	0.500000	0.000000	0.000000
Cu261	Cu26	0.000000	0.000000	0.000000
H11	H1	0.545400	0.810400	0.755200
H21	H2	0.447000	0.927500	0.716700
H31	H3	0.467100	0.991600	0.759100
H41	H4	0.418400	0.966700	0.777000
H51	H5	0.505300	0.799500	0.672600
H61	H6	0.506500	0.856000	0.666600
H71	H7	0.453400	0.836300	0.682800
H81	H8	0.586400	0.782100	0.803900
H91	H9	0.713900	0.705800	0.925700
H101	H10	0.626200	0.702600	0.796300
H111	H11	0.690000	0.869400	0.093100
H121	H12	0.648900	0.819700	0.055600
H131	H13	0.651500	0.876400	0.050100
H141	H14	0.767900	0.886200	0.043900
H151	H15	0.730700	0.892000	0.999200
H161	H16	0.776700	0.845500	0.976000
H171	H17	0.762700	0.800500	0.058300
H181	H18	0.773600	0.759400	0.990900
H191	H19	0.724100	0.748300	0.020200
H201	H20	0.671600	0.620800	0.739800
H211	H21	0.673100	0.518800	0.686000
H221	H22	0.679400	0.513200	0.836100
H231	H23	0.677900	0.615200	0.889900
H241	H24	0.545400	0.944800	0.189600
H251	H25	0.447000	0.789200	0.072500
H261	H26	0.467100	0.767500	0.008400
H271	H27	0.418400	0.810300	0.033300
H281	H28	0.505300	0.873100	0.200500
H291	H29	0.506500	0.810600	0.144000
H301	H30	0.453400	0.846500	0.163700
H311	H31	0.586400	0.021800	0.217900
H321	H32	0.713900	0.219900	0.294200
H331	H33	0.626200	0.093700	0.297400
H341	H34	0.690000	0.223700	0.130600
H351	H35	0.648900	0.235900	0.180300
H361	H36	0.651500	0.173700	0.123600
H371	H37	0.767900	0.157700	0.113800
H381	H38	0.730700	0.107200	0.108000
H391	H39	0.776700	0.130500	0.154500
H401	H40	0.762700	0.257800	0.199500
H411	H41	0.773600	0.231500	0.240600
H421	H42	0.724100	0.271900	0.251700
H431	H43	0.671600	0.119000	0.379200
H441	H44	0.673100	0.167200	0.481200
H451	H45	0.679400	0.322900	0.486800
H461	H46	0.677900	0.274700	0.384800
H471	H47	0.545400	0.244800	0.055200
H481	H48	0.447000	0.283300	0.210800
H491	H49	0.467100	0.240900	0.232500
H501	H50	0.418400	0.223000	0.189700
H511	H51	0.505300	0.327400	0.126900
H521	H52	0.506500	0.333400	0.189400
H531	H53	0.453400	0.317200	0.153500
H541	H54	0.586400	0.196100	0.978200
H551	H55	0.713900	0.074300	0.780100
H561	H56	0.626200	0.203700	0.906300
H571	H57	0.690000	0.906900	0.776300
H581	H58	0.648900	0.944400	0.764100
H591	H59	0.651500	0.949900	0.826300
H601	H60	0.767900	0.956100	0.842300
H611	H61	0.730700	0.000800	0.892800
H621	H62	0.776700	0.024000	0.869500
H631	H63	0.762700	0.941700	0.742200
H641	H64	0.773600	0.009100	0.768500
H651	H65	0.724100	0.979800	0.728100
H661	H66	0.671600	0.260200	0.881000
H671	H67	0.673100	0.314000	0.832800
H681	H68	0.679400	0.163900	0.677100
H691	H69	0.677900	0.110100	0.725300
H701	H70	0.045400	0.189600	0.244800
H711	H71	0.947000	0.072500	0.283300
H721	H72	0.967100	0.008400	0.240900
H731	H73	0.918400	0.033300	0.223000
H741	H74	0.005300	0.200500	0.327400
H751	H75	0.006500	0.144000	0.333400
H761	H76	0.953400	0.163700	0.317200
H771	H77	0.086400	0.217900	0.196100
H781	H78	0.213900	0.294200	0.074300
H791	H79	0.126200	0.297400	0.203700
H801	H80	0.190000	0.130600	0.906900
H811	H81	0.148900	0.180300	0.944400
H821	H82	0.151500	0.123600	0.949900
H831	H83	0.267900	0.113800	0.956100
H841	H84	0.230700	0.108000	0.000800
H851	H85	0.276700	0.154500	0.024000
H861	H86	0.262700	0.199500	0.941700
H871	H87	0.273600	0.240600	0.009100
H881	H88	0.224100	0.251700	0.979800
H891	H89	0.171600	0.379200	0.260200
H901	H90	0.173100	0.481200	0.314000
H911	H91	0.179400	0.486800	0.163900
H921	H92	0.177900	0.384800	0.110100
H931	H93	0.045400	0.055200	0.810400
H941	H94	0.947000	0.210800	0.927500
H951	H95	0.967100	0.232500	0.991600
H961	H96	0.918400	0.189700	0.966700
H971	H97	0.005300	0.126900	0.799500
H981	H98	0.006500	0.189400	0.856000
H991	H99	0.953400	0.153500	0.836300
H1001	H100	0.086400	0.978200	0.782100
H1011	H101	0.213900	0.780100	0.705800
H1021	H102	0.126200	0.906300	0.702600
H1031	H103	0.190000	0.776300	0.869400
H1041	H104	0.148900	0.764100	0.819700
H1051	H105	0.151500	0.826300	0.876400
H1061	H106	0.267900	0.842300	0.886200
H1071	H107	0.230700	0.892800	0.892000
H1081	H108	0.276700	0.869500	0.845500
H1091	H109	0.262700	0.742200	0.800500
H1101	H110	0.273600	0.768500	0.759400
H1111	H111	0.224100	0.728100	0.748300
H1121	H112	0.171600	0.881000	0.620800
H1131	H113	0.173100	0.832800	0.518800
H1141	H114	0.179400	0.677100	0.513200
H1151	H115	0.177900	0.725300	0.615200
H1161	H116	0.045400	0.755200	0.944800
H1171	H117	0.947000	0.716700	0.789200
H1181	H118	0.967100	0.759100	0.767500
H1191	H119	0.918400	0.777000	0.810300
H1201	H120	0.005300	0.672600	0.873100
H1211	H121	0.006500	0.666600	0.810600
H1221	H122	0.953400	0.682800	0.846500
H1231	H123	0.086400	0.803900	0.021800
H1241	H124	0.213900	0.925700	0.219900
H1251	H125	0.126200	0.796300	0.093700
H1261	H126	0.190000	0.093100	0.223700
H1271	H127	0.148900	0.055600	0.235900
H1281	H128	0.151500	0.050100	0.173700
H1291	H129	0.267900	0.043900	0.157700
H1301	H130	0.230700	0.999200	0.107200
H1311	H131	0.276700	0.976000	0.130500
H1321	H132	0.262700	0.058300	0.257800
H1331	H133	0.273600	0.990900	0.231500
H1341	H134	0.224100	0.020200	0.271900
H1351	H135	0.171600	0.739800	0.119000
H1361	H136	0.173100	0.686000	0.167200
H1371	H137	0.179400	0.836100	0.322900
H1381	H138	0.177900	0.889900	0.274700
H1391	H139	0.454600	0.055200	0.244800
H1401	H140	0.553000	0.210800	0.283300
H1411	H141	0.532900	0.232500	0.240900
H1421	H142	0.581600	0.189700	0.223000
H1431	H143	0.494700	0.126900	0.327400
H1441	H144	0.493500	0.189400	0.333400
H1451	H145	0.546600	0.153500	0.317200
H1461	H146	0.413600	0.978200	0.196100
H1471	H147	0.286100	0.780100	0.074300
H1481	H148	0.373800	0.906300	0.203700
H1491	H149	0.310000	0.776300	0.906900
H1501	H150	0.351100	0.764100	0.944400
H1511	H151	0.348500	0.826300	0.949900
H1521	H152	0.232100	0.842300	0.956100
H1531	H153	0.269300	0.892800	0.000800
H1541	H154	0.223300	0.869500	0.024000
H1551	H155	0.237300	0.742200	0.941700
H1561	H156	0.226400	0.768500	0.009100
H1571	H157	0.275900	0.728100	0.979800
H1581	H158	0.328400	0.881000	0.260200
H1591	H159	0.326900	0.832800	0.314000
H1601	H160	0.320600	0.677100	0.163900
H1611	H161	0.322100	0.725300	0.110100
H1621	H162	0.454600	0.755200	0.810400
H1631	H163	0.553000	0.716700	0.927500
H1641	H164	0.532900	0.759100	0.991600
H1651	H165	0.581600	0.777000	0.966700
H1661	H166	0.494700	0.672600	0.799500
H1671	H167	0.493500	0.666600	0.856000
H1681	H168	0.546600	0.682800	0.836300
H1691	H169	0.413600	0.803900	0.782100
H1701	H170	0.286100	0.925700	0.705800
H1711	H171	0.373800	0.796300	0.702600
H1721	H172	0.310000	0.093100	0.869400
H1731	H173	0.351100	0.055600	0.819700
H1741	H174	0.348500	0.050100	0.876400
H1751	H175	0.232100	0.043900	0.886200
H1761	H176	0.269300	0.999200	0.892000
H1771	H177	0.223300	0.976000	0.845500
H1781	H178	0.237300	0.058300	0.800500
H1791	H179	0.226400	0.990900	0.759400
H1801	H180	0.275900	0.020200	0.748300
H1811	H181	0.328400	0.739800	0.620800
H1821	H182	0.326900	0.686000	0.518800
H1831	H183	0.320600	0.836100	0.513200
H1841	H184	0.322100	0.889900	0.615200
H1851	H185	0.454600	0.189600	0.944800
H1861	H186	0.553000	0.072500	0.789200
H1871	H187	0.532900	0.008400	0.767500
H1881	H188	0.581600	0.033300	0.810300
H1891	H189	0.494700	0.200500	0.873100
H1901	H190	0.493500	0.144000	0.810600
H1911	H191	0.546600	0.163700	0.846500
H1921	H192	0.413600	0.217900	0.021800
H1931	H193	0.286100	0.294200	0.219900
H1941	H194	0.373800	0.297400	0.093700
H1951	H195	0.310000	0.130600	0.223700
H1961	H196	0.351100	0.180300	0.235900
H1971	H197	0.348500	0.123600	0.173700
H1981	H198	0.232100	0.113800	0.157700
H1991	H199	0.269300	0.108000	0.107200
H2001	H200	0.223300	0.154500	0.130500
H2011	H201	0.237300	0.199500	0.257800
H2021	H202	0.226400	0.240600	0.231500
H2031	H203	0.275900	0.251700	0.271900
H2041	H204	0.328400	0.379200	0.119000
H2051	H205	0.326900	0.481200	0.167200
H2061	H206	0.320600	0.486800	0.322900
H2071	H207	0.322100	0.384800	0.274700
H2081	H208	0.954600	0.944800	0.755200
H2091	H209	0.053000	0.789200	0.716700
H2101	H210	0.032900	0.767500	0.759100
H2111	H211	0.081600	0.810300	0.777000
H2121	H212	0.994700	0.873100	0.672600
H2131	H213	0.993500	0.810600	0.666600
H2141	H214	0.046600	0.846500	0.682800
H2151	H215	0.913600	0.021800	0.803900
H2161	H216	0.786100	0.219900	0.925700
H2171	H217	0.873800	0.093700	0.796300
H2181	H218	0.810000	0.223700	0.093100
H2191	H219	0.851100	0.235900	0.055600
H2201	H220	0.848500	0.173700	0.050100
H2211	H221	0.732100	0.157700	0.043900
H2221	H222	0.769300	0.107200	0.999200
H2231	H223	0.723300	0.130500	0.976000
H2241	H224	0.737300	0.257800	0.058300
H2251	H225	0.726400	0.231500	0.990900
H2261	H226	0.775900	0.271900	0.020200
H2271	H227	0.828400	0.119000	0.739800
H2281	H228	0.826900	0.167200	0.686000
H2291	H229	0.820600	0.322900	0.836100
H2301	H230	0.822100	0.274700	0.889900
H2311	H231	0.954600	0.244800	0.189600
H2321	H232	0.053000	0.283300	0.072500
H2331	H233	0.032900	0.240900	0.008400
H2341	H234	0.081600	0.223000	0.033300
H2351	H235	0.994700	0.327400	0.200500
H2361	H236	0.993500	0.333400	0.144000
H2371	H237	0.046600	0.317200	0.163700
H2381	H238	0.913600	0.196100	0.217900
H2391	H239	0.786100	0.074300	0.294200
H2401	H240	0.873800	0.203700	0.297400
H2411	H241	0.810000	0.906900	0.130600
H2421	H242	0.851100	0.944400	0.180300
H2431	H243	0.848500	0.949900	0.123600
H2441	H244	0.732100	0.956100	0.113800
H2451	H245	0.769300	0.000800	0.108000
H2461	H246	0.723300	0.024000	0.154500
H2471	H247	0.737300	0.941700	0.199500
H2481	H248	0.726400	0.009100	0.240600
H2491	H249	0.775900	0.979800	0.251700
H2501	H250	0.828400	0.260200	0.379200
H2511	H251	0.826900	0.314000	0.481200
H2521	H252	0.820600	0.163900	0.486800
H2531	H253	0.822100	0.110100	0.384800
H2541	H254	0.954600	0.810400	0.055200
H2551	H255	0.053000	0.927500	0.210800
H2561	H256	0.032900	0.991600	0.232500
H2571	H257	0.081600	0.966700	0.189700
H2581	H258	0.994700	0.799500	0.126900
H2591	H259	0.993500	0.856000	0.189400
H2601	H260	0.046600	0.836300	0.153500
H2611	H261	0.913600	0.782100	0.978200
H2621	H262	0.786100	0.705800	0.780100
H2631	H263	0.873800	0.702600	0.906300
H2641	H264	0.810000	0.869400	0.776300
H2651	H265	0.851100	0.819700	0.764100
H2661	H266	0.848500	0.876400	0.826300
H2671	H267	0.732100	0.886200	0.842300
H2681	H268	0.769300	0.892000	0.892800
H2691	H269	0.723300	0.845500	0.869500
H2701	H270	0.737300	0.800500	0.742200
H2711	H271	0.726400	0.759400	0.768500
H2721	H272	0.775900	0.748300	0.728100
H2731	H273	0.828400	0.620800	0.881000
H2741	H274	0.826900	0.518800	0.832800
H2751	H275	0.820600	0.513200	0.677100
H2761	H276	0.822100	0.615200	0.725300
C11	C1	0.534680	0.940660	0.870080
C21	C2	0.550110	0.882180	0.836450
C31	C3	0.535070	0.849570	0.777740
C41	C4	0.504590	0.875450	0.752660
C51	C5	0.489160	0.933930	0.786300
C61	C6	0.504200	0.966540	0.845010
C71	C7	0.452000	0.957100	0.757100
C81	C8	0.491200	0.838400	0.687700
C91	C9	0.598500	0.807800	0.841700
C101	C10	0.632480	0.783620	0.868050
C111	C11	0.654540	0.814680	0.923980
C121	C12	0.685050	0.785500	0.945540
C131	C13	0.693490	0.725280	0.911200
C141	C14	0.671430	0.694220	0.855270
C151	C15	0.640920	0.723400	0.833700
C161	C16	0.712700	0.819100	0.006500
C171	C17	0.672000	0.848900	0.055900
C181	C18	0.750600	0.865000	0.006400
C191	C19	0.746500	0.777900	0.020300
C201	C20	0.674600	0.628130	0.820230
C211	C21	0.673200	0.599240	0.759130
C221	C22	0.674100	0.538140	0.726840
C231	C23	0.677800	0.534790	0.816800
C241	C24	0.676900	0.595900	0.849070
C251	C25	0.534680	0.929420	0.059340
C261	C26	0.550110	0.954270	0.117820
C271	C27	0.535070	0.928170	0.150430
C281	C28	0.504590	0.877210	0.124550
C291	C29	0.489160	0.852370	0.066070
C301	C30	0.504200	0.878470	0.033460
C311	C31	0.452000	0.800000	0.042900
C321	C32	0.491200	0.849300	0.161600
C331	C33	0.598500	0.033900	0.192200
C341	C34	0.632480	0.084430	0.216380
C351	C35	0.654540	0.109300	0.185320
C361	C36	0.685050	0.160040	0.214500
C371	C37	0.693490	0.185920	0.274720
C381	C38	0.671430	0.161050	0.305780
C391	C39	0.640920	0.110300	0.276600
C401	C40	0.712700	0.187400	0.180900
C411	C41	0.672000	0.207000	0.151100
C421	C42	0.750600	0.141400	0.135000
C431	C43	0.746500	0.242400	0.222100
C441	C44	0.674600	0.192100	0.371870
C451	C45	0.673200	0.159890	0.400760
C461	C46	0.674100	0.188700	0.461860
C471	C47	0.677800	0.282010	0.465210
C481	C48	0.676900	0.253170	0.404100
C491	C49	0.534680	0.129920	0.070580
C501	C50	0.550110	0.163550	0.045730
C511	C51	0.535070	0.222260	0.071830
C521	C52	0.504590	0.247340	0.122790
C531	C53	0.489160	0.213700	0.147630
C541	C54	0.504200	0.154990	0.121530
C551	C55	0.452000	0.242900	0.200000
C561	C56	0.491200	0.312300	0.150700
C571	C57	0.598500	0.158300	0.966100
C581	C58	0.632480	0.131950	0.915570
C591	C59	0.654540	0.076020	0.890700
C601	C60	0.685050	0.054460	0.839960
C611	C61	0.693490	0.088800	0.814080
C621	C62	0.671430	0.144730	0.838950
C631	C63	0.640920	0.166300	0.889700
C641	C64	0.712700	0.993500	0.812600
C651	C65	0.672000	0.944100	0.793000
C661	C66	0.750600	0.993600	0.858600
C671	C67	0.746500	0.979700	0.757600
C681	C68	0.674600	0.179770	0.807900
C691	C69	0.673200	0.240870	0.840110
C701	C70	0.674100	0.273160	0.811300
C711	C71	0.677800	0.183200	0.717990
C721	C72	0.676900	0.150930	0.746830
C731	C73	0.034680	0.059340	0.129920
C741	C74	0.050110	0.117820	0.163550
C751	C75	0.035070	0.150430	0.222260
C761	C76	0.004590	0.124550	0.247340
C771	C77	0.989160	0.066070	0.213700
C781	C78	0.004200	0.033460	0.154990
C791	C79	0.952000	0.042900	0.242900
C801	C80	0.991200	0.161600	0.312300
C811	C81	0.098500	0.192200	0.158300
C821	C82	0.132480	0.216380	0.131950
C831	C83	0.154540	0.185320	0.076020
C841	C84	0.185050	0.214500	0.054460
C851	C85	0.193490	0.274720	0.088800
C861	C86	0.171430	0.305780	0.144730
C871	C87	0.140920	0.276600	0.166300
C881	C88	0.212700	0.180900	0.993500
C891	C89	0.172000	0.151100	0.944100
C901	C90	0.250600	0.135000	0.993600
C911	C91	0.246500	0.222100	0.979700
C921	C92	0.174600	0.371870	0.179770
C931	C93	0.173200	0.400760	0.240870
C941	C94	0.174100	0.461860	0.273160
C951	C95	0.177800	0.465210	0.183200
C961	C96	0.176900	0.404100	0.150930
C971	C97	0.034680	0.070580	0.940660
C981	C98	0.050110	0.045730	0.882180
C991	C99	0.035070	0.071830	0.849570
C1001	C100	0.004590	0.122790	0.875450
C1011	C101	0.989160	0.147630	0.933930
C1021	C102	0.004200	0.121530	0.966540
C1031	C103	0.952000	0.200000	0.957100
C1041	C104	0.991200	0.150700	0.838400
C1051	C105	0.098500	0.966100	0.807800
C1061	C106	0.132480	0.915570	0.783620
C1071	C107	0.154540	0.890700	0.814680
C1081	C108	0.185050	0.839960	0.785500
C1091	C109	0.193490	0.814080	0.725280
C1101	C110	0.171430	0.838950	0.694220
C1111	C111	0.140920	0.889700	0.723400
C1121	C112	0.212700	0.812600	0.819100
C1131	C113	0.172000	0.793000	0.848900
C1141	C114	0.250600	0.858600	0.865000
C1151	C115	0.246500	0.757600	0.777900
C1161	C116	0.174600	0.807900	0.628130
C1171	C117	0.173200	0.840110	0.599240
C1181	C118	0.174100	0.811300	0.538140
C1191	C119	0.177800	0.717990	0.534790
C1201	C120	0.176900	0.746830	0.595900
C1211	C121	0.034680	0.870080	0.929420
C1221	C122	0.050110	0.836450	0.954270
C1231	C123	0.035070	0.777740	0.928170
C1241	C124	0.004590	0.752660	0.877210
C1251	C125	0.989160	0.786300	0.852370
C1261	C126	0.004200	0.845010	0.878470
C1271	C127	0.952000	0.757100	0.800000
C1281	C128	0.991200	0.687700	0.849300
C1291	C129	0.098500	0.841700	0.033900
C1301	C130	0.132480	0.868050	0.084430
C1311	C131	0.154540	0.923980	0.109300
C1321	C132	0.185050	0.945540	0.160040
C1331	C133	0.193490	0.911200	0.185920
C1341	C134	0.171430	0.855270	0.161050
C1351	C135	0.140920	0.833700	0.110300
C1361	C136	0.212700	0.006500	0.187400
C1371	C137	0.172000	0.055900	0.207000
C1381	C138	0.250600	0.006400	0.141400
C1391	C139	0.246500	0.020300	0.242400
C1401	C140	0.174600	0.820230	0.192100
C1411	C141	0.173200	0.759130	0.159890
C1421	C142	0.174100	0.726840	0.188700
C1431	C143	0.177800	0.816800	0.282010
C1441	C144	0.176900	0.849070	0.253170
C1451	C145	0.465320	0.070580	0.129920
C1461	C146	0.449890	0.045730	0.163550
C1471	C147	0.464930	0.071830	0.222260
C1481	C148	0.495410	0.122790	0.247340
C1491	C149	0.510840	0.147630	0.213700
C1501	C150	0.495800	0.121530	0.154990
C1511	C151	0.548000	0.200000	0.242900
C1521	C152	0.508800	0.150700	0.312300
C1531	C153	0.401500	0.966100	0.158300
C1541	C154	0.367520	0.915570	0.131950
C1551	C155	0.345460	0.890700	0.076020
C1561	C156	0.314950	0.839960	0.054460
C1571	C157	0.306510	0.814080	0.088800
C1581	C158	0.328570	0.838950	0.144730
C1591	C159	0.359080	0.889700	0.166300
C1601	C160	0.287300	0.812600	0.993500
C1611	C161	0.328000	0.793000	0.944100
C1621	C162	0.249400	0.858600	0.993600
C1631	C163	0.253500	0.757600	0.979700
C1641	C164	0.325400	0.807900	0.179770
C1651	C165	0.326800	0.840110	0.240870
C1661	C166	0.325900	0.811300	0.273160
C1671	C167	0.322200	0.717990	0.183200
C1681	C168	0.323100	0.746830	0.150930
C1691	C169	0.465320	0.870080	0.940660
C1701	C170	0.449890	0.836450	0.882180
C1711	C171	0.464930	0.777740	0.849570
C1721	C172	0.495410	0.752660	0.875450
C1731	C173	0.510840	0.786300	0.933930
C1741	C174	0.495800	0.845010	0.966540
C1751	C175	0.548000	0.757100	0.957100
C1761	C176	0.508800	0.687700	0.838400
C1771	C177	0.401500	0.841700	0.807800
C1781	C178	0.367520	0.868050	0.783620
C1791	C179	0.345460	0.923980	0.814680
C1801	C180	0.314950	0.945540	0.785500
C1811	C181	0.306510	0.911200	0.725280
C1821	C182	0.328570	0.855270	0.694220
C1831	C183	0.359080	0.833700	0.723400
C1841	C184	0.287300	0.006500	0.819100
C1851	C185	0.328000	0.055900	0.848900
C1861	C186	0.249400	0.006400	0.865000
C1871	C187	0.253500	0.020300	0.777900
C1881	C188	0.325400	0.820230	0.628130
C1891	C189	0.326800	0.759130	0.599240
C1901	C190	0.325900	0.726840	0.538140
C1911	C191	0.322200	0.816800	0.534790
C1921	C192	0.323100	0.849070	0.595900
C1931	C193	0.465320	0.059340	0.929420
C1941	C194	0.449890	0.117820	0.954270
C1951	C195	0.464930	0.150430	0.928170
C1961	C196	0.495410	0.124550	0.877210
C1971	C197	0.510840	0.066070	0.852370
C1981	C198	0.495800	0.033460	0.878470
C1991	C199	0.548000	0.042900	0.800000
C2001	C200	0.508800	0.161600	0.849300
C2011	C201	0.401500	0.192200	0.033900
C2021	C202	0.367520	0.216380	0.084430
C2031	C203	0.345460	0.185320	0.109300
C2041	C204	0.314950	0.214500	0.160040
C2051	C205	0.306510	0.274720	0.185920
C2061	C206	0.328570	0.305780	0.161050
C2071	C207	0.359080	0.276600	0.110300
C2081	C208	0.287300	0.180900	0.187400
C2091	C209	0.328000	0.151100	0.207000
C2101	C210	0.249400	0.135000	0.141400
C2111	C211	0.253500	0.222100	0.242400
C2121	C212	0.325400	0.371870	0.192100
C2131	C213	0.326800	0.400760	0.159890
C2141	C214	0.325900	0.461860	0.188700
C2151	C215	0.322200	0.465210	0.282010
C2161	C216	0.323100	0.404100	0.253170
C2171	C217	0.965320	0.929420	0.870080
C2181	C218	0.949890	0.954270	0.836450
C2191	C219	0.964930	0.928170	0.777740
C2201	C220	0.995410	0.877210	0.752660
C2211	C221	0.010840	0.852370	0.786300
C2221	C222	0.995800	0.878470	0.845010
C2231	C223	0.048000	0.800000	0.757100
C2241	C224	0.008800	0.849300	0.687700
C2251	C225	0.901500	0.033900	0.841700
C2261	C226	0.867520	0.084430	0.868050
C2271	C227	0.845460	0.109300	0.923980
C2281	C228	0.814950	0.160040	0.945540
C2291	C229	0.806510	0.185920	0.911200
C2301	C230	0.828570	0.161050	0.855270
C2311	C231	0.859080	0.110300	0.833700
C2321	C232	0.787300	0.187400	0.006500
C2331	C233	0.828000	0.207000	0.055900
C2341	C234	0.749400	0.141400	0.006400
C2351	C235	0.753500	0.242400	0.020300
C2361	C236	0.825400	0.192100	0.820230
C2371	C237	0.826800	0.159890	0.759130
C2381	C238	0.825900	0.188700	0.726840
C2391	C239	0.822200	0.282010	0.816800
C2401	C240	0.823100	0.253170	0.849070
C2411	C241	0.965320	0.129920	0.059340
C2421	C242	0.949890	0.163550	0.117820
C2431	C243	0.964930	0.222260	0.150430
C2441	C244	0.995410	0.247340	0.124550
C2451	C245	0.010840	0.213700	0.066070
C2461	C246	0.995800	0.154990	0.033460
C2471	C247	0.048000	0.242900	0.042900
C2481	C248	0.008800	0.312300	0.161600
C2491	C249	0.901500	0.158300	0.192200
C2501	C250	0.867520	0.131950	0.216380
C2511	C251	0.845460	0.076020	0.185320
C2521	C252	0.814950	0.054460	0.214500
C2531	C253	0.806510	0.088800	0.274720
C2541	C254	0.828570	0.144730	0.305780
C2551	C255	0.859080	0.166300	0.276600
C2561	C256	0.787300	0.993500	0.180900
C2571	C257	0.828000	0.944100	0.151100
C2581	C258	0.749400	0.993600	0.135000
C2591	C259	0.753500	0.979700	0.222100
C2601	C260	0.825400	0.179770	0.371870
C2611	C261	0.826800	0.240870	0.400760
C2621	C262	0.825900	0.273160	0.461860
C2631	C263	0.822200	0.183200	0.465210
C2641	C264	0.823100	0.150930	0.404100
C2651	C265	0.965320	0.940660	0.070580
C2661	C266	0.949890	0.882180	0.045730
C2671	C267	0.964930	0.849570	0.071830
C2681	C268	0.995410	0.875450	0.122790
C2691	C269	0.010840	0.933930	0.147630
C2701	C270	0.995800	0.966540	0.121530
C2711	C271	0.048000	0.957100	0.200000
C2721	C272	0.008800	0.838400	0.150700
C2731	C273	0.901500	0.807800	0.966100
C2741	C274	0.867520	0.783620	0.915570
C2751	C275	0.845460	0.814680	0.890700
C2761	C276	0.814950	0.785500	0.839960
C2771	C277	0.806510	0.725280	0.814080
C2781	C278	0.828570	0.694220	0.838950
C2791	C279	0.859080	0.723400	0.889700
C2801	C280	0.787300	0.819100	0.812600
C2811	C281	0.828000	0.848900	0.793000
C2821	C282	0.749400	0.865000	0.858600
C2831	C283	0.753500	0.777900	0.757600
C2841	C284	0.825400	0.628130	0.807900
C2851	C285	0.826800	0.599240	0.840110
C2861	C286	0.825900	0.538140	0.811300
C2871	C287	0.822200	0.534790	0.717990
C2881	C288	0.823100	0.595900	0.746830
S11	S1	0.588600	0.365400	0.732700
S21	S2	0.588600	0.367300	0.634600
S31	S3	0.588600	0.267300	0.632700
S41	S4	0.088600	0.634600	0.267300
S51	S5	0.088600	0.632700	0.365400
S61	S6	0.088600	0.732700	0.367300
S71	S7	0.411400	0.632700	0.267300
S81	S8	0.411400	0.732700	0.365400
S91	S9	0.411400	0.634600	0.367300
S101	S10	0.911400	0.367300	0.732700
S111	S11	0.911400	0.267300	0.634600
S121	S12	0.911400	0.365400	0.632700
S131	S13	0.750000	0.404360	0.808720
S141	S14	0.750000	0.404360	0.595640
S151	S15	0.750000	0.191280	0.595640
S161	S16	0.250000	0.595640	0.191280
S171	S17	0.250000	0.595640	0.404360
S181	S18	0.250000	0.808720	0.404360
N11	N1	0.676400	0.505910	0.755710
N21	N2	0.583160	0.861500	0.865200
N31	N3	0.676400	0.249800	0.494090
N41	N4	0.583160	0.003700	0.138500
N51	N5	0.676400	0.244290	0.750200
N61	N6	0.583160	0.134800	0.996300
N71	N7	0.176400	0.494090	0.244290
N81	N8	0.083160	0.138500	0.134800
N91	N9	0.176400	0.750200	0.505910
N101	N10	0.083160	0.996300	0.861500
N111	N11	0.176400	0.755710	0.249800
N121	N12	0.083160	0.865200	0.003700
N131	N13	0.323600	0.750200	0.244290
N141	N14	0.416840	0.996300	0.134800
N151	N15	0.323600	0.755710	0.505910
N161	N16	0.416840	0.865200	0.861500
N171	N17	0.323600	0.494090	0.249800
N181	N18	0.416840	0.138500	0.003700
N191	N19	0.823600	0.249800	0.755710
N201	N20	0.916840	0.003700	0.865200
N211	N21	0.823600	0.244290	0.494090
N221	N22	0.916840	0.134800	0.138500
N231	N23	0.823600	0.505910	0.750200
N241	N24	0.916840	0.861500	0.996300
O11	O1	0.551280	0.970870	0.927580
O21	O2	0.646110	0.872850	0.958680
O31	O3	0.751700	0.430300	0.769500
O41	O4	0.701600	0.422500	0.844300
O51	O5	0.625900	0.415300	0.755700
O61	O6	0.536500	0.382700	0.764400
O71	O7	0.618900	0.323900	0.745600
O81	O8	0.551280	0.956710	0.029130
O91	O9	0.646110	0.085830	0.127150
O101	O10	0.751700	0.339200	0.569700
O111	O11	0.701600	0.421800	0.577500
O121	O12	0.625900	0.340400	0.584700
O131	O13	0.536500	0.381700	0.617300
O141	O14	0.618900	0.421700	0.676100
O151	O15	0.551280	0.072420	0.043290
O161	O16	0.646110	0.041320	0.914170
O171	O17	0.751700	0.230500	0.660800
O181	O18	0.701600	0.155700	0.578200
O191	O19	0.625900	0.244300	0.659600
O201	O20	0.536500	0.235600	0.618300
O211	O21	0.618900	0.254400	0.578300
O221	O22	0.051280	0.029130	0.072420
O231	O23	0.146110	0.127150	0.041320
O241	O24	0.251700	0.569700	0.230500
O251	O25	0.201600	0.577500	0.155700
O261	O26	0.125900	0.584700	0.244300
O271	O27	0.036500	0.617300	0.235600
O281	O28	0.118900	0.676100	0.254400
O291	O29	0.051280	0.043290	0.970870
O301	O30	0.146110	0.914170	0.872850
O311	O31	0.251700	0.660800	0.430300
O321	O32	0.201600	0.578200	0.422500
O331	O33	0.125900	0.659600	0.415300
O341	O34	0.036500	0.618300	0.382700
O351	O35	0.118900	0.578300	0.323900
O361	O36	0.051280	0.927580	0.956710
O371	O37	0.146110	0.958680	0.085830
O381	O38	0.251700	0.769500	0.339200
O391	O39	0.201600	0.844300	0.421800
O401	O40	0.125900	0.755700	0.340400
O411	O41	0.036500	0.764400	0.381700
O421	O42	0.118900	0.745600	0.421700
O431	O43	0.448720	0.043290	0.072420
O441	O44	0.353890	0.914170	0.041320
O451	O45	0.248300	0.660800	0.230500
O461	O46	0.298400	0.578200	0.155700
O471	O47	0.374100	0.659600	0.244300
O481	O48	0.463500	0.618300	0.235600
O491	O49	0.381100	0.578300	0.254400
O501	O50	0.448720	0.927580	0.970870
O511	O51	0.353890	0.958680	0.872850
O521	O52	0.248300	0.769500	0.430300
O531	O53	0.298400	0.844300	0.422500
O541	O54	0.374100	0.755700	0.415300
O551	O55	0.463500	0.764400	0.382700
O561	O56	0.381100	0.745600	0.323900
O571	O57	0.448720	0.029130	0.956710
O581	O58	0.353890	0.127150	0.085830
O591	O59	0.248300	0.569700	0.339200
O601	O60	0.298400	0.577500	0.421800
O611	O61	0.374100	0.584700	0.340400
O621	O62	0.463500	0.617300	0.381700
O631	O63	0.381100	0.676100	0.421700
O641	O64	0.948720	0.956710	0.927580
O651	O65	0.853890	0.085830	0.958680
O661	O66	0.748300	0.339200	0.769500
O671	O67	0.798400	0.421800	0.844300
O681	O68	0.874100	0.340400	0.755700
O691	O69	0.963500	0.381700	0.764400
O701	O70	0.881100	0.421700	0.745600
O711	O71	0.948720	0.072420	0.029130
O721	O72	0.853890	0.041320	0.127150
O731	O73	0.748300	0.230500	0.569700
O741	O74	0.798400	0.155700	0.577500
O751	O75	0.874100	0.244300	0.584700
O761	O76	0.963500	0.235600	0.617300
O771	O77	0.881100	0.254400	0.676100
O781	O78	0.948720	0.970870	0.043290
O791	O79	0.853890	0.872850	0.914170
O801	O80	0.748300	0.430300	0.660800
O811	O81	0.798400	0.422500	0.578200
O821	O82	0.874100	0.415300	0.659600
O831	O83	0.963500	0.382700	0.618300
O841	O84	0.881100	0.323900	0.578300
O851	O85	0.635900	0.000000	0.000000
O861	O86	0.135900	0.000000	0.000000
O871	O87	0.364100	0.000000	0.000000
O881	O88	0.864100	0.000000	0.000000
O891	O89	0.698800	0.333330	0.666660
O901	O90	0.578000	0.333330	0.666660
O911	O91	0.198800	0.666670	0.333340
O921	O92	0.078000	0.666670	0.333340
O931	O93	0.301200	0.666670	0.333340
O941	O94	0.422000	0.666670	0.333340
O951	O95	0.801200	0.333330	0.666660
O961	O96	0.922000	0.333330	0.666660
