data_ELAZEX_clean_PM
_symmetry_space_group_name_H-M	'P1'
_cell_length_a	7.623300
_cell_length_b	13.026600
_cell_length_c	29.191000
_cell_angle_alpha	90.000000
_cell_angle_beta	90.000000
_cell_angle_gamma	102.998000
_symmetry_Int_Tables_number 1

loop_
_symmetry_equiv_pos_as_xyz
'x,y,z'

loop_
_atom_site_label
_atom_site_type_symbol
_atom_site_fract_x
_atom_site_fract_y
_atom_site_fract_z
Cd11	Cd1	0.886700	0.180180	0.009870
Cd21	Cd2	0.552520	0.189430	0.105040
Cd31	Cd3	0.613300	0.319820	0.509870
Cd41	Cd4	0.947480	0.310570	0.605040
Cd51	Cd5	0.113300	0.819820	0.990130
Cd61	Cd6	0.447480	0.810570	0.894960
Cd71	Cd7	0.386700	0.680180	0.490130
Cd81	Cd8	0.052520	0.689430	0.394960
Cd91	Cd9	0.500000	0.000000	0.000000
Cd101	Cd10	0.000000	0.500000	0.500000
H11	H1	0.914100	0.492800	0.149300
H21	H2	0.523000	0.546700	0.119700
H31	H3	0.420300	0.655900	0.170300
H41	H4	0.239700	0.842900	0.143600
H51	H5	0.627300	0.798200	0.120200
H61	H6	0.732600	0.690400	0.171100
H71	H7	0.424800	0.003300	0.178200
H81	H8	0.515100	0.901600	0.233200
H91	H9	0.022800	0.045300	0.205900
H101	H10	0.919400	0.141900	0.150900
H111	H11	0.606600	0.799500	0.278400
H121	H12	0.711200	0.705400	0.333100
H131	H13	0.204500	0.855700	0.311200
H141	H14	0.111700	0.960400	0.257600
H151	H15	0.570000	0.194000	0.018900
H161	H16	0.585900	0.007200	0.649300
H171	H17	0.977000	0.953300	0.619700
H181	H18	0.079700	0.844100	0.670300
H191	H19	0.260300	0.657100	0.643600
H201	H20	0.872700	0.701800	0.620200
H211	H21	0.767400	0.809600	0.671100
H221	H22	0.075200	0.496700	0.678200
H231	H23	0.984900	0.598400	0.733200
H241	H24	0.477200	0.454700	0.705900
H251	H25	0.580600	0.358100	0.650900
H261	H26	0.893400	0.700500	0.778400
H271	H27	0.788800	0.794600	0.833100
H281	H28	0.295500	0.644300	0.811200
H291	H29	0.388300	0.539600	0.757600
H301	H30	0.930000	0.306000	0.518900
H311	H31	0.085900	0.507200	0.850700
H321	H32	0.477000	0.453300	0.880300
H331	H33	0.579700	0.344100	0.829700
H341	H34	0.760300	0.157100	0.856400
H351	H35	0.372700	0.201800	0.879800
H361	H36	0.267400	0.309600	0.828900
H371	H37	0.575200	0.996700	0.821800
H381	H38	0.484900	0.098400	0.766800
H391	H39	0.977200	0.954700	0.794100
H401	H40	0.080600	0.858100	0.849100
H411	H41	0.393400	0.200500	0.721600
H421	H42	0.288800	0.294600	0.666900
H431	H43	0.795500	0.144300	0.688800
H441	H44	0.888300	0.039600	0.742400
H451	H45	0.430000	0.806000	0.981100
H461	H46	0.414100	0.992800	0.350700
H471	H47	0.023000	0.046700	0.380300
H481	H48	0.920300	0.155900	0.329700
H491	H49	0.739700	0.342900	0.356400
H501	H50	0.127300	0.298200	0.379800
H511	H51	0.232600	0.190400	0.328900
H521	H52	0.924800	0.503300	0.321800
H531	H53	0.015100	0.401600	0.266800
H541	H54	0.522800	0.545300	0.294100
H551	H55	0.419400	0.641900	0.349100
H561	H56	0.106600	0.299500	0.221600
H571	H57	0.211200	0.205400	0.166900
H581	H58	0.704500	0.355700	0.188800
H591	H59	0.611700	0.460400	0.242400
H601	H60	0.070000	0.694000	0.481100
C11	C1	0.157200	0.584700	0.164160
C21	C2	0.036600	0.502800	0.143390
C31	C3	0.098100	0.435300	0.113670
C41	C4	0.283200	0.452700	0.104610
C51	C5	0.400400	0.535300	0.125820
C61	C6	0.339800	0.601300	0.155860
C71	C7	0.961800	0.347600	0.091150
C81	C8	0.363300	0.384900	0.071560
C91	C9	0.996200	0.757200	0.162150
C101	C10	0.116700	0.834700	0.138800
C111	C11	0.054900	0.900600	0.108190
C121	C12	0.869000	0.887900	0.101550
C131	C13	0.750600	0.808000	0.125060
C141	C14	0.812900	0.743000	0.155430
C151	C15	0.196500	0.981200	0.083510
C161	C16	0.792200	0.960300	0.071030
C171	C17	0.547500	0.011500	0.183470
C181	C18	0.600900	0.949900	0.216870
C191	C19	0.781800	0.959800	0.226090
C201	C20	0.899600	0.034300	0.200660
C211	C21	0.836300	0.092800	0.167570
C221	C22	0.845800	0.893100	0.260990
C231	C23	0.729200	0.813900	0.284740
C241	C24	0.793600	0.757000	0.317470
C251	C25	0.082100	0.845400	0.305070
C261	C26	0.027100	0.908100	0.272190
C271	C27	0.342800	0.915300	0.664160
C281	C28	0.463400	0.997200	0.643390
C291	C29	0.401900	0.064700	0.613670
C301	C30	0.216800	0.047300	0.604610
C311	C31	0.099600	0.964700	0.625820
C321	C32	0.160200	0.898700	0.655860
C331	C33	0.538200	0.152400	0.591150
C341	C34	0.136700	0.115100	0.571560
C351	C35	0.503800	0.742800	0.662150
C361	C36	0.383300	0.665300	0.638800
C371	C37	0.445100	0.599400	0.608190
C381	C38	0.631000	0.612100	0.601550
C391	C39	0.749400	0.692000	0.625060
C401	C40	0.687100	0.757000	0.655430
C411	C41	0.303500	0.518800	0.583510
C421	C42	0.707800	0.539700	0.571030
C431	C43	0.952500	0.488500	0.683470
C441	C44	0.899100	0.550100	0.716870
C451	C45	0.718200	0.540200	0.726090
C461	C46	0.600400	0.465700	0.700660
C471	C47	0.663700	0.407200	0.667570
C481	C48	0.654200	0.606900	0.760990
C491	C49	0.770800	0.686100	0.784740
C501	C50	0.706400	0.743000	0.817470
C511	C51	0.417900	0.654600	0.805070
C521	C52	0.472900	0.591900	0.772190
C531	C53	0.842800	0.415300	0.835840
C541	C54	0.963400	0.497200	0.856610
C551	C55	0.901900	0.564700	0.886330
C561	C56	0.716800	0.547300	0.895390
C571	C57	0.599600	0.464700	0.874180
C581	C58	0.660200	0.398700	0.844140
C591	C59	0.038200	0.652400	0.908850
C601	C60	0.636700	0.615100	0.928440
C611	C61	0.003800	0.242800	0.837850
C621	C62	0.883300	0.165300	0.861200
C631	C63	0.945100	0.099400	0.891810
C641	C64	0.131000	0.112100	0.898450
C651	C65	0.249400	0.192000	0.874940
C661	C66	0.187100	0.257000	0.844570
C671	C67	0.803500	0.018800	0.916490
C681	C68	0.207800	0.039700	0.928970
C691	C69	0.452500	0.988500	0.816530
C701	C70	0.399100	0.050100	0.783130
C711	C71	0.218200	0.040200	0.773910
C721	C72	0.100400	0.965700	0.799340
C731	C73	0.163700	0.907200	0.832430
C741	C74	0.154200	0.106900	0.739010
C751	C75	0.270800	0.186100	0.715260
C761	C76	0.206400	0.243000	0.682530
C771	C77	0.917900	0.154600	0.694930
C781	C78	0.972900	0.091900	0.727810
C791	C79	0.657200	0.084700	0.335840
C801	C80	0.536600	0.002800	0.356610
C811	C81	0.598100	0.935300	0.386330
C821	C82	0.783200	0.952700	0.395390
C831	C83	0.900400	0.035300	0.374180
C841	C84	0.839800	0.101300	0.344140
C851	C85	0.461800	0.847600	0.408850
C861	C86	0.863300	0.884900	0.428440
C871	C87	0.496200	0.257200	0.337850
C881	C88	0.616700	0.334700	0.361200
C891	C89	0.554900	0.400600	0.391810
C901	C90	0.369000	0.387900	0.398450
C911	C91	0.250600	0.308000	0.374940
C921	C92	0.312900	0.243000	0.344570
C931	C93	0.696500	0.481200	0.416490
C941	C94	0.292200	0.460300	0.428970
C951	C95	0.047500	0.511500	0.316530
C961	C96	0.100900	0.449900	0.283130
C971	C97	0.281800	0.459800	0.273910
C981	C98	0.399600	0.534300	0.299340
C991	C99	0.336300	0.592800	0.332430
C1001	C100	0.345800	0.393100	0.239010
C1011	C101	0.229200	0.313900	0.215260
C1021	C102	0.293600	0.257000	0.182530
C1031	C103	0.582100	0.345400	0.194930
C1041	C104	0.527100	0.408100	0.227810
S11	S1	0.076980	0.672770	0.200470
S21	S2	0.423020	0.827230	0.700470
S31	S3	0.923020	0.327230	0.799530
S41	S4	0.576980	0.172770	0.299530
N11	N1	0.661100	0.082100	0.158290
N21	N2	0.967700	0.770900	0.328330
N31	N3	0.838900	0.417900	0.658290
N41	N4	0.532300	0.729100	0.828330
N51	N5	0.338900	0.917900	0.841710
N61	N6	0.032300	0.229100	0.671670
N71	N7	0.161100	0.582100	0.341710
N81	N8	0.467700	0.270900	0.171670
O11	O1	0.827900	0.306900	0.113680
O21	O2	0.996800	0.327100	0.050790
O31	O3	0.344300	0.290900	0.079190
O41	O4	0.440500	0.432700	0.038100
O51	O5	0.223400	0.963420	0.041060
O61	O6	0.285600	0.054700	0.106410
O71	O7	0.897400	0.044400	0.059620
O81	O8	0.629900	0.931000	0.059860
O91	O9	0.229900	0.733600	0.224640
O101	O10	0.924100	0.614700	0.225550
O111	O11	0.599700	0.158600	0.031640
O121	O12	0.672100	0.193100	0.613680
O131	O13	0.503200	0.172900	0.550790
O141	O14	0.155700	0.209100	0.579190
O151	O15	0.059500	0.067300	0.538100
O161	O16	0.276600	0.536580	0.541060
O171	O17	0.214400	0.445300	0.606410
O181	O18	0.602600	0.455600	0.559620
O191	O19	0.870100	0.569000	0.559860
O201	O20	0.270100	0.766400	0.724640
O211	O21	0.575900	0.885300	0.725550
O221	O22	0.900300	0.341400	0.531640
O231	O23	0.172100	0.693100	0.886320
O241	O24	0.003200	0.672900	0.949210
O251	O25	0.655700	0.709100	0.920810
O261	O26	0.559500	0.567300	0.961900
O271	O27	0.776600	0.036580	0.958940
O281	O28	0.714400	0.945300	0.893590
O291	O29	0.102600	0.955600	0.940380
O301	O30	0.370100	0.069000	0.940140
O311	O31	0.770100	0.266400	0.775360
O321	O32	0.075900	0.385300	0.774450
O331	O33	0.400300	0.841400	0.968360
O341	O34	0.327900	0.806900	0.386320
O351	O35	0.496800	0.827100	0.449210
O361	O36	0.844300	0.790900	0.420810
O371	O37	0.940500	0.932700	0.461900
O381	O38	0.723400	0.463420	0.458940
O391	O39	0.785600	0.554700	0.393590
O401	O40	0.397400	0.544400	0.440380
O411	O41	0.129900	0.431000	0.440140
O421	O42	0.729900	0.233600	0.275360
O431	O43	0.424100	0.114700	0.274450
O441	O44	0.099700	0.658600	0.468360
