data_ELERIY_clean_PM
_symmetry_space_group_name_H-M	'P1'
_cell_length_a	31.108900
_cell_length_b	31.108900
_cell_length_c	31.108900
_cell_angle_alpha	90.000000
_cell_angle_beta	90.000000
_cell_angle_gamma	90.000000
_symmetry_Int_Tables_number 1

loop_
_symmetry_equiv_pos_as_xyz
'x,y,z'

loop_
_atom_site_label
_atom_site_type_symbol
_atom_site_fract_x
_atom_site_fract_y
_atom_site_fract_z
C11	C1	0.100200	0.154300	0.317600
H11	H1	0.085500	0.176100	0.331600
C21	C2	0.090400	0.145000	0.274700
C31	C3	0.057200	0.169700	0.250900
O11	O1	0.044060	0.153940	0.216010
O21	O2	0.044370	0.204560	0.267690
C41	C4	0.600200	0.654300	0.817600
H21	H2	0.585500	0.676100	0.831600
C51	C5	0.590400	0.645000	0.774700
C61	C6	0.557200	0.669700	0.750900
O31	O3	0.544060	0.653940	0.716010
O41	O4	0.544370	0.704560	0.767690
C71	C7	0.899800	0.845700	0.317600
H31	H3	0.914500	0.823900	0.331600
C81	C8	0.909600	0.855000	0.274700
C91	C9	0.942800	0.830300	0.250900
O51	O5	0.955940	0.846060	0.216010
O61	O6	0.955630	0.795440	0.267690
C101	C10	0.399800	0.345700	0.817600
H41	H4	0.414500	0.323900	0.831600
C111	C11	0.409600	0.355000	0.774700
C121	C12	0.442800	0.330300	0.750900
O71	O7	0.455940	0.346060	0.716010
O81	O8	0.455630	0.295440	0.767690
C131	C13	0.899800	0.154300	0.682400
H51	H5	0.914500	0.176100	0.668400
C141	C14	0.909600	0.145000	0.725300
C151	C15	0.942800	0.169700	0.749100
O91	O9	0.955940	0.153940	0.783990
O101	O10	0.955630	0.204560	0.732310
C161	C16	0.399800	0.654300	0.182400
H61	H6	0.414500	0.676100	0.168400
C171	C17	0.409600	0.645000	0.225300
C181	C18	0.442800	0.669700	0.249100
O111	O11	0.455940	0.653940	0.283990
O121	O12	0.455630	0.704560	0.232310
C191	C19	0.100200	0.845700	0.682400
H71	H7	0.085500	0.823900	0.668400
C201	C20	0.090400	0.855000	0.725300
C211	C21	0.057200	0.830300	0.749100
O131	O13	0.044060	0.846060	0.783990
O141	O14	0.044370	0.795440	0.732310
C221	C22	0.600200	0.345700	0.182400
H81	H8	0.585500	0.323900	0.168400
C231	C23	0.590400	0.355000	0.225300
C241	C24	0.557200	0.330300	0.249100
O151	O15	0.544060	0.346060	0.283990
O161	O16	0.544370	0.295440	0.232310
C251	C25	0.317600	0.100200	0.154300
H91	H9	0.331600	0.085500	0.176100
C261	C26	0.274700	0.090400	0.145000
C271	C27	0.250900	0.057200	0.169700
O171	O17	0.216010	0.044060	0.153940
O181	O18	0.267690	0.044370	0.204560
C281	C28	0.817600	0.600200	0.654300
H101	H10	0.831600	0.585500	0.676100
C291	C29	0.774700	0.590400	0.645000
C301	C30	0.750900	0.557200	0.669700
O191	O19	0.716010	0.544060	0.653940
O201	O20	0.767690	0.544370	0.704560
C311	C31	0.317600	0.899800	0.845700
H111	H11	0.331600	0.914500	0.823900
C321	C32	0.274700	0.909600	0.855000
C331	C33	0.250900	0.942800	0.830300
O211	O21	0.216010	0.955940	0.846060
O221	O22	0.267690	0.955630	0.795440
C341	C34	0.817600	0.399800	0.345700
H121	H12	0.831600	0.414500	0.323900
C351	C35	0.774700	0.409600	0.355000
C361	C36	0.750900	0.442800	0.330300
O231	O23	0.716010	0.455940	0.346060
O241	O24	0.767690	0.455630	0.295440
C371	C37	0.682400	0.899800	0.154300
H131	H13	0.668400	0.914500	0.176100
C381	C38	0.725300	0.909600	0.145000
C391	C39	0.749100	0.942800	0.169700
O251	O25	0.783990	0.955940	0.153940
O261	O26	0.732310	0.955630	0.204560
C401	C40	0.182400	0.399800	0.654300
H141	H14	0.168400	0.414500	0.676100
C411	C41	0.225300	0.409600	0.645000
C421	C42	0.249100	0.442800	0.669700
O271	O27	0.283990	0.455940	0.653940
O281	O28	0.232310	0.455630	0.704560
C431	C43	0.682400	0.100200	0.845700
H151	H15	0.668400	0.085500	0.823900
C441	C44	0.725300	0.090400	0.855000
C451	C45	0.749100	0.057200	0.830300
O291	O29	0.783990	0.044060	0.846060
O301	O30	0.732310	0.044370	0.795440
C461	C46	0.182400	0.600200	0.345700
H161	H16	0.168400	0.585500	0.323900
C471	C47	0.225300	0.590400	0.355000
C481	C48	0.249100	0.557200	0.330300
O311	O31	0.283990	0.544060	0.346060
O321	O32	0.232310	0.544370	0.295440
C491	C49	0.154300	0.317600	0.100200
H171	H17	0.176100	0.331600	0.085500
C501	C50	0.145000	0.274700	0.090400
C511	C51	0.169700	0.250900	0.057200
O331	O33	0.153940	0.216010	0.044060
O341	O34	0.204560	0.267690	0.044370
C521	C52	0.654300	0.817600	0.600200
H181	H18	0.676100	0.831600	0.585500
C531	C53	0.645000	0.774700	0.590400
C541	C54	0.669700	0.750900	0.557200
O351	O35	0.653940	0.716010	0.544060
O361	O36	0.704560	0.767690	0.544370
C551	C55	0.845700	0.317600	0.899800
H191	H19	0.823900	0.331600	0.914500
C561	C56	0.855000	0.274700	0.909600
C571	C57	0.830300	0.250900	0.942800
O371	O37	0.846060	0.216010	0.955940
O381	O38	0.795440	0.267690	0.955630
C581	C58	0.345700	0.817600	0.399800
H201	H20	0.323900	0.831600	0.414500
C591	C59	0.355000	0.774700	0.409600
C601	C60	0.330300	0.750900	0.442800
O391	O39	0.346060	0.716010	0.455940
O401	O40	0.295440	0.767690	0.455630
C611	C61	0.154300	0.682400	0.899800
H211	H21	0.176100	0.668400	0.914500
C621	C62	0.145000	0.725300	0.909600
C631	C63	0.169700	0.749100	0.942800
O411	O41	0.153940	0.783990	0.955940
O421	O42	0.204560	0.732310	0.955630
C641	C64	0.654300	0.182400	0.399800
H221	H22	0.676100	0.168400	0.414500
C651	C65	0.645000	0.225300	0.409600
C661	C66	0.669700	0.249100	0.442800
O431	O43	0.653940	0.283990	0.455940
O441	O44	0.704560	0.232310	0.455630
C671	C67	0.845700	0.682400	0.100200
H231	H23	0.823900	0.668400	0.085500
C681	C68	0.855000	0.725300	0.090400
C691	C69	0.830300	0.749100	0.057200
O451	O45	0.846060	0.783990	0.044060
O461	O46	0.795440	0.732310	0.044370
C701	C70	0.345700	0.182400	0.600200
H241	H24	0.323900	0.168400	0.585500
C711	C71	0.355000	0.225300	0.590400
C721	C72	0.330300	0.249100	0.557200
O471	O47	0.346060	0.283990	0.544060
O481	O48	0.295440	0.232310	0.544370
C731	C73	0.154300	0.100200	0.682400
H251	H25	0.176100	0.085500	0.668400
C741	C74	0.145000	0.090400	0.725300
C751	C75	0.169700	0.057200	0.749100
O491	O49	0.153940	0.044060	0.783990
O501	O50	0.204560	0.044370	0.732310
C761	C76	0.654300	0.600200	0.182400
H261	H26	0.676100	0.585500	0.168400
C771	C77	0.645000	0.590400	0.225300
C781	C78	0.669700	0.557200	0.249100
O511	O51	0.653940	0.544060	0.283990
O521	O52	0.704560	0.544370	0.232310
C791	C79	0.845700	0.899800	0.682400
H271	H27	0.823900	0.914500	0.668400
C801	C80	0.855000	0.909600	0.725300
C811	C81	0.830300	0.942800	0.749100
O531	O53	0.846060	0.955940	0.783990
O541	O54	0.795440	0.955630	0.732310
C821	C82	0.345700	0.399800	0.182400
H281	H28	0.323900	0.414500	0.168400
C831	C83	0.355000	0.409600	0.225300
C841	C84	0.330300	0.442800	0.249100
O551	O55	0.346060	0.455940	0.283990
O561	O56	0.295440	0.455630	0.232310
C851	C85	0.154300	0.899800	0.317600
H291	H29	0.176100	0.914500	0.331600
C861	C86	0.145000	0.909600	0.274700
C871	C87	0.169700	0.942800	0.250900
O571	O57	0.153940	0.955940	0.216010
O581	O58	0.204560	0.955630	0.267690
C881	C88	0.654300	0.399800	0.817600
H301	H30	0.676100	0.414500	0.831600
C891	C89	0.645000	0.409600	0.774700
C901	C90	0.669700	0.442800	0.750900
O591	O59	0.653940	0.455940	0.716010
O601	O60	0.704560	0.455630	0.767690
C911	C91	0.845700	0.100200	0.317600
H311	H31	0.823900	0.085500	0.331600
C921	C92	0.855000	0.090400	0.274700
C931	C93	0.830300	0.057200	0.250900
O611	O61	0.846060	0.044060	0.216010
O621	O62	0.795440	0.044370	0.267690
C941	C94	0.345700	0.600200	0.817600
H321	H32	0.323900	0.585500	0.831600
C951	C95	0.355000	0.590400	0.774700
C961	C96	0.330300	0.557200	0.750900
O631	O63	0.346060	0.544060	0.716010
O641	O64	0.295440	0.544370	0.767690
C971	C97	0.100200	0.317600	0.845700
H331	H33	0.085500	0.331600	0.823900
C981	C98	0.090400	0.274700	0.855000
C991	C99	0.057200	0.250900	0.830300
O651	O65	0.044060	0.216010	0.846060
O661	O66	0.044370	0.267690	0.795440
C1001	C100	0.600200	0.817600	0.345700
H341	H34	0.585500	0.831600	0.323900
C1011	C101	0.590400	0.774700	0.355000
C1021	C102	0.557200	0.750900	0.330300
O671	O67	0.544060	0.716010	0.346060
O681	O68	0.544370	0.767690	0.295440
C1031	C103	0.899800	0.317600	0.154300
H351	H35	0.914500	0.331600	0.176100
C1041	C104	0.909600	0.274700	0.145000
C1051	C105	0.942800	0.250900	0.169700
O691	O69	0.955940	0.216010	0.153940
O701	O70	0.955630	0.267690	0.204560
C1061	C106	0.399800	0.817600	0.654300
H361	H36	0.414500	0.831600	0.676100
C1071	C107	0.409600	0.774700	0.645000
C1081	C108	0.442800	0.750900	0.669700
O711	O71	0.455940	0.716010	0.653940
O721	O72	0.455630	0.767690	0.704560
C1091	C109	0.899800	0.682400	0.845700
H371	H37	0.914500	0.668400	0.823900
C1101	C110	0.909600	0.725300	0.855000
C1111	C111	0.942800	0.749100	0.830300
O731	O73	0.955940	0.783990	0.846060
O741	O74	0.955630	0.732310	0.795440
C1121	C112	0.399800	0.182400	0.345700
H381	H38	0.414500	0.168400	0.323900
C1131	C113	0.409600	0.225300	0.355000
C1141	C114	0.442800	0.249100	0.330300
O751	O75	0.455940	0.283990	0.346060
O761	O76	0.455630	0.232310	0.295440
C1151	C115	0.100200	0.682400	0.154300
H391	H39	0.085500	0.668400	0.176100
C1161	C116	0.090400	0.725300	0.145000
C1171	C117	0.057200	0.749100	0.169700
O771	O77	0.044060	0.783990	0.153940
O781	O78	0.044370	0.732310	0.204560
C1181	C118	0.600200	0.182400	0.654300
H401	H40	0.585500	0.168400	0.676100
C1191	C119	0.590400	0.225300	0.645000
C1201	C120	0.557200	0.249100	0.669700
O791	O79	0.544060	0.283990	0.653940
O801	O80	0.544370	0.232310	0.704560
C1211	C121	0.317600	0.154300	0.899800
H411	H41	0.331600	0.176100	0.914500
C1221	C122	0.274700	0.145000	0.909600
C1231	C123	0.250900	0.169700	0.942800
O811	O81	0.216010	0.153940	0.955940
O821	O82	0.267690	0.204560	0.955630
C1241	C124	0.817600	0.654300	0.399800
H421	H42	0.831600	0.676100	0.414500
C1251	C125	0.774700	0.645000	0.409600
C1261	C126	0.750900	0.669700	0.442800
O831	O83	0.716010	0.653940	0.455940
O841	O84	0.767690	0.704560	0.455630
C1271	C127	0.317600	0.845700	0.100200
H431	H43	0.331600	0.823900	0.085500
C1281	C128	0.274700	0.855000	0.090400
C1291	C129	0.250900	0.830300	0.057200
O851	O85	0.216010	0.846060	0.044060
O861	O86	0.267690	0.795440	0.044370
C1301	C130	0.817600	0.345700	0.600200
H441	H44	0.831600	0.323900	0.585500
C1311	C131	0.774700	0.355000	0.590400
C1321	C132	0.750900	0.330300	0.557200
O871	O87	0.716010	0.346060	0.544060
O881	O88	0.767690	0.295440	0.544370
C1331	C133	0.682400	0.154300	0.100200
H451	H45	0.668400	0.176100	0.085500
C1341	C134	0.725300	0.145000	0.090400
C1351	C135	0.749100	0.169700	0.057200
O891	O89	0.783990	0.153940	0.044060
O901	O90	0.732310	0.204560	0.044370
C1361	C136	0.182400	0.654300	0.600200
H461	H46	0.168400	0.676100	0.585500
C1371	C137	0.225300	0.645000	0.590400
C1381	C138	0.249100	0.669700	0.557200
O911	O91	0.283990	0.653940	0.544060
O921	O92	0.232310	0.704560	0.544370
C1391	C139	0.682400	0.845700	0.899800
H471	H47	0.668400	0.823900	0.914500
C1401	C140	0.725300	0.855000	0.909600
C1411	C141	0.749100	0.830300	0.942800
O931	O93	0.783990	0.846060	0.955940
O941	O94	0.732310	0.795440	0.955630
C1421	C142	0.182400	0.345700	0.399800
H481	H48	0.168400	0.323900	0.414500
C1431	C143	0.225300	0.355000	0.409600
C1441	C144	0.249100	0.330300	0.442800
O951	O95	0.283990	0.346060	0.455940
O961	O96	0.232310	0.295440	0.455630
C1451	C145	0.899800	0.845700	0.682400
H491	H49	0.914500	0.823900	0.668400
C1461	C146	0.909600	0.855000	0.725300
C1471	C147	0.942800	0.830300	0.749100
O971	O97	0.955940	0.846060	0.783990
O981	O98	0.955630	0.795440	0.732310
C1481	C148	0.399800	0.345700	0.182400
H501	H50	0.414500	0.323900	0.168400
C1491	C149	0.409600	0.355000	0.225300
C1501	C150	0.442800	0.330300	0.249100
O991	O99	0.455940	0.346060	0.283990
O1001	O100	0.455630	0.295440	0.232310
C1511	C151	0.100200	0.154300	0.682400
H511	H51	0.085500	0.176100	0.668400
C1521	C152	0.090400	0.145000	0.725300
C1531	C153	0.057200	0.169700	0.749100
O1011	O101	0.044060	0.153940	0.783990
O1021	O102	0.044370	0.204560	0.732310
C1541	C154	0.600200	0.654300	0.182400
H521	H52	0.585500	0.676100	0.168400
C1551	C155	0.590400	0.645000	0.225300
C1561	C156	0.557200	0.669700	0.249100
O1031	O103	0.544060	0.653940	0.283990
O1041	O104	0.544370	0.704560	0.232310
C1571	C157	0.100200	0.845700	0.317600
H531	H53	0.085500	0.823900	0.331600
C1581	C158	0.090400	0.855000	0.274700
C1591	C159	0.057200	0.830300	0.250900
O1051	O105	0.044060	0.846060	0.216010
O1061	O106	0.044370	0.795440	0.267690
C1601	C160	0.600200	0.345700	0.817600
H541	H54	0.585500	0.323900	0.831600
C1611	C161	0.590400	0.355000	0.774700
C1621	C162	0.557200	0.330300	0.750900
O1071	O107	0.544060	0.346060	0.716010
O1081	O108	0.544370	0.295440	0.767690
C1631	C163	0.899800	0.154300	0.317600
H551	H55	0.914500	0.176100	0.331600
C1641	C164	0.909600	0.145000	0.274700
C1651	C165	0.942800	0.169700	0.250900
O1091	O109	0.955940	0.153940	0.216010
O1101	O110	0.955630	0.204560	0.267690
C1661	C166	0.399800	0.654300	0.817600
H561	H56	0.414500	0.676100	0.831600
C1671	C167	0.409600	0.645000	0.774700
C1681	C168	0.442800	0.669700	0.750900
O1111	O111	0.455940	0.653940	0.716010
O1121	O112	0.455630	0.704560	0.767690
C1691	C169	0.682400	0.899800	0.845700
H571	H57	0.668400	0.914500	0.823900
C1701	C170	0.725300	0.909600	0.855000
C1711	C171	0.749100	0.942800	0.830300
O1131	O113	0.783990	0.955940	0.846060
O1141	O114	0.732310	0.955630	0.795440
C1721	C172	0.182400	0.399800	0.345700
H581	H58	0.168400	0.414500	0.323900
C1731	C173	0.225300	0.409600	0.355000
C1741	C174	0.249100	0.442800	0.330300
O1151	O115	0.283990	0.455940	0.346060
O1161	O116	0.232310	0.455630	0.295440
C1751	C175	0.682400	0.100200	0.154300
H591	H59	0.668400	0.085500	0.176100
C1761	C176	0.725300	0.090400	0.145000
C1771	C177	0.749100	0.057200	0.169700
O1171	O117	0.783990	0.044060	0.153940
O1181	O118	0.732310	0.044370	0.204560
C1781	C178	0.182400	0.600200	0.654300
H601	H60	0.168400	0.585500	0.676100
C1791	C179	0.225300	0.590400	0.645000
C1801	C180	0.249100	0.557200	0.669700
O1191	O119	0.283990	0.544060	0.653940
O1201	O120	0.232310	0.544370	0.704560
C1811	C181	0.317600	0.100200	0.845700
H611	H61	0.331600	0.085500	0.823900
C1821	C182	0.274700	0.090400	0.855000
C1831	C183	0.250900	0.057200	0.830300
O1211	O121	0.216010	0.044060	0.846060
O1221	O122	0.267690	0.044370	0.795440
C1841	C184	0.817600	0.600200	0.345700
H621	H62	0.831600	0.585500	0.323900
C1851	C185	0.774700	0.590400	0.355000
C1861	C186	0.750900	0.557200	0.330300
O1231	O123	0.716010	0.544060	0.346060
O1241	O124	0.767690	0.544370	0.295440
C1871	C187	0.317600	0.899800	0.154300
H631	H63	0.331600	0.914500	0.176100
C1881	C188	0.274700	0.909600	0.145000
C1891	C189	0.250900	0.942800	0.169700
O1251	O125	0.216010	0.955940	0.153940
O1261	O126	0.267690	0.955630	0.204560
C1901	C190	0.817600	0.399800	0.654300
H641	H64	0.831600	0.414500	0.676100
C1911	C191	0.774700	0.409600	0.645000
C1921	C192	0.750900	0.442800	0.669700
O1271	O127	0.716010	0.455940	0.653940
O1281	O128	0.767690	0.455630	0.704560
C1931	C193	0.845700	0.682400	0.899800
H651	H65	0.823900	0.668400	0.914500
C1941	C194	0.855000	0.725300	0.909600
C1951	C195	0.830300	0.749100	0.942800
O1291	O129	0.846060	0.783990	0.955940
O1301	O130	0.795440	0.732310	0.955630
C1961	C196	0.345700	0.182400	0.399800
H661	H66	0.323900	0.168400	0.414500
C1971	C197	0.355000	0.225300	0.409600
C1981	C198	0.330300	0.249100	0.442800
O1311	O131	0.346060	0.283990	0.455940
O1321	O132	0.295440	0.232310	0.455630
C1991	C199	0.154300	0.682400	0.100200
H671	H67	0.176100	0.668400	0.085500
C2001	C200	0.145000	0.725300	0.090400
C2011	C201	0.169700	0.749100	0.057200
O1331	O133	0.153940	0.783990	0.044060
O1341	O134	0.204560	0.732310	0.044370
C2021	C202	0.654300	0.182400	0.600200
H681	H68	0.676100	0.168400	0.585500
C2031	C203	0.645000	0.225300	0.590400
C2041	C204	0.669700	0.249100	0.557200
O1351	O135	0.653940	0.283990	0.544060
O1361	O136	0.704560	0.232310	0.544370
C2051	C205	0.845700	0.317600	0.100200
H691	H69	0.823900	0.331600	0.085500
C2061	C206	0.855000	0.274700	0.090400
C2071	C207	0.830300	0.250900	0.057200
O1371	O137	0.846060	0.216010	0.044060
O1381	O138	0.795440	0.267690	0.044370
C2081	C208	0.345700	0.817600	0.600200
H701	H70	0.323900	0.831600	0.585500
C2091	C209	0.355000	0.774700	0.590400
C2101	C210	0.330300	0.750900	0.557200
O1391	O139	0.346060	0.716010	0.544060
O1401	O140	0.295440	0.767690	0.544370
C2111	C211	0.154300	0.317600	0.899800
H711	H71	0.176100	0.331600	0.914500
C2121	C212	0.145000	0.274700	0.909600
C2131	C213	0.169700	0.250900	0.942800
O1411	O141	0.153940	0.216010	0.955940
O1421	O142	0.204560	0.267690	0.955630
C2141	C214	0.654300	0.817600	0.399800
H721	H72	0.676100	0.831600	0.414500
C2151	C215	0.645000	0.774700	0.409600
C2161	C216	0.669700	0.750900	0.442800
O1431	O143	0.653940	0.716010	0.455940
O1441	O144	0.704560	0.767690	0.455630
C2171	C217	0.845700	0.899800	0.317600
H731	H73	0.823900	0.914500	0.331600
C2181	C218	0.855000	0.909600	0.274700
C2191	C219	0.830300	0.942800	0.250900
O1451	O145	0.846060	0.955940	0.216010
O1461	O146	0.795440	0.955630	0.267690
C2201	C220	0.345700	0.399800	0.817600
H741	H74	0.323900	0.414500	0.831600
C2211	C221	0.355000	0.409600	0.774700
C2221	C222	0.330300	0.442800	0.750900
O1471	O147	0.346060	0.455940	0.716010
O1481	O148	0.295440	0.455630	0.767690
C2231	C223	0.154300	0.100200	0.317600
H751	H75	0.176100	0.085500	0.331600
C2241	C224	0.145000	0.090400	0.274700
C2251	C225	0.169700	0.057200	0.250900
O1491	O149	0.153940	0.044060	0.216010
O1501	O150	0.204560	0.044370	0.267690
C2261	C226	0.654300	0.600200	0.817600
H761	H76	0.676100	0.585500	0.831600
C2271	C227	0.645000	0.590400	0.774700
C2281	C228	0.669700	0.557200	0.750900
O1511	O151	0.653940	0.544060	0.716010
O1521	O152	0.704560	0.544370	0.767690
C2291	C229	0.845700	0.100200	0.682400
H771	H77	0.823900	0.085500	0.668400
C2301	C230	0.855000	0.090400	0.725300
C2311	C231	0.830300	0.057200	0.749100
O1531	O153	0.846060	0.044060	0.783990
O1541	O154	0.795440	0.044370	0.732310
C2321	C232	0.345700	0.600200	0.182400
H781	H78	0.323900	0.585500	0.168400
C2331	C233	0.355000	0.590400	0.225300
C2341	C234	0.330300	0.557200	0.249100
O1551	O155	0.346060	0.544060	0.283990
O1561	O156	0.295440	0.544370	0.232310
C2351	C235	0.154300	0.899800	0.682400
H791	H79	0.176100	0.914500	0.668400
C2361	C236	0.145000	0.909600	0.725300
C2371	C237	0.169700	0.942800	0.749100
O1571	O157	0.153940	0.955940	0.783990
O1581	O158	0.204560	0.955630	0.732310
C2381	C238	0.654300	0.399800	0.182400
H801	H80	0.676100	0.414500	0.168400
C2391	C239	0.645000	0.409600	0.225300
C2401	C240	0.669700	0.442800	0.249100
O1591	O159	0.653940	0.455940	0.283990
O1601	O160	0.704560	0.455630	0.232310
C2411	C241	0.899800	0.682400	0.154300
H811	H81	0.914500	0.668400	0.176100
C2421	C242	0.909600	0.725300	0.145000
C2431	C243	0.942800	0.749100	0.169700
O1611	O161	0.955940	0.783990	0.153940
O1621	O162	0.955630	0.732310	0.204560
C2441	C244	0.399800	0.182400	0.654300
H821	H82	0.414500	0.168400	0.676100
C2451	C245	0.409600	0.225300	0.645000
C2461	C246	0.442800	0.249100	0.669700
O1631	O163	0.455940	0.283990	0.653940
O1641	O164	0.455630	0.232310	0.704560
C2471	C247	0.100200	0.682400	0.845700
H831	H83	0.085500	0.668400	0.823900
C2481	C248	0.090400	0.725300	0.855000
C2491	C249	0.057200	0.749100	0.830300
O1651	O165	0.044060	0.783990	0.846060
O1661	O166	0.044370	0.732310	0.795440
C2501	C250	0.600200	0.182400	0.345700
H841	H84	0.585500	0.168400	0.323900
C2511	C251	0.590400	0.225300	0.355000
C2521	C252	0.557200	0.249100	0.330300
O1671	O167	0.544060	0.283990	0.346060
O1681	O168	0.544370	0.232310	0.295440
C2531	C253	0.100200	0.317600	0.154300
H851	H85	0.085500	0.331600	0.176100
C2541	C254	0.090400	0.274700	0.145000
C2551	C255	0.057200	0.250900	0.169700
O1691	O169	0.044060	0.216010	0.153940
O1701	O170	0.044370	0.267690	0.204560
C2561	C256	0.600200	0.817600	0.654300
H861	H86	0.585500	0.831600	0.676100
C2571	C257	0.590400	0.774700	0.645000
C2581	C258	0.557200	0.750900	0.669700
O1711	O171	0.544060	0.716010	0.653940
O1721	O172	0.544370	0.767690	0.704560
C2591	C259	0.899800	0.317600	0.845700
H871	H87	0.914500	0.331600	0.823900
C2601	C260	0.909600	0.274700	0.855000
C2611	C261	0.942800	0.250900	0.830300
O1731	O173	0.955940	0.216010	0.846060
O1741	O174	0.955630	0.267690	0.795440
C2621	C262	0.399800	0.817600	0.345700
H881	H88	0.414500	0.831600	0.323900
C2631	C263	0.409600	0.774700	0.355000
C2641	C264	0.442800	0.750900	0.330300
O1751	O175	0.455940	0.716010	0.346060
O1761	O176	0.455630	0.767690	0.295440
C2651	C265	0.682400	0.845700	0.100200
H891	H89	0.668400	0.823900	0.085500
C2661	C266	0.725300	0.855000	0.090400
C2671	C267	0.749100	0.830300	0.057200
O1771	O177	0.783990	0.846060	0.044060
O1781	O178	0.732310	0.795440	0.044370
C2681	C268	0.182400	0.345700	0.600200
H901	H90	0.168400	0.323900	0.585500
C2691	C269	0.225300	0.355000	0.590400
C2701	C270	0.249100	0.330300	0.557200
O1791	O179	0.283990	0.346060	0.544060
O1801	O180	0.232310	0.295440	0.544370
C2711	C271	0.682400	0.154300	0.899800
H911	H91	0.668400	0.176100	0.914500
C2721	C272	0.725300	0.145000	0.909600
C2731	C273	0.749100	0.169700	0.942800
O1811	O181	0.783990	0.153940	0.955940
O1821	O182	0.732310	0.204560	0.955630
C2741	C274	0.182400	0.654300	0.399800
H921	H92	0.168400	0.676100	0.414500
C2751	C275	0.225300	0.645000	0.409600
C2761	C276	0.249100	0.669700	0.442800
O1831	O183	0.283990	0.653940	0.455940
O1841	O184	0.232310	0.704560	0.455630
C2771	C277	0.317600	0.845700	0.899800
H931	H93	0.331600	0.823900	0.914500
C2781	C278	0.274700	0.855000	0.909600
C2791	C279	0.250900	0.830300	0.942800
O1851	O185	0.216010	0.846060	0.955940
O1861	O186	0.267690	0.795440	0.955630
C2801	C280	0.817600	0.345700	0.399800
H941	H94	0.831600	0.323900	0.414500
C2811	C281	0.774700	0.355000	0.409600
C2821	C282	0.750900	0.330300	0.442800
O1871	O187	0.716010	0.346060	0.455940
O1881	O188	0.767690	0.295440	0.455630
C2831	C283	0.317600	0.154300	0.100200
H951	H95	0.331600	0.176100	0.085500
C2841	C284	0.274700	0.145000	0.090400
C2851	C285	0.250900	0.169700	0.057200
O1891	O189	0.216010	0.153940	0.044060
O1901	O190	0.267690	0.204560	0.044370
C2861	C286	0.817600	0.654300	0.600200
H961	H96	0.831600	0.676100	0.585500
C2871	C287	0.774700	0.645000	0.590400
C2881	C288	0.750900	0.669700	0.557200
O1911	O191	0.716010	0.653940	0.544060
O1921	O192	0.767690	0.704560	0.544370
Cu11	Cu1	0.000000	0.180480	0.180480
Cu21	Cu2	0.000000	0.240470	0.240470
Cu31	Cu3	0.500000	0.680480	0.680480
Cu41	Cu4	0.500000	0.740470	0.740470
Cu51	Cu5	0.000000	0.819520	0.180480
Cu61	Cu6	0.000000	0.759530	0.240470
Cu71	Cu7	0.500000	0.319520	0.680480
Cu81	Cu8	0.500000	0.259530	0.740470
Cu91	Cu9	0.000000	0.180480	0.819520
Cu101	Cu10	0.000000	0.240470	0.759530
Cu111	Cu11	0.500000	0.680480	0.319520
Cu121	Cu12	0.500000	0.740470	0.259530
Cu131	Cu13	0.000000	0.819520	0.819520
Cu141	Cu14	0.000000	0.759530	0.759530
Cu151	Cu15	0.500000	0.319520	0.319520
Cu161	Cu16	0.500000	0.259530	0.259530
Cu171	Cu17	0.180480	0.000000	0.180480
Cu181	Cu18	0.240470	0.000000	0.240470
Cu191	Cu19	0.680480	0.500000	0.680480
Cu201	Cu20	0.740470	0.500000	0.740470
Cu211	Cu21	0.180480	0.000000	0.819520
Cu221	Cu22	0.240470	0.000000	0.759530
Cu231	Cu23	0.680480	0.500000	0.319520
Cu241	Cu24	0.740470	0.500000	0.259530
Cu251	Cu25	0.819520	0.000000	0.180480
Cu261	Cu26	0.759530	0.000000	0.240470
Cu271	Cu27	0.319520	0.500000	0.680480
Cu281	Cu28	0.259530	0.500000	0.740470
Cu291	Cu29	0.819520	0.000000	0.819520
Cu301	Cu30	0.759530	0.000000	0.759530
Cu311	Cu31	0.319520	0.500000	0.319520
Cu321	Cu32	0.259530	0.500000	0.259530
Cu331	Cu33	0.180480	0.180480	0.000000
Cu341	Cu34	0.240470	0.240470	0.000000
Cu351	Cu35	0.680480	0.680480	0.500000
Cu361	Cu36	0.740470	0.740470	0.500000
Cu371	Cu37	0.819520	0.180480	0.000000
Cu381	Cu38	0.759530	0.240470	0.000000
Cu391	Cu39	0.319520	0.680480	0.500000
Cu401	Cu40	0.259530	0.740470	0.500000
Cu411	Cu41	0.180480	0.819520	0.000000
Cu421	Cu42	0.240470	0.759530	0.000000
Cu431	Cu43	0.680480	0.319520	0.500000
Cu441	Cu44	0.740470	0.259530	0.500000
Cu451	Cu45	0.819520	0.819520	0.000000
Cu461	Cu46	0.759530	0.759530	0.000000
Cu471	Cu47	0.319520	0.319520	0.500000
Cu481	Cu48	0.259530	0.259530	0.500000
N11	N1	0.210700	0.210700	0.500000
C2891	C289	0.147400	0.147400	0.500000
H971	H97	0.126300	0.126300	0.500000
N21	N2	0.710700	0.710700	0.000000
C2901	C290	0.647400	0.647400	0.000000
H981	H98	0.626300	0.626300	0.000000
N31	N3	0.789300	0.789300	0.500000
C2911	C291	0.852600	0.852600	0.500000
H991	H99	0.873700	0.873700	0.500000
N41	N4	0.289300	0.289300	0.000000
C2921	C292	0.352600	0.352600	0.000000
H1001	H100	0.373700	0.373700	0.000000
N51	N5	0.789300	0.210700	0.500000
C2931	C293	0.852600	0.147400	0.500000
H1011	H101	0.873700	0.126300	0.500000
N61	N6	0.289300	0.710700	0.000000
C2941	C294	0.352600	0.647400	0.000000
H1021	H102	0.373700	0.626300	0.000000
N71	N7	0.210700	0.789300	0.500000
C2951	C295	0.147400	0.852600	0.500000
H1031	H103	0.126300	0.873700	0.500000
N81	N8	0.710700	0.289300	0.000000
C2961	C296	0.647400	0.352600	0.000000
H1041	H104	0.626300	0.373700	0.000000
N91	N9	0.500000	0.210700	0.210700
C2971	C297	0.500000	0.147400	0.147400
H1051	H105	0.500000	0.126300	0.126300
N101	N10	0.000000	0.710700	0.710700
C2981	C298	0.000000	0.647400	0.647400
H1061	H106	0.000000	0.626300	0.626300
N111	N11	0.500000	0.789300	0.789300
C2991	C299	0.500000	0.852600	0.852600
H1071	H107	0.500000	0.873700	0.873700
N121	N12	0.000000	0.289300	0.289300
C3001	C300	0.000000	0.352600	0.352600
H1081	H108	0.000000	0.373700	0.373700
N131	N13	0.500000	0.789300	0.210700
C3011	C301	0.500000	0.852600	0.147400
H1091	H109	0.500000	0.873700	0.126300
N141	N14	0.000000	0.289300	0.710700
C3021	C302	0.000000	0.352600	0.647400
H1101	H110	0.000000	0.373700	0.626300
N151	N15	0.500000	0.210700	0.789300
C3031	C303	0.500000	0.147400	0.852600
H1111	H111	0.500000	0.126300	0.873700
N161	N16	0.000000	0.710700	0.289300
C3041	C304	0.000000	0.647400	0.352600
H1121	H112	0.000000	0.626300	0.373700
N171	N17	0.210700	0.500000	0.210700
C3051	C305	0.147400	0.500000	0.147400
H1131	H113	0.126300	0.500000	0.126300
N181	N18	0.710700	0.000000	0.710700
C3061	C306	0.647400	0.000000	0.647400
H1141	H114	0.626300	0.000000	0.626300
N191	N19	0.789300	0.500000	0.789300
C3071	C307	0.852600	0.500000	0.852600
H1151	H115	0.873700	0.500000	0.873700
N201	N20	0.289300	0.000000	0.289300
C3081	C308	0.352600	0.000000	0.352600
H1161	H116	0.373700	0.000000	0.373700
N211	N21	0.210700	0.500000	0.789300
C3091	C309	0.147400	0.500000	0.852600
H1171	H117	0.126300	0.500000	0.873700
N221	N22	0.710700	0.000000	0.289300
C3101	C310	0.647400	0.000000	0.352600
H1181	H118	0.626300	0.000000	0.373700
N231	N23	0.789300	0.500000	0.210700
C3111	C311	0.852600	0.500000	0.147400
H1191	H119	0.873700	0.500000	0.126300
N241	N24	0.289300	0.000000	0.710700
C3121	C312	0.352600	0.000000	0.647400
H1201	H120	0.373700	0.000000	0.626300
C3131	C313	0.195700	0.195700	0.463300
H1211	H121	0.206600	0.206600	0.437700
C3141	C314	0.163600	0.163600	0.461500
C3151	C315	0.149500	0.149500	0.419800
C3161	C316	0.141000	0.141000	0.383100
C3171	C317	0.131600	0.131600	0.339500
C3181	C318	0.112300	0.112300	0.254300
H1221	H122	0.104900	0.104900	0.226300
C3191	C319	0.695700	0.695700	0.963300
H1231	H123	0.706600	0.706600	0.937700
C3201	C320	0.663600	0.663600	0.961500
C3211	C321	0.649500	0.649500	0.919800
C3221	C322	0.641000	0.641000	0.883100
C3231	C323	0.631600	0.631600	0.839500
C3241	C324	0.612300	0.612300	0.754300
H1241	H124	0.604900	0.604900	0.726300
C3251	C325	0.804300	0.804300	0.463300
H1251	H125	0.793400	0.793400	0.437700
C3261	C326	0.836400	0.836400	0.461500
C3271	C327	0.850500	0.850500	0.419800
C3281	C328	0.859000	0.859000	0.383100
C3291	C329	0.868400	0.868400	0.339500
C3301	C330	0.887700	0.887700	0.254300
H1261	H126	0.895100	0.895100	0.226300
C3311	C331	0.304300	0.304300	0.963300
H1271	H127	0.293400	0.293400	0.937700
C3321	C332	0.336400	0.336400	0.961500
C3331	C333	0.350500	0.350500	0.919800
C3341	C334	0.359000	0.359000	0.883100
C3351	C335	0.368400	0.368400	0.839500
C3361	C336	0.387700	0.387700	0.754300
H1281	H128	0.395100	0.395100	0.726300
C3371	C337	0.804300	0.195700	0.536700
H1291	H129	0.793400	0.206600	0.562300
C3381	C338	0.836400	0.163600	0.538500
C3391	C339	0.850500	0.149500	0.580200
C3401	C340	0.859000	0.141000	0.616900
C3411	C341	0.868400	0.131600	0.660500
C3421	C342	0.887700	0.112300	0.745700
H1301	H130	0.895100	0.104900	0.773700
C3431	C343	0.304300	0.695700	0.036700
H1311	H131	0.293400	0.706600	0.062300
C3441	C344	0.336400	0.663600	0.038500
C3451	C345	0.350500	0.649500	0.080200
C3461	C346	0.359000	0.641000	0.116900
C3471	C347	0.368400	0.631600	0.160500
C3481	C348	0.387700	0.612300	0.245700
H1321	H132	0.395100	0.604900	0.273700
C3491	C349	0.195700	0.804300	0.536700
H1331	H133	0.206600	0.793400	0.562300
C3501	C350	0.163600	0.836400	0.538500
C3511	C351	0.149500	0.850500	0.580200
C3521	C352	0.141000	0.859000	0.616900
C3531	C353	0.131600	0.868400	0.660500
C3541	C354	0.112300	0.887700	0.745700
H1341	H134	0.104900	0.895100	0.773700
C3551	C355	0.695700	0.304300	0.036700
H1351	H135	0.706600	0.293400	0.062300
C3561	C356	0.663600	0.336400	0.038500
C3571	C357	0.649500	0.350500	0.080200
C3581	C358	0.641000	0.359000	0.116900
C3591	C359	0.631600	0.368400	0.160500
C3601	C360	0.612300	0.387700	0.245700
H1361	H136	0.604900	0.395100	0.273700
C3611	C361	0.463300	0.195700	0.195700
H1371	H137	0.437700	0.206600	0.206600
C3621	C362	0.461500	0.163600	0.163600
C3631	C363	0.419800	0.149500	0.149500
C3641	C364	0.383100	0.141000	0.141000
C3651	C365	0.339500	0.131600	0.131600
C3661	C366	0.254300	0.112300	0.112300
H1381	H138	0.226300	0.104900	0.104900
C3671	C367	0.963300	0.695700	0.695700
H1391	H139	0.937700	0.706600	0.706600
C3681	C368	0.961500	0.663600	0.663600
C3691	C369	0.919800	0.649500	0.649500
C3701	C370	0.883100	0.641000	0.641000
C3711	C371	0.839500	0.631600	0.631600
C3721	C372	0.754300	0.612300	0.612300
H1401	H140	0.726300	0.604900	0.604900
C3731	C373	0.463300	0.804300	0.804300
H1411	H141	0.437700	0.793400	0.793400
C3741	C374	0.461500	0.836400	0.836400
C3751	C375	0.419800	0.850500	0.850500
C3761	C376	0.383100	0.859000	0.859000
C3771	C377	0.339500	0.868400	0.868400
C3781	C378	0.254300	0.887700	0.887700
H1421	H142	0.226300	0.895100	0.895100
C3791	C379	0.963300	0.304300	0.304300
H1431	H143	0.937700	0.293400	0.293400
C3801	C380	0.961500	0.336400	0.336400
C3811	C381	0.919800	0.350500	0.350500
C3821	C382	0.883100	0.359000	0.359000
C3831	C383	0.839500	0.368400	0.368400
C3841	C384	0.754300	0.387700	0.387700
H1441	H144	0.726300	0.395100	0.395100
C3851	C385	0.536700	0.804300	0.195700
H1451	H145	0.562300	0.793400	0.206600
C3861	C386	0.538500	0.836400	0.163600
C3871	C387	0.580200	0.850500	0.149500
C3881	C388	0.616900	0.859000	0.141000
C3891	C389	0.660500	0.868400	0.131600
C3901	C390	0.745700	0.887700	0.112300
H1461	H146	0.773700	0.895100	0.104900
C3911	C391	0.036700	0.304300	0.695700
H1471	H147	0.062300	0.293400	0.706600
C3921	C392	0.038500	0.336400	0.663600
C3931	C393	0.080200	0.350500	0.649500
C3941	C394	0.116900	0.359000	0.641000
C3951	C395	0.160500	0.368400	0.631600
C3961	C396	0.245700	0.387700	0.612300
H1481	H148	0.273700	0.395100	0.604900
C3971	C397	0.536700	0.195700	0.804300
H1491	H149	0.562300	0.206600	0.793400
C3981	C398	0.538500	0.163600	0.836400
C3991	C399	0.580200	0.149500	0.850500
C4001	C400	0.616900	0.141000	0.859000
C4011	C401	0.660500	0.131600	0.868400
C4021	C402	0.745700	0.112300	0.887700
H1501	H150	0.773700	0.104900	0.895100
C4031	C403	0.036700	0.695700	0.304300
H1511	H151	0.062300	0.706600	0.293400
C4041	C404	0.038500	0.663600	0.336400
C4051	C405	0.080200	0.649500	0.350500
C4061	C406	0.116900	0.641000	0.359000
C4071	C407	0.160500	0.631600	0.368400
C4081	C408	0.245700	0.612300	0.387700
H1521	H152	0.273700	0.604900	0.395100
C4091	C409	0.195700	0.463300	0.195700
H1531	H153	0.206600	0.437700	0.206600
C4101	C410	0.163600	0.461500	0.163600
C4111	C411	0.149500	0.419800	0.149500
C4121	C412	0.141000	0.383100	0.141000
C4131	C413	0.131600	0.339500	0.131600
C4141	C414	0.112300	0.254300	0.112300
H1541	H154	0.104900	0.226300	0.104900
C4151	C415	0.695700	0.963300	0.695700
H1551	H155	0.706600	0.937700	0.706600
C4161	C416	0.663600	0.961500	0.663600
C4171	C417	0.649500	0.919800	0.649500
C4181	C418	0.641000	0.883100	0.641000
C4191	C419	0.631600	0.839500	0.631600
C4201	C420	0.612300	0.754300	0.612300
H1561	H156	0.604900	0.726300	0.604900
C4211	C421	0.804300	0.463300	0.804300
H1571	H157	0.793400	0.437700	0.793400
C4221	C422	0.836400	0.461500	0.836400
C4231	C423	0.850500	0.419800	0.850500
C4241	C424	0.859000	0.383100	0.859000
C4251	C425	0.868400	0.339500	0.868400
C4261	C426	0.887700	0.254300	0.887700
H1581	H158	0.895100	0.226300	0.895100
C4271	C427	0.304300	0.963300	0.304300
H1591	H159	0.293400	0.937700	0.293400
C4281	C428	0.336400	0.961500	0.336400
C4291	C429	0.350500	0.919800	0.350500
C4301	C430	0.359000	0.883100	0.359000
C4311	C431	0.368400	0.839500	0.368400
C4321	C432	0.387700	0.754300	0.387700
H1601	H160	0.395100	0.726300	0.395100
C4331	C433	0.195700	0.536700	0.804300
H1611	H161	0.206600	0.562300	0.793400
C4341	C434	0.163600	0.538500	0.836400
C4351	C435	0.149500	0.580200	0.850500
C4361	C436	0.141000	0.616900	0.859000
C4371	C437	0.131600	0.660500	0.868400
C4381	C438	0.112300	0.745700	0.887700
H1621	H162	0.104900	0.773700	0.895100
C4391	C439	0.695700	0.036700	0.304300
H1631	H163	0.706600	0.062300	0.293400
C4401	C440	0.663600	0.038500	0.336400
C4411	C441	0.649500	0.080200	0.350500
C4421	C442	0.641000	0.116900	0.359000
C4431	C443	0.631600	0.160500	0.368400
C4441	C444	0.612300	0.245700	0.387700
H1641	H164	0.604900	0.273700	0.395100
C4451	C445	0.804300	0.536700	0.195700
H1651	H165	0.793400	0.562300	0.206600
C4461	C446	0.836400	0.538500	0.163600
C4471	C447	0.850500	0.580200	0.149500
C4481	C448	0.859000	0.616900	0.141000
C4491	C449	0.868400	0.660500	0.131600
C4501	C450	0.887700	0.745700	0.112300
H1661	H166	0.895100	0.773700	0.104900
C4511	C451	0.304300	0.036700	0.695700
H1671	H167	0.293400	0.062300	0.706600
C4521	C452	0.336400	0.038500	0.663600
C4531	C453	0.350500	0.080200	0.649500
C4541	C454	0.359000	0.116900	0.641000
C4551	C455	0.368400	0.160500	0.631600
C4561	C456	0.387700	0.245700	0.612300
H1681	H168	0.395100	0.273700	0.604900
C4571	C457	0.195700	0.195700	0.536700
H1691	H169	0.206600	0.206600	0.562300
C4581	C458	0.163600	0.163600	0.538500
C4591	C459	0.149500	0.149500	0.580200
C4601	C460	0.141000	0.141000	0.616900
C4611	C461	0.131600	0.131600	0.660500
C4621	C462	0.112300	0.112300	0.745700
H1701	H170	0.104900	0.104900	0.773700
C4631	C463	0.695700	0.695700	0.036700
H1711	H171	0.706600	0.706600	0.062300
C4641	C464	0.663600	0.663600	0.038500
C4651	C465	0.649500	0.649500	0.080200
C4661	C466	0.641000	0.641000	0.116900
C4671	C467	0.631600	0.631600	0.160500
C4681	C468	0.612300	0.612300	0.245700
H1721	H172	0.604900	0.604900	0.273700
C4691	C469	0.804300	0.804300	0.536700
H1731	H173	0.793400	0.793400	0.562300
C4701	C470	0.836400	0.836400	0.538500
C4711	C471	0.850500	0.850500	0.580200
C4721	C472	0.859000	0.859000	0.616900
C4731	C473	0.868400	0.868400	0.660500
C4741	C474	0.887700	0.887700	0.745700
H1741	H174	0.895100	0.895100	0.773700
C4751	C475	0.304300	0.304300	0.036700
H1751	H175	0.293400	0.293400	0.062300
C4761	C476	0.336400	0.336400	0.038500
C4771	C477	0.350500	0.350500	0.080200
C4781	C478	0.359000	0.359000	0.116900
C4791	C479	0.368400	0.368400	0.160500
C4801	C480	0.387700	0.387700	0.245700
H1761	H176	0.395100	0.395100	0.273700
C4811	C481	0.195700	0.804300	0.463300
H1771	H177	0.206600	0.793400	0.437700
C4821	C482	0.163600	0.836400	0.461500
C4831	C483	0.149500	0.850500	0.419800
C4841	C484	0.141000	0.859000	0.383100
C4851	C485	0.131600	0.868400	0.339500
C4861	C486	0.112300	0.887700	0.254300
H1781	H178	0.104900	0.895100	0.226300
C4871	C487	0.695700	0.304300	0.963300
H1791	H179	0.706600	0.293400	0.937700
C4881	C488	0.663600	0.336400	0.961500
C4891	C489	0.649500	0.350500	0.919800
C4901	C490	0.641000	0.359000	0.883100
C4911	C491	0.631600	0.368400	0.839500
C4921	C492	0.612300	0.387700	0.754300
H1801	H180	0.604900	0.395100	0.726300
C4931	C493	0.804300	0.195700	0.463300
H1811	H181	0.793400	0.206600	0.437700
C4941	C494	0.836400	0.163600	0.461500
C4951	C495	0.850500	0.149500	0.419800
C4961	C496	0.859000	0.141000	0.383100
C4971	C497	0.868400	0.131600	0.339500
C4981	C498	0.887700	0.112300	0.254300
H1821	H182	0.895100	0.104900	0.226300
C4991	C499	0.304300	0.695700	0.963300
H1831	H183	0.293400	0.706600	0.937700
C5001	C500	0.336400	0.663600	0.961500
C5011	C501	0.350500	0.649500	0.919800
C5021	C502	0.359000	0.641000	0.883100
C5031	C503	0.368400	0.631600	0.839500
C5041	C504	0.387700	0.612300	0.754300
H1841	H184	0.395100	0.604900	0.726300
C5051	C505	0.195700	0.463300	0.804300
H1851	H185	0.206600	0.437700	0.793400
C5061	C506	0.163600	0.461500	0.836400
C5071	C507	0.149500	0.419800	0.850500
C5081	C508	0.141000	0.383100	0.859000
C5091	C509	0.131600	0.339500	0.868400
C5101	C510	0.112300	0.254300	0.887700
H1861	H186	0.104900	0.226300	0.895100
C5111	C511	0.695700	0.963300	0.304300
H1871	H187	0.706600	0.937700	0.293400
C5121	C512	0.663600	0.961500	0.336400
C5131	C513	0.649500	0.919800	0.350500
C5141	C514	0.641000	0.883100	0.359000
C5151	C515	0.631600	0.839500	0.368400
C5161	C516	0.612300	0.754300	0.387700
H1881	H188	0.604900	0.726300	0.395100
C5171	C517	0.804300	0.463300	0.195700
H1891	H189	0.793400	0.437700	0.206600
C5181	C518	0.836400	0.461500	0.163600
C5191	C519	0.850500	0.419800	0.149500
C5201	C520	0.859000	0.383100	0.141000
C5211	C521	0.868400	0.339500	0.131600
C5221	C522	0.887700	0.254300	0.112300
H1901	H190	0.895100	0.226300	0.104900
C5231	C523	0.304300	0.963300	0.695700
H1911	H191	0.293400	0.937700	0.706600
C5241	C524	0.336400	0.961500	0.663600
C5251	C525	0.350500	0.919800	0.649500
C5261	C526	0.359000	0.883100	0.641000
C5271	C527	0.368400	0.839500	0.631600
C5281	C528	0.387700	0.754300	0.612300
H1921	H192	0.395100	0.726300	0.604900
C5291	C529	0.804300	0.536700	0.804300
H1931	H193	0.793400	0.562300	0.793400
C5301	C530	0.836400	0.538500	0.836400
C5311	C531	0.850500	0.580200	0.850500
C5321	C532	0.859000	0.616900	0.859000
C5331	C533	0.868400	0.660500	0.868400
C5341	C534	0.887700	0.745700	0.887700
H1941	H194	0.895100	0.773700	0.895100
C5351	C535	0.304300	0.036700	0.304300
H1951	H195	0.293400	0.062300	0.293400
C5361	C536	0.336400	0.038500	0.336400
C5371	C537	0.350500	0.080200	0.350500
C5381	C538	0.359000	0.116900	0.359000
C5391	C539	0.368400	0.160500	0.368400
C5401	C540	0.387700	0.245700	0.387700
H1961	H196	0.395100	0.273700	0.395100
C5411	C541	0.195700	0.536700	0.195700
H1971	H197	0.206600	0.562300	0.206600
C5421	C542	0.163600	0.538500	0.163600
C5431	C543	0.149500	0.580200	0.149500
C5441	C544	0.141000	0.616900	0.141000
C5451	C545	0.131600	0.660500	0.131600
C5461	C546	0.112300	0.745700	0.112300
H1981	H198	0.104900	0.773700	0.104900
C5471	C547	0.695700	0.036700	0.695700
H1991	H199	0.706600	0.062300	0.706600
C5481	C548	0.663600	0.038500	0.663600
C5491	C549	0.649500	0.080200	0.649500
C5501	C550	0.641000	0.116900	0.641000
C5511	C551	0.631600	0.160500	0.631600
C5521	C552	0.612300	0.245700	0.612300
H2001	H200	0.604900	0.273700	0.604900
C5531	C553	0.463300	0.195700	0.804300
H2011	H201	0.437700	0.206600	0.793400
C5541	C554	0.461500	0.163600	0.836400
C5551	C555	0.419800	0.149500	0.850500
C5561	C556	0.383100	0.141000	0.859000
C5571	C557	0.339500	0.131600	0.868400
C5581	C558	0.254300	0.112300	0.887700
H2021	H202	0.226300	0.104900	0.895100
C5591	C559	0.963300	0.695700	0.304300
H2031	H203	0.937700	0.706600	0.293400
C5601	C560	0.961500	0.663600	0.336400
C5611	C561	0.919800	0.649500	0.350500
C5621	C562	0.883100	0.641000	0.359000
C5631	C563	0.839500	0.631600	0.368400
C5641	C564	0.754300	0.612300	0.387700
H2041	H204	0.726300	0.604900	0.395100
C5651	C565	0.463300	0.804300	0.195700
H2051	H205	0.437700	0.793400	0.206600
C5661	C566	0.461500	0.836400	0.163600
C5671	C567	0.419800	0.850500	0.149500
C5681	C568	0.383100	0.859000	0.141000
C5691	C569	0.339500	0.868400	0.131600
C5701	C570	0.254300	0.887700	0.112300
H2061	H206	0.226300	0.895100	0.104900
C5711	C571	0.963300	0.304300	0.695700
H2071	H207	0.937700	0.293400	0.706600
C5721	C572	0.961500	0.336400	0.663600
C5731	C573	0.919800	0.350500	0.649500
C5741	C574	0.883100	0.359000	0.641000
C5751	C575	0.839500	0.368400	0.631600
C5761	C576	0.754300	0.387700	0.612300
H2081	H208	0.726300	0.395100	0.604900
C5771	C577	0.536700	0.195700	0.195700
H2091	H209	0.562300	0.206600	0.206600
C5781	C578	0.538500	0.163600	0.163600
C5791	C579	0.580200	0.149500	0.149500
C5801	C580	0.616900	0.141000	0.141000
C5811	C581	0.660500	0.131600	0.131600
C5821	C582	0.745700	0.112300	0.112300
H2101	H210	0.773700	0.104900	0.104900
C5831	C583	0.036700	0.695700	0.695700
H2111	H211	0.062300	0.706600	0.706600
C5841	C584	0.038500	0.663600	0.663600
C5851	C585	0.080200	0.649500	0.649500
C5861	C586	0.116900	0.641000	0.641000
C5871	C587	0.160500	0.631600	0.631600
C5881	C588	0.245700	0.612300	0.612300
H2121	H212	0.273700	0.604900	0.604900
C5891	C589	0.536700	0.804300	0.804300
H2131	H213	0.562300	0.793400	0.793400
C5901	C590	0.538500	0.836400	0.836400
C5911	C591	0.580200	0.850500	0.850500
C5921	C592	0.616900	0.859000	0.859000
C5931	C593	0.660500	0.868400	0.868400
C5941	C594	0.745700	0.887700	0.887700
H2141	H214	0.773700	0.895100	0.895100
C5951	C595	0.036700	0.304300	0.304300
H2151	H215	0.062300	0.293400	0.293400
C5961	C596	0.038500	0.336400	0.336400
C5971	C597	0.080200	0.350500	0.350500
C5981	C598	0.116900	0.359000	0.359000
C5991	C599	0.160500	0.368400	0.368400
C6001	C600	0.245700	0.387700	0.387700
H2161	H216	0.273700	0.395100	0.395100
