data_ELERIX_clean_PM
_symmetry_space_group_name_H-M	'P1'
_cell_length_a	7.061400
_cell_length_b	18.208000
_cell_length_c	24.729000
_cell_angle_alpha	90.000000
_cell_angle_beta	90.000000
_cell_angle_gamma	100.320000
_symmetry_Int_Tables_number 1

loop_
_symmetry_equiv_pos_as_xyz
'x,y,z'

loop_
_atom_site_label
_atom_site_type_symbol
_atom_site_fract_x
_atom_site_fract_y
_atom_site_fract_z
La11	La1	0.224710	0.016020	0.399720
La21	La2	0.775290	0.983980	0.899720
La31	La3	0.775290	0.983980	0.600280
La41	La4	0.224710	0.016020	0.100280
Cu11	Cu1	0.750000	0.445990	0.315700
Cu21	Cu2	0.378810	0.543200	0.492740
Cu31	Cu3	0.828270	0.560120	0.419650
Cu41	Cu4	0.250000	0.554010	0.815700
Cu51	Cu5	0.621190	0.456800	0.992740
Cu61	Cu6	0.171730	0.439880	0.919650
Cu71	Cu7	0.250000	0.554010	0.684300
Cu81	Cu8	0.621190	0.456800	0.507260
Cu91	Cu9	0.171730	0.439880	0.580350
Cu101	Cu10	0.750000	0.445990	0.184300
Cu111	Cu11	0.378810	0.543200	0.007260
Cu121	Cu12	0.828270	0.560120	0.080350
Cu131	Cu13	0.771560	0.564140	0.250000
Cu141	Cu14	0.228440	0.435860	0.750000
H11	H1	0.222800	0.286700	0.361900
H21	H2	0.103700	0.395300	0.348900
H31	H3	0.592900	0.281400	0.319000
H41	H4	0.695800	0.170800	0.334900
H51	H5	0.396000	0.761700	0.372100
H61	H6	0.421700	0.641900	0.395800
H71	H7	0.321500	0.681400	0.547400
H81	H8	0.299800	0.802100	0.528100
H91	H9	0.904000	0.830500	0.378700
H101	H10	0.892800	0.706400	0.362500
H111	H11	0.809000	0.658500	0.515500
H121	H12	0.808100	0.781200	0.535500
H131	H13	0.777200	0.713300	0.861900
H141	H14	0.896300	0.604700	0.848900
H151	H15	0.407100	0.718600	0.819000
H161	H16	0.304200	0.829200	0.834900
H171	H17	0.604000	0.238300	0.872100
H181	H18	0.578300	0.358100	0.895800
H191	H19	0.678500	0.318600	0.047400
H201	H20	0.700200	0.197900	0.028100
H211	H21	0.096000	0.169500	0.878700
H221	H22	0.107200	0.293600	0.862500
H231	H23	0.191000	0.341500	0.015500
H241	H24	0.191900	0.218800	0.035500
H251	H25	0.777200	0.713300	0.638100
H261	H26	0.896300	0.604700	0.651100
H271	H27	0.407100	0.718600	0.681000
H281	H28	0.304200	0.829200	0.665100
H291	H29	0.604000	0.238300	0.627900
H301	H30	0.578300	0.358100	0.604200
H311	H31	0.678500	0.318600	0.452600
H321	H32	0.700200	0.197900	0.471900
H331	H33	0.096000	0.169500	0.621300
H341	H34	0.107200	0.293600	0.637500
H351	H35	0.191000	0.341500	0.484500
H361	H36	0.191900	0.218800	0.464500
H371	H37	0.222800	0.286700	0.138100
H381	H38	0.103700	0.395300	0.151100
H391	H39	0.592900	0.281400	0.181000
H401	H40	0.695800	0.170800	0.165100
H411	H41	0.396000	0.761700	0.127900
H421	H42	0.421700	0.641900	0.104200
H431	H43	0.321500	0.681400	0.952600
H441	H44	0.299800	0.802100	0.971900
H451	H45	0.904000	0.830500	0.121300
H461	H46	0.892800	0.706400	0.137500
H471	H47	0.809000	0.658500	0.984500
H481	H48	0.808100	0.781200	0.964500
H491	H49	0.233800	0.705900	0.250000
H501	H50	0.383400	0.604100	0.250000
H511	H51	0.886300	0.732400	0.250000
H521	H52	0.749300	0.837500	0.250000
H531	H53	0.766200	0.294100	0.750000
H541	H54	0.616600	0.395900	0.750000
H551	H55	0.113700	0.267600	0.750000
H561	H56	0.250700	0.162500	0.750000
C11	C1	0.050100	0.145400	0.359200
C21	C2	0.972700	0.216300	0.349700
C31	C3	0.093300	0.284400	0.353600
C41	C4	0.021000	0.349700	0.345300
C51	C5	0.721100	0.282800	0.328300
C61	C6	0.782200	0.215700	0.337200
C71	C7	0.328900	0.874300	0.432200
C81	C8	0.347300	0.795800	0.447500
C91	C9	0.382200	0.746600	0.408000
C101	C10	0.396400	0.674700	0.422600
C111	C11	0.338300	0.698000	0.511900
C121	C12	0.324400	0.770200	0.500600
C131	C13	0.854100	0.902100	0.472100
C141	C14	0.854000	0.820300	0.459500
C151	C15	0.882100	0.796300	0.407000
C161	C16	0.877200	0.722000	0.397800
C171	C17	0.826600	0.693500	0.487700
C181	C18	0.826600	0.767200	0.500000
C191	C19	0.949900	0.854600	0.859200
C201	C20	0.027300	0.783700	0.849700
C211	C21	0.906700	0.715600	0.853600
C221	C22	0.979000	0.650300	0.845300
C231	C23	0.278900	0.717200	0.828300
C241	C24	0.217800	0.784300	0.837200
C251	C25	0.671100	0.125700	0.932200
C261	C26	0.652700	0.204200	0.947500
C271	C27	0.617800	0.253400	0.908000
C281	C28	0.603600	0.325300	0.922600
C291	C29	0.661700	0.302000	0.011900
C301	C30	0.675600	0.229800	0.000600
C311	C31	0.145900	0.097900	0.972100
C321	C32	0.146000	0.179700	0.959500
C331	C33	0.117900	0.203700	0.907000
C341	C34	0.122800	0.278000	0.897800
C351	C35	0.173400	0.306500	0.987700
C361	C36	0.173400	0.232800	0.000000
C371	C37	0.949900	0.854600	0.640800
C381	C38	0.027300	0.783700	0.650300
C391	C39	0.906700	0.715600	0.646400
C401	C40	0.979000	0.650300	0.654700
C411	C41	0.278900	0.717200	0.671700
C421	C42	0.217800	0.784300	0.662800
C431	C43	0.671100	0.125700	0.567800
C441	C44	0.652700	0.204200	0.552500
C451	C45	0.617800	0.253400	0.592000
C461	C46	0.603600	0.325300	0.577400
C471	C47	0.661700	0.302000	0.488100
C481	C48	0.675600	0.229800	0.499400
C491	C49	0.145900	0.097900	0.527900
C501	C50	0.146000	0.179700	0.540500
C511	C51	0.117900	0.203700	0.593000
C521	C52	0.122800	0.278000	0.602200
C531	C53	0.173400	0.306500	0.512300
C541	C54	0.173400	0.232800	0.500000
C551	C55	0.050100	0.145400	0.140800
C561	C56	0.972700	0.216300	0.150300
C571	C57	0.093300	0.284400	0.146400
C581	C58	0.021000	0.349700	0.154700
C591	C59	0.721100	0.282800	0.171700
C601	C60	0.782200	0.215700	0.162800
C611	C61	0.328900	0.874300	0.067800
C621	C62	0.347300	0.795800	0.052500
C631	C63	0.382200	0.746600	0.092000
C641	C64	0.396400	0.674700	0.077400
C651	C65	0.338300	0.698000	0.988100
C661	C66	0.324400	0.770200	0.999400
C671	C67	0.854100	0.902100	0.027900
C681	C68	0.854000	0.820300	0.040500
C691	C69	0.882100	0.796300	0.093000
C701	C70	0.877200	0.722000	0.102200
C711	C71	0.826600	0.693500	0.012300
C721	C72	0.826600	0.767200	0.000000
C731	C73	0.373600	0.851100	0.250000
C741	C74	0.474200	0.784000	0.250000
C751	C75	0.367500	0.712800	0.250000
C761	C76	0.458500	0.651600	0.250000
C771	C77	0.752700	0.726600	0.250000
C781	C78	0.671200	0.790600	0.250000
C791	C79	0.626400	0.148900	0.750000
C801	C80	0.525800	0.216000	0.750000
C811	C81	0.632500	0.287200	0.750000
C821	C82	0.541500	0.348400	0.750000
C831	C83	0.247300	0.273400	0.750000
C841	C84	0.328800	0.209400	0.750000
I11	I1	0.022950	0.557010	0.329890
I21	I2	0.489460	0.471060	0.410050
I31	I3	0.977050	0.442990	0.829890
I41	I4	0.510540	0.528940	0.910050
I51	I5	0.977050	0.442990	0.670110
I61	I6	0.510540	0.528940	0.589950
I71	I7	0.022950	0.557010	0.170110
I81	I8	0.489460	0.471060	0.089950
I91	I9	0.469560	0.440390	0.250000
I101	I10	0.530440	0.559610	0.750000
I111	I11	0.000000	0.500000	0.500000
I121	I12	0.000000	0.500000	0.000000
N11	N1	0.835600	0.349400	0.332130
N21	N2	0.375100	0.650100	0.473800
N31	N3	0.851000	0.670200	0.437190
N41	N4	0.164400	0.650600	0.832130
N51	N5	0.624900	0.349900	0.973800
N61	N6	0.149000	0.329800	0.937190
N71	N7	0.164400	0.650600	0.667870
N81	N8	0.624900	0.349900	0.526200
N91	N9	0.149000	0.329800	0.562810
N101	N10	0.835600	0.349400	0.167870
N111	N11	0.375100	0.650100	0.026200
N121	N12	0.851000	0.670200	0.062810
N131	N13	0.652000	0.658000	0.250000
N141	N14	0.348000	0.342000	0.750000
O11	O1	0.230900	0.149600	0.360670
O21	O2	0.936100	0.084800	0.365760
O31	O3	0.338600	0.892000	0.383830
O41	O4	0.297100	0.918900	0.469230
O51	O5	0.916400	0.949000	0.436380
O61	O6	0.787000	0.915300	0.517240
O71	O7	0.769100	0.850400	0.860670
O81	O8	0.063900	0.915200	0.865760
O91	O9	0.661400	0.108000	0.883830
O101	O10	0.702900	0.081100	0.969230
O111	O11	0.083600	0.051000	0.936380
O121	O12	0.213000	0.084700	0.017240
O131	O13	0.769100	0.850400	0.639330
O141	O14	0.063900	0.915200	0.634240
O151	O15	0.661400	0.108000	0.616170
O161	O16	0.702900	0.081100	0.530770
O171	O17	0.083600	0.051000	0.563620
O181	O18	0.213000	0.084700	0.482760
O191	O19	0.230900	0.149600	0.139330
O201	O20	0.936100	0.084800	0.134240
O211	O21	0.338600	0.892000	0.116170
O221	O22	0.297100	0.918900	0.030770
O231	O23	0.916400	0.949000	0.063620
O241	O24	0.787000	0.915300	0.982760
O251	O25	0.480600	0.915000	0.250000
O261	O26	0.193400	0.840400	0.250000
O271	O27	0.519400	0.085000	0.750000
O281	O28	0.806600	0.159600	0.750000
