data_ELIKEQ_clean_PM
_symmetry_space_group_name_H-M	'P1'
_cell_length_a	9.370000
_cell_length_b	9.902000
_cell_length_c	11.429000
_cell_angle_alpha	93.942000
_cell_angle_beta	98.075000
_cell_angle_gamma	110.692000
_symmetry_Int_Tables_number 1

loop_
_symmetry_equiv_pos_as_xyz
'x,y,z'

loop_
_atom_site_label
_atom_site_type_symbol
_atom_site_fract_x
_atom_site_fract_y
_atom_site_fract_z
Nd11	Nd1	0.716050	0.454120	0.015590
Nd21	Nd2	0.283950	0.545880	0.984410
H11	H1	0.062600	0.603500	0.424600
H21	H2	0.081500	0.136900	0.835000
H31	H3	0.826600	0.902200	0.569500
H41	H4	0.734500	0.776700	0.382500
H51	H5	0.803800	0.714300	0.779200
H61	H6	0.681800	0.004700	0.962200
H71	H7	0.153500	0.727000	0.615500
H81	H8	0.937400	0.396500	0.575400
H91	H9	0.918500	0.863100	0.165000
H101	H10	0.173400	0.097800	0.430500
H111	H11	0.265500	0.223300	0.617500
H121	H12	0.196200	0.285700	0.220800
H131	H13	0.318200	0.995300	0.037800
H141	H14	0.846500	0.273000	0.384500
C11	C1	0.013400	0.661800	0.454200
C21	C2	0.996100	0.821500	0.611400
C31	C3	0.990500	0.063400	0.844100
C41	C4	0.953800	0.922800	0.792300
C51	C5	0.925600	0.245400	0.967800
C61	C6	0.872000	0.840000	0.540800
C71	C7	0.888700	0.093600	0.910600
C81	C8	0.818400	0.765600	0.429100
C91	C9	0.885100	0.673300	0.382200
C101	C10	0.823100	0.809600	0.810300
C111	C11	0.752700	0.983300	0.922400
C121	C12	0.721900	0.840900	0.875200
C131	C13	0.578800	0.723600	0.897000
C141	C14	0.068400	0.735800	0.568600
C151	C15	0.823400	0.589000	0.262800
C161	C16	0.986600	0.338200	0.545800
C171	C17	0.003900	0.178500	0.388600
C181	C18	0.009500	0.936600	0.155900
C191	C19	0.046200	0.077200	0.207700
C201	C20	0.074400	0.754600	0.032200
C211	C21	0.128000	0.160000	0.459200
C221	C22	0.111300	0.906400	0.089400
C231	C23	0.181600	0.234400	0.570900
C241	C24	0.114900	0.326700	0.617800
C251	C25	0.176900	0.190400	0.189700
C261	C26	0.247300	0.016700	0.077600
C271	C27	0.278100	0.159100	0.124800
C281	C28	0.421200	0.276400	0.103000
C291	C29	0.931600	0.264200	0.431400
C301	C30	0.176600	0.411000	0.737200
O11	O1	0.713100	0.609200	0.196400
O21	O2	0.055700	0.893800	0.725900
O31	O3	0.821000	0.270200	0.012900
O41	O4	0.056300	0.338300	0.967300
O51	O5	0.878000	0.497800	0.225200
O61	O6	0.585300	0.604500	0.925600
O71	O7	0.454500	0.745900	0.887700
O81	O8	0.286900	0.390800	0.803600
O91	O9	0.944300	0.106200	0.274100
O101	O10	0.179000	0.729800	0.987100
O111	O11	0.943700	0.661700	0.032700
O121	O12	0.122000	0.502200	0.774800
O131	O13	0.414700	0.395500	0.074400
O141	O14	0.545500	0.254100	0.112300
