data_ELILIV_clean_PM
_symmetry_space_group_name_H-M	'P1'
_cell_length_a	9.356000
_cell_length_b	9.796000
_cell_length_c	11.415000
_cell_angle_alpha	94.799000
_cell_angle_beta	99.614000
_cell_angle_gamma	111.738000
_symmetry_Int_Tables_number 1

loop_
_symmetry_equiv_pos_as_xyz
'x,y,z'

loop_
_atom_site_label
_atom_site_type_symbol
_atom_site_fract_x
_atom_site_fract_y
_atom_site_fract_z
Tm11	Tm1	0.725150	0.455160	0.010240
Tm21	Tm2	0.274850	0.544840	0.989760
H11	H1	0.064900	0.605000	0.420700
H21	H2	0.148200	0.722500	0.618800
H31	H3	0.820000	0.896000	0.565800
H41	H4	0.728600	0.771100	0.374500
H51	H5	0.800700	0.705000	0.774900
H61	H6	0.676000	0.994400	0.961000
H71	H7	0.075200	0.142500	0.835800
H81	H8	0.935100	0.395000	0.579300
H91	H9	0.851800	0.277500	0.381200
H101	H10	0.180000	0.104000	0.434200
H111	H11	0.271400	0.228900	0.625500
H121	H12	0.199300	0.295000	0.225100
H131	H13	0.324000	0.005600	0.039000
H141	H14	0.924800	0.857500	0.164200
C11	C1	0.826500	0.589200	0.251800
C21	C2	0.883900	0.671300	0.373700
C31	C3	0.013300	0.660900	0.450100
C41	C4	0.065000	0.732900	0.568600
C51	C5	0.992400	0.819200	0.610700
C61	C6	0.866900	0.835300	0.536800
C71	C7	0.814000	0.761700	0.422500
C81	C8	0.949000	0.919300	0.792800
C91	C9	0.820000	0.801800	0.807800
C101	C10	0.718200	0.830700	0.873600
C111	C11	0.747400	0.975400	0.921400
C121	C12	0.881300	0.091200	0.911000
C131	C13	0.985100	0.064800	0.844700
C141	C14	0.581600	0.704800	0.898000
C151	C15	0.917300	0.246900	0.967300
C161	C16	0.173500	0.410800	0.748200
C171	C17	0.116100	0.328700	0.626300
C181	C18	0.986700	0.339100	0.549900
C191	C19	0.935000	0.267100	0.431400
C201	C20	0.007600	0.180800	0.389300
C211	C21	0.133100	0.164700	0.463200
C221	C22	0.186000	0.238300	0.577500
C231	C23	0.051000	0.080700	0.207200
C241	C24	0.180000	0.198200	0.192200
C251	C25	0.281800	0.169300	0.126400
C261	C26	0.252600	0.024600	0.078600
C271	C27	0.118700	0.908800	0.089000
C281	C28	0.014900	0.935200	0.155300
C291	C29	0.418400	0.295200	0.102000
C301	C30	0.082700	0.753100	0.032700
O11	O1	0.879300	0.496200	0.215200
O21	O2	0.721000	0.612900	0.180000
O31	O3	0.601700	0.589700	0.921600
O41	O4	0.453200	0.720000	0.896600
O51	O5	0.807300	0.267900	0.006100
O61	O6	0.049500	0.345800	0.971400
O71	O7	0.054300	0.894200	0.728500
O81	O8	0.120700	0.503800	0.784800
O91	O9	0.279000	0.387100	0.820000
O101	O10	0.398300	0.410300	0.078400
O111	O11	0.546800	0.280000	0.103400
O121	O12	0.192700	0.732100	0.993900
O131	O13	0.950500	0.654200	0.028600
O141	O14	0.945700	0.105800	0.271500
