data_ELOGUJ_clean_PM
_symmetry_space_group_name_H-M	'P1'
_cell_length_a	26.867000
_cell_length_b	20.084000
_cell_length_c	13.099000
_cell_angle_alpha	90.000000
_cell_angle_beta	90.000000
_cell_angle_gamma	90.000000
_symmetry_Int_Tables_number 1

loop_
_symmetry_equiv_pos_as_xyz
'x,y,z'

loop_
_atom_site_label
_atom_site_type_symbol
_atom_site_fract_x
_atom_site_fract_y
_atom_site_fract_z
W11	W1	0.653630	0.166220	0.528740
W21	W2	0.766240	0.166670	0.368220
W31	W3	0.868640	0.342160	0.685140
W41	W4	0.765890	0.074930	0.611450
W51	W5	0.766700	0.158370	0.832990
Co11	Co1	0.740250	0.890450	0.606900
O11	O1	0.837200	0.183700	0.359500
O21	O2	0.626900	0.182800	0.663200
O31	O3	0.701000	0.185000	0.799200
O41	O4	0.755700	0.078000	0.756800
O51	O5	0.876200	0.317400	0.543800
O61	O6	0.759400	0.113200	0.267600
O71	O7	0.699200	0.106000	0.595300
O81	O8	0.778400	0.106000	0.477200
O91	O9	0.783300	0.315800	0.662000
O101	O10	0.837100	0.354900	0.814600
O111	O11	0.699400	0.170600	0.419600
O121	O12	0.836400	0.421800	0.638400
O131	O13	0.757900	0.991200	0.593300
N11	N1	0.819700	0.877600	0.611400
N21	N2	0.900300	0.884100	0.653800
N31	N3	0.080100	0.929600	0.859800
C11	C1	0.027600	0.858500	0.756000
H11	H1	0.052700	0.826800	0.750600
C21	C2	0.090100	0.968900	0.944000
H21	H2	0.067200	0.994500	0.980400
C31	C3	0.035200	0.917400	0.809800
C41	C4	0.944600	0.895300	0.707300
C51	C5	0.895100	0.843900	0.562400
H31	H3	0.920500	0.822700	0.526600
C61	C6	0.847700	0.843500	0.540500
H41	H4	0.834400	0.822500	0.483400
C71	C7	0.852800	0.902300	0.676000
H51	H5	0.844400	0.929300	0.731600
C81	C8	0.980000	0.848500	0.711000
H61	H6	0.973100	0.807100	0.682200
C91	C9	0.952400	0.956600	0.752300
H71	H7	0.928800	0.990400	0.747500
C101	C10	0.138100	0.963300	0.964700
H81	H8	0.154600	0.986200	0.016300
C111	C11	0.997100	0.966000	0.806000
H91	H9	0.002000	0.006000	0.839600
C121	C12	0.126400	0.900600	0.832300
H101	H10	0.131600	0.873300	0.776100
N41	N4	0.160700	0.918000	0.897800
O141	O14	0.759000	0.128100	0.953900
W61	W6	0.846370	0.833780	0.028740
W71	W7	0.733760	0.833330	0.868220
W81	W8	0.631360	0.657840	0.185140
W91	W9	0.734110	0.925070	0.111450
W101	W10	0.733300	0.841630	0.332990
Co21	Co2	0.759750	0.109550	0.106900
O151	O15	0.662800	0.816300	0.859500
O161	O16	0.873100	0.817200	0.163200
O171	O17	0.799000	0.815000	0.299200
O181	O18	0.744300	0.922000	0.256800
O191	O19	0.623800	0.682600	0.043800
O201	O20	0.740600	0.886800	0.767600
O211	O21	0.800800	0.894000	0.095300
O221	O22	0.721600	0.894000	0.977200
O231	O23	0.716700	0.684200	0.162000
O241	O24	0.662900	0.645100	0.314600
O251	O25	0.800600	0.829400	0.919600
O261	O26	0.663600	0.578200	0.138400
O271	O27	0.742100	0.008800	0.093300
N51	N5	0.680300	0.122400	0.111400
N61	N6	0.599700	0.115900	0.153800
N71	N7	0.419900	0.070400	0.359800
C131	C13	0.472400	0.141500	0.256000
H111	H11	0.447300	0.173200	0.250600
C141	C14	0.409900	0.031100	0.444000
H121	H12	0.432800	0.005500	0.480400
C151	C15	0.464800	0.082600	0.309800
C161	C16	0.555400	0.104700	0.207300
C171	C17	0.604900	0.156100	0.062400
H131	H13	0.579500	0.177300	0.026600
C181	C18	0.652300	0.156500	0.040500
H141	H14	0.665600	0.177500	0.983400
C191	C19	0.647200	0.097700	0.176000
H151	H15	0.655600	0.070700	0.231600
C201	C20	0.520000	0.151500	0.211000
H161	H16	0.526900	0.192900	0.182200
C211	C21	0.547600	0.043400	0.252300
H171	H17	0.571200	0.009600	0.247500
C221	C22	0.361900	0.036700	0.464700
H181	H18	0.345400	0.013800	0.516300
C231	C23	0.502900	0.034000	0.306000
H191	H19	0.498000	0.994000	0.339600
C241	C24	0.373600	0.099400	0.332300
H201	H20	0.368400	0.126700	0.276100
N81	N8	0.339300	0.082000	0.397800
O281	O28	0.741000	0.871900	0.453900
W111	W11	0.346370	0.666220	0.471260
W121	W12	0.233760	0.666670	0.631780
W131	W13	0.131360	0.842160	0.314860
W141	W14	0.234110	0.574930	0.388550
W151	W15	0.233300	0.658370	0.167010
Co31	Co3	0.259750	0.390450	0.393100
O291	O29	0.162800	0.683700	0.640500
O301	O30	0.373100	0.682800	0.336800
O311	O31	0.299000	0.685000	0.200800
O321	O32	0.244300	0.578000	0.243200
O331	O33	0.123800	0.817400	0.456200
O341	O34	0.240600	0.613200	0.732400
O351	O35	0.300800	0.606000	0.404700
O361	O36	0.221600	0.606000	0.522800
O371	O37	0.216700	0.815800	0.338000
O381	O38	0.162900	0.854900	0.185400
O391	O39	0.300600	0.670600	0.580400
O401	O40	0.163600	0.921800	0.361600
O411	O41	0.242100	0.491200	0.406700
N91	N9	0.180300	0.377600	0.388600
N101	N10	0.099700	0.384100	0.346200
N111	N11	0.919900	0.429600	0.140200
C251	C25	0.972400	0.358500	0.244000
H211	H21	0.947300	0.326800	0.249400
C261	C26	0.909900	0.468900	0.056000
H221	H22	0.932800	0.494500	0.019600
C271	C27	0.964800	0.417400	0.190200
C281	C28	0.055400	0.395300	0.292700
C291	C29	0.104900	0.343900	0.437600
H231	H23	0.079500	0.322700	0.473400
C301	C30	0.152300	0.343500	0.459500
H241	H24	0.165600	0.322500	0.516600
C311	C31	0.147200	0.402300	0.324000
H251	H25	0.155600	0.429300	0.268400
C321	C32	0.020000	0.348500	0.289000
H261	H26	0.026900	0.307100	0.317800
C331	C33	0.047600	0.456600	0.247700
H271	H27	0.071200	0.490400	0.252500
C341	C34	0.861900	0.463300	0.035300
H281	H28	0.845400	0.486200	0.983700
C351	C35	0.002900	0.466000	0.194000
H291	H29	0.998000	0.506000	0.160400
C361	C36	0.873600	0.400600	0.167700
H301	H30	0.868400	0.373300	0.223900
N121	N12	0.839300	0.418000	0.102200
O421	O42	0.241000	0.628100	0.046100
W161	W16	0.153630	0.333780	0.971260
W171	W17	0.266240	0.333330	0.131780
W181	W18	0.368640	0.157840	0.814860
W191	W19	0.265890	0.425070	0.888550
W201	W20	0.266700	0.341630	0.667010
Co41	Co4	0.240250	0.609550	0.893100
O431	O43	0.337200	0.316300	0.140500
O441	O44	0.126900	0.317200	0.836800
O451	O45	0.201000	0.315000	0.700800
O461	O46	0.255700	0.422000	0.743200
O471	O47	0.376200	0.182600	0.956200
O481	O48	0.259400	0.386800	0.232400
O491	O49	0.199200	0.394000	0.904700
O501	O50	0.278400	0.394000	0.022800
O511	O51	0.283300	0.184200	0.838000
O521	O52	0.337100	0.145100	0.685400
O531	O53	0.199400	0.329400	0.080400
O541	O54	0.336400	0.078200	0.861600
O551	O55	0.257900	0.508800	0.906700
N131	N13	0.319700	0.622400	0.888600
N141	N14	0.400300	0.615900	0.846200
N151	N15	0.580100	0.570400	0.640200
C371	C37	0.527600	0.641500	0.744000
H311	H31	0.552700	0.673200	0.749400
C381	C38	0.590100	0.531100	0.556000
H321	H32	0.567200	0.505500	0.519600
C391	C39	0.535200	0.582600	0.690200
C401	C40	0.444600	0.604700	0.792700
C411	C41	0.395100	0.656100	0.937600
H331	H33	0.420500	0.677300	0.973400
C421	C42	0.347700	0.656500	0.959500
H341	H34	0.334400	0.677500	0.016600
C431	C43	0.352800	0.597700	0.824000
H351	H35	0.344400	0.570700	0.768400
C441	C44	0.480000	0.651500	0.789000
H361	H36	0.473100	0.692900	0.817800
C451	C45	0.452400	0.543400	0.747700
H371	H37	0.428800	0.509600	0.752500
C461	C46	0.638100	0.536700	0.535300
H381	H38	0.654600	0.513800	0.483700
C471	C47	0.497100	0.534000	0.694000
H391	H39	0.502000	0.494000	0.660400
C481	C48	0.626400	0.599400	0.667700
H401	H40	0.631600	0.626700	0.723900
N161	N16	0.660700	0.582000	0.602200
O561	O56	0.259000	0.371900	0.546100
W211	W21	0.346370	0.833780	0.471260
W221	W22	0.233760	0.833330	0.631780
W231	W23	0.131360	0.657840	0.314860
W241	W24	0.234110	0.925070	0.388550
W251	W25	0.233300	0.841630	0.167010
Co51	Co5	0.259750	0.109550	0.393100
O571	O57	0.162800	0.816300	0.640500
O581	O58	0.373100	0.817200	0.336800
O591	O59	0.299000	0.815000	0.200800
O601	O60	0.244300	0.922000	0.243200
O611	O61	0.123800	0.682600	0.456200
O621	O62	0.240600	0.886800	0.732400
O631	O63	0.300800	0.894000	0.404700
O641	O64	0.221600	0.894000	0.522800
O651	O65	0.216700	0.684200	0.338000
O661	O66	0.162900	0.645100	0.185400
O671	O67	0.300600	0.829400	0.580400
O681	O68	0.163600	0.578200	0.361600
O691	O69	0.242100	0.008800	0.406700
N171	N17	0.180300	0.122400	0.388600
N181	N18	0.099700	0.115900	0.346200
N191	N19	0.919900	0.070400	0.140200
C491	C49	0.972400	0.141500	0.244000
H411	H41	0.947300	0.173200	0.249400
C501	C50	0.909900	0.031100	0.056000
H421	H42	0.932800	0.005500	0.019600
C511	C51	0.964800	0.082600	0.190200
C521	C52	0.055400	0.104700	0.292700
C531	C53	0.104900	0.156100	0.437600
H431	H43	0.079500	0.177300	0.473400
C541	C54	0.152300	0.156500	0.459500
H441	H44	0.165600	0.177500	0.516600
C551	C55	0.147200	0.097700	0.324000
H451	H45	0.155600	0.070700	0.268400
C561	C56	0.020000	0.151500	0.289000
H461	H46	0.026900	0.192900	0.317800
C571	C57	0.047600	0.043400	0.247700
H471	H47	0.071200	0.009600	0.252500
C581	C58	0.861900	0.036700	0.035300
H481	H48	0.845400	0.013800	0.983700
C591	C59	0.002900	0.034000	0.194000
H491	H49	0.998000	0.994000	0.160400
C601	C60	0.873600	0.099400	0.167700
H501	H50	0.868400	0.126700	0.223900
N201	N20	0.839300	0.082000	0.102200
O701	O70	0.241000	0.871900	0.046100
W261	W26	0.153630	0.166220	0.971260
W271	W27	0.266240	0.166670	0.131780
W281	W28	0.368640	0.342160	0.814860
W291	W29	0.265890	0.074930	0.888550
W301	W30	0.266700	0.158370	0.667010
Co61	Co6	0.240250	0.890450	0.893100
O711	O71	0.337200	0.183700	0.140500
O721	O72	0.126900	0.182800	0.836800
O731	O73	0.201000	0.185000	0.700800
O741	O74	0.255700	0.078000	0.743200
O751	O75	0.376200	0.317400	0.956200
O761	O76	0.259400	0.113200	0.232400
O771	O77	0.199200	0.106000	0.904700
O781	O78	0.278400	0.106000	0.022800
O791	O79	0.283300	0.315800	0.838000
O801	O80	0.337100	0.354900	0.685400
O811	O81	0.199400	0.170600	0.080400
O821	O82	0.336400	0.421800	0.861600
O831	O83	0.257900	0.991200	0.906700
N211	N21	0.319700	0.877600	0.888600
N221	N22	0.400300	0.884100	0.846200
N231	N23	0.580100	0.929600	0.640200
C611	C61	0.527600	0.858500	0.744000
H511	H51	0.552700	0.826800	0.749400
C621	C62	0.590100	0.968900	0.556000
H521	H52	0.567200	0.994500	0.519600
C631	C63	0.535200	0.917400	0.690200
C641	C64	0.444600	0.895300	0.792700
C651	C65	0.395100	0.843900	0.937600
H531	H53	0.420500	0.822700	0.973400
C661	C66	0.347700	0.843500	0.959500
H541	H54	0.334400	0.822500	0.016600
C671	C67	0.352800	0.902300	0.824000
H551	H55	0.344400	0.929300	0.768400
C681	C68	0.480000	0.848500	0.789000
H561	H56	0.473100	0.807100	0.817800
C691	C69	0.452400	0.956600	0.747700
H571	H57	0.428800	0.990400	0.752500
C701	C70	0.638100	0.963300	0.535300
H581	H58	0.654600	0.986200	0.483700
C711	C71	0.497100	0.966000	0.694000
H591	H59	0.502000	0.006000	0.660400
C721	C72	0.626400	0.900600	0.667700
H601	H60	0.631600	0.873300	0.723900
N241	N24	0.660700	0.918000	0.602200
O841	O84	0.259000	0.128100	0.546100
W311	W31	0.653630	0.333780	0.528740
W321	W32	0.766240	0.333330	0.368220
W331	W33	0.868640	0.157840	0.685140
W341	W34	0.765890	0.425070	0.611450
W351	W35	0.766700	0.341630	0.832990
Co71	Co7	0.740250	0.609550	0.606900
O851	O85	0.837200	0.316300	0.359500
O861	O86	0.626900	0.317200	0.663200
O871	O87	0.701000	0.315000	0.799200
O881	O88	0.755700	0.422000	0.756800
O891	O89	0.876200	0.182600	0.543800
O901	O90	0.759400	0.386800	0.267600
O911	O91	0.699200	0.394000	0.595300
O921	O92	0.778400	0.394000	0.477200
O931	O93	0.783300	0.184200	0.662000
O941	O94	0.837100	0.145100	0.814600
O951	O95	0.699400	0.329400	0.419600
O961	O96	0.836400	0.078200	0.638400
O971	O97	0.757900	0.508800	0.593300
N251	N25	0.819700	0.622400	0.611400
N261	N26	0.900300	0.615900	0.653800
N271	N27	0.080100	0.570400	0.859800
C731	C73	0.027600	0.641500	0.756000
H611	H61	0.052700	0.673200	0.750600
C741	C74	0.090100	0.531100	0.944000
H621	H62	0.067200	0.505500	0.980400
C751	C75	0.035200	0.582600	0.809800
C761	C76	0.944600	0.604700	0.707300
C771	C77	0.895100	0.656100	0.562400
H631	H63	0.920500	0.677300	0.526600
C781	C78	0.847700	0.656500	0.540500
H641	H64	0.834400	0.677500	0.483400
C791	C79	0.852800	0.597700	0.676000
H651	H65	0.844400	0.570700	0.731600
C801	C80	0.980000	0.651500	0.711000
H661	H66	0.973100	0.692900	0.682200
C811	C81	0.952400	0.543400	0.752300
H671	H67	0.928800	0.509600	0.747500
C821	C82	0.138100	0.536700	0.964700
H681	H68	0.154600	0.513800	0.016300
C831	C83	0.997100	0.534000	0.806000
H691	H69	0.002000	0.494000	0.839600
C841	C84	0.126400	0.599400	0.832300
H701	H70	0.131600	0.626700	0.776100
N281	N28	0.160700	0.582000	0.897800
O981	O98	0.759000	0.371900	0.953900
W361	W36	0.846370	0.666220	0.028740
W371	W37	0.733760	0.666670	0.868220
W381	W38	0.631360	0.842160	0.185140
W391	W39	0.734110	0.574930	0.111450
W401	W40	0.733300	0.658370	0.332990
Co81	Co8	0.759750	0.390450	0.106900
O991	O99	0.662800	0.683700	0.859500
O1001	O100	0.873100	0.682800	0.163200
O1011	O101	0.799000	0.685000	0.299200
O1021	O102	0.744300	0.578000	0.256800
O1031	O103	0.623800	0.817400	0.043800
O1041	O104	0.740600	0.613200	0.767600
O1051	O105	0.800800	0.606000	0.095300
O1061	O106	0.721600	0.606000	0.977200
O1071	O107	0.716700	0.815800	0.162000
O1081	O108	0.662900	0.854900	0.314600
O1091	O109	0.800600	0.670600	0.919600
O1101	O110	0.663600	0.921800	0.138400
O1111	O111	0.742100	0.491200	0.093300
N291	N29	0.680300	0.377600	0.111400
N301	N30	0.599700	0.384100	0.153800
N311	N31	0.419900	0.429600	0.359800
C851	C85	0.472400	0.358500	0.256000
H711	H71	0.447300	0.326800	0.250600
C861	C86	0.409900	0.468900	0.444000
H721	H72	0.432800	0.494500	0.480400
C871	C87	0.464800	0.417400	0.309800
C881	C88	0.555400	0.395300	0.207300
C891	C89	0.604900	0.343900	0.062400
H731	H73	0.579500	0.322700	0.026600
C901	C90	0.652300	0.343500	0.040500
H741	H74	0.665600	0.322500	0.983400
C911	C91	0.647200	0.402300	0.176000
H751	H75	0.655600	0.429300	0.231600
C921	C92	0.520000	0.348500	0.211000
H761	H76	0.526900	0.307100	0.182200
C931	C93	0.547600	0.456600	0.252300
H771	H77	0.571200	0.490400	0.247500
C941	C94	0.361900	0.463300	0.464700
H781	H78	0.345400	0.486200	0.516300
C951	C95	0.502900	0.466000	0.306000
H791	H79	0.498000	0.506000	0.339600
C961	C96	0.373600	0.400600	0.332300
H801	H80	0.368400	0.373300	0.276100
N321	N32	0.339300	0.418000	0.397800
O1121	O112	0.741000	0.628100	0.453900
W411	W41	0.653800	0.250000	0.751340
W421	W42	0.868420	0.250000	0.441100
V11	V1	0.763580	0.250000	0.603400
O1131	O113	0.876100	0.250000	0.719300
O1141	O114	0.755200	0.250000	0.298100
O1151	O115	0.702100	0.250000	0.603000
O1161	O116	0.626100	0.250000	0.488000
O1171	O117	0.778900	0.250000	0.858200
O1181	O118	0.784600	0.250000	0.486600
W431	W43	0.846200	0.750000	0.251340
W441	W44	0.631580	0.750000	0.941100
V21	V2	0.736420	0.750000	0.103400
O1191	O119	0.623900	0.750000	0.219300
O1201	O120	0.744800	0.750000	0.798100
O1211	O121	0.797900	0.750000	0.103000
O1221	O122	0.873900	0.750000	0.988000
O1231	O123	0.721100	0.750000	0.358200
O1241	O124	0.715400	0.750000	0.986600
W451	W45	0.346200	0.750000	0.248660
W461	W46	0.131580	0.750000	0.558900
V31	V3	0.236420	0.750000	0.396600
O1251	O125	0.123900	0.750000	0.280700
O1261	O126	0.244800	0.750000	0.701900
O1271	O127	0.297900	0.750000	0.397000
O1281	O128	0.373900	0.750000	0.512000
O1291	O129	0.221100	0.750000	0.141800
O1301	O130	0.215400	0.750000	0.513400
W471	W47	0.153800	0.250000	0.748660
W481	W48	0.368420	0.250000	0.058900
V41	V4	0.263580	0.250000	0.896600
O1311	O131	0.376100	0.250000	0.780700
O1321	O132	0.255200	0.250000	0.201900
O1331	O133	0.202100	0.250000	0.897000
O1341	O134	0.126100	0.250000	0.012000
O1351	O135	0.278900	0.250000	0.641800
O1361	O136	0.284600	0.250000	0.013400
