data_ELOHOE_clean_PM
_symmetry_space_group_name_H-M	'P1'
_cell_length_a	11.460700
_cell_length_b	18.795600
_cell_length_c	22.721300
_cell_angle_alpha	90.000000
_cell_angle_beta	96.863000
_cell_angle_gamma	90.000000
_symmetry_Int_Tables_number 1

loop_
_symmetry_equiv_pos_as_xyz
'x,y,z'

loop_
_atom_site_label
_atom_site_type_symbol
_atom_site_fract_x
_atom_site_fract_y
_atom_site_fract_z
Cd11	Cd1	0.646780	0.024440	0.056960
N11	N1	0.761700	0.078800	0.991110
N21	N2	0.524200	0.039600	0.613940
N31	N3	0.116600	0.566300	0.944000
C11	C1	0.751900	0.147600	0.977600
H11	H1	0.692400	0.173600	0.991900
C21	C2	0.825500	0.182000	0.943200
H21	H2	0.815200	0.230200	0.935000
C31	C3	0.914800	0.144800	0.921000
C41	C4	0.924600	0.075000	0.935100
H31	H3	0.984000	0.047900	0.921700
C51	C5	0.847900	0.043800	0.968900
H41	H4	0.856200	0.995400	0.976900
C61	C6	0.998500	0.177800	0.884700
H51	H5	0.058000	0.148700	0.873900
C71	C7	0.997900	0.243100	0.866300
H61	H6	0.939900	0.272700	0.878000
C81	C8	0.080400	0.274800	0.828700
C91	C9	0.083400	0.347000	0.823200
H71	H7	0.034300	0.374700	0.843700
C101	C10	0.157400	0.380000	0.788200
H81	H8	0.159000	0.429400	0.786000
C111	C11	0.228500	0.340500	0.756600
H91	H9	0.277000	0.362800	0.732200
C121	C12	0.227800	0.268500	0.761000
C131	C13	0.153300	0.236100	0.797400
H101	H10	0.153300	0.186800	0.800500
C141	C14	0.304100	0.227700	0.725900
H111	H11	0.359500	0.253800	0.708400
C151	C15	0.303900	0.159200	0.716300
H121	H12	0.248000	0.132900	0.733300
C161	C16	0.381500	0.119300	0.682000
C171	C17	0.360800	0.048900	0.669400
H131	H13	0.297600	0.026100	0.683400
C181	C18	0.432200	0.011800	0.636300
H141	H14	0.415500	0.964000	0.629000
C191	C19	0.545300	0.107300	0.626700
H151	H15	0.609800	0.128500	0.612600
C201	C20	0.477400	0.148400	0.659800
H161	H16	0.496600	0.196000	0.667100
C211	C21	0.120500	0.635900	0.944300
H171	H17	0.075500	0.661800	0.968100
C221	C22	0.198200	0.673300	0.905600
H181	H18	0.202100	0.722700	0.906000
C231	C23	0.261700	0.636500	0.870600
C241	C24	0.253400	0.567100	0.872900
H191	H19	0.296300	0.539400	0.849200
C251	C25	0.183600	0.534900	0.909100
H201	H20	0.183300	0.485400	0.909100
C261	C26	0.340600	0.673800	0.831000
H211	H21	0.388200	0.644100	0.811400
C271	C27	0.349800	0.735800	0.821700
H221	H22	0.301400	0.765800	0.840500
C281	C28	0.427100	0.769900	0.784600
C291	C29	0.429300	0.843000	0.783800
H231	H23	0.381800	0.868700	0.806600
C301	C30	0.205600	0.396100	0.033600
C311	C31	0.261600	0.323300	0.032200
C321	C32	0.208600	0.272300	0.996300
H241	H24	0.138100	0.282400	0.973100
C331	C33	0.258400	0.204900	0.993600
H251	H25	0.220300	0.169700	0.969800
C341	C34	0.364100	0.191100	0.026500
C351	C35	0.416700	0.242800	0.061700
H261	H26	0.488400	0.233300	0.084100
C361	C36	0.367000	0.309000	0.065300
H271	H27	0.404500	0.343700	0.089900
C371	C37	0.420900	0.119000	0.024300
C381	C38	0.824200	0.032700	0.147900
C391	C39	0.915000	0.032800	0.200900
C401	C40	0.959700	0.973800	0.225400
H281	H28	0.935400	0.930400	0.208400
C411	C41	0.957300	0.095100	0.225100
H291	H29	0.929600	0.138000	0.208600
O11	O1	0.248900	0.438600	0.071700
O21	O2	0.116100	0.406100	0.998500
O31	O3	0.358500	0.069030	0.003170
O41	O4	0.525400	0.115640	0.045690
O51	O5	0.807600	0.976200	0.119370
O61	O6	0.765600	0.086200	0.134250
Cd21	Cd2	0.353220	0.024440	0.443040
N41	N4	0.238300	0.078800	0.508890
N51	N5	0.475800	0.039600	0.886060
N61	N6	0.883400	0.566300	0.556000
C421	C42	0.248100	0.147600	0.522400
H301	H30	0.307600	0.173600	0.508100
C431	C43	0.174500	0.182000	0.556800
H311	H31	0.184800	0.230200	0.565000
C441	C44	0.085200	0.144800	0.579000
C451	C45	0.075400	0.075000	0.564900
H321	H32	0.016000	0.047900	0.578300
C461	C46	0.152100	0.043800	0.531100
H331	H33	0.143800	0.995400	0.523100
C471	C47	0.001500	0.177800	0.615300
H341	H34	0.942000	0.148700	0.626100
C481	C48	0.002100	0.243100	0.633700
H351	H35	0.060100	0.272700	0.622000
C491	C49	0.919600	0.274800	0.671300
C501	C50	0.916600	0.347000	0.676800
H361	H36	0.965700	0.374700	0.656300
C511	C51	0.842600	0.380000	0.711800
H371	H37	0.841000	0.429400	0.714000
C521	C52	0.771500	0.340500	0.743400
H381	H38	0.723000	0.362800	0.767800
C531	C53	0.772200	0.268500	0.739000
C541	C54	0.846700	0.236100	0.702600
H391	H39	0.846700	0.186800	0.699500
C551	C55	0.695900	0.227700	0.774100
H401	H40	0.640500	0.253800	0.791600
C561	C56	0.696100	0.159200	0.783700
H411	H41	0.752000	0.132900	0.766700
C571	C57	0.618500	0.119300	0.818000
C581	C58	0.639200	0.048900	0.830600
H421	H42	0.702400	0.026100	0.816600
C591	C59	0.567800	0.011800	0.863700
H431	H43	0.584500	0.964000	0.871000
C601	C60	0.454700	0.107300	0.873300
H441	H44	0.390200	0.128500	0.887400
C611	C61	0.522600	0.148400	0.840200
H451	H45	0.503400	0.196000	0.832900
C621	C62	0.879500	0.635900	0.555700
H461	H46	0.924500	0.661800	0.531900
C631	C63	0.801800	0.673300	0.594400
H471	H47	0.797900	0.722700	0.594000
C641	C64	0.738300	0.636500	0.629400
C651	C65	0.746600	0.567100	0.627100
H481	H48	0.703700	0.539400	0.650800
C661	C66	0.816400	0.534900	0.590900
H491	H49	0.816700	0.485400	0.590900
C671	C67	0.659400	0.673800	0.669000
H501	H50	0.611800	0.644100	0.688600
C681	C68	0.650200	0.735800	0.678300
H511	H51	0.698600	0.765800	0.659500
C691	C69	0.572900	0.769900	0.715400
C701	C70	0.570700	0.843000	0.716200
H521	H52	0.618200	0.868700	0.693400
C711	C71	0.794400	0.396100	0.466400
C721	C72	0.738400	0.323300	0.467800
C731	C73	0.791400	0.272300	0.503700
H531	H53	0.861900	0.282400	0.526900
C741	C74	0.741600	0.204900	0.506400
H541	H54	0.779700	0.169700	0.530200
C751	C75	0.635900	0.191100	0.473500
C761	C76	0.583300	0.242800	0.438300
H551	H55	0.511600	0.233300	0.415900
C771	C77	0.633000	0.309000	0.434700
H561	H56	0.595500	0.343700	0.410100
C781	C78	0.579100	0.119000	0.475700
C791	C79	0.175800	0.032700	0.352100
C801	C80	0.085000	0.032800	0.299100
C811	C81	0.040300	0.973800	0.274600
H571	H57	0.064600	0.930400	0.291600
C821	C82	0.042700	0.095100	0.274900
H581	H58	0.070400	0.138000	0.291400
O71	O7	0.751100	0.438600	0.428300
O81	O8	0.883900	0.406100	0.501500
O91	O9	0.641500	0.069030	0.496830
O101	O10	0.474600	0.115640	0.454310
O111	O11	0.192400	0.976200	0.380630
O121	O12	0.234400	0.086200	0.365750
Cd31	Cd3	0.353220	0.975560	0.943040
N71	N7	0.238300	0.921200	0.008890
N81	N8	0.475800	0.960400	0.386060
N91	N9	0.883400	0.433700	0.056000
C831	C83	0.248100	0.852400	0.022400
H591	H59	0.307600	0.826400	0.008100
C841	C84	0.174500	0.818000	0.056800
H601	H60	0.184800	0.769800	0.065000
C851	C85	0.085200	0.855200	0.079000
C861	C86	0.075400	0.925000	0.064900
H611	H61	0.016000	0.952100	0.078300
C871	C87	0.152100	0.956200	0.031100
H621	H62	0.143800	0.004600	0.023100
C881	C88	0.001500	0.822200	0.115300
H631	H63	0.942000	0.851300	0.126100
C891	C89	0.002100	0.756900	0.133700
H641	H64	0.060100	0.727300	0.122000
C901	C90	0.919600	0.725200	0.171300
C911	C91	0.916600	0.653000	0.176800
H651	H65	0.965700	0.625300	0.156300
C921	C92	0.842600	0.620000	0.211800
H661	H66	0.841000	0.570600	0.214000
C931	C93	0.771500	0.659500	0.243400
H671	H67	0.723000	0.637200	0.267800
C941	C94	0.772200	0.731500	0.239000
C951	C95	0.846700	0.763900	0.202600
H681	H68	0.846700	0.813200	0.199500
C961	C96	0.695900	0.772300	0.274100
H691	H69	0.640500	0.746200	0.291600
C971	C97	0.696100	0.840800	0.283700
H701	H70	0.752000	0.867100	0.266700
C981	C98	0.618500	0.880700	0.318000
C991	C99	0.639200	0.951100	0.330600
H711	H71	0.702400	0.973900	0.316600
C1001	C100	0.567800	0.988200	0.363700
H721	H72	0.584500	0.036000	0.371000
C1011	C101	0.454700	0.892700	0.373300
H731	H73	0.390200	0.871500	0.387400
C1021	C102	0.522600	0.851600	0.340200
H741	H74	0.503400	0.804000	0.332900
C1031	C103	0.879500	0.364100	0.055700
H751	H75	0.924500	0.338200	0.031900
C1041	C104	0.801800	0.326700	0.094400
H761	H76	0.797900	0.277300	0.094000
C1051	C105	0.738300	0.363500	0.129400
C1061	C106	0.746600	0.432900	0.127100
H771	H77	0.703700	0.460600	0.150800
C1071	C107	0.816400	0.465100	0.090900
H781	H78	0.816700	0.514600	0.090900
C1081	C108	0.659400	0.326200	0.169000
H791	H79	0.611800	0.355900	0.188600
C1091	C109	0.650200	0.264200	0.178300
H801	H80	0.698600	0.234200	0.159500
C1101	C110	0.572900	0.230100	0.215400
C1111	C111	0.570700	0.157000	0.216200
H811	H81	0.618200	0.131300	0.193400
C1121	C112	0.794400	0.603900	0.966400
C1131	C113	0.738400	0.676700	0.967800
C1141	C114	0.791400	0.727700	0.003700
H821	H82	0.861900	0.717600	0.026900
C1151	C115	0.741600	0.795100	0.006400
H831	H83	0.779700	0.830300	0.030200
C1161	C116	0.635900	0.808900	0.973500
C1171	C117	0.583300	0.757200	0.938300
H841	H84	0.511600	0.766700	0.915900
C1181	C118	0.633000	0.691000	0.934700
H851	H85	0.595500	0.656300	0.910100
C1191	C119	0.579100	0.881000	0.975700
C1201	C120	0.175800	0.967300	0.852100
C1211	C121	0.085000	0.967200	0.799100
C1221	C122	0.040300	0.026200	0.774600
H861	H86	0.064600	0.069600	0.791600
C1231	C123	0.042700	0.904900	0.774900
H871	H87	0.070400	0.862000	0.791400
O131	O13	0.751100	0.561400	0.928300
O141	O14	0.883900	0.593900	0.001500
O151	O15	0.641500	0.930970	0.996830
O161	O16	0.474600	0.884360	0.954310
O171	O17	0.192400	0.023800	0.880630
O181	O18	0.234400	0.913800	0.865750
Cd41	Cd4	0.646780	0.975560	0.556960
N101	N10	0.761700	0.921200	0.491110
N111	N11	0.524200	0.960400	0.113940
N121	N12	0.116600	0.433700	0.444000
C1241	C124	0.751900	0.852400	0.477600
H881	H88	0.692400	0.826400	0.491900
C1251	C125	0.825500	0.818000	0.443200
H891	H89	0.815200	0.769800	0.435000
C1261	C126	0.914800	0.855200	0.421000
C1271	C127	0.924600	0.925000	0.435100
H901	H90	0.984000	0.952100	0.421700
C1281	C128	0.847900	0.956200	0.468900
H911	H91	0.856200	0.004600	0.476900
C1291	C129	0.998500	0.822200	0.384700
H921	H92	0.058000	0.851300	0.373900
C1301	C130	0.997900	0.756900	0.366300
H931	H93	0.939900	0.727300	0.378000
C1311	C131	0.080400	0.725200	0.328700
C1321	C132	0.083400	0.653000	0.323200
H941	H94	0.034300	0.625300	0.343700
C1331	C133	0.157400	0.620000	0.288200
H951	H95	0.159000	0.570600	0.286000
C1341	C134	0.228500	0.659500	0.256600
H961	H96	0.277000	0.637200	0.232200
C1351	C135	0.227800	0.731500	0.261000
C1361	C136	0.153300	0.763900	0.297400
H971	H97	0.153300	0.813200	0.300500
C1371	C137	0.304100	0.772300	0.225900
H981	H98	0.359500	0.746200	0.208400
C1381	C138	0.303900	0.840800	0.216300
H991	H99	0.248000	0.867100	0.233300
C1391	C139	0.381500	0.880700	0.182000
C1401	C140	0.360800	0.951100	0.169400
H1001	H100	0.297600	0.973900	0.183400
C1411	C141	0.432200	0.988200	0.136300
H1011	H101	0.415500	0.036000	0.129000
C1421	C142	0.545300	0.892700	0.126700
H1021	H102	0.609800	0.871500	0.112600
C1431	C143	0.477400	0.851600	0.159800
H1031	H103	0.496600	0.804000	0.167100
C1441	C144	0.120500	0.364100	0.444300
H1041	H104	0.075500	0.338200	0.468100
C1451	C145	0.198200	0.326700	0.405600
H1051	H105	0.202100	0.277300	0.406000
C1461	C146	0.261700	0.363500	0.370600
C1471	C147	0.253400	0.432900	0.372900
H1061	H106	0.296300	0.460600	0.349200
C1481	C148	0.183600	0.465100	0.409100
H1071	H107	0.183300	0.514600	0.409100
C1491	C149	0.340600	0.326200	0.331000
H1081	H108	0.388200	0.355900	0.311400
C1501	C150	0.349800	0.264200	0.321700
H1091	H109	0.301400	0.234200	0.340500
C1511	C151	0.427100	0.230100	0.284600
C1521	C152	0.429300	0.157000	0.283800
H1101	H110	0.381800	0.131300	0.306600
C1531	C153	0.205600	0.603900	0.533600
C1541	C154	0.261600	0.676700	0.532200
C1551	C155	0.208600	0.727700	0.496300
H1111	H111	0.138100	0.717600	0.473100
C1561	C156	0.258400	0.795100	0.493600
H1121	H112	0.220300	0.830300	0.469800
C1571	C157	0.364100	0.808900	0.526500
C1581	C158	0.416700	0.757200	0.561700
H1131	H113	0.488400	0.766700	0.584100
C1591	C159	0.367000	0.691000	0.565300
H1141	H114	0.404500	0.656300	0.589900
C1601	C160	0.420900	0.881000	0.524300
C1611	C161	0.824200	0.967300	0.647900
C1621	C162	0.915000	0.967200	0.700900
C1631	C163	0.959700	0.026200	0.725400
H1151	H115	0.935400	0.069600	0.708400
C1641	C164	0.957300	0.904900	0.725100
H1161	H116	0.929600	0.862000	0.708600
O191	O19	0.248900	0.561400	0.571700
O201	O20	0.116100	0.593900	0.498500
O211	O21	0.358500	0.930970	0.503170
O221	O22	0.525400	0.884360	0.545690
O231	O23	0.807600	0.023800	0.619370
O241	O24	0.765600	0.913800	0.634250
Cd51	Cd5	0.000000	0.500000	0.000000
Cd61	Cd6	0.000000	0.500000	0.500000
C1651	C165	0.500000	0.733400	0.750000
H1171	H117	0.500000	0.683900	0.750000
C1661	C166	0.500000	0.877600	0.750000
H1181	H118	0.500000	0.927000	0.750000
C1671	C167	0.500000	0.266600	0.250000
H1191	H119	0.500000	0.316100	0.250000
C1681	C168	0.500000	0.122400	0.250000
H1201	H120	0.500000	0.073000	0.250000
