data_ELOXIN_clean_PM
_symmetry_space_group_name_H-M	'P1'
_cell_length_a	17.758000
_cell_length_b	8.281000
_cell_length_c	13.993000
_cell_angle_alpha	90.000000
_cell_angle_beta	107.210000
_cell_angle_gamma	90.000000
_symmetry_Int_Tables_number 1

loop_
_symmetry_equiv_pos_as_xyz
'x,y,z'

loop_
_atom_site_label
_atom_site_type_symbol
_atom_site_fract_x
_atom_site_fract_y
_atom_site_fract_z
Sr11	Sr1	0.066640	0.904970	0.157040
O11	O1	0.182510	0.714600	0.236330
O21	O2	0.296090	0.577900	0.276200
O31	O3	0.417520	0.444900	0.158270
O41	O4	0.416210	0.537000	0.009320
N11	N1	0.254120	0.420000	0.094580
H11	H1	0.290000	0.373400	0.147700
C11	C1	0.192160	0.497300	0.132300
H21	H2	0.160700	0.413700	0.150600
H31	H3	0.157500	0.561200	0.079200
C21	C2	0.227690	0.605500	0.222900
C31	C3	0.296620	0.542500	0.051300
H41	H4	0.290700	0.648000	0.078400
H51	H5	0.272800	0.546900	0.979400
C41	C4	0.383720	0.504800	0.073700
C51	C5	0.219020	0.288300	0.020400
H61	H6	0.177200	0.333100	0.965500
H71	H7	0.196100	0.206100	0.052700
H81	H8	0.961600	0.612600	0.241100
Sr21	Sr2	0.566640	0.404970	0.157040
O51	O5	0.682510	0.214600	0.236330
O61	O6	0.796090	0.077900	0.276200
O71	O7	0.917520	0.944900	0.158270
O81	O8	0.916210	0.037000	0.009320
N21	N2	0.754120	0.920000	0.094580
H91	H9	0.790000	0.873400	0.147700
C61	C6	0.692160	0.997300	0.132300
H101	H10	0.660700	0.913700	0.150600
H111	H11	0.657500	0.061200	0.079200
C71	C7	0.727690	0.105500	0.222900
C81	C8	0.796620	0.042500	0.051300
H121	H12	0.790700	0.148000	0.078400
H131	H13	0.772800	0.046900	0.979400
C91	C9	0.883720	0.004800	0.073700
C101	C10	0.719020	0.788300	0.020400
H141	H14	0.677200	0.833100	0.965500
H151	H15	0.696100	0.706100	0.052700
H161	H16	0.461600	0.112600	0.241100
Sr31	Sr3	0.933360	0.904970	0.342960
O91	O9	0.817490	0.714600	0.263670
O101	O10	0.703910	0.577900	0.223800
O111	O11	0.582480	0.444900	0.341730
O121	O12	0.583790	0.537000	0.490680
N31	N3	0.745880	0.420000	0.405420
H171	H17	0.710000	0.373400	0.352300
C111	C11	0.807840	0.497300	0.367700
H181	H18	0.839300	0.413700	0.349400
H191	H19	0.842500	0.561200	0.420800
C121	C12	0.772310	0.605500	0.277100
C131	C13	0.703380	0.542500	0.448700
H201	H20	0.709300	0.648000	0.421600
H211	H21	0.727200	0.546900	0.520600
C141	C14	0.616280	0.504800	0.426300
C151	C15	0.780980	0.288300	0.479600
H221	H22	0.822800	0.333100	0.534500
H231	H23	0.803900	0.206100	0.447300
H241	H24	0.038400	0.612600	0.258900
Sr41	Sr4	0.433360	0.404970	0.342960
O131	O13	0.317490	0.214600	0.263670
O141	O14	0.203910	0.077900	0.223800
O151	O15	0.082480	0.944900	0.341730
O161	O16	0.083790	0.037000	0.490680
N41	N4	0.245880	0.920000	0.405420
H251	H25	0.210000	0.873400	0.352300
C161	C16	0.307840	0.997300	0.367700
H261	H26	0.339300	0.913700	0.349400
H271	H27	0.342500	0.061200	0.420800
C171	C17	0.272310	0.105500	0.277100
C181	C18	0.203380	0.042500	0.448700
H281	H28	0.209300	0.148000	0.421600
H291	H29	0.227200	0.046900	0.520600
C191	C19	0.116280	0.004800	0.426300
C201	C20	0.280980	0.788300	0.479600
H301	H30	0.322800	0.833100	0.534500
H311	H31	0.303900	0.706100	0.447300
H321	H32	0.538400	0.112600	0.258900
Sr51	Sr5	0.933360	0.095030	0.842960
O171	O17	0.817490	0.285400	0.763670
O181	O18	0.703910	0.422100	0.723800
O191	O19	0.582480	0.555100	0.841730
O201	O20	0.583790	0.463000	0.990680
N51	N5	0.745880	0.580000	0.905420
H331	H33	0.710000	0.626600	0.852300
C211	C21	0.807840	0.502700	0.867700
H341	H34	0.839300	0.586300	0.849400
H351	H35	0.842500	0.438800	0.920800
C221	C22	0.772310	0.394500	0.777100
C231	C23	0.703380	0.457500	0.948700
H361	H36	0.709300	0.352000	0.921600
H371	H37	0.727200	0.453100	0.020600
C241	C24	0.616280	0.495200	0.926300
C251	C25	0.780980	0.711700	0.979600
H381	H38	0.822800	0.666900	0.034500
H391	H39	0.803900	0.793900	0.947300
H401	H40	0.038400	0.387400	0.758900
Sr61	Sr6	0.433360	0.595030	0.842960
O211	O21	0.317490	0.785400	0.763670
O221	O22	0.203910	0.922100	0.723800
O231	O23	0.082480	0.055100	0.841730
O241	O24	0.083790	0.963000	0.990680
N61	N6	0.245880	0.080000	0.905420
H411	H41	0.210000	0.126600	0.852300
C261	C26	0.307840	0.002700	0.867700
H421	H42	0.339300	0.086300	0.849400
H431	H43	0.342500	0.938800	0.920800
C271	C27	0.272310	0.894500	0.777100
C281	C28	0.203380	0.957500	0.948700
H441	H44	0.209300	0.852000	0.921600
H451	H45	0.227200	0.953100	0.020600
C291	C29	0.116280	0.995200	0.926300
C301	C30	0.280980	0.211700	0.979600
H461	H46	0.322800	0.166900	0.034500
H471	H47	0.303900	0.293900	0.947300
H481	H48	0.538400	0.887400	0.758900
Sr71	Sr7	0.066640	0.095030	0.657040
O251	O25	0.182510	0.285400	0.736330
O261	O26	0.296090	0.422100	0.776200
O271	O27	0.417520	0.555100	0.658270
O281	O28	0.416210	0.463000	0.509320
N71	N7	0.254120	0.580000	0.594580
H491	H49	0.290000	0.626600	0.647700
C311	C31	0.192160	0.502700	0.632300
H501	H50	0.160700	0.586300	0.650600
H511	H51	0.157500	0.438800	0.579200
C321	C32	0.227690	0.394500	0.722900
C331	C33	0.296620	0.457500	0.551300
H521	H52	0.290700	0.352000	0.578400
H531	H53	0.272800	0.453100	0.479400
C341	C34	0.383720	0.495200	0.573700
C351	C35	0.219020	0.711700	0.520400
H541	H54	0.177200	0.666900	0.465500
H551	H55	0.196100	0.793900	0.552700
H561	H56	0.961600	0.387400	0.741100
Sr81	Sr8	0.566640	0.595030	0.657040
O291	O29	0.682510	0.785400	0.736330
O301	O30	0.796090	0.922100	0.776200
O311	O31	0.917520	0.055100	0.658270
O321	O32	0.916210	0.963000	0.509320
N81	N8	0.754120	0.080000	0.594580
H571	H57	0.790000	0.126600	0.647700
C361	C36	0.692160	0.002700	0.632300
H581	H58	0.660700	0.086300	0.650600
H591	H59	0.657500	0.938800	0.579200
C371	C37	0.727690	0.894500	0.722900
C381	C38	0.796620	0.957500	0.551300
H601	H60	0.790700	0.852000	0.578400
H611	H61	0.772800	0.953100	0.479400
C391	C39	0.883720	0.995200	0.573700
C401	C40	0.719020	0.211700	0.520400
H621	H62	0.677200	0.166900	0.465500
H631	H63	0.696100	0.293900	0.552700
H641	H64	0.461600	0.887400	0.741100
O331	O33	0.000000	0.677900	0.250000
O341	O34	0.500000	0.177900	0.250000
O351	O35	0.000000	0.322100	0.750000
O361	O36	0.500000	0.822100	0.750000
