data_ELUJAY_clean_PM
_symmetry_space_group_name_H-M	'P1'
_cell_length_a	13.390000
_cell_length_b	24.074000
_cell_length_c	13.179000
_cell_angle_alpha	90.000000
_cell_angle_beta	90.000000
_cell_angle_gamma	90.000000
_symmetry_Int_Tables_number 1

loop_
_symmetry_equiv_pos_as_xyz
'x,y,z'

loop_
_atom_site_label
_atom_site_type_symbol
_atom_site_fract_x
_atom_site_fract_y
_atom_site_fract_z
O11	O1	0.298600	0.112400	0.208600
O21	O2	0.432500	0.061200	0.211800
C11	C1	0.341300	0.069900	0.231500
Sm11	Sm1	0.441080	0.842980	0.616530
O31	O3	0.513000	0.738800	0.625900
O41	O4	0.353600	0.757400	0.610300
C21	C2	0.335500	0.552300	0.584500
H11	H1	0.315900	0.515800	0.572900
C31	C3	0.397100	0.661500	0.609800
C41	C4	0.263100	0.593300	0.596600
C51	C5	0.298600	0.647600	0.604300
H21	H2	0.251900	0.676200	0.605800
O51	O5	0.131300	0.532300	0.588000
C61	C6	0.156500	0.581600	0.599800
C71	C7	0.469000	0.619200	0.603100
H31	H3	0.536600	0.627700	0.607700
C81	C8	0.439200	0.565600	0.589700
C91	C9	0.426800	0.723000	0.621500
C101	C10	0.340600	0.909500	0.467300
C111	C11	0.338100	0.988900	0.348500
H41	H4	0.407300	0.991000	0.353300
O61	O6	0.099200	0.622100	0.615000
N11	N1	0.515200	0.523900	0.585000
C121	C12	0.283400	0.027300	0.289000
C131	C13	0.284300	0.947600	0.400200
O71	O7	0.302600	0.863600	0.496100
O81	O8	0.428900	0.925500	0.500500
C141	C14	0.179200	0.943400	0.390400
H51	H5	0.145100	0.913800	0.419800
C151	C15	0.179300	0.026800	0.288700
H61	H6	0.143700	0.055000	0.256700
C161	C16	0.128700	0.982800	0.337700
N21	N2	0.024100	0.976900	0.336300
O91	O9	0.798600	0.612400	0.708600
O101	O10	0.932500	0.561200	0.711800
C171	C17	0.841300	0.569900	0.731500
Sm21	Sm2	0.941080	0.342980	0.116530
O111	O11	0.013000	0.238800	0.125900
O121	O12	0.853600	0.257400	0.110300
C181	C18	0.835500	0.052300	0.084500
H71	H7	0.815900	0.015800	0.072900
C191	C19	0.897100	0.161500	0.109800
C201	C20	0.763100	0.093300	0.096600
C211	C21	0.798600	0.147600	0.104300
H81	H8	0.751900	0.176200	0.105800
O131	O13	0.631300	0.032300	0.088000
C221	C22	0.656500	0.081600	0.099800
C231	C23	0.969000	0.119200	0.103100
H91	H9	0.036600	0.127700	0.107700
C241	C24	0.939200	0.065600	0.089700
C251	C25	0.926800	0.223000	0.121500
C261	C26	0.840600	0.409500	0.967300
C271	C27	0.838100	0.488900	0.848500
H101	H10	0.907300	0.491000	0.853300
O141	O14	0.599200	0.122100	0.115000
N31	N3	0.015200	0.023900	0.085000
C281	C28	0.783400	0.527300	0.789000
C291	C29	0.784300	0.447600	0.900200
O151	O15	0.802600	0.363600	0.996100
O161	O16	0.928900	0.425500	0.000500
C301	C30	0.679200	0.443400	0.890400
H111	H11	0.645100	0.413800	0.919800
C311	C31	0.679300	0.526800	0.788700
H121	H12	0.643700	0.555000	0.756700
C321	C32	0.628700	0.482800	0.837700
N41	N4	0.524100	0.476900	0.836300
O171	O17	0.701400	0.887600	0.208600
O181	O18	0.567500	0.938800	0.211800
C331	C33	0.658700	0.930100	0.231500
Sm31	Sm3	0.558920	0.157020	0.616530
O191	O19	0.487000	0.261200	0.625900
O201	O20	0.646400	0.242600	0.610300
C341	C34	0.664500	0.447700	0.584500
H131	H13	0.684100	0.484200	0.572900
C351	C35	0.602900	0.338500	0.609800
C361	C36	0.736900	0.406700	0.596600
C371	C37	0.701400	0.352400	0.604300
H141	H14	0.748100	0.323800	0.605800
O211	O21	0.868700	0.467700	0.588000
C381	C38	0.843500	0.418400	0.599800
C391	C39	0.531000	0.380800	0.603100
H151	H15	0.463400	0.372300	0.607700
C401	C40	0.560800	0.434400	0.589700
C411	C41	0.573200	0.277000	0.621500
C421	C42	0.659400	0.090500	0.467300
C431	C43	0.661900	0.011100	0.348500
H161	H16	0.592700	0.009000	0.353300
O221	O22	0.900800	0.377900	0.615000
N51	N5	0.484800	0.476100	0.585000
C441	C44	0.716600	0.972700	0.289000
C451	C45	0.715700	0.052400	0.400200
O231	O23	0.697400	0.136400	0.496100
O241	O24	0.571100	0.074500	0.500500
C461	C46	0.820800	0.056600	0.390400
H171	H17	0.854900	0.086200	0.419800
C471	C47	0.820700	0.973200	0.288700
H181	H18	0.856300	0.945000	0.256700
C481	C48	0.871300	0.017200	0.337700
N61	N6	0.975900	0.023100	0.336300
O251	O25	0.201400	0.387600	0.708600
O261	O26	0.067500	0.438800	0.711800
C491	C49	0.158700	0.430100	0.731500
Sm41	Sm4	0.058920	0.657020	0.116530
O271	O27	0.987000	0.761200	0.125900
O281	O28	0.146400	0.742600	0.110300
C501	C50	0.164500	0.947700	0.084500
H191	H19	0.184100	0.984200	0.072900
C511	C51	0.102900	0.838500	0.109800
C521	C52	0.236900	0.906700	0.096600
C531	C53	0.201400	0.852400	0.104300
H201	H20	0.248100	0.823800	0.105800
O291	O29	0.368700	0.967700	0.088000
C541	C54	0.343500	0.918400	0.099800
C551	C55	0.031000	0.880800	0.103100
H211	H21	0.963400	0.872300	0.107700
C561	C56	0.060800	0.934400	0.089700
C571	C57	0.073200	0.777000	0.121500
C581	C58	0.159400	0.590500	0.967300
C591	C59	0.161900	0.511100	0.848500
H221	H22	0.092700	0.509000	0.853300
O301	O30	0.400800	0.877900	0.115000
N71	N7	0.984800	0.976100	0.085000
C601	C60	0.216600	0.472700	0.789000
C611	C61	0.215700	0.552400	0.900200
O311	O31	0.197400	0.636400	0.996100
O321	O32	0.071100	0.574500	0.000500
C621	C62	0.320800	0.556600	0.890400
H231	H23	0.354900	0.586200	0.919800
C631	C63	0.320700	0.473200	0.788700
H241	H24	0.356300	0.445000	0.756700
C641	C64	0.371300	0.517200	0.837700
N81	N8	0.475900	0.523100	0.836300
O331	O33	0.798600	0.387600	0.208600
O341	O34	0.932500	0.438800	0.211800
C651	C65	0.841300	0.430100	0.231500
Sm51	Sm5	0.941080	0.657020	0.616530
O351	O35	0.013000	0.761200	0.625900
O361	O36	0.853600	0.742600	0.610300
C661	C66	0.835500	0.947700	0.584500
H251	H25	0.815900	0.984200	0.572900
C671	C67	0.897100	0.838500	0.609800
C681	C68	0.763100	0.906700	0.596600
C691	C69	0.798600	0.852400	0.604300
H261	H26	0.751900	0.823800	0.605800
O371	O37	0.631300	0.967700	0.588000
C701	C70	0.656500	0.918400	0.599800
C711	C71	0.969000	0.880800	0.603100
H271	H27	0.036600	0.872300	0.607700
C721	C72	0.939200	0.934400	0.589700
C731	C73	0.926800	0.777000	0.621500
C741	C74	0.840600	0.590500	0.467300
C751	C75	0.838100	0.511100	0.348500
H281	H28	0.907300	0.509000	0.353300
O381	O38	0.599200	0.877900	0.615000
N91	N9	0.015200	0.976100	0.585000
C761	C76	0.783400	0.472700	0.289000
C771	C77	0.784300	0.552400	0.400200
O391	O39	0.802600	0.636400	0.496100
O401	O40	0.928900	0.574500	0.500500
C781	C78	0.679200	0.556600	0.390400
H291	H29	0.645100	0.586200	0.419800
C791	C79	0.679300	0.473200	0.288700
H301	H30	0.643700	0.445000	0.256700
C801	C80	0.628700	0.517200	0.337700
N101	N10	0.524100	0.523100	0.336300
O411	O41	0.298600	0.887600	0.708600
O421	O42	0.432500	0.938800	0.711800
C811	C81	0.341300	0.930100	0.731500
Sm61	Sm6	0.441080	0.157020	0.116530
O431	O43	0.513000	0.261200	0.125900
O441	O44	0.353600	0.242600	0.110300
C821	C82	0.335500	0.447700	0.084500
H311	H31	0.315900	0.484200	0.072900
C831	C83	0.397100	0.338500	0.109800
C841	C84	0.263100	0.406700	0.096600
C851	C85	0.298600	0.352400	0.104300
H321	H32	0.251900	0.323800	0.105800
O451	O45	0.131300	0.467700	0.088000
C861	C86	0.156500	0.418400	0.099800
C871	C87	0.469000	0.380800	0.103100
H331	H33	0.536600	0.372300	0.107700
C881	C88	0.439200	0.434400	0.089700
C891	C89	0.426800	0.277000	0.121500
C901	C90	0.340600	0.090500	0.967300
C911	C91	0.338100	0.011100	0.848500
H341	H34	0.407300	0.009000	0.853300
O461	O46	0.099200	0.377900	0.115000
N111	N11	0.515200	0.476100	0.085000
C921	C92	0.283400	0.972700	0.789000
C931	C93	0.284300	0.052400	0.900200
O471	O47	0.302600	0.136400	0.996100
O481	O48	0.428900	0.074500	0.000500
C941	C94	0.179200	0.056600	0.890400
H351	H35	0.145100	0.086200	0.919800
C951	C95	0.179300	0.973200	0.788700
H361	H36	0.143700	0.945000	0.756700
C961	C96	0.128700	0.017200	0.837700
N121	N12	0.024100	0.023100	0.836300
O491	O49	0.201400	0.612400	0.208600
O501	O50	0.067500	0.561200	0.211800
C971	C97	0.158700	0.569900	0.231500
Sm71	Sm7	0.058920	0.342980	0.616530
O511	O51	0.987000	0.238800	0.625900
O521	O52	0.146400	0.257400	0.610300
C981	C98	0.164500	0.052300	0.584500
H371	H37	0.184100	0.015800	0.572900
C991	C99	0.102900	0.161500	0.609800
C1001	C100	0.236900	0.093300	0.596600
C1011	C101	0.201400	0.147600	0.604300
H381	H38	0.248100	0.176200	0.605800
O531	O53	0.368700	0.032300	0.588000
C1021	C102	0.343500	0.081600	0.599800
C1031	C103	0.031000	0.119200	0.603100
H391	H39	0.963400	0.127700	0.607700
C1041	C104	0.060800	0.065600	0.589700
C1051	C105	0.073200	0.223000	0.621500
C1061	C106	0.159400	0.409500	0.467300
C1071	C107	0.161900	0.488900	0.348500
H401	H40	0.092700	0.491000	0.353300
O541	O54	0.400800	0.122100	0.615000
N131	N13	0.984800	0.023900	0.585000
C1081	C108	0.216600	0.527300	0.289000
C1091	C109	0.215700	0.447600	0.400200
O551	O55	0.197400	0.363600	0.496100
O561	O56	0.071100	0.425500	0.500500
C1101	C110	0.320800	0.443400	0.390400
H411	H41	0.354900	0.413800	0.419800
C1111	C111	0.320700	0.526800	0.288700
H421	H42	0.356300	0.555000	0.256700
C1121	C112	0.371300	0.482800	0.337700
N141	N14	0.475900	0.476900	0.336300
O571	O57	0.701400	0.112400	0.708600
O581	O58	0.567500	0.061200	0.711800
C1131	C113	0.658700	0.069900	0.731500
Sm81	Sm8	0.558920	0.842980	0.116530
O591	O59	0.487000	0.738800	0.125900
O601	O60	0.646400	0.757400	0.110300
C1141	C114	0.664500	0.552300	0.084500
H431	H43	0.684100	0.515800	0.072900
C1151	C115	0.602900	0.661500	0.109800
C1161	C116	0.736900	0.593300	0.096600
C1171	C117	0.701400	0.647600	0.104300
H441	H44	0.748100	0.676200	0.105800
O611	O61	0.868700	0.532300	0.088000
C1181	C118	0.843500	0.581600	0.099800
C1191	C119	0.531000	0.619200	0.103100
H451	H45	0.463400	0.627700	0.107700
C1201	C120	0.560800	0.565600	0.089700
C1211	C121	0.573200	0.723000	0.121500
C1221	C122	0.659400	0.909500	0.967300
C1231	C123	0.661900	0.988900	0.848500
H461	H46	0.592700	0.991000	0.853300
O621	O62	0.900800	0.622100	0.115000
N151	N15	0.484800	0.523900	0.085000
C1241	C124	0.716600	0.027300	0.789000
C1251	C125	0.715700	0.947600	0.900200
O631	O63	0.697400	0.863600	0.996100
O641	O64	0.571100	0.925500	0.000500
C1261	C126	0.820800	0.943400	0.890400
H471	H47	0.854900	0.913800	0.919800
C1271	C127	0.820700	0.026800	0.788700
H481	H48	0.856300	0.055000	0.756700
C1281	C128	0.871300	0.982800	0.837700
N161	N16	0.975900	0.976900	0.836300
Zn11	Zn1	0.000000	0.500000	0.617900
Zn21	Zn2	0.500000	0.000000	0.117900
Zn31	Zn3	0.500000	0.000000	0.617900
Zn41	Zn4	0.000000	0.500000	0.117900
