data_EMAGAB_clean_PM
_symmetry_space_group_name_H-M	'P1'
_cell_length_a	8.494000
_cell_length_b	12.987000
_cell_length_c	15.187000
_cell_angle_alpha	91.213000
_cell_angle_beta	94.185000
_cell_angle_gamma	108.525000
_symmetry_Int_Tables_number 1

loop_
_symmetry_equiv_pos_as_xyz
'x,y,z'

loop_
_atom_site_label
_atom_site_type_symbol
_atom_site_fract_x
_atom_site_fract_y
_atom_site_fract_z
C11	C1	0.938000	0.723700	0.641800
H11	H1	0.971000	0.686100	0.597800
C21	C2	0.795000	0.767800	0.739000
H21	H2	0.709100	0.765400	0.774500
C31	C3	0.941000	0.851800	0.741000
H31	H3	0.972700	0.915300	0.776700
C41	C4	0.194000	0.885600	0.659700
C51	C5	0.235000	0.995000	0.667000
H41	H4	0.153400	0.026800	0.677800
C61	C6	0.401000	0.062000	0.659000
H51	H5	0.434200	0.136000	0.672900
C71	C7	0.511000	0.015300	0.629700
C81	C8	0.467000	0.904200	0.616600
H61	H6	0.542600	0.871400	0.598800
C91	C9	0.300000	0.840600	0.631100
H71	H7	0.265400	0.765700	0.620000
C101	C10	0.731000	0.188400	0.611400
H81	H8	0.662300	0.231100	0.615800
C111	C11	0.940000	0.143000	0.586000
H91	H9	0.041500	0.143800	0.566800
C121	C12	0.808000	0.052000	0.603000
H101	H10	0.810700	0.981800	0.607200
C131	C13	0.452000	0.509100	0.820100
H111	H11	0.492000	0.581100	0.841500
C141	C14	0.404000	0.366000	0.739100
H121	H12	0.405200	0.318600	0.692600
C151	C15	0.317000	0.336000	0.811500
H131	H13	0.248000	0.267100	0.822800
C161	C16	0.280000	0.437300	0.943600
C171	C17	0.191000	0.346200	0.983000
H141	H14	0.178700	0.277800	0.958300
C181	C18	0.118000	0.356100	0.059100
H151	H15	0.056900	0.293800	0.085600
C191	C19	0.135000	0.454600	0.096300
C201	C20	0.231000	0.549900	0.059000
H161	H16	0.243500	0.618300	0.084200
C211	C21	0.306000	0.537700	0.983000
H171	H17	0.374400	0.599000	0.958300
C221	C22	0.106000	0.543000	0.240400
H181	H18	0.206900	0.599600	0.244000
C231	C23	0.866000	0.434600	0.272700
H191	H19	0.770700	0.404900	0.302000
C241	C24	0.900000	0.391900	0.194000
H201	H20	0.836100	0.328800	0.162000
N11	N1	0.790400	0.687600	0.678400
N21	N2	0.030000	0.822000	0.678400
N31	N3	0.677900	0.084000	0.613600
N41	N4	0.892300	0.229700	0.602500
N51	N5	0.488000	0.475000	0.743800
N61	N6	0.352900	0.427800	0.863500
N71	N7	0.053800	0.466400	0.174000
N81	N8	0.993500	0.526500	0.300500
O11	O1	0.851700	0.399400	0.482400
O21	O2	0.661400	0.453200	0.577000
O31	O3	0.566500	0.387100	0.418900
O41	O4	0.781700	0.570400	0.452800
Zn11	Zn1	0.596100	0.557760	0.641060
Zn21	Zn2	0.994100	0.390410	0.584850
P11	P1	0.714100	0.452600	0.483800
C251	C25	0.062000	0.276300	0.358200
H211	H21	0.029000	0.313900	0.402200
C261	C26	0.205000	0.232200	0.261000
H221	H22	0.290900	0.234600	0.225500
C271	C27	0.059000	0.148200	0.259000
H231	H23	0.027300	0.084700	0.223300
C281	C28	0.806000	0.114400	0.340300
C291	C29	0.765000	0.005000	0.333000
H241	H24	0.846600	0.973200	0.322200
C301	C30	0.599000	0.938000	0.341000
H251	H25	0.565800	0.864000	0.327100
C311	C31	0.489000	0.984700	0.370300
C321	C32	0.533000	0.095800	0.383400
H261	H26	0.457400	0.128600	0.401200
C331	C33	0.700000	0.159400	0.368900
H271	H27	0.734600	0.234300	0.380000
C341	C34	0.269000	0.811600	0.388600
H281	H28	0.337700	0.768900	0.384200
C351	C35	0.060000	0.857000	0.414000
H291	H29	0.958500	0.856200	0.433200
C361	C36	0.192000	0.948000	0.397000
H301	H30	0.189300	0.018200	0.392800
C371	C37	0.548000	0.490900	0.179900
H311	H31	0.508000	0.418900	0.158500
C381	C38	0.596000	0.634000	0.260900
H321	H32	0.594800	0.681400	0.307400
C391	C39	0.683000	0.664000	0.188500
H331	H33	0.752000	0.732900	0.177200
C401	C40	0.720000	0.562700	0.056400
C411	C41	0.809000	0.653800	0.017000
H341	H34	0.821300	0.722200	0.041700
C421	C42	0.882000	0.643900	0.940900
H351	H35	0.943100	0.706200	0.914400
C431	C43	0.865000	0.545400	0.903700
C441	C44	0.769000	0.450100	0.941000
H361	H36	0.756500	0.381700	0.915800
C451	C45	0.694000	0.462300	0.017000
H371	H37	0.625600	0.401000	0.041700
C461	C46	0.894000	0.457000	0.759600
H381	H38	0.793100	0.400400	0.756000
C471	C47	0.134000	0.565400	0.727300
H391	H39	0.229300	0.595100	0.698000
C481	C48	0.100000	0.608100	0.806000
H401	H40	0.163900	0.671200	0.838000
N91	N9	0.209600	0.312400	0.321600
N101	N10	0.970000	0.178000	0.321600
N111	N11	0.322100	0.916000	0.386400
N121	N12	0.107700	0.770300	0.397500
N131	N13	0.512000	0.525000	0.256200
N141	N14	0.647100	0.572200	0.136500
N151	N15	0.946200	0.533600	0.826000
N161	N16	0.006500	0.473500	0.699500
O51	O5	0.148300	0.600600	0.517600
O61	O6	0.338600	0.546800	0.423000
O71	O7	0.433500	0.612900	0.581100
O81	O8	0.218300	0.429600	0.547200
Zn31	Zn3	0.403900	0.442240	0.358940
Zn41	Zn4	0.005900	0.609590	0.415150
P21	P2	0.285900	0.547400	0.516200
