data_EMAMUC_clean_PM
_symmetry_space_group_name_H-M	'P1'
_cell_length_a	35.024100
_cell_length_b	13.339600
_cell_length_c	9.183400
_cell_angle_alpha	90.000000
_cell_angle_beta	104.116000
_cell_angle_gamma	90.000000
_symmetry_Int_Tables_number 1

loop_
_symmetry_equiv_pos_as_xyz
'x,y,z'

loop_
_atom_site_label
_atom_site_type_symbol
_atom_site_fract_x
_atom_site_fract_y
_atom_site_fract_z
Ni11	Ni1	0.368430	0.216650	0.047550
C11	C1	0.349880	0.204500	0.351100
H11	H1	0.376300	0.186400	0.382500
N11	N1	0.334810	0.222000	0.204200
O11	O1	0.367460	0.366300	0.757900
O21	O2	0.175040	0.630600	0.587100
O31	O3	0.338640	0.339500	0.947600
O41	O4	0.139240	0.555100	0.725200
N21	N2	0.411530	0.303500	0.190700
N31	N3	0.268050	0.241600	0.525100
C21	C2	0.306890	0.445800	0.750400
H21	H2	0.308500	0.481000	0.664700
C31	C3	0.207060	0.516600	0.772700
H31	H3	0.206100	0.483900	0.861100
C41	C4	0.296360	0.246900	0.161300
H41	H4	0.285500	0.259500	0.060100
C51	C5	0.288840	0.236500	0.410000
C61	C6	0.272350	0.254700	0.258800
H51	H5	0.245900	0.271600	0.224700
C71	C7	0.275230	0.456800	0.802300
H61	H6	0.275300	0.426900	0.893800
C81	C8	0.328530	0.212000	0.456800
H71	H7	0.340300	0.200900	0.557800
C91	C9	0.171480	0.571500	0.688800
C101	C10	0.340490	0.378800	0.823800
C111	C11	0.240210	0.512400	0.726900
H81	H8	0.241100	0.547400	0.640300
C121	C12	0.433800	0.458800	0.309000
H91	H9	0.429300	0.526800	0.319300
C131	C13	0.467400	0.414400	0.390600
C141	C14	0.406450	0.399700	0.210000
H101	H10	0.383500	0.429800	0.154900
N41	N4	0.503800	0.459900	0.514500
C151	C15	0.473050	0.314500	0.373800
H111	H11	0.495500	0.282600	0.430000
C161	C16	0.444950	0.261600	0.271900
H121	H12	0.449200	0.193800	0.258500
Ni21	Ni2	0.868430	0.716650	0.047550
C171	C17	0.849880	0.704500	0.351100
H131	H13	0.876300	0.686400	0.382500
N51	N5	0.834810	0.722000	0.204200
O51	O5	0.867460	0.866300	0.757900
O61	O6	0.675040	0.130600	0.587100
O71	O7	0.838640	0.839500	0.947600
O81	O8	0.639240	0.055100	0.725200
N61	N6	0.911530	0.803500	0.190700
N71	N7	0.768050	0.741600	0.525100
C181	C18	0.806890	0.945800	0.750400
H141	H14	0.808500	0.981000	0.664700
C191	C19	0.707060	0.016600	0.772700
H151	H15	0.706100	0.983900	0.861100
C201	C20	0.796360	0.746900	0.161300
H161	H16	0.785500	0.759500	0.060100
C211	C21	0.788840	0.736500	0.410000
C221	C22	0.772350	0.754700	0.258800
H171	H17	0.745900	0.771600	0.224700
C231	C23	0.775230	0.956800	0.802300
H181	H18	0.775300	0.926900	0.893800
C241	C24	0.828530	0.712000	0.456800
H191	H19	0.840300	0.700900	0.557800
C251	C25	0.671480	0.071500	0.688800
C261	C26	0.840490	0.878800	0.823800
C271	C27	0.740210	0.012400	0.726900
H201	H20	0.741100	0.047400	0.640300
C281	C28	0.933800	0.958800	0.309000
H211	H21	0.929300	0.026800	0.319300
C291	C29	0.967400	0.914400	0.390600
C301	C30	0.906450	0.899700	0.210000
H221	H22	0.883500	0.929800	0.154900
N81	N8	0.003800	0.959900	0.514500
C311	C31	0.973050	0.814500	0.373800
H231	H23	0.995500	0.782600	0.430000
C321	C32	0.944950	0.761600	0.271900
H241	H24	0.949200	0.693800	0.258500
Ni31	Ni3	0.631570	0.216650	0.452450
C331	C33	0.650120	0.204500	0.148900
H251	H25	0.623700	0.186400	0.117500
N91	N9	0.665190	0.222000	0.295800
O91	O9	0.632540	0.366300	0.742100
O101	O10	0.824960	0.630600	0.912900
O111	O11	0.661360	0.339500	0.552400
O121	O12	0.860760	0.555100	0.774800
N101	N10	0.588470	0.303500	0.309300
N111	N11	0.731950	0.241600	0.974900
C341	C34	0.693110	0.445800	0.749600
H261	H26	0.691500	0.481000	0.835300
C351	C35	0.792940	0.516600	0.727300
H271	H27	0.793900	0.483900	0.638900
C361	C36	0.703640	0.246900	0.338700
H281	H28	0.714500	0.259500	0.439900
C371	C37	0.711160	0.236500	0.090000
C381	C38	0.727650	0.254700	0.241200
H291	H29	0.754100	0.271600	0.275300
C391	C39	0.724770	0.456800	0.697700
H301	H30	0.724700	0.426900	0.606200
C401	C40	0.671470	0.212000	0.043200
H311	H31	0.659700	0.200900	0.942200
C411	C41	0.828520	0.571500	0.811200
C421	C42	0.659510	0.378800	0.676200
C431	C43	0.759790	0.512400	0.773100
H321	H32	0.758900	0.547400	0.859700
C441	C44	0.566200	0.458800	0.191000
H331	H33	0.570700	0.526800	0.180700
C451	C45	0.532600	0.414400	0.109400
C461	C46	0.593550	0.399700	0.290000
H341	H34	0.616500	0.429800	0.345100
N121	N12	0.496200	0.459900	0.985500
C471	C47	0.526950	0.314500	0.126200
H351	H35	0.504500	0.282600	0.070000
C481	C48	0.555050	0.261600	0.228100
H361	H36	0.550800	0.193800	0.241500
Ni41	Ni4	0.131570	0.716650	0.452450
C491	C49	0.150120	0.704500	0.148900
H371	H37	0.123700	0.686400	0.117500
N131	N13	0.165190	0.722000	0.295800
O131	O13	0.132540	0.866300	0.742100
O141	O14	0.324960	0.130600	0.912900
O151	O15	0.161360	0.839500	0.552400
O161	O16	0.360760	0.055100	0.774800
N141	N14	0.088470	0.803500	0.309300
N151	N15	0.231950	0.741600	0.974900
C501	C50	0.193110	0.945800	0.749600
H381	H38	0.191500	0.981000	0.835300
C511	C51	0.292940	0.016600	0.727300
H391	H39	0.293900	0.983900	0.638900
C521	C52	0.203640	0.746900	0.338700
H401	H40	0.214500	0.759500	0.439900
C531	C53	0.211160	0.736500	0.090000
C541	C54	0.227650	0.754700	0.241200
H411	H41	0.254100	0.771600	0.275300
C551	C55	0.224770	0.956800	0.697700
H421	H42	0.224700	0.926900	0.606200
C561	C56	0.171470	0.712000	0.043200
H431	H43	0.159700	0.700900	0.942200
C571	C57	0.328520	0.071500	0.811200
C581	C58	0.159510	0.878800	0.676200
C591	C59	0.259790	0.012400	0.773100
H441	H44	0.258900	0.047400	0.859700
C601	C60	0.066200	0.958800	0.191000
H451	H45	0.070700	0.026800	0.180700
C611	C61	0.032600	0.914400	0.109400
C621	C62	0.093550	0.899700	0.290000
H461	H46	0.116500	0.929800	0.345100
N161	N16	0.996200	0.959900	0.985500
C631	C63	0.026950	0.814500	0.126200
H471	H47	0.004500	0.782600	0.070000
C641	C64	0.055050	0.761600	0.228100
H481	H48	0.050800	0.693800	0.241500
Ni51	Ni5	0.631570	0.783350	0.952450
C651	C65	0.650120	0.795500	0.648900
H491	H49	0.623700	0.813600	0.617500
N171	N17	0.665190	0.778000	0.795800
O171	O17	0.632540	0.633700	0.242100
O181	O18	0.824960	0.369400	0.412900
O191	O19	0.661360	0.660500	0.052400
O201	O20	0.860760	0.444900	0.274800
N181	N18	0.588470	0.696500	0.809300
N191	N19	0.731950	0.758400	0.474900
C661	C66	0.693110	0.554200	0.249600
H501	H50	0.691500	0.519000	0.335300
C671	C67	0.792940	0.483400	0.227300
H511	H51	0.793900	0.516100	0.138900
C681	C68	0.703640	0.753100	0.838700
H521	H52	0.714500	0.740500	0.939900
C691	C69	0.711160	0.763500	0.590000
C701	C70	0.727650	0.745300	0.741200
H531	H53	0.754100	0.728400	0.775300
C711	C71	0.724770	0.543200	0.197700
H541	H54	0.724700	0.573100	0.106200
C721	C72	0.671470	0.788000	0.543200
H551	H55	0.659700	0.799100	0.442200
C731	C73	0.828520	0.428500	0.311200
C741	C74	0.659510	0.621200	0.176200
C751	C75	0.759790	0.487600	0.273100
H561	H56	0.758900	0.452600	0.359700
C761	C76	0.566200	0.541200	0.691000
H571	H57	0.570700	0.473200	0.680700
C771	C77	0.532600	0.585600	0.609400
C781	C78	0.593550	0.600300	0.790000
H581	H58	0.616500	0.570200	0.845100
N201	N20	0.496200	0.540100	0.485500
C791	C79	0.526950	0.685500	0.626200
H591	H59	0.504500	0.717400	0.570000
C801	C80	0.555050	0.738400	0.728100
H601	H60	0.550800	0.806200	0.741500
Ni61	Ni6	0.131570	0.283350	0.952450
C811	C81	0.150120	0.295500	0.648900
H611	H61	0.123700	0.313600	0.617500
N211	N21	0.165190	0.278000	0.795800
O211	O21	0.132540	0.133700	0.242100
O221	O22	0.324960	0.869400	0.412900
O231	O23	0.161360	0.160500	0.052400
O241	O24	0.360760	0.944900	0.274800
N221	N22	0.088470	0.196500	0.809300
N231	N23	0.231950	0.258400	0.474900
C821	C82	0.193110	0.054200	0.249600
H621	H62	0.191500	0.019000	0.335300
C831	C83	0.292940	0.983400	0.227300
H631	H63	0.293900	0.016100	0.138900
C841	C84	0.203640	0.253100	0.838700
H641	H64	0.214500	0.240500	0.939900
C851	C85	0.211160	0.263500	0.590000
C861	C86	0.227650	0.245300	0.741200
H651	H65	0.254100	0.228400	0.775300
C871	C87	0.224770	0.043200	0.197700
H661	H66	0.224700	0.073100	0.106200
C881	C88	0.171470	0.288000	0.543200
H671	H67	0.159700	0.299100	0.442200
C891	C89	0.328520	0.928500	0.311200
C901	C90	0.159510	0.121200	0.176200
C911	C91	0.259790	0.987600	0.273100
H681	H68	0.258900	0.952600	0.359700
C921	C92	0.066200	0.041200	0.691000
H691	H69	0.070700	0.973200	0.680700
C931	C93	0.032600	0.085600	0.609400
C941	C94	0.093550	0.100300	0.790000
H701	H70	0.116500	0.070200	0.845100
N241	N24	0.996200	0.040100	0.485500
C951	C95	0.026950	0.185500	0.626200
H711	H71	0.004500	0.217400	0.570000
C961	C96	0.055050	0.238400	0.728100
H721	H72	0.050800	0.306200	0.741500
Ni71	Ni7	0.368430	0.783350	0.547550
C971	C97	0.349880	0.795500	0.851100
H731	H73	0.376300	0.813600	0.882500
N251	N25	0.334810	0.778000	0.704200
O251	O25	0.367460	0.633700	0.257900
O261	O26	0.175040	0.369400	0.087100
O271	O27	0.338640	0.660500	0.447600
O281	O28	0.139240	0.444900	0.225200
N261	N26	0.411530	0.696500	0.690700
N271	N27	0.268050	0.758400	0.025100
C981	C98	0.306890	0.554200	0.250400
H741	H74	0.308500	0.519000	0.164700
C991	C99	0.207060	0.483400	0.272700
H751	H75	0.206100	0.516100	0.361100
C1001	C100	0.296360	0.753100	0.661300
H761	H76	0.285500	0.740500	0.560100
C1011	C101	0.288840	0.763500	0.910000
C1021	C102	0.272350	0.745300	0.758800
H771	H77	0.245900	0.728400	0.724700
C1031	C103	0.275230	0.543200	0.302300
H781	H78	0.275300	0.573100	0.393800
C1041	C104	0.328530	0.788000	0.956800
H791	H79	0.340300	0.799100	0.057800
C1051	C105	0.171480	0.428500	0.188800
C1061	C106	0.340490	0.621200	0.323800
C1071	C107	0.240210	0.487600	0.226900
H801	H80	0.241100	0.452600	0.140300
C1081	C108	0.433800	0.541200	0.809000
H811	H81	0.429300	0.473200	0.819300
C1091	C109	0.467400	0.585600	0.890600
C1101	C110	0.406450	0.600300	0.710000
H821	H82	0.383500	0.570200	0.654900
N281	N28	0.503800	0.540100	0.014500
C1111	C111	0.473050	0.685500	0.873800
H831	H83	0.495500	0.717400	0.930000
C1121	C112	0.444950	0.738400	0.771900
H841	H84	0.449200	0.806200	0.758500
Ni81	Ni8	0.868430	0.283350	0.547550
C1131	C113	0.849880	0.295500	0.851100
H851	H85	0.876300	0.313600	0.882500
N291	N29	0.834810	0.278000	0.704200
O291	O29	0.867460	0.133700	0.257900
O301	O30	0.675040	0.869400	0.087100
O311	O31	0.838640	0.160500	0.447600
O321	O32	0.639240	0.944900	0.225200
N301	N30	0.911530	0.196500	0.690700
N311	N31	0.768050	0.258400	0.025100
C1141	C114	0.806890	0.054200	0.250400
H861	H86	0.808500	0.019000	0.164700
C1151	C115	0.707060	0.983400	0.272700
H871	H87	0.706100	0.016100	0.361100
C1161	C116	0.796360	0.253100	0.661300
H881	H88	0.785500	0.240500	0.560100
C1171	C117	0.788840	0.263500	0.910000
C1181	C118	0.772350	0.245300	0.758800
H891	H89	0.745900	0.228400	0.724700
C1191	C119	0.775230	0.043200	0.302300
H901	H90	0.775300	0.073100	0.393800
C1201	C120	0.828530	0.288000	0.956800
H911	H91	0.840300	0.299100	0.057800
C1211	C121	0.671480	0.928500	0.188800
C1221	C122	0.840490	0.121200	0.323800
C1231	C123	0.740210	0.987600	0.226900
H921	H92	0.741100	0.952600	0.140300
C1241	C124	0.933800	0.041200	0.809000
H931	H93	0.929300	0.973200	0.819300
C1251	C125	0.967400	0.085600	0.890600
C1261	C126	0.906450	0.100300	0.710000
H941	H94	0.883500	0.070200	0.654900
N321	N32	0.003800	0.040100	0.014500
C1271	C127	0.973050	0.185500	0.873800
H951	H95	0.995500	0.217400	0.930000
C1281	C128	0.944950	0.238400	0.771900
H961	H96	0.949200	0.306200	0.758500
