data_EMAPAK_clean_PM
_symmetry_space_group_name_H-M	'P1'
_cell_length_a	16.985800
_cell_length_b	16.985800
_cell_length_c	16.985800
_cell_angle_alpha	90.000000
_cell_angle_beta	90.000000
_cell_angle_gamma	90.000000
_symmetry_Int_Tables_number 1

loop_
_symmetry_equiv_pos_as_xyz
'x,y,z'

loop_
_atom_site_label
_atom_site_type_symbol
_atom_site_fract_x
_atom_site_fract_y
_atom_site_fract_z
N11	N1	0.029180	0.410600	0.319650
C11	C1	0.101290	0.376460	0.321200
H11	H1	0.143600	0.389500	0.289000
H21	H2	0.895700	0.387200	0.451000
N21	N2	0.529180	0.910600	0.819650
C21	C2	0.601290	0.876460	0.821200
H31	H3	0.643600	0.889500	0.789000
H41	H4	0.395700	0.887200	0.951000
N31	N3	0.970820	0.589400	0.319650
C31	C3	0.898710	0.623540	0.321200
H51	H5	0.856400	0.610500	0.289000
H61	H6	0.104300	0.612800	0.451000
N41	N4	0.470820	0.089400	0.819650
C41	C4	0.398710	0.123540	0.821200
H71	H7	0.356400	0.110500	0.789000
H81	H8	0.604300	0.112800	0.951000
N51	N5	0.970820	0.410600	0.680350
C51	C5	0.898710	0.376460	0.678800
H91	H9	0.856400	0.389500	0.711000
H101	H10	0.104300	0.387200	0.549000
N61	N6	0.470820	0.910600	0.180350
C61	C6	0.398710	0.876460	0.178800
H111	H11	0.356400	0.889500	0.211000
H121	H12	0.604300	0.887200	0.049000
N71	N7	0.029180	0.589400	0.680350
C71	C7	0.101290	0.623540	0.678800
H131	H13	0.143600	0.610500	0.711000
H141	H14	0.895700	0.612800	0.549000
N81	N8	0.529180	0.089400	0.180350
C81	C8	0.601290	0.123540	0.178800
H151	H15	0.643600	0.110500	0.211000
H161	H16	0.395700	0.112800	0.049000
N91	N9	0.319650	0.029180	0.410600
C91	C9	0.321200	0.101290	0.376460
H171	H17	0.289000	0.143600	0.389500
H181	H18	0.451000	0.895700	0.387200
N101	N10	0.819650	0.529180	0.910600
C101	C10	0.821200	0.601290	0.876460
H191	H19	0.789000	0.643600	0.889500
H201	H20	0.951000	0.395700	0.887200
N111	N11	0.319650	0.970820	0.589400
C111	C11	0.321200	0.898710	0.623540
H211	H21	0.289000	0.856400	0.610500
H221	H22	0.451000	0.104300	0.612800
N121	N12	0.819650	0.470820	0.089400
C121	C12	0.821200	0.398710	0.123540
H231	H23	0.789000	0.356400	0.110500
H241	H24	0.951000	0.604300	0.112800
N131	N13	0.680350	0.970820	0.410600
C131	C13	0.678800	0.898710	0.376460
H251	H25	0.711000	0.856400	0.389500
H261	H26	0.549000	0.104300	0.387200
N141	N14	0.180350	0.470820	0.910600
C141	C14	0.178800	0.398710	0.876460
H271	H27	0.211000	0.356400	0.889500
H281	H28	0.049000	0.604300	0.887200
N151	N15	0.680350	0.029180	0.589400
C151	C15	0.678800	0.101290	0.623540
H291	H29	0.711000	0.143600	0.610500
H301	H30	0.549000	0.895700	0.612800
N161	N16	0.180350	0.529180	0.089400
C161	C16	0.178800	0.601290	0.123540
H311	H31	0.211000	0.643600	0.110500
H321	H32	0.049000	0.395700	0.112800
N171	N17	0.410600	0.319650	0.029180
C171	C17	0.376460	0.321200	0.101290
H331	H33	0.389500	0.289000	0.143600
H341	H34	0.387200	0.451000	0.895700
N181	N18	0.910600	0.819650	0.529180
C181	C18	0.876460	0.821200	0.601290
H351	H35	0.889500	0.789000	0.643600
H361	H36	0.887200	0.951000	0.395700
N191	N19	0.589400	0.319650	0.970820
C191	C19	0.623540	0.321200	0.898710
H371	H37	0.610500	0.289000	0.856400
H381	H38	0.612800	0.451000	0.104300
N201	N20	0.089400	0.819650	0.470820
C201	C20	0.123540	0.821200	0.398710
H391	H39	0.110500	0.789000	0.356400
H401	H40	0.112800	0.951000	0.604300
N211	N21	0.410600	0.680350	0.970820
C211	C21	0.376460	0.678800	0.898710
H411	H41	0.389500	0.711000	0.856400
H421	H42	0.387200	0.549000	0.104300
N221	N22	0.910600	0.180350	0.470820
C221	C22	0.876460	0.178800	0.398710
H431	H43	0.889500	0.211000	0.356400
H441	H44	0.887200	0.049000	0.604300
N231	N23	0.589400	0.680350	0.029180
C231	C23	0.623540	0.678800	0.101290
H451	H45	0.610500	0.711000	0.143600
H461	H46	0.612800	0.549000	0.895700
N241	N24	0.089400	0.180350	0.529180
C241	C24	0.123540	0.178800	0.601290
H471	H47	0.110500	0.211000	0.643600
H481	H48	0.112800	0.049000	0.395700
N251	N25	0.410600	0.029180	0.319650
C251	C25	0.376460	0.101290	0.321200
H491	H49	0.389500	0.143600	0.289000
H501	H50	0.387200	0.895700	0.451000
N261	N26	0.910600	0.529180	0.819650
C261	C26	0.876460	0.601290	0.821200
H511	H51	0.889500	0.643600	0.789000
H521	H52	0.887200	0.395700	0.951000
N271	N27	0.589400	0.970820	0.319650
C271	C27	0.623540	0.898710	0.321200
H531	H53	0.610500	0.856400	0.289000
H541	H54	0.612800	0.104300	0.451000
N281	N28	0.089400	0.470820	0.819650
C281	C28	0.123540	0.398710	0.821200
H551	H55	0.110500	0.356400	0.789000
H561	H56	0.112800	0.604300	0.951000
N291	N29	0.410600	0.970820	0.680350
C291	C29	0.376460	0.898710	0.678800
H571	H57	0.389500	0.856400	0.711000
H581	H58	0.387200	0.104300	0.549000
N301	N30	0.910600	0.470820	0.180350
C301	C30	0.876460	0.398710	0.178800
H591	H59	0.889500	0.356400	0.211000
H601	H60	0.887200	0.604300	0.049000
N311	N31	0.589400	0.029180	0.680350
C311	C31	0.623540	0.101290	0.678800
H611	H61	0.610500	0.143600	0.711000
H621	H62	0.612800	0.895700	0.549000
N321	N32	0.089400	0.529180	0.180350
C321	C32	0.123540	0.601290	0.178800
H631	H63	0.110500	0.643600	0.211000
H641	H64	0.112800	0.395700	0.049000
N331	N33	0.029180	0.319650	0.410600
C331	C33	0.101290	0.321200	0.376460
H651	H65	0.143600	0.289000	0.389500
H661	H66	0.895700	0.451000	0.387200
N341	N34	0.529180	0.819650	0.910600
C341	C34	0.601290	0.821200	0.876460
H671	H67	0.643600	0.789000	0.889500
H681	H68	0.395700	0.951000	0.887200
N351	N35	0.970820	0.319650	0.589400
C351	C35	0.898710	0.321200	0.623540
H691	H69	0.856400	0.289000	0.610500
H701	H70	0.104300	0.451000	0.612800
N361	N36	0.470820	0.819650	0.089400
C361	C36	0.398710	0.821200	0.123540
H711	H71	0.356400	0.789000	0.110500
H721	H72	0.604300	0.951000	0.112800
N371	N37	0.970820	0.680350	0.410600
C371	C37	0.898710	0.678800	0.376460
H731	H73	0.856400	0.711000	0.389500
H741	H74	0.104300	0.549000	0.387200
N381	N38	0.470820	0.180350	0.910600
C381	C38	0.398710	0.178800	0.876460
H751	H75	0.356400	0.211000	0.889500
H761	H76	0.604300	0.049000	0.887200
N391	N39	0.029180	0.680350	0.589400
C391	C39	0.101290	0.678800	0.623540
H771	H77	0.143600	0.711000	0.610500
H781	H78	0.895700	0.549000	0.612800
N401	N40	0.529180	0.180350	0.089400
C401	C40	0.601290	0.178800	0.123540
H791	H79	0.643600	0.211000	0.110500
H801	H80	0.395700	0.049000	0.112800
N411	N41	0.319650	0.410600	0.029180
C411	C41	0.321200	0.376460	0.101290
H811	H81	0.289000	0.389500	0.143600
H821	H82	0.451000	0.387200	0.895700
N421	N42	0.819650	0.910600	0.529180
C421	C42	0.821200	0.876460	0.601290
H831	H83	0.789000	0.889500	0.643600
H841	H84	0.951000	0.887200	0.395700
N431	N43	0.319650	0.589400	0.970820
C431	C43	0.321200	0.623540	0.898710
H851	H85	0.289000	0.610500	0.856400
H861	H86	0.451000	0.612800	0.104300
N441	N44	0.819650	0.089400	0.470820
C441	C44	0.821200	0.123540	0.398710
H871	H87	0.789000	0.110500	0.356400
H881	H88	0.951000	0.112800	0.604300
N451	N45	0.680350	0.410600	0.970820
C451	C45	0.678800	0.376460	0.898710
H891	H89	0.711000	0.389500	0.856400
H901	H90	0.549000	0.387200	0.104300
N461	N46	0.180350	0.910600	0.470820
C461	C46	0.178800	0.876460	0.398710
H911	H91	0.211000	0.889500	0.356400
H921	H92	0.049000	0.887200	0.604300
N471	N47	0.680350	0.589400	0.029180
C471	C47	0.678800	0.623540	0.101290
H931	H93	0.711000	0.610500	0.143600
H941	H94	0.549000	0.612800	0.895700
N481	N48	0.180350	0.089400	0.529180
C481	C48	0.178800	0.123540	0.601290
H951	H95	0.211000	0.110500	0.643600
H961	H96	0.049000	0.112800	0.395700
Zn11	Zn1	0.000000	0.500000	0.250000
Zn21	Zn2	0.000000	0.500000	0.750000
Zn31	Zn3	0.500000	0.000000	0.250000
Zn41	Zn4	0.250000	0.000000	0.500000
Zn51	Zn5	0.750000	0.000000	0.500000
Zn61	Zn6	0.250000	0.500000	0.000000
Zn71	Zn7	0.500000	0.250000	0.000000
Zn81	Zn8	0.500000	0.750000	0.000000
Zn91	Zn9	0.000000	0.250000	0.500000
Zn101	Zn10	0.500000	0.000000	0.750000
Zn111	Zn11	0.000000	0.750000	0.500000
Zn121	Zn12	0.750000	0.500000	0.000000
C491	C49	0.986900	0.375500	0.375500
C501	C50	0.904200	0.395700	0.395700
H971	H97	0.867900	0.365100	0.365100
C511	C51	0.486900	0.875500	0.875500
C521	C52	0.404200	0.895700	0.895700
H981	H98	0.367900	0.865100	0.865100
C531	C53	0.013100	0.624500	0.375500
C541	C54	0.095800	0.604300	0.395700
H991	H99	0.132100	0.634900	0.365100
C551	C55	0.513100	0.124500	0.875500
C561	C56	0.595800	0.104300	0.895700
H1001	H100	0.632100	0.134900	0.865100
C571	C57	0.013100	0.375500	0.624500
C581	C58	0.095800	0.395700	0.604300
H1011	H101	0.132100	0.365100	0.634900
C591	C59	0.513100	0.875500	0.124500
C601	C60	0.595800	0.895700	0.104300
H1021	H102	0.632100	0.865100	0.134900
C611	C61	0.986900	0.624500	0.624500
C621	C62	0.904200	0.604300	0.604300
H1031	H103	0.867900	0.634900	0.634900
C631	C63	0.486900	0.124500	0.124500
C641	C64	0.404200	0.104300	0.104300
H1041	H104	0.367900	0.134900	0.134900
C651	C65	0.375500	0.986900	0.375500
C661	C66	0.395700	0.904200	0.395700
H1051	H105	0.365100	0.867900	0.365100
C671	C67	0.875500	0.486900	0.875500
C681	C68	0.895700	0.404200	0.895700
H1061	H106	0.865100	0.367900	0.865100
C691	C69	0.375500	0.013100	0.624500
C701	C70	0.395700	0.095800	0.604300
H1071	H107	0.365100	0.132100	0.634900
C711	C71	0.875500	0.513100	0.124500
C721	C72	0.895700	0.595800	0.104300
H1081	H108	0.865100	0.632100	0.134900
C731	C73	0.624500	0.013100	0.375500
C741	C74	0.604300	0.095800	0.395700
H1091	H109	0.634900	0.132100	0.365100
C751	C75	0.124500	0.513100	0.875500
C761	C76	0.104300	0.595800	0.895700
H1101	H110	0.134900	0.632100	0.865100
C771	C77	0.624500	0.986900	0.624500
C781	C78	0.604300	0.904200	0.604300
H1111	H111	0.634900	0.867900	0.634900
C791	C79	0.124500	0.486900	0.124500
C801	C80	0.104300	0.404200	0.104300
H1121	H112	0.134900	0.367900	0.134900
C811	C81	0.375500	0.375500	0.986900
C821	C82	0.395700	0.395700	0.904200
H1131	H113	0.365100	0.365100	0.867900
C831	C83	0.875500	0.875500	0.486900
C841	C84	0.895700	0.895700	0.404200
H1141	H114	0.865100	0.865100	0.367900
C851	C85	0.624500	0.375500	0.013100
C861	C86	0.604300	0.395700	0.095800
H1151	H115	0.634900	0.365100	0.132100
C871	C87	0.124500	0.875500	0.513100
C881	C88	0.104300	0.895700	0.595800
H1161	H116	0.134900	0.865100	0.632100
C891	C89	0.375500	0.624500	0.013100
C901	C90	0.395700	0.604300	0.095800
H1171	H117	0.365100	0.634900	0.132100
C911	C91	0.875500	0.124500	0.513100
C921	C92	0.895700	0.104300	0.595800
H1181	H118	0.865100	0.134900	0.632100
C931	C93	0.624500	0.624500	0.986900
C941	C94	0.604300	0.604300	0.904200
H1191	H119	0.634900	0.634900	0.867900
C951	C95	0.124500	0.124500	0.486900
C961	C96	0.104300	0.104300	0.404200
H1201	H120	0.134900	0.134900	0.367900
