data_EMICUZ_clean_PM
_symmetry_space_group_name_H-M	'P1'
_cell_length_a	9.220000
_cell_length_b	10.750000
_cell_length_c	18.831000
_cell_angle_alpha	90.000000
_cell_angle_beta	90.000000
_cell_angle_gamma	104.087000
_symmetry_Int_Tables_number 1

loop_
_symmetry_equiv_pos_as_xyz
'x,y,z'

loop_
_atom_site_label
_atom_site_type_symbol
_atom_site_fract_x
_atom_site_fract_y
_atom_site_fract_z
Cd11	Cd1	0.508250	0.835770	0.381660
Cd21	Cd2	0.491750	0.664230	0.881660
Cd31	Cd3	0.491750	0.164230	0.618340
Cd41	Cd4	0.508250	0.335770	0.118340
H11	H1	0.643700	0.348900	0.368400
H21	H2	0.053100	0.519300	0.293800
H31	H3	0.939200	0.138400	0.326400
H41	H4	0.012600	0.703300	0.351600
H51	H5	0.869600	0.865300	0.361600
H61	H6	0.582200	0.538000	0.328200
H71	H7	0.216000	0.186100	0.355700
H81	H8	0.437800	0.203100	0.282800
H91	H9	0.210900	0.430100	0.198400
H101	H10	0.189700	0.420900	0.451300
H111	H11	0.019500	0.718300	0.505300
H121	H12	0.356300	0.151100	0.868400
H131	H13	0.946900	0.980700	0.793800
H141	H14	0.060800	0.361600	0.826400
H151	H15	0.987400	0.796700	0.851600
H161	H16	0.130400	0.634700	0.861600
H171	H17	0.417800	0.962000	0.828200
H181	H18	0.784000	0.313900	0.855700
H191	H19	0.562200	0.296900	0.782800
H201	H20	0.789100	0.069900	0.698400
H211	H21	0.810300	0.079100	0.951300
H221	H22	0.980500	0.781700	0.005300
H231	H23	0.356300	0.651100	0.631600
H241	H24	0.946900	0.480700	0.706200
H251	H25	0.060800	0.861600	0.673600
H261	H26	0.987400	0.296700	0.648400
H271	H27	0.130400	0.134700	0.638400
H281	H28	0.417800	0.462000	0.671800
H291	H29	0.784000	0.813900	0.644300
H301	H30	0.562200	0.796900	0.717200
H311	H31	0.789100	0.569900	0.801600
H321	H32	0.810300	0.579100	0.548700
H331	H33	0.980500	0.281700	0.494700
H341	H34	0.643700	0.848900	0.131600
H351	H35	0.053100	0.019300	0.206200
H361	H36	0.939200	0.638400	0.173600
H371	H37	0.012600	0.203300	0.148400
H381	H38	0.869600	0.365300	0.138400
H391	H39	0.582200	0.038000	0.171800
H401	H40	0.216000	0.686100	0.144300
H411	H41	0.437800	0.703100	0.217200
H421	H42	0.210900	0.930100	0.301600
H431	H43	0.189700	0.920900	0.048700
H441	H44	0.019500	0.218300	0.994700
C11	C1	0.771700	0.224000	0.348800
C21	C2	0.736800	0.342600	0.352050
C31	C3	0.842000	0.451200	0.330760
C41	C4	0.983500	0.445600	0.308210
C51	C5	0.018000	0.327500	0.307800
C61	C6	0.914000	0.217100	0.327450
C71	C7	0.658800	0.101500	0.366710
C81	C8	0.909300	0.689500	0.347920
C91	C9	0.829600	0.778400	0.353200
C101	C10	0.671400	0.599500	0.334890
C111	C11	0.242400	0.237100	0.315640
C121	C12	0.364100	0.247300	0.275010
C131	C13	0.241500	0.372300	0.228150
C141	C14	0.126800	0.585200	0.473140
C151	C15	0.113200	0.452600	0.470810
C161	C16	0.011500	0.630400	0.503060
C171	C17	0.261100	0.675400	0.441290
C181	C18	0.228300	0.276000	0.848800
C191	C19	0.263200	0.157400	0.852050
C201	C20	0.158000	0.048800	0.830760
C211	C21	0.016500	0.054400	0.808210
C221	C22	0.982000	0.172500	0.807800
C231	C23	0.086000	0.282900	0.827450
C241	C24	0.341200	0.398500	0.866710
C251	C25	0.090700	0.810500	0.847920
C261	C26	0.170400	0.721600	0.853200
C271	C27	0.328600	0.900500	0.834890
C281	C28	0.757600	0.262900	0.815640
C291	C29	0.635900	0.252700	0.775010
C301	C30	0.758500	0.127700	0.728150
C311	C31	0.873200	0.914800	0.973140
C321	C32	0.886800	0.047400	0.970810
C331	C33	0.988500	0.869600	0.003060
C341	C34	0.738900	0.824600	0.941290
C351	C35	0.228300	0.776000	0.651200
C361	C36	0.263200	0.657400	0.647950
C371	C37	0.158000	0.548800	0.669240
C381	C38	0.016500	0.554400	0.691790
C391	C39	0.982000	0.672500	0.692200
C401	C40	0.086000	0.782900	0.672550
C411	C41	0.341200	0.898500	0.633290
C421	C42	0.090700	0.310500	0.652080
C431	C43	0.170400	0.221600	0.646800
C441	C44	0.328600	0.400500	0.665110
C451	C45	0.757600	0.762900	0.684360
C461	C46	0.635900	0.752700	0.724990
C471	C47	0.758500	0.627700	0.771850
C481	C48	0.873200	0.414800	0.526860
C491	C49	0.886800	0.547400	0.529190
C501	C50	0.988500	0.369600	0.496940
C511	C51	0.738900	0.324600	0.558710
C521	C52	0.771700	0.724000	0.151200
C531	C53	0.736800	0.842600	0.147950
C541	C54	0.842000	0.951200	0.169240
C551	C55	0.983500	0.945600	0.191790
C561	C56	0.018000	0.827500	0.192200
C571	C57	0.914000	0.717100	0.172550
C581	C58	0.658800	0.601500	0.133290
C591	C59	0.909300	0.189500	0.152080
C601	C60	0.829600	0.278400	0.146800
C611	C61	0.671400	0.099500	0.165110
C621	C62	0.242400	0.737100	0.184360
C631	C63	0.364100	0.747300	0.224990
C641	C64	0.241500	0.872300	0.271850
C651	C65	0.126800	0.085200	0.026860
C661	C66	0.113200	0.952600	0.029190
C671	C67	0.011500	0.130400	0.996940
C681	C68	0.261100	0.175400	0.058710
N11	N1	0.681000	0.722400	0.344490
N21	N2	0.808200	0.574200	0.335990
N31	N3	0.364900	0.332800	0.219840
N41	N4	0.165400	0.317100	0.285990
N51	N5	0.319000	0.777600	0.844490
N61	N6	0.191800	0.925800	0.835990
N71	N7	0.635100	0.167200	0.719840
N81	N8	0.834600	0.182900	0.785990
N91	N9	0.319000	0.277600	0.655510
N101	N10	0.191800	0.425800	0.664010
N111	N11	0.635100	0.667200	0.780160
N121	N12	0.834600	0.682900	0.714010
N131	N13	0.681000	0.222400	0.155510
N141	N14	0.808200	0.074200	0.164010
N151	N15	0.364900	0.832800	0.280160
N161	N16	0.165400	0.817100	0.214010
O11	O1	0.531900	0.103400	0.388060
O21	O2	0.699100	0.000900	0.356110
O31	O3	0.270700	0.793700	0.442060
O41	O4	0.359100	0.629000	0.412720
O51	O5	0.468100	0.396600	0.888060
O61	O6	0.300900	0.499100	0.856110
O71	O7	0.729300	0.706300	0.942060
O81	O8	0.640900	0.871000	0.912720
O91	O9	0.468100	0.896600	0.611940
O101	O10	0.300900	0.999100	0.643890
O111	O11	0.729300	0.206300	0.557940
O121	O12	0.640900	0.371000	0.587280
O131	O13	0.531900	0.603400	0.111940
O141	O14	0.699100	0.500900	0.143890
O151	O15	0.270700	0.293700	0.057940
O161	O16	0.359100	0.129000	0.087280
