data_EMIGAJ_charged_PM
_symmetry_space_group_name_H-M	'P1'
_cell_length_a	25.590700
_cell_length_b	42.314000
_cell_length_c	42.314000
_cell_angle_alpha	107.585000
_cell_angle_beta	90.684600
_cell_angle_gamma	90.684600
_symmetry_Int_Tables_number 1

loop_
_symmetry_equiv_pos_as_xyz
'x,y,z'

loop_
_atom_site_label
_atom_site_type_symbol
_atom_site_fract_x
_atom_site_fract_y
_atom_site_fract_z
In11	In1	0.954820	0.091060	0.860540
In21	In2	0.949760	0.013700	0.788320
In31	In3	0.896840	0.102760	0.782880
In41	In4	0.052930	0.090330	0.795150
In51	In5	0.948530	0.943220	0.709640
In61	In6	0.893050	0.021720	0.700240
In71	In7	0.851190	0.106140	0.699240
In81	In8	0.049000	0.009180	0.712200
In91	In9	0.995940	0.098990	0.707330
In101	In10	0.137400	0.082970	0.721790
In111	In11	0.449540	0.294140	0.657660
In121	In12	0.394860	0.216000	0.669360
In131	In13	0.446440	0.222130	0.580390
In141	In14	0.550290	0.230240	0.657700
In151	In15	0.351780	0.131900	0.671780
In161	In16	0.393050	0.133910	0.587510
In171	In17	0.449780	0.144330	0.509330
In181	In18	0.496210	0.141290	0.664810
In191	In19	0.549800	0.148030	0.576330
In201	In20	0.637680	0.158020	0.650580
In211	In21	0.919960	0.686620	0.451420
In221	In22	0.917240	0.741820	0.538140
In231	In23	0.830310	0.655470	0.504750
In241	In24	0.989730	0.651540	0.512120
In251	In25	0.912780	0.788340	0.628620
In261	In26	0.825780	0.713090	0.602050
In271	In27	0.754520	0.630540	0.568860
In281	In28	0.986400	0.708680	0.608680
In291	In29	0.897030	0.622730	0.577210
In301	In30	0.044330	0.624290	0.582490
In311	In31	0.289650	0.173050	0.231570
In321	In32	0.364030	0.145510	0.294870
In331	In33	0.357510	0.091710	0.196630
In341	In34	0.435330	0.180910	0.226830
In351	In35	0.449410	0.113960	0.350880
In361	In36	0.444270	0.059580	0.263160
In371	In37	0.522840	0.149460	0.293040
In381	In38	0.517030	0.094520	0.194720
In391	In39	0.437600	0.015410	0.171430
In401	In40	0.581550	0.178780	0.225580
In411	In41	0.454820	0.860540	0.091060
In421	In42	0.449760	0.788320	0.013700
In431	In43	0.396840	0.782880	0.102760
In441	In44	0.552930	0.795150	0.090330
In451	In45	0.448530	0.709640	0.943220
In461	In46	0.393050	0.700240	0.021720
In471	In47	0.351190	0.699240	0.106140
In481	In48	0.549000	0.712200	0.009180
In491	In49	0.495940	0.707330	0.098990
In501	In50	0.637400	0.721790	0.082970
In511	In51	0.949540	0.657660	0.294140
In521	In52	0.894860	0.669360	0.216000
In531	In53	0.946440	0.580390	0.222130
In541	In54	0.050290	0.657700	0.230240
In551	In55	0.851780	0.671780	0.131900
In561	In56	0.893050	0.587510	0.133910
In571	In57	0.949780	0.509330	0.144330
In581	In58	0.996210	0.664810	0.141290
In591	In59	0.049800	0.576330	0.148030
In601	In60	0.137680	0.650580	0.158020
In611	In61	0.419960	0.451420	0.686620
In621	In62	0.417240	0.538140	0.741820
In631	In63	0.330310	0.504750	0.655470
In641	In64	0.489730	0.512120	0.651540
In651	In65	0.412780	0.628620	0.788340
In661	In66	0.325780	0.602050	0.713090
In671	In67	0.254520	0.568860	0.630540
In681	In68	0.486400	0.608680	0.708680
In691	In69	0.397030	0.577210	0.622730
In701	In70	0.544330	0.582490	0.624290
In711	In71	0.789650	0.231570	0.173050
In721	In72	0.864030	0.294870	0.145510
In731	In73	0.857510	0.196630	0.091710
In741	In74	0.935330	0.226830	0.180910
In751	In75	0.949410	0.350880	0.113960
In761	In76	0.944270	0.263160	0.059580
In771	In77	0.022840	0.293040	0.149460
In781	In78	0.017030	0.194720	0.094520
In791	In79	0.937600	0.171430	0.015410
In801	In80	0.081550	0.225580	0.178780
H11	H1	0.061700	0.552500	0.598700
H21	H2	0.637900	0.615600	0.531600
H31	H3	0.166500	0.647900	0.610100
H41	H4	0.193900	0.626000	0.577000
H51	H5	0.219700	0.629300	0.612500
H61	H6	0.901600	0.884000	0.735000
H71	H7	0.877300	0.826300	0.702100
H81	H8	0.002300	0.875400	0.643800
H91	H9	0.963600	0.848600	0.619600
H101	H10	0.950100	0.887200	0.629800
H111	H11	0.336900	0.084900	0.715500
H121	H12	0.254800	0.062600	0.735000
H131	H13	0.178200	0.136700	0.687500
H141	H14	0.232900	0.154100	0.683900
H151	H15	0.212300	0.122300	0.654900
H161	H16	0.751600	0.182400	0.647200
H171	H17	0.833500	0.161300	0.658300
H181	H18	0.727300	0.104000	0.706600
H191	H19	0.676800	0.110300	0.686700
H201	H20	0.718100	0.082900	0.668500
H211	H21	0.404100	0.076900	0.453300
H221	H22	0.415400	0.063200	0.393000
H231	H23	0.516800	0.165900	0.443100
H241	H24	0.479200	0.170600	0.414400
H251	H25	0.461100	0.182900	0.452100
H261	H26	0.917700	0.740300	0.407500
H271	H27	0.431800	0.348800	0.727200
H281	H28	0.922400	0.619000	0.349000
H291	H29	0.923700	0.626900	0.388500
H301	H30	0.977100	0.625500	0.368900
H311	H31	0.383000	0.978400	0.108400
H321	H32	0.896500	0.066700	0.918700
H331	H33	0.170900	0.195200	0.269400
H341	H34	0.561700	0.598700	0.552500
H351	H35	0.137900	0.531600	0.615600
H361	H36	0.666500	0.610100	0.647900
H371	H37	0.693900	0.577000	0.626000
H381	H38	0.719700	0.612500	0.629300
H391	H39	0.401600	0.735000	0.884000
H401	H40	0.377300	0.702100	0.826300
H411	H41	0.502300	0.643800	0.875400
H421	H42	0.463600	0.619600	0.848600
H431	H43	0.450100	0.629800	0.887200
H441	H44	0.836900	0.715500	0.084900
H451	H45	0.754800	0.735000	0.062600
H461	H46	0.678200	0.687500	0.136700
H471	H47	0.732900	0.683900	0.154100
H481	H48	0.712300	0.654900	0.122300
H491	H49	0.251600	0.647200	0.182400
H501	H50	0.333500	0.658300	0.161300
H511	H51	0.227300	0.706600	0.104000
H521	H52	0.176800	0.686700	0.110300
H531	H53	0.218100	0.668500	0.082900
H541	H54	0.904100	0.453300	0.076900
H551	H55	0.915400	0.393000	0.063200
H561	H56	0.016800	0.443100	0.165900
H571	H57	0.979200	0.414400	0.170600
H581	H58	0.961100	0.452100	0.182900
H591	H59	0.417700	0.407500	0.740300
H601	H60	0.931800	0.727200	0.348800
H611	H61	0.422400	0.349000	0.619000
H621	H62	0.423700	0.388500	0.626900
H631	H63	0.477100	0.368900	0.625500
H641	H64	0.883000	0.108400	0.978400
H651	H65	0.396500	0.918700	0.066700
H661	H66	0.670900	0.269400	0.195200
C11	C1	0.155800	0.597900	0.601700
C21	C2	0.095100	0.563100	0.601300
C31	C3	0.635400	0.610100	0.551700
C41	C4	0.186600	0.627900	0.600100
C51	C5	0.937500	0.866600	0.665800
C61	C6	0.908600	0.874300	0.712100
C71	C7	0.896000	0.842000	0.694400
C81	C8	0.965700	0.869700	0.637500
C91	C9	0.240800	0.111100	0.694900
C101	C10	0.302300	0.090400	0.711200
C111	C11	0.257500	0.078000	0.722800
C121	C12	0.213800	0.132800	0.679000
C131	C13	0.742300	0.129000	0.675000
C141	C14	0.755300	0.164500	0.656300
C151	C15	0.800200	0.153800	0.662800
C161	C16	0.713900	0.104700	0.684900
C171	C17	0.456000	0.132800	0.431600
C181	C18	0.419300	0.090600	0.441800
C191	C19	0.424500	0.083800	0.409000
C201	C20	0.480300	0.165800	0.435600
C211	C21	0.936500	0.667900	0.373500
C221	C22	0.924400	0.718900	0.392900
C231	C23	0.432000	0.360900	0.711500
C241	C24	0.940200	0.631700	0.369700
C251	C25	0.963000	0.139900	0.935500
C261	C26	0.406000	0.961800	0.111200
C271	C27	0.911000	0.088400	0.928000
C281	C28	0.219000	0.209900	0.177500
C291	C29	0.177000	0.199600	0.249000
C301	C30	0.642600	0.218200	0.215400
C311	C31	0.655800	0.601700	0.597900
C321	C32	0.595100	0.601300	0.563100
C331	C33	0.135400	0.551700	0.610100
C341	C34	0.686600	0.600100	0.627900
C351	C35	0.437500	0.665800	0.866600
C361	C36	0.408600	0.712100	0.874300
C371	C37	0.396000	0.694400	0.842000
C381	C38	0.465700	0.637500	0.869700
C391	C39	0.740800	0.694900	0.111100
C401	C40	0.802300	0.711200	0.090400
C411	C41	0.757500	0.722800	0.078000
C421	C42	0.713800	0.679000	0.132800
C431	C43	0.242300	0.675000	0.129000
C441	C44	0.255300	0.656300	0.164500
C451	C45	0.300200	0.662800	0.153800
C461	C46	0.213900	0.684900	0.104700
C471	C47	0.956000	0.431600	0.132800
C481	C48	0.919300	0.441800	0.090600
C491	C49	0.924500	0.409000	0.083800
C501	C50	0.980300	0.435600	0.165800
C511	C51	0.436500	0.373500	0.667900
C521	C52	0.424400	0.392900	0.718900
C531	C53	0.932000	0.711500	0.360900
C541	C54	0.440200	0.369700	0.631700
C551	C55	0.463000	0.935500	0.139900
C561	C56	0.906000	0.111200	0.961800
C571	C57	0.411000	0.928000	0.088400
C581	C58	0.719000	0.177500	0.209900
C591	C59	0.677000	0.249000	0.199600
C601	C60	0.142600	0.215400	0.218200
S11	S1	0.939300	0.031930	0.847610
S21	S2	0.887200	0.121820	0.842120
S31	S3	0.938000	0.954390	0.768790
S41	S4	0.883400	0.041240	0.761900
S51	S5	0.039100	0.028690	0.773650
S61	S6	0.986700	0.117910	0.768690
S71	S7	0.880800	0.962750	0.679830
S81	S8	0.829300	0.048000	0.674480
S91	S9	0.036600	0.949870	0.691950
S101	S10	0.983000	0.037300	0.686220
S111	S11	0.135600	0.023560	0.698340
S121	S12	0.381800	0.274860	0.687280
S131	S13	0.432900	0.281420	0.598780
S141	S14	0.538600	0.289580	0.676040
S151	S15	0.381100	0.195370	0.607670
S161	S16	0.435300	0.203210	0.520830
S171	S17	0.484800	0.202580	0.684460
S181	S18	0.536200	0.209350	0.596010
S191	S19	0.637700	0.218210	0.671470
S201	S20	0.329200	0.108230	0.613490
S211	S21	0.381800	0.114270	0.528150
S221	S22	0.432600	0.113970	0.689970
S231	S23	0.483600	0.120960	0.603120
S241	S24	0.582900	0.128970	0.679470
S251	S25	0.636900	0.135390	0.590730
S261	S26	0.921700	0.745100	0.482300
S271	S27	0.835200	0.659270	0.449250
S281	S28	0.995500	0.654880	0.456440
S291	S29	0.918200	0.797610	0.575210
S301	S30	0.832800	0.713600	0.543340
S311	S31	0.752900	0.625360	0.510260
S321	S32	0.992400	0.709950	0.550230
S331	S33	0.905290	0.623740	0.518380
S341	S34	0.061000	0.620800	0.525200
S351	S35	0.828400	0.768220	0.640680
S361	S36	0.745800	0.685330	0.607830
S371	S37	0.901100	0.680990	0.614190
S381	S38	0.817100	0.595690	0.585190
S391	S39	0.058200	0.678690	0.621970
S401	S40	0.968600	0.593440	0.591780
S411	S41	0.367200	0.141100	0.349940
S421	S42	0.363100	0.088310	0.254670
S431	S43	0.440600	0.178310	0.285150
S441	S44	0.521300	0.091910	0.252790
S451	S45	0.082800	0.113340	0.694080
S461	S46	0.139500	0.104230	0.781530
S471	S47	0.043600	0.108430	0.854430
S481	S48	0.932200	0.125260	0.681820
S491	S49	0.832300	0.128590	0.757470
S501	S50	0.987900	0.763990	0.646150
S511	S51	0.333100	0.190250	0.696270
S521	S52	0.539000	0.128850	0.516770
S531	S53	0.278300	0.119430	0.190250
S541	S54	0.356100	0.208270	0.219290
S551	S55	0.284600	0.173580	0.288800
S561	S56	0.356500	0.036830	0.157730
S571	S57	0.435600	0.123330	0.186850
S581	S58	0.508900	0.210540	0.214880
S591	S59	0.441200	0.004450	0.224430
S601	S60	0.516400	0.039550	0.156470
S611	S61	0.593200	0.124870	0.185290
S621	S62	0.450300	0.055890	0.318730
S631	S63	0.597600	0.180480	0.282720
S641	S64	0.527200	0.145910	0.348510
S651	S65	0.439300	0.847610	0.031930
S661	S66	0.387200	0.842120	0.121820
S671	S67	0.438000	0.768790	0.954390
S681	S68	0.383400	0.761900	0.041240
S691	S69	0.539100	0.773650	0.028690
S701	S70	0.486700	0.768690	0.117910
S711	S71	0.380800	0.679830	0.962750
S721	S72	0.329300	0.674480	0.048000
S731	S73	0.536600	0.691950	0.949870
S741	S74	0.483000	0.686220	0.037300
S751	S75	0.635600	0.698340	0.023560
S761	S76	0.881800	0.687280	0.274860
S771	S77	0.932900	0.598780	0.281420
S781	S78	0.038600	0.676040	0.289580
S791	S79	0.881100	0.607670	0.195370
S801	S80	0.935300	0.520830	0.203210
S811	S81	0.984800	0.684460	0.202580
S821	S82	0.036200	0.596010	0.209350
S831	S83	0.137700	0.671470	0.218210
S841	S84	0.829200	0.613490	0.108230
S851	S85	0.881800	0.528150	0.114270
S861	S86	0.932600	0.689970	0.113970
S871	S87	0.983600	0.603120	0.120960
S881	S88	0.082900	0.679470	0.128970
S891	S89	0.136900	0.590730	0.135390
S901	S90	0.421700	0.482300	0.745100
S911	S91	0.335200	0.449250	0.659270
S921	S92	0.495500	0.456440	0.654880
S931	S93	0.418200	0.575210	0.797610
S941	S94	0.332800	0.543340	0.713600
S951	S95	0.252900	0.510260	0.625360
S961	S96	0.492400	0.550230	0.709950
S971	S97	0.405290	0.518380	0.623740
S981	S98	0.561000	0.525200	0.620800
S991	S99	0.328400	0.640680	0.768220
S1001	S100	0.245800	0.607830	0.685330
S1011	S101	0.401100	0.614190	0.680990
S1021	S102	0.317100	0.585190	0.595690
S1031	S103	0.558200	0.621970	0.678690
S1041	S104	0.468600	0.591780	0.593440
S1051	S105	0.867200	0.349940	0.141100
S1061	S106	0.863100	0.254670	0.088310
S1071	S107	0.940600	0.285150	0.178310
S1081	S108	0.021300	0.252790	0.091910
S1091	S109	0.582800	0.694080	0.113340
S1101	S110	0.639500	0.781530	0.104230
S1111	S111	0.543600	0.854430	0.108430
S1121	S112	0.432200	0.681820	0.125260
S1131	S113	0.332300	0.757470	0.128590
S1141	S114	0.487900	0.646150	0.763990
S1151	S115	0.833100	0.696270	0.190250
S1161	S116	0.039000	0.516770	0.128850
S1171	S117	0.778300	0.190250	0.119430
S1181	S118	0.856100	0.219290	0.208270
S1191	S119	0.784600	0.288800	0.173580
S1201	S120	0.856500	0.157730	0.036830
S1211	S121	0.935600	0.186850	0.123330
S1221	S122	0.008900	0.214880	0.210540
S1231	S123	0.941200	0.224430	0.004450
S1241	S124	0.016400	0.156470	0.039550
S1251	S125	0.093200	0.185290	0.124870
S1261	S126	0.950300	0.318730	0.055890
S1271	S127	0.097600	0.282720	0.180480
S1281	S128	0.027200	0.348510	0.145910
N11	N1	0.104900	0.592900	0.595900
N21	N2	0.675400	0.610500	0.573300
N31	N3	0.914700	0.837600	0.665400
N41	N4	0.931800	0.890000	0.693400
N51	N5	0.220700	0.093800	0.712200
N61	N6	0.292000	0.109100	0.694700
N71	N7	0.791300	0.131100	0.676700
N81	N8	0.718800	0.149400	0.662800
N91	N9	0.441000	0.122600	0.455600
N101	N10	0.445200	0.111000	0.402000
N111	N11	0.438600	0.347700	0.678900
N121	N12	0.928000	0.691100	0.401700
N131	N13	0.940700	0.106400	0.914400
N141	N14	0.437100	0.965000	0.135400
N151	N15	0.215600	0.198000	0.227400
N161	N16	0.181000	0.205900	0.204700
N171	N17	0.604900	0.595900	0.592900
N181	N18	0.175400	0.573300	0.610500
N191	N19	0.414700	0.665400	0.837600
N201	N20	0.431800	0.693400	0.890000
N211	N21	0.720700	0.712200	0.093800
N221	N22	0.792000	0.694700	0.109100
N231	N23	0.291300	0.676700	0.131100
N241	N24	0.218800	0.662800	0.149400
N251	N25	0.941000	0.455600	0.122600
N261	N26	0.945200	0.402000	0.111000
N271	N27	0.938600	0.678900	0.347700
N281	N28	0.428000	0.401700	0.691100
N291	N29	0.440700	0.914400	0.106400
N301	N30	0.937100	0.135400	0.965000
N311	N31	0.715600	0.227400	0.198000
N321	N32	0.681000	0.204700	0.205900
In811	In81	0.545180	0.139460	0.908940
In821	In82	0.550240	0.211680	0.986300
In831	In83	0.603160	0.217120	0.897240
In841	In84	0.447070	0.204850	0.909670
In851	In85	0.551470	0.290360	0.056780
In861	In86	0.606950	0.299760	0.978280
In871	In87	0.648810	0.300760	0.893860
In881	In88	0.451000	0.287800	0.990820
In891	In89	0.504060	0.292670	0.901010
In901	In90	0.362600	0.278210	0.917030
In911	In91	0.050460	0.342340	0.705860
In921	In92	0.105140	0.330640	0.784000
In931	In93	0.053560	0.419610	0.777870
In941	In94	0.949710	0.342300	0.769760
In951	In95	0.148220	0.328220	0.868100
In961	In96	0.106950	0.412490	0.866090
In971	In97	0.050220	0.490670	0.855670
In981	In98	0.003790	0.335190	0.858710
In991	In99	0.950200	0.423670	0.851970
In1001	In100	0.862320	0.349420	0.841980
In1011	In101	0.580040	0.548580	0.313380
In1021	In102	0.582760	0.461860	0.258180
In1031	In103	0.669690	0.495250	0.344530
In1041	In104	0.510270	0.487880	0.348460
In1051	In105	0.587220	0.371380	0.211660
In1061	In106	0.674220	0.397950	0.286910
In1071	In107	0.745480	0.431140	0.369460
In1081	In108	0.513600	0.391320	0.291320
In1091	In109	0.602970	0.422790	0.377270
In1101	In110	0.455670	0.417510	0.375710
In1111	In111	0.210350	0.768430	0.826950
In1121	In112	0.135970	0.705130	0.854490
In1131	In113	0.142490	0.803370	0.908290
In1141	In114	0.064670	0.773170	0.819090
In1151	In115	0.050590	0.649120	0.886040
In1161	In116	0.055730	0.736840	0.940420
In1171	In117	0.977160	0.706960	0.850540
In1181	In118	0.982970	0.805280	0.905480
In1191	In119	0.062400	0.828570	0.984590
In1201	In120	0.918450	0.774420	0.821220
In1211	In121	0.045180	0.908940	0.139460
In1221	In122	0.050240	0.986300	0.211680
In1231	In123	0.103160	0.897240	0.217120
In1241	In124	0.947070	0.909670	0.204850
In1251	In125	0.051470	0.056780	0.290360
In1261	In126	0.106950	0.978280	0.299760
In1271	In127	0.148810	0.893860	0.300760
In1281	In128	0.951000	0.990820	0.287800
In1291	In129	0.004060	0.901010	0.292670
In1301	In130	0.862600	0.917030	0.278210
In1311	In131	0.550460	0.705860	0.342340
In1321	In132	0.605140	0.784000	0.330640
In1331	In133	0.553560	0.777870	0.419610
In1341	In134	0.449710	0.769760	0.342300
In1351	In135	0.648220	0.868100	0.328220
In1361	In136	0.606950	0.866090	0.412490
In1371	In137	0.550220	0.855670	0.490670
In1381	In138	0.503790	0.858710	0.335190
In1391	In139	0.450200	0.851970	0.423670
In1401	In140	0.362320	0.841980	0.349420
In1411	In141	0.080040	0.313380	0.548580
In1421	In142	0.082760	0.258180	0.461860
In1431	In143	0.169690	0.344530	0.495250
In1441	In144	0.010270	0.348460	0.487880
In1451	In145	0.087220	0.211660	0.371380
In1461	In146	0.174220	0.286910	0.397950
In1471	In147	0.245480	0.369460	0.431140
In1481	In148	0.013600	0.291320	0.391320
In1491	In149	0.102970	0.377270	0.422790
In1501	In150	0.955670	0.375710	0.417510
In1511	In151	0.710350	0.826950	0.768430
In1521	In152	0.635970	0.854490	0.705130
In1531	In153	0.642490	0.908290	0.803370
In1541	In154	0.564670	0.819090	0.773170
In1551	In155	0.550590	0.886040	0.649120
In1561	In156	0.555730	0.940420	0.736840
In1571	In157	0.477160	0.850540	0.706960
In1581	In158	0.482970	0.905480	0.805280
In1591	In159	0.562400	0.984590	0.828570
In1601	In160	0.418450	0.821220	0.774420
H671	H67	0.438300	0.401300	0.447500
H681	H68	0.862100	0.468400	0.384400
H691	H69	0.333500	0.389900	0.352100
H701	H70	0.306100	0.423000	0.374000
H711	H71	0.280300	0.387500	0.370700
H721	H72	0.598400	0.265000	0.116000
H731	H73	0.622700	0.297900	0.173700
H741	H74	0.497700	0.356200	0.124600
H751	H75	0.536400	0.380400	0.151400
H761	H76	0.549900	0.370200	0.112800
H771	H77	0.163100	0.284500	0.915100
H781	H78	0.245200	0.265000	0.937400
H791	H79	0.321800	0.312500	0.863300
H801	H80	0.267100	0.316100	0.845900
H811	H81	0.287700	0.345100	0.877700
H821	H82	0.748400	0.352800	0.817600
H831	H83	0.666500	0.341700	0.838700
H841	H84	0.772700	0.293400	0.896000
H851	H85	0.823200	0.313300	0.889700
H861	H86	0.781900	0.331500	0.917100
H871	H87	0.095900	0.546700	0.923100
H881	H88	0.084600	0.607000	0.936800
H891	H89	0.983200	0.556900	0.834100
H901	H90	0.020800	0.585600	0.829400
H911	H91	0.038900	0.547900	0.817100
H921	H92	0.582300	0.592500	0.259700
H931	H93	0.068200	0.272800	0.651200
H941	H94	0.577600	0.651000	0.381000
H951	H95	0.576300	0.611500	0.373100
H961	H96	0.522900	0.631100	0.374500
H971	H97	0.117000	0.891600	0.021600
H981	H98	0.603500	0.081300	0.933300
H991	H99	0.329100	0.730600	0.804800
H1001	H100	0.938300	0.447500	0.401300
H1011	H101	0.362100	0.384400	0.468400
H1021	H102	0.833500	0.352100	0.389900
H1031	H103	0.806100	0.374000	0.423000
H1041	H104	0.780300	0.370700	0.387500
H1051	H105	0.098400	0.116000	0.265000
H1061	H106	0.122700	0.173700	0.297900
H1071	H107	0.997700	0.124600	0.356200
H1081	H108	0.036400	0.151400	0.380400
H1091	H109	0.049900	0.112800	0.370200
H1101	H110	0.663100	0.915100	0.284500
H1111	H111	0.745200	0.937400	0.265000
H1121	H112	0.821800	0.863300	0.312500
H1131	H113	0.767100	0.845900	0.316100
H1141	H114	0.787700	0.877700	0.345100
H1151	H115	0.248400	0.817600	0.352800
H1161	H116	0.166500	0.838700	0.341700
H1171	H117	0.272700	0.896000	0.293400
H1181	H118	0.323200	0.889700	0.313300
H1191	H119	0.281900	0.917100	0.331500
H1201	H120	0.595900	0.923100	0.546700
H1211	H121	0.584600	0.936800	0.607000
H1221	H122	0.483200	0.834100	0.556900
H1231	H123	0.520800	0.829400	0.585600
H1241	H124	0.538900	0.817100	0.547900
H1251	H125	0.082300	0.259700	0.592500
H1261	H126	0.568200	0.651200	0.272800
H1271	H127	0.077600	0.381000	0.651000
H1281	H128	0.076300	0.373100	0.611500
H1291	H129	0.022900	0.374500	0.631100
H1301	H130	0.617000	0.021600	0.891600
H1311	H131	0.103500	0.933300	0.081300
H1321	H132	0.829100	0.804800	0.730600
C611	C61	0.344200	0.398300	0.402100
C621	C62	0.404900	0.398700	0.436900
C631	C63	0.864600	0.448300	0.389900
C641	C64	0.313400	0.399900	0.372100
C651	C65	0.562500	0.334200	0.133400
C661	C66	0.591400	0.287900	0.125700
C671	C67	0.604000	0.305600	0.158000
C681	C68	0.534300	0.362500	0.130300
C691	C69	0.259200	0.305100	0.888900
C701	C70	0.197700	0.288800	0.909600
C711	C71	0.242500	0.277200	0.922000
C721	C72	0.286200	0.321000	0.867200
C731	C73	0.757700	0.325000	0.871000
C741	C74	0.744700	0.343700	0.835500
C751	C75	0.699800	0.337200	0.846200
C761	C76	0.786100	0.315100	0.895300
C771	C77	0.044000	0.568400	0.867200
C781	C78	0.080700	0.558200	0.909400
C791	C79	0.075500	0.591000	0.916200
C801	C80	0.019700	0.564400	0.834200
C811	C81	0.563500	0.626500	0.332100
C821	C82	0.575600	0.607100	0.281100
C831	C83	0.068000	0.288500	0.639100
C841	C84	0.559800	0.630300	0.368300
C851	C85	0.537000	0.064500	0.860100
C861	C86	0.094000	0.888800	0.038200
C871	C87	0.589000	0.072000	0.911600
C881	C88	0.281000	0.822500	0.790100
C891	C89	0.323000	0.751000	0.800400
C901	C90	0.857400	0.784600	0.781800
C911	C91	0.844200	0.402100	0.398300
C921	C92	0.904900	0.436900	0.398700
C931	C93	0.364600	0.389900	0.448300
C941	C94	0.813400	0.372100	0.399900
C951	C95	0.062500	0.133400	0.334200
C961	C96	0.091400	0.125700	0.287900
C971	C97	0.104000	0.158000	0.305600
C981	C98	0.034300	0.130300	0.362500
C991	C99	0.759200	0.888900	0.305100
C1001	C100	0.697700	0.909600	0.288800
C1011	C101	0.742500	0.922000	0.277200
C1021	C102	0.786200	0.867200	0.321000
C1031	C103	0.257700	0.871000	0.325000
C1041	C104	0.244700	0.835500	0.343700
C1051	C105	0.199800	0.846200	0.337200
C1061	C106	0.286100	0.895300	0.315100
C1071	C107	0.544000	0.867200	0.568400
C1081	C108	0.580700	0.909400	0.558200
C1091	C109	0.575500	0.916200	0.591000
C1101	C110	0.519700	0.834200	0.564400
C1111	C111	0.063500	0.332100	0.626500
C1121	C112	0.075600	0.281100	0.607100
C1131	C113	0.568000	0.639100	0.288500
C1141	C114	0.059800	0.368300	0.630300
C1151	C115	0.037000	0.860100	0.064500
C1161	C116	0.594000	0.038200	0.888800
C1171	C117	0.089000	0.911600	0.072000
C1181	C118	0.781000	0.790100	0.822500
C1191	C119	0.823000	0.800400	0.751000
C1201	C120	0.357400	0.781800	0.784600
S1291	S129	0.560700	0.152390	0.968070
S1301	S130	0.612800	0.157880	0.878180
S1311	S131	0.562000	0.231210	0.045610
S1321	S132	0.616600	0.238100	0.958760
S1331	S133	0.460900	0.226350	0.971310
S1341	S134	0.513300	0.231310	0.882090
S1351	S135	0.619200	0.320170	0.037250
S1361	S136	0.670700	0.325520	0.952000
S1371	S137	0.463400	0.308050	0.050130
S1381	S138	0.517000	0.313780	0.962700
S1391	S139	0.364400	0.301660	0.976440
S1401	S140	0.118200	0.312720	0.725140
S1411	S141	0.067100	0.401220	0.718580
S1421	S142	0.961400	0.323960	0.710420
S1431	S143	0.118900	0.392330	0.804630
S1441	S144	0.064700	0.479170	0.796790
S1451	S145	0.015200	0.315540	0.797420
S1461	S146	0.963800	0.403990	0.790650
S1471	S147	0.862300	0.328530	0.781790
S1481	S148	0.170800	0.386510	0.891770
S1491	S149	0.118200	0.471850	0.885730
S1501	S150	0.067400	0.310030	0.886030
S1511	S151	0.016400	0.396880	0.879040
S1521	S152	0.917100	0.320530	0.871030
S1531	S153	0.863100	0.409270	0.864610
S1541	S154	0.578300	0.517700	0.254900
S1551	S155	0.664800	0.550750	0.340730
S1561	S156	0.504500	0.543560	0.345120
S1571	S157	0.581800	0.424790	0.202390
S1581	S158	0.667200	0.456660	0.286400
S1591	S159	0.747100	0.489740	0.374640
S1601	S160	0.507600	0.449770	0.290050
S1611	S161	0.594710	0.481620	0.376260
S1621	S162	0.439000	0.474800	0.379200
S1631	S163	0.671600	0.359320	0.231780
S1641	S164	0.754200	0.392170	0.314670
S1651	S165	0.598900	0.385810	0.319010
S1661	S166	0.682900	0.414810	0.404310
S1671	S167	0.441800	0.378030	0.321310
S1681	S168	0.531400	0.408220	0.406560
S1691	S169	0.132800	0.650060	0.858900
S1701	S170	0.136900	0.745330	0.911690
S1711	S171	0.059400	0.714850	0.821690
S1721	S172	0.978700	0.747210	0.908090
S1731	S173	0.417200	0.305920	0.886660
S1741	S174	0.360500	0.218470	0.895770
S1751	S175	0.456400	0.145570	0.891570
S1761	S176	0.567800	0.318180	0.874740
S1771	S177	0.667700	0.242530	0.871410
S1781	S178	0.512100	0.353850	0.236010
S1791	S179	0.166900	0.303730	0.809750
S1801	S180	0.961000	0.483230	0.871150
S1811	S181	0.221700	0.809750	0.880570
S1821	S182	0.143900	0.780710	0.791730
S1831	S183	0.215400	0.711200	0.826420
S1841	S184	0.143500	0.842270	0.963170
S1851	S185	0.064400	0.813150	0.876670
S1861	S186	0.991100	0.785120	0.789460
S1871	S187	0.058800	0.775570	0.995550
S1881	S188	0.983600	0.843530	0.960450
S1891	S189	0.906800	0.814710	0.875130
S1901	S190	0.049700	0.681270	0.944110
S1911	S191	0.902400	0.717280	0.819520
S1921	S192	0.972800	0.651490	0.854090
S1931	S193	0.060700	0.968070	0.152390
S1941	S194	0.112800	0.878180	0.157880
S1951	S195	0.062000	0.045610	0.231210
S1961	S196	0.116600	0.958760	0.238100
S1971	S197	0.960900	0.971310	0.226350
S1981	S198	0.013300	0.882090	0.231310
S1991	S199	0.119200	0.037250	0.320170
S2001	S200	0.170700	0.952000	0.325520
S2011	S201	0.963400	0.050130	0.308050
S2021	S202	0.017000	0.962700	0.313780
S2031	S203	0.864400	0.976440	0.301660
S2041	S204	0.618200	0.725140	0.312720
S2051	S205	0.567100	0.718580	0.401220
S2061	S206	0.461400	0.710420	0.323960
S2071	S207	0.618900	0.804630	0.392330
S2081	S208	0.564700	0.796790	0.479170
S2091	S209	0.515200	0.797420	0.315540
S2101	S210	0.463800	0.790650	0.403990
S2111	S211	0.362300	0.781790	0.328530
S2121	S212	0.670800	0.891770	0.386510
S2131	S213	0.618200	0.885730	0.471850
S2141	S214	0.567400	0.886030	0.310030
S2151	S215	0.516400	0.879040	0.396880
S2161	S216	0.417100	0.871030	0.320530
S2171	S217	0.363100	0.864610	0.409270
S2181	S218	0.078300	0.254900	0.517700
S2191	S219	0.164800	0.340730	0.550750
S2201	S220	0.004500	0.345120	0.543560
S2211	S221	0.081800	0.202390	0.424790
S2221	S222	0.167200	0.286400	0.456660
S2231	S223	0.247100	0.374640	0.489740
S2241	S224	0.007600	0.290050	0.449770
S2251	S225	0.094710	0.376260	0.481620
S2261	S226	0.939000	0.379200	0.474800
S2271	S227	0.171600	0.231780	0.359320
S2281	S228	0.254200	0.314670	0.392170
S2291	S229	0.098900	0.319010	0.385810
S2301	S230	0.182900	0.404310	0.414810
S2311	S231	0.941800	0.321310	0.378030
S2321	S232	0.031400	0.406560	0.408220
S2331	S233	0.632800	0.858900	0.650060
S2341	S234	0.636900	0.911690	0.745330
S2351	S235	0.559400	0.821690	0.714850
S2361	S236	0.478700	0.908090	0.747210
S2371	S237	0.917200	0.886660	0.305920
S2381	S238	0.860500	0.895770	0.218470
S2391	S239	0.956400	0.891570	0.145570
S2401	S240	0.067800	0.874740	0.318180
S2411	S241	0.167700	0.871410	0.242530
S2421	S242	0.012100	0.236010	0.353850
S2431	S243	0.666900	0.809750	0.303730
S2441	S244	0.461000	0.871150	0.483230
S2451	S245	0.721700	0.880570	0.809750
S2461	S246	0.643900	0.791730	0.780710
S2471	S247	0.715400	0.826420	0.711200
S2481	S248	0.643500	0.963170	0.842270
S2491	S249	0.564400	0.876670	0.813150
S2501	S250	0.491100	0.789460	0.785120
S2511	S251	0.558800	0.995550	0.775570
S2521	S252	0.483600	0.960450	0.843530
S2531	S253	0.406800	0.875130	0.814710
S2541	S254	0.549700	0.944110	0.681270
S2551	S255	0.402400	0.819520	0.717280
S2561	S256	0.472800	0.854090	0.651490
N331	N33	0.395100	0.404100	0.407100
N341	N34	0.824600	0.426700	0.389500
N351	N35	0.585300	0.334600	0.162400
N361	N36	0.568200	0.306600	0.110000
N371	N37	0.279300	0.287800	0.906200
N381	N38	0.208000	0.305300	0.890900
N391	N39	0.708700	0.323300	0.868900
N401	N40	0.781200	0.337200	0.850600
N411	N41	0.059000	0.544400	0.877400
N421	N42	0.054800	0.598000	0.889000
N431	N43	0.061400	0.321100	0.652300
N441	N44	0.572000	0.598300	0.308900
N451	N45	0.559300	0.085600	0.893600
N461	N46	0.062900	0.864600	0.035000
N471	N47	0.284400	0.772600	0.802000
N481	N48	0.319000	0.795300	0.794100
N491	N49	0.895100	0.407100	0.404100
N501	N50	0.324600	0.389500	0.426700
N511	N51	0.085300	0.162400	0.334600
N521	N52	0.068200	0.110000	0.306600
N531	N53	0.779300	0.906200	0.287800
N541	N54	0.708000	0.890900	0.305300
N551	N55	0.208700	0.868900	0.323300
N561	N56	0.281200	0.850600	0.337200
N571	N57	0.559000	0.877400	0.544400
N581	N58	0.554800	0.889000	0.598000
N591	N59	0.561400	0.652300	0.321100
N601	N60	0.072000	0.308900	0.598300
N611	N61	0.059300	0.893600	0.085600
N621	N62	0.562900	0.035000	0.864600
N631	N63	0.784400	0.802000	0.772600
N641	N64	0.819000	0.794100	0.795300
