data_EMIGIR_charged_PM
_symmetry_space_group_name_H-M	'P1'
_cell_length_a	22.562900
_cell_length_b	22.661700
_cell_length_c	33.701500
_cell_angle_alpha	90.000000
_cell_angle_beta	90.000000
_cell_angle_gamma	90.000000
_symmetry_Int_Tables_number 1

loop_
_symmetry_equiv_pos_as_xyz
'x,y,z'

loop_
_atom_site_label
_atom_site_type_symbol
_atom_site_fract_x
_atom_site_fract_y
_atom_site_fract_z
In11	In1	0.307050	0.588830	0.758750
In21	In2	0.233320	0.676930	0.838220
In31	In3	0.315860	0.518420	0.859680
In41	In4	0.164200	0.523420	0.793830
In51	In5	0.154160	0.743940	0.924680
In61	In6	0.234130	0.605560	0.950030
In71	In7	0.080240	0.610080	0.884310
In81	In8	0.307030	0.458430	0.962690
In91	In9	0.162870	0.453650	0.906670
In101	In10	0.027850	0.463740	0.844270
In111	In11	0.692950	0.911170	0.258750
In121	In12	0.766680	0.823070	0.338220
In131	In13	0.684140	0.981580	0.359680
In141	In14	0.835800	0.976580	0.293830
In151	In15	0.845840	0.756060	0.424680
In161	In16	0.765870	0.894440	0.450030
In171	In17	0.919760	0.889920	0.384310
In181	In18	0.692970	0.041570	0.462690
In191	In19	0.837130	0.046350	0.406670
In201	In20	0.972150	0.036260	0.344270
In211	In21	0.807050	0.411170	0.741250
In221	In22	0.733320	0.323070	0.661780
In231	In23	0.815860	0.481580	0.640320
In241	In24	0.664200	0.476580	0.706170
In251	In25	0.654160	0.256060	0.575320
In261	In26	0.734130	0.394440	0.549970
In271	In27	0.580240	0.389920	0.615690
In281	In28	0.807030	0.541570	0.537310
In291	In29	0.662870	0.546350	0.593330
In301	In30	0.527850	0.536260	0.655730
In311	In31	0.192950	0.088830	0.241250
In321	In32	0.266680	0.176930	0.161780
In331	In33	0.184140	0.018420	0.140320
In341	In34	0.335800	0.023420	0.206170
In351	In35	0.345840	0.243940	0.075320
In361	In36	0.265870	0.105560	0.049970
In371	In37	0.419760	0.110080	0.115690
In381	In38	0.192970	0.958430	0.037310
In391	In39	0.337130	0.953650	0.093330
In401	In40	0.472150	0.963740	0.155730
H11	H1	0.424000	0.534300	0.718900
H21	H2	0.342200	0.669400	0.677300
H31	H3	0.206200	0.837500	0.988100
H41	H4	0.055000	0.859000	0.933600
H51	H5	0.040100	0.960300	0.010600
H61	H6	0.029800	0.972200	0.964300
H71	H7	0.085400	0.001300	0.986500
H81	H8	0.576000	0.965700	0.218900
H91	H9	0.657800	0.830600	0.177300
H101	H10	0.793800	0.662500	0.488100
H111	H11	0.945000	0.641000	0.433600
H121	H12	0.959900	0.539700	0.510600
H131	H13	0.970200	0.527800	0.464300
H141	H14	0.914600	0.498700	0.486500
H151	H15	0.924000	0.465700	0.781100
H161	H16	0.842200	0.330600	0.822700
H171	H17	0.706200	0.162500	0.511900
H181	H18	0.555000	0.141000	0.566400
H191	H19	0.540100	0.039700	0.489400
H201	H20	0.529800	0.027800	0.535700
H211	H21	0.585400	0.998700	0.513500
H221	H22	0.076000	0.034300	0.281100
H231	H23	0.157800	0.169400	0.322700
H241	H24	0.293800	0.337500	0.011900
H251	H25	0.445000	0.359000	0.066400
H261	H26	0.459900	0.460300	0.989400
H271	H27	0.470200	0.472200	0.035700
H281	H28	0.414600	0.501300	0.013500
C11	C1	0.414000	0.566700	0.702300
C21	C2	0.370200	0.638500	0.680900
C31	C3	0.419800	0.630400	0.658000
C41	C4	0.169100	0.853000	0.979700
C51	C5	0.088400	0.864600	0.950400
C61	C6	0.097800	0.911500	0.974800
C71	C7	0.059800	0.966400	0.985000
C81	C8	0.586000	0.933300	0.202300
C91	C9	0.629800	0.861500	0.180900
C101	C10	0.580200	0.869600	0.158000
C111	C11	0.830900	0.647000	0.479700
C121	C12	0.911600	0.635400	0.450400
C131	C13	0.902200	0.588500	0.474800
C141	C14	0.940200	0.533600	0.485000
C151	C15	0.914000	0.433300	0.797700
C161	C16	0.870200	0.361500	0.819100
C171	C17	0.919800	0.369600	0.842000
C181	C18	0.669100	0.147000	0.520300
C191	C19	0.588400	0.135400	0.549600
C201	C20	0.597800	0.088500	0.525200
C211	C21	0.559800	0.033600	0.515000
C221	C22	0.086000	0.066700	0.297700
C231	C23	0.129800	0.138500	0.319100
C241	C24	0.080200	0.130400	0.342000
C251	C25	0.330900	0.353000	0.020300
C261	C26	0.411600	0.364600	0.049600
C271	C27	0.402200	0.411500	0.025200
C281	C28	0.440200	0.466400	0.015000
S11	S1	0.290800	0.689900	0.778800
S21	S2	0.372600	0.529500	0.799860
S31	S3	0.221500	0.536100	0.733990
S41	S4	0.209700	0.772000	0.865900
S51	S5	0.292500	0.618000	0.887210
S61	S6	0.139100	0.622800	0.821920
S71	S7	0.374600	0.462500	0.906470
S81	S8	0.221600	0.465300	0.844240
S91	S9	0.074900	0.469200	0.779480
S101	S10	0.213200	0.701100	0.977550
S111	S11	0.056100	0.704100	0.913100
S121	S12	0.292600	0.551200	0.997150
S131	S13	0.138800	0.553100	0.934340
S141	S14	0.989900	0.558000	0.868410
S151	S15	0.220100	0.397100	0.953500
S161	S16	0.072100	0.400300	0.893670
S171	S17	0.709200	0.810100	0.278800
S181	S18	0.627400	0.970500	0.299860
S191	S19	0.778500	0.963900	0.233990
S201	S20	0.790300	0.728000	0.365900
S211	S21	0.707500	0.882000	0.387210
S221	S22	0.860900	0.877200	0.321920
S231	S23	0.625400	0.037500	0.406470
S241	S24	0.778400	0.034700	0.344240
S251	S25	0.925100	0.030800	0.279480
S261	S26	0.786800	0.798900	0.477550
S271	S27	0.943900	0.795900	0.413100
S281	S28	0.707400	0.948800	0.497150
S291	S29	0.861200	0.946900	0.434340
S301	S30	0.010100	0.942000	0.368410
S311	S31	0.779900	0.102900	0.453500
S321	S32	0.927900	0.099700	0.393670
S331	S33	0.790800	0.310100	0.721200
S341	S34	0.872600	0.470500	0.700140
S351	S35	0.721500	0.463900	0.766010
S361	S36	0.709700	0.228000	0.634100
S371	S37	0.792500	0.382000	0.612790
S381	S38	0.639100	0.377200	0.678080
S391	S39	0.874600	0.537500	0.593530
S401	S40	0.721600	0.534700	0.655760
S411	S41	0.574900	0.530800	0.720520
S421	S42	0.713200	0.298900	0.522450
S431	S43	0.556100	0.295900	0.586900
S441	S44	0.792600	0.448800	0.502850
S451	S45	0.638800	0.446900	0.565660
S461	S46	0.489900	0.442000	0.631590
S471	S47	0.720100	0.602900	0.546500
S481	S48	0.572100	0.599700	0.606330
S491	S49	0.209200	0.189900	0.221200
S501	S50	0.127400	0.029500	0.200140
S511	S51	0.278500	0.036100	0.266010
S521	S52	0.290300	0.272000	0.134100
S531	S53	0.207500	0.118000	0.112790
S541	S54	0.360900	0.122800	0.178080
S551	S55	0.125400	0.962500	0.093530
S561	S56	0.278400	0.965300	0.155760
S571	S57	0.425100	0.969200	0.220520
S581	S58	0.286800	0.201100	0.022450
S591	S59	0.443900	0.204100	0.086900
S601	S60	0.207400	0.051200	0.002850
S611	S61	0.361200	0.053100	0.065660
S621	S62	0.510100	0.058000	0.131590
S631	S63	0.279900	0.897100	0.046500
S641	S64	0.427900	0.900300	0.106330
N11	N1	0.366800	0.598600	0.707900
N21	N2	0.446300	0.582400	0.672400
N31	N3	0.135800	0.826600	0.954100
N41	N4	0.147700	0.903100	0.993300
N51	N5	0.633200	0.901400	0.207900
N61	N6	0.553700	0.917600	0.172400
N71	N7	0.864200	0.673400	0.454100
N81	N8	0.852300	0.596900	0.493300
N91	N9	0.866800	0.401400	0.792100
N101	N10	0.946300	0.417600	0.827600
N111	N11	0.635800	0.173400	0.545900
N121	N12	0.647700	0.096900	0.506700
N131	N13	0.133200	0.098600	0.292100
N141	N14	0.053700	0.082400	0.327600
N151	N15	0.364200	0.326600	0.045900
N161	N16	0.352300	0.403100	0.006700
In411	In41	0.692950	0.411170	0.241250
In421	In42	0.766680	0.323070	0.161780
In431	In43	0.684140	0.481580	0.140320
In441	In44	0.835800	0.476580	0.206170
In451	In45	0.845840	0.256060	0.075320
In461	In46	0.765870	0.394440	0.049970
In471	In47	0.919760	0.389920	0.115690
In481	In48	0.692970	0.541570	0.037310
In491	In49	0.837130	0.546350	0.093330
In501	In50	0.972150	0.536260	0.155730
In511	In51	0.307050	0.088830	0.741250
In521	In52	0.233320	0.176930	0.661780
In531	In53	0.315860	0.018420	0.640320
In541	In54	0.164200	0.023420	0.706170
In551	In55	0.154160	0.243940	0.575320
In561	In56	0.234130	0.105560	0.549970
In571	In57	0.080240	0.110080	0.615690
In581	In58	0.307030	0.958430	0.537310
In591	In59	0.162870	0.953650	0.593330
In601	In60	0.027850	0.963740	0.655730
In611	In61	0.192950	0.588830	0.258750
In621	In62	0.266680	0.676930	0.338220
In631	In63	0.184140	0.518420	0.359680
In641	In64	0.335800	0.523420	0.293830
In651	In65	0.345840	0.743940	0.424680
In661	In66	0.265870	0.605560	0.450030
In671	In67	0.419760	0.610080	0.384310
In681	In68	0.192970	0.458430	0.462690
In691	In69	0.337130	0.453650	0.406670
In701	In70	0.472150	0.463740	0.344270
In711	In71	0.807050	0.911170	0.758750
In721	In72	0.733320	0.823070	0.838220
In731	In73	0.815860	0.981580	0.859680
In741	In74	0.664200	0.976580	0.793830
In751	In75	0.654160	0.756060	0.924680
In761	In76	0.734130	0.894440	0.950030
In771	In77	0.580240	0.889920	0.884310
In781	In78	0.807030	0.041570	0.962690
In791	In79	0.662870	0.046350	0.906670
In801	In80	0.527850	0.036260	0.844270
H291	H29	0.576000	0.465700	0.281100
H301	H30	0.657800	0.330600	0.322700
H311	H31	0.793800	0.162500	0.011900
H321	H32	0.945000	0.141000	0.066400
H331	H33	0.959900	0.039700	0.989400
H341	H34	0.970200	0.027800	0.035700
H351	H35	0.914600	0.998700	0.013500
H361	H36	0.424000	0.034300	0.781100
H371	H37	0.342200	0.169400	0.822700
H381	H38	0.206200	0.337500	0.511900
H391	H39	0.055000	0.359000	0.566400
H401	H40	0.040100	0.460300	0.489400
H411	H41	0.029800	0.472200	0.535700
H421	H42	0.085400	0.501300	0.513500
H431	H43	0.076000	0.534300	0.218900
H441	H44	0.157800	0.669400	0.177300
H451	H45	0.293800	0.837500	0.488100
H461	H46	0.445000	0.859000	0.433600
H471	H47	0.459900	0.960300	0.510600
H481	H48	0.470200	0.972200	0.464300
H491	H49	0.414600	0.001300	0.486500
H501	H50	0.924000	0.965700	0.718900
H511	H51	0.842200	0.830600	0.677300
H521	H52	0.706200	0.662500	0.988100
H531	H53	0.555000	0.641000	0.933600
H541	H54	0.540100	0.539700	0.010600
H551	H55	0.529800	0.527800	0.964300
H561	H56	0.585400	0.498700	0.986500
C291	C29	0.586000	0.433300	0.297700
C301	C30	0.629800	0.361500	0.319100
C311	C31	0.580200	0.369600	0.342000
C321	C32	0.830900	0.147000	0.020300
C331	C33	0.911600	0.135400	0.049600
C341	C34	0.902200	0.088500	0.025200
C351	C35	0.940200	0.033600	0.015000
C361	C36	0.414000	0.066700	0.797700
C371	C37	0.370200	0.138500	0.819100
C381	C38	0.419800	0.130400	0.842000
C391	C39	0.169100	0.353000	0.520300
C401	C40	0.088400	0.364600	0.549600
C411	C41	0.097800	0.411500	0.525200
C421	C42	0.059800	0.466400	0.515000
C431	C43	0.086000	0.566700	0.202300
C441	C44	0.129800	0.638500	0.180900
C451	C45	0.080200	0.630400	0.158000
C461	C46	0.330900	0.853000	0.479700
C471	C47	0.411600	0.864600	0.450400
C481	C48	0.402200	0.911500	0.474800
C491	C49	0.440200	0.966400	0.485000
C501	C50	0.914000	0.933300	0.702300
C511	C51	0.870200	0.861500	0.680900
C521	C52	0.919800	0.869600	0.658000
C531	C53	0.669100	0.647000	0.979700
C541	C54	0.588400	0.635400	0.950400
C551	C55	0.597800	0.588500	0.974800
C561	C56	0.559800	0.533600	0.985000
S651	S65	0.709200	0.310100	0.221200
S661	S66	0.627400	0.470500	0.200140
S671	S67	0.778500	0.463900	0.266010
S681	S68	0.790300	0.228000	0.134100
S691	S69	0.707500	0.382000	0.112790
S701	S70	0.860900	0.377200	0.178080
S711	S71	0.625400	0.537500	0.093530
S721	S72	0.778400	0.534700	0.155760
S731	S73	0.925100	0.530800	0.220520
S741	S74	0.786800	0.298900	0.022450
S751	S75	0.943900	0.295900	0.086900
S761	S76	0.707400	0.448800	0.002850
S771	S77	0.861200	0.446900	0.065660
S781	S78	0.010100	0.442000	0.131590
S791	S79	0.779900	0.602900	0.046500
S801	S80	0.927900	0.599700	0.106330
S811	S81	0.290800	0.189900	0.721200
S821	S82	0.372600	0.029500	0.700140
S831	S83	0.221500	0.036100	0.766010
S841	S84	0.209700	0.272000	0.634100
S851	S85	0.292500	0.118000	0.612790
S861	S86	0.139100	0.122800	0.678080
S871	S87	0.374600	0.962500	0.593530
S881	S88	0.221600	0.965300	0.655760
S891	S89	0.074900	0.969200	0.720520
S901	S90	0.213200	0.201100	0.522450
S911	S91	0.056100	0.204100	0.586900
S921	S92	0.292600	0.051200	0.502850
S931	S93	0.138800	0.053100	0.565660
S941	S94	0.989900	0.058000	0.631590
S951	S95	0.220100	0.897100	0.546500
S961	S96	0.072100	0.900300	0.606330
S971	S97	0.209200	0.689900	0.278800
S981	S98	0.127400	0.529500	0.299860
S991	S99	0.278500	0.536100	0.233990
S1001	S100	0.290300	0.772000	0.365900
S1011	S101	0.207500	0.618000	0.387210
S1021	S102	0.360900	0.622800	0.321920
S1031	S103	0.125400	0.462500	0.406470
S1041	S104	0.278400	0.465300	0.344240
S1051	S105	0.425100	0.469200	0.279480
S1061	S106	0.286800	0.701100	0.477550
S1071	S107	0.443900	0.704100	0.413100
S1081	S108	0.207400	0.551200	0.497150
S1091	S109	0.361200	0.553100	0.434340
S1101	S110	0.510100	0.558000	0.368410
S1111	S111	0.279900	0.397100	0.453500
S1121	S112	0.427900	0.400300	0.393670
S1131	S113	0.790800	0.810100	0.778800
S1141	S114	0.872600	0.970500	0.799860
S1151	S115	0.721500	0.963900	0.733990
S1161	S116	0.709700	0.728000	0.865900
S1171	S117	0.792500	0.882000	0.887210
S1181	S118	0.639100	0.877200	0.821920
S1191	S119	0.874600	0.037500	0.906470
S1201	S120	0.721600	0.034700	0.844240
S1211	S121	0.574900	0.030800	0.779480
S1221	S122	0.713200	0.798900	0.977550
S1231	S123	0.556100	0.795900	0.913100
S1241	S124	0.792600	0.948800	0.997150
S1251	S125	0.638800	0.946900	0.934340
S1261	S126	0.489900	0.942000	0.868410
S1271	S127	0.720100	0.102900	0.953500
S1281	S128	0.572100	0.099700	0.893670
N171	N17	0.633200	0.401400	0.292100
N181	N18	0.553700	0.417600	0.327600
N191	N19	0.864200	0.173400	0.045900
N201	N20	0.852300	0.096900	0.006700
N211	N21	0.366800	0.098600	0.792100
N221	N22	0.446300	0.082400	0.827600
N231	N23	0.135800	0.326600	0.545900
N241	N24	0.147700	0.403100	0.506700
N251	N25	0.133200	0.598600	0.207900
N261	N26	0.053700	0.582400	0.172400
N271	N27	0.364200	0.826600	0.454100
N281	N28	0.352300	0.903100	0.493300
N291	N29	0.866800	0.901400	0.707900
N301	N30	0.946300	0.917600	0.672400
N311	N31	0.635800	0.673400	0.954100
N321	N32	0.647700	0.596900	0.993300
