data_EMIGOX_clean_PM
_symmetry_space_group_name_H-M	'P1'
_cell_length_a	21.277200
_cell_length_b	21.418000
_cell_length_c	36.010000
_cell_angle_alpha	90.000000
_cell_angle_beta	90.000000
_cell_angle_gamma	90.000000
_symmetry_Int_Tables_number 1

loop_
_symmetry_equiv_pos_as_xyz
'x,y,z'

loop_
_atom_site_label
_atom_site_type_symbol
_atom_site_fract_x
_atom_site_fract_y
_atom_site_fract_z
In11	In1	0.072720	0.837380	0.050480
In21	In2	0.087480	0.689690	0.105460
In31	In3	0.923500	0.744810	0.052730
In41	In4	0.989590	0.843760	0.141010
In51	In5	0.079360	0.548040	0.162710
In61	In6	0.929120	0.583530	0.113420
In71	In7	0.990570	0.683470	0.203000
In81	In8	0.782900	0.642290	0.068450
In91	In9	0.828390	0.736610	0.150380
In101	In10	0.897190	0.824930	0.229400
S11	S1	0.146600	0.753700	0.063270
S21	S2	0.985800	0.806600	0.010760
S31	S3	0.049900	0.909700	0.100090
S41	S4	0.152700	0.602800	0.123200
S51	S5	0.990600	0.653700	0.071980
S61	S6	0.055100	0.751900	0.161300
S71	S7	0.831900	0.706700	0.020440
S81	S8	0.891900	0.805700	0.108530
S91	S9	0.956900	0.901900	0.194860
S101	S10	0.994300	0.496400	0.130420
S111	S11	0.053300	0.595900	0.222150
S121	S12	0.838400	0.544900	0.080490
S131	S13	0.894900	0.645700	0.168510
S141	S14	0.956400	0.740100	0.257010
S151	S15	0.736100	0.694900	0.120330
S161	S16	0.795900	0.794300	0.204480
N11	N1	0.130500	0.887200	0.010600
N21	N2	0.202200	0.890100	0.963300
N31	N3	0.127000	0.466300	0.184900
N41	N4	0.130500	0.383600	0.223600
C11	C1	0.178900	0.858400	0.992200
H11	H1	0.194700	0.818800	0.999500
C21	C2	0.122400	0.943100	0.989600
C31	C3	0.078400	0.990200	0.994400
H21	H2	0.046800	0.987200	0.012900
C41	C4	0.081800	0.040900	0.971600
H31	H3	0.055900	0.076200	0.976300
C51	C5	0.123900	0.041400	0.940900
H41	H4	0.122400	0.074800	0.923600
C61	C6	0.167300	0.993100	0.935900
H51	H5	0.195200	0.992800	0.915300
C71	C7	0.168300	0.945000	0.962400
C81	C8	0.104200	0.438400	0.216600
H61	H6	0.072800	0.456600	0.231900
C91	C9	0.170700	0.373600	0.194400
C101	C10	0.214100	0.321800	0.185900
H71	H7	0.217200	0.285800	0.201200
C111	C11	0.249400	0.329300	0.154600
H81	H8	0.274700	0.295500	0.146400
C121	C12	0.250000	0.382000	0.134900
H91	H9	0.281100	0.387200	0.116400
C131	C13	0.207800	0.429800	0.140000
H101	H10	0.205700	0.465100	0.124000
C141	C14	0.169600	0.422400	0.169400
In111	In11	0.427280	0.162620	0.550480
In121	In12	0.412520	0.310310	0.605460
In131	In13	0.576500	0.255190	0.552730
In141	In14	0.510410	0.156240	0.641010
In151	In15	0.420640	0.451960	0.662710
In161	In16	0.570880	0.416470	0.613420
In171	In17	0.509430	0.316530	0.703000
In181	In18	0.717100	0.357710	0.568450
In191	In19	0.671610	0.263390	0.650380
In201	In20	0.602810	0.175070	0.729400
S171	S17	0.353400	0.246300	0.563270
S181	S18	0.514200	0.193400	0.510760
S191	S19	0.450100	0.090300	0.600090
S201	S20	0.347300	0.397200	0.623200
S211	S21	0.509400	0.346300	0.571980
S221	S22	0.444900	0.248100	0.661300
S231	S23	0.668100	0.293300	0.520440
S241	S24	0.608100	0.194300	0.608530
S251	S25	0.543100	0.098100	0.694860
S261	S26	0.505700	0.503600	0.630420
S271	S27	0.446700	0.404100	0.722150
S281	S28	0.661600	0.455100	0.580490
S291	S29	0.605100	0.354300	0.668510
S301	S30	0.543600	0.259900	0.757010
S311	S31	0.763900	0.305100	0.620330
S321	S32	0.704100	0.205700	0.704480
N51	N5	0.369500	0.112800	0.510600
N61	N6	0.297800	0.109900	0.463300
N71	N7	0.373000	0.533700	0.684900
N81	N8	0.369500	0.616400	0.723600
C151	C15	0.321100	0.141600	0.492200
H111	H11	0.305300	0.181200	0.499500
C161	C16	0.377600	0.056900	0.489600
C171	C17	0.421600	0.009800	0.494400
H121	H12	0.453200	0.012800	0.512900
C181	C18	0.418200	0.959100	0.471600
H131	H13	0.444100	0.923800	0.476300
C191	C19	0.376100	0.958600	0.440900
H141	H14	0.377600	0.925200	0.423600
C201	C20	0.332700	0.006900	0.435900
H151	H15	0.304800	0.007200	0.415300
C211	C21	0.331700	0.055000	0.462400
C221	C22	0.395800	0.561600	0.716600
H161	H16	0.427200	0.543400	0.731900
C231	C23	0.329300	0.626400	0.694400
C241	C24	0.285900	0.678200	0.685900
H171	H17	0.282800	0.714200	0.701200
C251	C25	0.250600	0.670700	0.654600
H181	H18	0.225300	0.704500	0.646400
C261	C26	0.250000	0.618000	0.634900
H191	H19	0.218900	0.612800	0.616400
C271	C27	0.292200	0.570200	0.640000
H201	H20	0.294300	0.534900	0.624000
C281	C28	0.330400	0.577600	0.669400
In211	In21	0.927280	0.337380	0.449520
In221	In22	0.912520	0.189690	0.394540
In231	In23	0.076500	0.244810	0.447270
In241	In24	0.010410	0.343760	0.358990
In251	In25	0.920640	0.048040	0.337290
In261	In26	0.070880	0.083530	0.386580
In271	In27	0.009430	0.183470	0.297000
In281	In28	0.217100	0.142290	0.431550
In291	In29	0.171610	0.236610	0.349620
In301	In30	0.102810	0.324930	0.270600
S331	S33	0.853400	0.253700	0.436730
S341	S34	0.014200	0.306600	0.489240
S351	S35	0.950100	0.409700	0.399910
S361	S36	0.847300	0.102800	0.376800
S371	S37	0.009400	0.153700	0.428020
S381	S38	0.944900	0.251900	0.338700
S391	S39	0.168100	0.206700	0.479560
S401	S40	0.108100	0.305700	0.391470
S411	S41	0.043100	0.401900	0.305140
S421	S42	0.005700	0.996400	0.369580
S431	S43	0.946700	0.095900	0.277850
S441	S44	0.161600	0.044900	0.419510
S451	S45	0.105100	0.145700	0.331490
S461	S46	0.043600	0.240100	0.242990
S471	S47	0.263900	0.194900	0.379670
S481	S48	0.204100	0.294300	0.295520
N91	N9	0.869500	0.387200	0.489400
N101	N10	0.797800	0.390100	0.536700
N111	N11	0.873000	0.966300	0.315100
N121	N12	0.869500	0.883600	0.276400
C291	C29	0.821100	0.358400	0.507800
H211	H21	0.805300	0.318800	0.500500
C301	C30	0.877600	0.443100	0.510400
C311	C31	0.921600	0.490200	0.505600
H221	H22	0.953200	0.487200	0.487100
C321	C32	0.918200	0.540900	0.528400
H231	H23	0.944100	0.576200	0.523700
C331	C33	0.876100	0.541400	0.559100
H241	H24	0.877600	0.574800	0.576400
C341	C34	0.832700	0.493100	0.564100
H251	H25	0.804800	0.492800	0.584700
C351	C35	0.831700	0.445000	0.537600
C361	C36	0.895800	0.938400	0.283400
H261	H26	0.927200	0.956600	0.268100
C371	C37	0.829300	0.873600	0.305600
C381	C38	0.785900	0.821800	0.314100
H271	H27	0.782800	0.785800	0.298800
C391	C39	0.750600	0.829300	0.345400
H281	H28	0.725300	0.795500	0.353600
C401	C40	0.750000	0.882000	0.365100
H291	H29	0.718900	0.887200	0.383600
C411	C41	0.792200	0.929800	0.360000
H301	H30	0.794300	0.965100	0.376000
C421	C42	0.830400	0.922400	0.330600
In311	In31	0.572720	0.662620	0.949520
In321	In32	0.587480	0.810310	0.894540
In331	In33	0.423500	0.755190	0.947270
In341	In34	0.489590	0.656240	0.858990
In351	In35	0.579360	0.951960	0.837290
In361	In36	0.429120	0.916470	0.886580
In371	In37	0.490570	0.816530	0.797000
In381	In38	0.282900	0.857710	0.931550
In391	In39	0.328390	0.763390	0.849620
In401	In40	0.397190	0.675070	0.770600
S491	S49	0.646600	0.746300	0.936730
S501	S50	0.485800	0.693400	0.989240
S511	S51	0.549900	0.590300	0.899910
S521	S52	0.652700	0.897200	0.876800
S531	S53	0.490600	0.846300	0.928020
S541	S54	0.555100	0.748100	0.838700
S551	S55	0.331900	0.793300	0.979560
S561	S56	0.391900	0.694300	0.891470
S571	S57	0.456900	0.598100	0.805140
S581	S58	0.494300	0.003600	0.869580
S591	S59	0.553300	0.904100	0.777850
S601	S60	0.338400	0.955100	0.919510
S611	S61	0.394900	0.854300	0.831490
S621	S62	0.456400	0.759900	0.742990
S631	S63	0.236100	0.805100	0.879670
S641	S64	0.295900	0.705700	0.795520
N131	N13	0.630500	0.612800	0.989400
N141	N14	0.702200	0.609900	0.036700
N151	N15	0.627000	0.033700	0.815100
N161	N16	0.630500	0.116400	0.776400
C431	C43	0.678900	0.641600	0.007800
H311	H31	0.694700	0.681200	0.000500
C441	C44	0.622400	0.556900	0.010400
C451	C45	0.578400	0.509800	0.005600
H321	H32	0.546800	0.512800	0.987100
C461	C46	0.581800	0.459100	0.028400
H331	H33	0.555900	0.423800	0.023700
C471	C47	0.623900	0.458600	0.059100
H341	H34	0.622400	0.425200	0.076400
C481	C48	0.667300	0.506900	0.064100
H351	H35	0.695200	0.507200	0.084700
C491	C49	0.668300	0.555000	0.037600
C501	C50	0.604200	0.061600	0.783400
H361	H36	0.572800	0.043400	0.768100
C511	C51	0.670700	0.126400	0.805600
C521	C52	0.714100	0.178200	0.814100
H371	H37	0.717200	0.214200	0.798800
C531	C53	0.749400	0.170700	0.845400
H381	H38	0.774700	0.204500	0.853600
C541	C54	0.750000	0.118000	0.865100
H391	H39	0.781100	0.112800	0.883600
C551	C55	0.707800	0.070200	0.860000
H401	H40	0.705700	0.034900	0.876000
C561	C56	0.669600	0.077600	0.830600
In411	In41	0.904220	0.439690	0.823180
In421	In42	0.894030	0.306340	0.888920
In431	In43	0.048470	0.420490	0.883540
In441	In44	0.005850	0.305760	0.795350
In451	In45	0.904350	0.166890	0.949850
In461	In46	0.047250	0.268170	0.952980
In471	In47	0.005020	0.154340	0.865650
In481	In48	0.183080	0.376570	0.941480
In491	In49	0.158370	0.270030	0.859750
In501	In50	0.110510	0.165930	0.782720
S651	S65	0.827600	0.385600	0.860550
S661	S66	0.982200	0.500200	0.856630
S671	S67	0.941500	0.386300	0.767730
S681	S68	0.830400	0.246700	0.931100
S691	S69	0.982200	0.354300	0.925460
S701	S70	0.939900	0.240900	0.838060
S711	S71	0.132600	0.469100	0.917550
S721	S72	0.092400	0.354900	0.831810
S731	S73	0.047900	0.239700	0.746820
S741	S74	0.985800	0.201000	0.992400
S751	S75	0.937200	0.091900	0.904230
S761	S76	0.128900	0.317100	0.988820
S771	S77	0.092700	0.203600	0.901950
S781	S78	0.051600	0.090400	0.818300
S791	S79	0.240800	0.316900	0.895910
S801	S80	0.203900	0.208300	0.810880
N171	N17	0.854000	0.517600	0.796800
N181	N18	0.852600	0.603000	0.760700
N191	N19	0.843600	0.110900	0.985300
N201	N20	0.761600	0.092500	0.023000
C571	C57	0.881800	0.553600	0.771800
H411	H41	0.922100	0.543400	0.762300
C581	C58	0.798600	0.548700	0.803000
C591	C59	0.751000	0.535200	0.828900
H421	H42	0.753300	0.500700	0.845400
C601	C60	0.698600	0.577500	0.828400
H431	H43	0.662800	0.568000	0.843000
C611	C61	0.698300	0.633000	0.806800
H441	H44	0.667300	0.664500	0.810100
C621	C62	0.745300	0.638500	0.781100
H451	H45	0.741700	0.670200	0.762800
C631	C63	0.794900	0.602400	0.780200
C641	C64	0.788000	0.130100	0.998400
H461	H46	0.768900	0.168000	0.990600
C651	C65	0.858600	0.059700	0.007200
C661	C66	0.908800	0.021800	0.005600
H471	H47	0.941300	0.027900	0.987900
C671	C67	0.911000	0.972700	0.031500
H481	H48	0.947100	0.946700	0.032800
C681	C68	0.861000	0.962200	0.054700
H491	H49	0.863100	0.928600	0.071900
C691	C69	0.807900	0.998700	0.054000
H501	H50	0.773400	0.990000	0.070000
C701	C70	0.806200	0.047800	0.029800
In511	In51	0.595780	0.560310	0.323180
In521	In52	0.605970	0.693660	0.388920
In531	In53	0.451530	0.579510	0.383540
In541	In54	0.494150	0.694240	0.295350
In551	In55	0.595650	0.833110	0.449850
In561	In56	0.452750	0.731830	0.452980
In571	In57	0.494980	0.845660	0.365650
In581	In58	0.316920	0.623430	0.441480
In591	In59	0.341630	0.729970	0.359750
In601	In60	0.389490	0.834070	0.282720
S811	S81	0.672400	0.614400	0.360550
S821	S82	0.517800	0.499800	0.356630
S831	S83	0.558500	0.613700	0.267730
S841	S84	0.669600	0.753300	0.431100
S851	S85	0.517800	0.645700	0.425460
S861	S86	0.560100	0.759100	0.338060
S871	S87	0.367400	0.530900	0.417550
S881	S88	0.407600	0.645100	0.331810
S891	S89	0.452100	0.760300	0.246820
S901	S90	0.514200	0.799000	0.492400
S911	S91	0.562800	0.908100	0.404230
S921	S92	0.371100	0.682900	0.488820
S931	S93	0.407300	0.796400	0.401950
S941	S94	0.448400	0.909600	0.318300
S951	S95	0.259200	0.683100	0.395910
S961	S96	0.296100	0.791700	0.310880
N211	N21	0.646000	0.482400	0.296800
N221	N22	0.647400	0.397000	0.260700
N231	N23	0.656400	0.889100	0.485300
N241	N24	0.738400	0.907500	0.523000
C711	C71	0.618200	0.446400	0.271800
H511	H51	0.577900	0.456600	0.262300
C721	C72	0.701400	0.451300	0.303000
C731	C73	0.749000	0.464800	0.328900
H521	H52	0.746700	0.499300	0.345400
C741	C74	0.801400	0.422500	0.328400
H531	H53	0.837200	0.432000	0.343000
C751	C75	0.801700	0.367000	0.306800
H541	H54	0.832700	0.335500	0.310100
C761	C76	0.754700	0.361500	0.281100
H551	H55	0.758300	0.329800	0.262800
C771	C77	0.705100	0.397600	0.280200
C781	C78	0.712000	0.869900	0.498400
H561	H56	0.731100	0.832000	0.490600
C791	C79	0.641400	0.940300	0.507200
C801	C80	0.591200	0.978200	0.505600
H571	H57	0.558700	0.972100	0.487900
C811	C81	0.589000	0.027300	0.531500
H581	H58	0.552900	0.053300	0.532800
C821	C82	0.639000	0.037800	0.554700
H591	H59	0.636900	0.071400	0.571900
C831	C83	0.692100	0.001300	0.554000
H601	H60	0.726600	0.010000	0.570000
C841	C84	0.693800	0.952200	0.529800
In611	In61	0.095780	0.939690	0.676820
In621	In62	0.105970	0.806340	0.611080
In631	In63	0.951530	0.920490	0.616460
In641	In64	0.994150	0.805760	0.704650
In651	In65	0.095650	0.666890	0.550150
In661	In66	0.952750	0.768170	0.547020
In671	In67	0.994980	0.654340	0.634350
In681	In68	0.816920	0.876570	0.558520
In691	In69	0.841630	0.770030	0.640250
In701	In70	0.889490	0.665930	0.717280
S971	S97	0.172400	0.885600	0.639450
S981	S98	0.017800	0.000200	0.643370
S991	S99	0.058500	0.886300	0.732270
S1001	S100	0.169600	0.746700	0.568900
S1011	S101	0.017800	0.854300	0.574540
S1021	S102	0.060100	0.740900	0.661940
S1031	S103	0.867400	0.969100	0.582450
S1041	S104	0.907600	0.854900	0.668190
S1051	S105	0.952100	0.739700	0.753180
S1061	S106	0.014200	0.701000	0.507600
S1071	S107	0.062800	0.591900	0.595770
S1081	S108	0.871100	0.817100	0.511180
S1091	S109	0.907300	0.703600	0.598050
S1101	S110	0.948400	0.590400	0.681700
S1111	S111	0.759200	0.816900	0.604090
S1121	S112	0.796100	0.708300	0.689120
N251	N25	0.146000	0.017600	0.703200
N261	N26	0.147400	0.103000	0.739300
N271	N27	0.156400	0.610900	0.514700
N281	N28	0.238400	0.592500	0.477000
C851	C85	0.118200	0.053600	0.728200
H611	H61	0.077900	0.043400	0.737700
C861	C86	0.201400	0.048700	0.697000
C871	C87	0.249000	0.035200	0.671100
H621	H62	0.246700	0.000700	0.654600
C881	C88	0.301400	0.077500	0.671600
H631	H63	0.337200	0.068000	0.657000
C891	C89	0.301700	0.133000	0.693200
H641	H64	0.332700	0.164500	0.689900
C901	C90	0.254700	0.138500	0.718900
H651	H65	0.258300	0.170200	0.737200
C911	C91	0.205100	0.102400	0.719800
C921	C92	0.212000	0.630100	0.501600
H661	H66	0.231100	0.668000	0.509400
C931	C93	0.141400	0.559700	0.492800
C941	C94	0.091200	0.521800	0.494400
H671	H67	0.058700	0.527900	0.512100
C951	C95	0.089000	0.472700	0.468500
H681	H68	0.052900	0.446700	0.467200
C961	C96	0.139000	0.462200	0.445300
H691	H69	0.136900	0.428600	0.428100
C971	C97	0.192100	0.498700	0.446000
H701	H70	0.226600	0.490000	0.430000
C981	C98	0.193800	0.547800	0.470200
In711	In71	0.404220	0.060310	0.176820
In721	In72	0.394030	0.193660	0.111080
In731	In73	0.548470	0.079510	0.116460
In741	In74	0.505850	0.194240	0.204650
In751	In75	0.404350	0.333110	0.050150
In761	In76	0.547250	0.231830	0.047020
In771	In77	0.505020	0.345660	0.134350
In781	In78	0.683080	0.123430	0.058520
In791	In79	0.658370	0.229970	0.140250
In801	In80	0.610510	0.334070	0.217280
S1131	S113	0.327600	0.114400	0.139450
S1141	S114	0.482200	0.999800	0.143370
S1151	S115	0.441500	0.113700	0.232270
S1161	S116	0.330400	0.253300	0.068900
S1171	S117	0.482200	0.145700	0.074540
S1181	S118	0.439900	0.259100	0.161940
S1191	S119	0.632600	0.030900	0.082450
S1201	S120	0.592400	0.145100	0.168190
S1211	S121	0.547900	0.260300	0.253180
S1221	S122	0.485800	0.299000	0.007600
S1231	S123	0.437200	0.408100	0.095770
S1241	S124	0.628900	0.182900	0.011180
S1251	S125	0.592700	0.296400	0.098050
S1261	S126	0.551600	0.409600	0.181700
S1271	S127	0.740800	0.183100	0.104090
S1281	S128	0.703900	0.291700	0.189120
N291	N29	0.354000	0.982400	0.203200
N301	N30	0.352600	0.897000	0.239300
N311	N31	0.343600	0.389100	0.014700
N321	N32	0.261600	0.407500	0.977000
C991	C99	0.381800	0.946400	0.228200
H711	H71	0.422100	0.956600	0.237700
C1001	C100	0.298600	0.951300	0.197000
C1011	C101	0.251000	0.964800	0.171100
H721	H72	0.253300	0.999300	0.154600
C1021	C102	0.198600	0.922500	0.171600
H731	H73	0.162800	0.932000	0.157000
C1031	C103	0.198300	0.867000	0.193200
H741	H74	0.167300	0.835500	0.189900
C1041	C104	0.245300	0.861500	0.218900
H751	H75	0.241700	0.829800	0.237200
C1051	C105	0.294900	0.897600	0.219800
C1061	C106	0.288000	0.369900	0.001600
H761	H76	0.268900	0.332000	0.009400
C1071	C107	0.358600	0.440300	0.992800
C1081	C108	0.408800	0.478200	0.994400
H771	H77	0.441300	0.472100	0.012100
C1091	C109	0.411000	0.527300	0.968500
H781	H78	0.447100	0.553300	0.967200
C1101	C110	0.361000	0.537800	0.945300
H791	H79	0.363100	0.571400	0.928100
C1111	C111	0.307900	0.501300	0.946000
H801	H80	0.273400	0.510000	0.930000
C1121	C112	0.306200	0.452200	0.970200
