data_EMIHEO_charged_PM
_symmetry_space_group_name_H-M	'P1'
_cell_length_a	16.616000
_cell_length_b	23.316300
_cell_length_c	23.316300
_cell_angle_alpha	82.705900
_cell_angle_beta	69.125800
_cell_angle_gamma	69.125900
_symmetry_Int_Tables_number 1

loop_
_symmetry_equiv_pos_as_xyz
'x,y,z'

loop_
_atom_site_label
_atom_site_type_symbol
_atom_site_fract_x
_atom_site_fract_y
_atom_site_fract_z
Cd11	Cd1	0.849770	0.083120	0.044400
Cd21	Cd2	0.977290	0.916880	0.955600
Cd31	Cd3	0.105830	0.044400	0.916880
Cd41	Cd4	0.067110	0.955600	0.083120
Cd51	Cd5	0.272710	0.544400	0.583120
Cd61	Cd6	0.400230	0.455600	0.416880
Cd71	Cd7	0.182890	0.416880	0.544400
Cd81	Cd8	0.144170	0.583120	0.455600
In11	In1	0.725020	0.959110	0.080290
In21	In2	0.978030	0.206580	0.003820
In31	In3	0.941510	0.118420	0.168560
In41	In4	0.702420	0.878770	0.231590
In51	In5	0.764420	0.040890	0.919710
In61	In6	0.188430	0.793420	0.996180
In71	In7	0.228490	0.881580	0.831440
In81	In8	0.812780	0.121230	0.768410
In91	In9	0.194690	0.080290	0.040890
In101	In10	0.018150	0.003820	0.793420
In111	In11	0.889930	0.168560	0.881580
In121	In12	0.065990	0.231590	0.121230
In131	In13	0.315870	0.919710	0.959110
In141	In14	0.815390	0.996180	0.206580
In151	In15	0.940070	0.831440	0.118420
In161	In16	0.418810	0.768410	0.878770
In171	In17	0.485580	0.580290	0.459110
In181	In18	0.061570	0.503820	0.706580
In191	In19	0.021510	0.668560	0.618420
In201	In20	0.437220	0.731590	0.378770
In211	In21	0.524980	0.419710	0.540890
In221	In22	0.271970	0.496180	0.293420
In231	In23	0.308490	0.331440	0.381580
In241	In24	0.547580	0.268410	0.621230
In251	In25	0.934130	0.540890	0.580290
In261	In26	0.434610	0.293420	0.503820
In271	In27	0.309930	0.381580	0.668560
In281	In28	0.831190	0.621230	0.731590
In291	In29	0.055310	0.459110	0.419710
In301	In30	0.231850	0.706580	0.496180
In311	In31	0.360070	0.618420	0.331440
In321	In32	0.184010	0.378770	0.268410
H11	H1	0.529400	0.925000	0.357400
H21	H2	0.811800	0.075000	0.642600
H31	H3	0.113200	0.357400	0.075000
H41	H4	0.545600	0.642600	0.925000
H51	H5	0.438200	0.857400	0.425000
H61	H6	0.720600	0.142600	0.575000
H71	H7	0.704400	0.575000	0.857400
H81	H8	0.136800	0.425000	0.142600
C11	C1	0.537000	0.885500	0.348500
C21	C2	0.771000	0.114500	0.651500
C31	C3	0.114500	0.348500	0.114500
C41	C4	0.577500	0.651500	0.885500
C51	C5	0.479000	0.848500	0.385500
C61	C6	0.713000	0.151500	0.614500
C71	C7	0.672500	0.614500	0.848500
C81	C8	0.135500	0.385500	0.151500
C91	C9	0.568000	0.807000	0.307000
C101	C10	0.682000	0.193000	0.693000
C111	C11	0.125000	0.307000	0.193000
C121	C12	0.625000	0.693000	0.807000
S11	S1	0.871200	0.165800	0.087800
S21	S2	0.743300	0.041700	0.127700
S31	S3	0.780100	0.127400	0.963200
S41	S4	0.621600	0.918200	0.159800
S51	S5	0.963500	0.198800	0.211400
S61	S6	0.910900	0.249400	0.924800
S71	S7	0.998000	0.288100	0.045700
S81	S8	0.124800	0.834200	0.912200
S91	S9	0.912700	0.958300	0.872300
S101	S10	0.870700	0.872600	0.036800
S111	S11	0.699600	0.081800	0.840200
S121	S12	0.373700	0.801200	0.788600
S131	S13	0.085100	0.750600	0.075200
S141	S14	0.331800	0.711900	0.954300
S151	S15	0.041000	0.087800	0.834200
S161	S16	0.129000	0.127700	0.958300
S171	S17	0.256700	0.963200	0.872600
S181	S18	0.218600	0.159800	0.081800
S191	S19	0.825100	0.211400	0.801200
S201	S20	0.164300	0.924800	0.750600
S211	S21	0.956300	0.045700	0.711900
S221	S22	0.963000	0.912200	0.165800
S231	S23	0.215000	0.872300	0.041700
S241	S24	0.092500	0.036800	0.127400
S251	S25	0.460200	0.840200	0.918200
S261	S26	0.837700	0.788600	0.198800
S271	S27	0.839700	0.075200	0.249400
S281	S28	0.713900	0.954300	0.288100
S291	S29	0.125200	0.587800	0.665800
S301	S30	0.337300	0.627700	0.541700
S311	S31	0.379300	0.463200	0.627400
S321	S32	0.550400	0.659800	0.418200
S331	S33	0.876300	0.711400	0.698800
S341	S34	0.164900	0.424800	0.749400
S351	S35	0.918200	0.545700	0.788100
S361	S36	0.378800	0.412200	0.334200
S371	S37	0.506700	0.372300	0.458300
S381	S38	0.469900	0.536800	0.372600
S391	S39	0.628400	0.340200	0.581800
S401	S40	0.286500	0.288600	0.301200
S411	S41	0.339100	0.575200	0.250600
S421	S42	0.252000	0.454300	0.211900
S431	S43	0.287000	0.334200	0.587800
S441	S44	0.035000	0.458300	0.627700
S451	S45	0.157500	0.372600	0.463200
S461	S46	0.789800	0.581800	0.659800
S471	S47	0.412300	0.301200	0.711400
S481	S48	0.410300	0.250600	0.424800
S491	S49	0.536100	0.211900	0.545700
S501	S50	0.209000	0.665800	0.412200
S511	S51	0.121000	0.541700	0.372300
S521	S52	0.993300	0.627400	0.536800
S531	S53	0.031400	0.418200	0.340200
S541	S54	0.424900	0.698800	0.288600
S551	S55	0.085700	0.749400	0.575200
S561	S56	0.293700	0.788100	0.454300
S571	S57	0.000000	0.000000	0.000000
S581	S58	0.250000	0.500000	0.500000
S591	S59	0.659200	0.000000	0.000000
S601	S60	0.340800	0.000000	0.000000
S611	S61	0.590800	0.500000	0.500000
S621	S62	0.909200	0.500000	0.500000
N11	N1	0.599300	0.852800	0.300600
N21	N2	0.752700	0.147200	0.699400
N31	N3	0.100100	0.300600	0.147200
N41	N4	0.547900	0.699400	0.852800
N51	N5	0.497300	0.800600	0.352800
N61	N6	0.650700	0.199400	0.647200
N71	N7	0.702100	0.647200	0.800600
N81	N8	0.149900	0.352800	0.199400
