data_EMUBIZ_clean_PM
_symmetry_space_group_name_H-M	'P1'
_cell_length_a	19.210000
_cell_length_b	19.210000
_cell_length_c	10.994000
_cell_angle_alpha	90.000000
_cell_angle_beta	90.000000
_cell_angle_gamma	90.000000
_symmetry_Int_Tables_number 1

loop_
_symmetry_equiv_pos_as_xyz
'x,y,z'

loop_
_atom_site_label
_atom_site_type_symbol
_atom_site_fract_x
_atom_site_fract_y
_atom_site_fract_z
O11	O1	0.483830	0.381680	0.508200
O21	O2	0.535600	0.433350	0.350600
C11	C1	0.579700	0.309600	0.259900
H11	H1	0.594300	0.351400	0.225900
C21	C2	0.534200	0.311600	0.356800
C31	C3	0.514900	0.381400	0.409500
O31	O3	0.016170	0.118320	0.508200
O41	O4	0.964400	0.066650	0.350600
C41	C4	0.920300	0.190400	0.259900
H21	H2	0.905700	0.148600	0.225900
C51	C5	0.965800	0.188400	0.356800
C61	C6	0.985100	0.118600	0.409500
O51	O5	0.118320	0.483830	0.508200
O61	O6	0.066650	0.535600	0.350600
C71	C7	0.190400	0.579700	0.259900
H31	H3	0.148600	0.594300	0.225900
C81	C8	0.188400	0.534200	0.356800
C91	C9	0.118600	0.514900	0.409500
O71	O7	0.381680	0.016170	0.508200
O81	O8	0.433350	0.964400	0.350600
C101	C10	0.309600	0.920300	0.259900
H41	H4	0.351400	0.905700	0.225900
C111	C11	0.311600	0.965800	0.356800
C121	C12	0.381400	0.985100	0.409500
O91	O9	0.516170	0.881680	0.491800
O101	O10	0.464400	0.933350	0.649400
C131	C13	0.420300	0.809600	0.740100
H51	H5	0.405700	0.851400	0.774100
C141	C14	0.465800	0.811600	0.643200
C151	C15	0.485100	0.881400	0.590500
O111	O11	0.983830	0.618320	0.491800
O121	O12	0.035600	0.566650	0.649400
C161	C16	0.079700	0.690400	0.740100
H61	H6	0.094300	0.648600	0.774100
C171	C17	0.034200	0.688400	0.643200
C181	C18	0.014900	0.618600	0.590500
O131	O13	0.881680	0.983830	0.491800
O141	O14	0.933350	0.035600	0.649400
C191	C19	0.809600	0.079700	0.740100
H71	H7	0.851400	0.094300	0.774100
C201	C20	0.811600	0.034200	0.643200
C211	C21	0.881400	0.014900	0.590500
O151	O15	0.618320	0.516170	0.491800
O161	O16	0.566650	0.464400	0.649400
C221	C22	0.690400	0.420300	0.740100
H81	H8	0.648600	0.405700	0.774100
C231	C23	0.688400	0.465800	0.643200
C241	C24	0.618600	0.485100	0.590500
O171	O17	0.516170	0.618320	0.491800
O181	O18	0.464400	0.566650	0.649400
C251	C25	0.420300	0.690400	0.740100
H91	H9	0.405700	0.648600	0.774100
C261	C26	0.465800	0.688400	0.643200
C271	C27	0.485100	0.618600	0.590500
O191	O19	0.983830	0.881680	0.491800
O201	O20	0.035600	0.933350	0.649400
C281	C28	0.079700	0.809600	0.740100
H101	H10	0.094300	0.851400	0.774100
C291	C29	0.034200	0.811600	0.643200
C301	C30	0.014900	0.881400	0.590500
O211	O21	0.881680	0.516170	0.491800
O221	O22	0.933350	0.464400	0.649400
C311	C31	0.809600	0.420300	0.740100
H111	H11	0.851400	0.405700	0.774100
C321	C32	0.811600	0.465800	0.643200
C331	C33	0.881400	0.485100	0.590500
O231	O23	0.618320	0.983830	0.491800
O241	O24	0.566650	0.035600	0.649400
C341	C34	0.690400	0.079700	0.740100
H121	H12	0.648600	0.094300	0.774100
C351	C35	0.688400	0.034200	0.643200
C361	C36	0.618600	0.014900	0.590500
O251	O25	0.483830	0.118320	0.508200
O261	O26	0.535600	0.066650	0.350600
C371	C37	0.579700	0.190400	0.259900
H131	H13	0.594300	0.148600	0.225900
C381	C38	0.534200	0.188400	0.356800
C391	C39	0.514900	0.118600	0.409500
O271	O27	0.016170	0.381680	0.508200
O281	O28	0.964400	0.433350	0.350600
C401	C40	0.920300	0.309600	0.259900
H141	H14	0.905700	0.351400	0.225900
C411	C41	0.965800	0.311600	0.356800
C421	C42	0.985100	0.381400	0.409500
O291	O29	0.118320	0.016170	0.508200
O301	O30	0.066650	0.964400	0.350600
C431	C43	0.190400	0.920300	0.259900
H151	H15	0.148600	0.905700	0.225900
C441	C44	0.188400	0.965800	0.356800
C451	C45	0.118600	0.985100	0.409500
O311	O31	0.381680	0.483830	0.508200
O321	O32	0.433350	0.535600	0.350600
C461	C46	0.309600	0.579700	0.259900
H161	H16	0.351400	0.594300	0.225900
C471	C47	0.311600	0.534200	0.356800
C481	C48	0.381400	0.514900	0.409500
I11	I1	0.629040	0.250000	0.864110
Cu11	Cu1	0.681470	0.250000	0.086590
N11	N1	0.603800	0.250000	0.212500
C491	C49	0.511500	0.250000	0.406900
H171	H17	0.481400	0.250000	0.473200
I21	I2	0.870960	0.250000	0.864110
Cu21	Cu2	0.818530	0.250000	0.086590
N21	N2	0.896200	0.250000	0.212500
C501	C50	0.988500	0.250000	0.406900
H181	H18	0.018600	0.250000	0.473200
I31	I3	0.250000	0.629040	0.864110
Cu31	Cu3	0.250000	0.681470	0.086590
N31	N3	0.250000	0.603800	0.212500
C511	C51	0.250000	0.511500	0.406900
H191	H19	0.250000	0.481400	0.473200
I41	I4	0.250000	0.870960	0.864110
Cu41	Cu4	0.250000	0.818530	0.086590
N41	N4	0.250000	0.896200	0.212500
C521	C52	0.250000	0.988500	0.406900
H201	H20	0.250000	0.018600	0.473200
I51	I5	0.370960	0.750000	0.135890
Cu51	Cu5	0.318530	0.750000	0.913410
N51	N5	0.396200	0.750000	0.787500
C531	C53	0.488500	0.750000	0.593100
H211	H21	0.518600	0.750000	0.526800
I61	I6	0.129040	0.750000	0.135890
Cu61	Cu6	0.181470	0.750000	0.913410
N61	N6	0.103800	0.750000	0.787500
C541	C54	0.011500	0.750000	0.593100
H221	H22	0.981400	0.750000	0.526800
I71	I7	0.750000	0.129040	0.135890
Cu71	Cu7	0.750000	0.181470	0.913410
N71	N7	0.750000	0.103800	0.787500
C551	C55	0.750000	0.011500	0.593100
H231	H23	0.750000	0.981400	0.526800
I81	I8	0.750000	0.370960	0.135890
Cu81	Cu8	0.750000	0.318530	0.913410
N81	N8	0.750000	0.396200	0.787500
C561	C56	0.750000	0.488500	0.593100
H241	H24	0.750000	0.518600	0.526800
Cu91	Cu9	0.469540	0.469540	0.595000
Cu101	Cu10	0.030460	0.030460	0.595000
Cu111	Cu11	0.030460	0.469540	0.595000
Cu121	Cu12	0.469540	0.030460	0.595000
Cu131	Cu13	0.530460	0.969540	0.405000
Cu141	Cu14	0.969540	0.530460	0.405000
Cu151	Cu15	0.969540	0.969540	0.405000
Cu161	Cu16	0.530460	0.530460	0.405000
