data_EMUBOF_clean_PM
_symmetry_space_group_name_H-M	'P1'
_cell_length_a	18.129000
_cell_length_b	18.129000
_cell_length_c	21.841000
_cell_angle_alpha	90.000000
_cell_angle_beta	90.000000
_cell_angle_gamma	90.000000
_symmetry_Int_Tables_number 1

loop_
_symmetry_equiv_pos_as_xyz
'x,y,z'

loop_
_atom_site_label
_atom_site_type_symbol
_atom_site_fract_x
_atom_site_fract_y
_atom_site_fract_z
C11	C1	0.563600	0.842300	0.604800
H11	H1	0.608900	0.858400	0.587400
C21	C2	0.565800	0.798500	0.656300
C31	C3	0.637000	0.779000	0.687300
O11	O1	0.696200	0.804400	0.664410
O21	O2	0.631700	0.740200	0.734950
C41	C4	0.063600	0.342300	0.104800
H21	H2	0.108900	0.358400	0.087400
C51	C5	0.065800	0.298500	0.156300
C61	C6	0.137000	0.279000	0.187300
O31	O3	0.196200	0.304400	0.164410
O41	O4	0.131700	0.240200	0.234950
C71	C7	0.436400	0.157700	0.604800
H31	H3	0.391100	0.141600	0.587400
C81	C8	0.434200	0.201500	0.656300
C91	C9	0.363000	0.221000	0.687300
O51	O5	0.303800	0.195600	0.664410
O61	O6	0.368300	0.259800	0.734950
C101	C10	0.936400	0.657700	0.104800
H41	H4	0.891100	0.641600	0.087400
C111	C11	0.934200	0.701500	0.156300
C121	C12	0.863000	0.721000	0.187300
O71	O7	0.803800	0.695600	0.164410
O81	O8	0.868300	0.759800	0.234950
C131	C13	0.157700	0.563600	0.604800
H51	H5	0.141600	0.608900	0.587400
C141	C14	0.201500	0.565800	0.656300
C151	C15	0.221000	0.637000	0.687300
O91	O9	0.195600	0.696200	0.664410
O101	O10	0.259800	0.631700	0.734950
C161	C16	0.657700	0.063600	0.104800
H61	H6	0.641600	0.108900	0.087400
C171	C17	0.701500	0.065800	0.156300
C181	C18	0.721000	0.137000	0.187300
O111	O11	0.695600	0.196200	0.164410
O121	O12	0.759800	0.131700	0.234950
C191	C19	0.842300	0.436400	0.604800
H71	H7	0.858400	0.391100	0.587400
C201	C20	0.798500	0.434200	0.656300
C211	C21	0.779000	0.363000	0.687300
O131	O13	0.804400	0.303800	0.664410
O141	O14	0.740200	0.368300	0.734950
C221	C22	0.342300	0.936400	0.104800
H81	H8	0.358400	0.891100	0.087400
C231	C23	0.298500	0.934200	0.156300
C241	C24	0.279000	0.863000	0.187300
O151	O15	0.304400	0.803800	0.164410
O161	O16	0.240200	0.868300	0.234950
C251	C25	0.436400	0.842300	0.395200
H91	H9	0.391100	0.858400	0.412600
C261	C26	0.434200	0.798500	0.343700
C271	C27	0.363000	0.779000	0.312700
O171	O17	0.303800	0.804400	0.335590
O181	O18	0.368300	0.740200	0.265050
C281	C28	0.936400	0.342300	0.895200
H101	H10	0.891100	0.358400	0.912600
C291	C29	0.934200	0.298500	0.843700
C301	C30	0.863000	0.279000	0.812700
O191	O19	0.803800	0.304400	0.835590
O201	O20	0.868300	0.240200	0.765050
C311	C31	0.563600	0.157700	0.395200
H111	H11	0.608900	0.141600	0.412600
C321	C32	0.565800	0.201500	0.343700
C331	C33	0.637000	0.221000	0.312700
O211	O21	0.696200	0.195600	0.335590
O221	O22	0.631700	0.259800	0.265050
C341	C34	0.063600	0.657700	0.895200
H121	H12	0.108900	0.641600	0.912600
C351	C35	0.065800	0.701500	0.843700
C361	C36	0.137000	0.721000	0.812700
O231	O23	0.196200	0.695600	0.835590
O241	O24	0.131700	0.759800	0.765050
C371	C37	0.842300	0.563600	0.395200
H131	H13	0.858400	0.608900	0.412600
C381	C38	0.798500	0.565800	0.343700
C391	C39	0.779000	0.637000	0.312700
O251	O25	0.804400	0.696200	0.335590
O261	O26	0.740200	0.631700	0.265050
C401	C40	0.342300	0.063600	0.895200
H141	H14	0.358400	0.108900	0.912600
C411	C41	0.298500	0.065800	0.843700
C421	C42	0.279000	0.137000	0.812700
O271	O27	0.304400	0.196200	0.835590
O281	O28	0.240200	0.131700	0.765050
C431	C43	0.157700	0.436400	0.395200
H151	H15	0.141600	0.391100	0.412600
C441	C44	0.201500	0.434200	0.343700
C451	C45	0.221000	0.363000	0.312700
O291	O29	0.195600	0.303800	0.335590
O301	O30	0.259800	0.368300	0.265050
C461	C46	0.657700	0.936400	0.895200
H161	H16	0.641600	0.891100	0.912600
C471	C47	0.701500	0.934200	0.843700
C481	C48	0.721000	0.863000	0.812700
O311	O31	0.695600	0.803800	0.835590
O321	O32	0.759800	0.868300	0.765050
C491	C49	0.436400	0.157700	0.395200
H171	H17	0.391100	0.141600	0.412600
C501	C50	0.434200	0.201500	0.343700
C511	C51	0.363000	0.221000	0.312700
O331	O33	0.303800	0.195600	0.335590
O341	O34	0.368300	0.259800	0.265050
C521	C52	0.936400	0.657700	0.895200
H181	H18	0.891100	0.641600	0.912600
C531	C53	0.934200	0.701500	0.843700
C541	C54	0.863000	0.721000	0.812700
O351	O35	0.803800	0.695600	0.835590
O361	O36	0.868300	0.759800	0.765050
C551	C55	0.563600	0.842300	0.395200
H191	H19	0.608900	0.858400	0.412600
C561	C56	0.565800	0.798500	0.343700
C571	C57	0.637000	0.779000	0.312700
O371	O37	0.696200	0.804400	0.335590
O381	O38	0.631700	0.740200	0.265050
C581	C58	0.063600	0.342300	0.895200
H201	H20	0.108900	0.358400	0.912600
C591	C59	0.065800	0.298500	0.843700
C601	C60	0.137000	0.279000	0.812700
O391	O39	0.196200	0.304400	0.835590
O401	O40	0.131700	0.240200	0.765050
C611	C61	0.842300	0.436400	0.395200
H211	H21	0.858400	0.391100	0.412600
C621	C62	0.798500	0.434200	0.343700
C631	C63	0.779000	0.363000	0.312700
O411	O41	0.804400	0.303800	0.335590
O421	O42	0.740200	0.368300	0.265050
C641	C64	0.342300	0.936400	0.895200
H221	H22	0.358400	0.891100	0.912600
C651	C65	0.298500	0.934200	0.843700
C661	C66	0.279000	0.863000	0.812700
O431	O43	0.304400	0.803800	0.835590
O441	O44	0.240200	0.868300	0.765050
C671	C67	0.157700	0.563600	0.395200
H231	H23	0.141600	0.608900	0.412600
C681	C68	0.201500	0.565800	0.343700
C691	C69	0.221000	0.637000	0.312700
O451	O45	0.195600	0.696200	0.335590
O461	O46	0.259800	0.631700	0.265050
C701	C70	0.657700	0.063600	0.895200
H241	H24	0.641600	0.108900	0.912600
C711	C71	0.701500	0.065800	0.843700
C721	C72	0.721000	0.137000	0.812700
O471	O47	0.695600	0.196200	0.835590
O481	O48	0.759800	0.131700	0.765050
C731	C73	0.563600	0.157700	0.604800
H251	H25	0.608900	0.141600	0.587400
C741	C74	0.565800	0.201500	0.656300
C751	C75	0.637000	0.221000	0.687300
O491	O49	0.696200	0.195600	0.664410
O501	O50	0.631700	0.259800	0.734950
C761	C76	0.063600	0.657700	0.104800
H261	H26	0.108900	0.641600	0.087400
C771	C77	0.065800	0.701500	0.156300
C781	C78	0.137000	0.721000	0.187300
O511	O51	0.196200	0.695600	0.164410
O521	O52	0.131700	0.759800	0.234950
C791	C79	0.436400	0.842300	0.604800
H271	H27	0.391100	0.858400	0.587400
C801	C80	0.434200	0.798500	0.656300
C811	C81	0.363000	0.779000	0.687300
O531	O53	0.303800	0.804400	0.664410
O541	O54	0.368300	0.740200	0.734950
C821	C82	0.936400	0.342300	0.104800
H281	H28	0.891100	0.358400	0.087400
C831	C83	0.934200	0.298500	0.156300
C841	C84	0.863000	0.279000	0.187300
O551	O55	0.803800	0.304400	0.164410
O561	O56	0.868300	0.240200	0.234950
C851	C85	0.157700	0.436400	0.604800
H291	H29	0.141600	0.391100	0.587400
C861	C86	0.201500	0.434200	0.656300
C871	C87	0.221000	0.363000	0.687300
O571	O57	0.195600	0.303800	0.664410
O581	O58	0.259800	0.368300	0.734950
C881	C88	0.657700	0.936400	0.104800
H301	H30	0.641600	0.891100	0.087400
C891	C89	0.701500	0.934200	0.156300
C901	C90	0.721000	0.863000	0.187300
O591	O59	0.695600	0.803800	0.164410
O601	O60	0.759800	0.868300	0.234950
C911	C91	0.842300	0.563600	0.604800
H311	H31	0.858400	0.608900	0.587400
C921	C92	0.798500	0.565800	0.656300
C931	C93	0.779000	0.637000	0.687300
O611	O61	0.804400	0.696200	0.664410
O621	O62	0.740200	0.631700	0.734950
C941	C94	0.342300	0.063600	0.104800
H321	H32	0.358400	0.108900	0.087400
C951	C95	0.298500	0.065800	0.156300
C961	C96	0.279000	0.137000	0.187300
O631	O63	0.304400	0.196200	0.164410
O641	O64	0.240200	0.131700	0.234950
I11	I1	0.374270	0.000000	0.500000
I21	I2	0.874270	0.500000	0.000000
I31	I3	0.625730	0.000000	0.500000
I41	I4	0.125730	0.500000	0.000000
I51	I5	0.000000	0.374270	0.500000
I61	I6	0.500000	0.874270	0.000000
I71	I7	0.000000	0.625730	0.500000
I81	I8	0.500000	0.125730	0.000000
Cu11	Cu1	0.500000	0.926570	0.500000
Cu21	Cu2	0.000000	0.426570	0.000000
Cu31	Cu3	0.500000	0.073430	0.500000
Cu41	Cu4	0.000000	0.573430	0.000000
Cu51	Cu5	0.073430	0.500000	0.500000
Cu61	Cu6	0.573430	0.000000	0.000000
Cu71	Cu7	0.926570	0.500000	0.500000
Cu81	Cu8	0.426570	0.000000	0.000000
N11	N1	0.500000	0.863400	0.577900
C971	C97	0.500000	0.775900	0.682600
H331	H33	0.500000	0.745400	0.718000
N21	N2	0.000000	0.363400	0.077900
C981	C98	0.000000	0.275900	0.182600
H341	H34	0.000000	0.245400	0.218000
N31	N3	0.500000	0.136600	0.577900
C991	C99	0.500000	0.224100	0.682600
H351	H35	0.500000	0.254600	0.718000
N41	N4	0.000000	0.636600	0.077900
C1001	C100	0.000000	0.724100	0.182600
H361	H36	0.000000	0.754600	0.218000
N51	N5	0.136600	0.500000	0.577900
C1011	C101	0.224100	0.500000	0.682600
H371	H37	0.254600	0.500000	0.718000
N61	N6	0.636600	0.000000	0.077900
C1021	C102	0.724100	0.000000	0.182600
H381	H38	0.754600	0.000000	0.218000
N71	N7	0.863400	0.500000	0.577900
C1031	C103	0.775900	0.500000	0.682600
H391	H39	0.745400	0.500000	0.718000
N81	N8	0.363400	0.000000	0.077900
C1041	C104	0.275900	0.000000	0.182600
H401	H40	0.245400	0.000000	0.218000
N91	N9	0.500000	0.863400	0.422100
C1051	C105	0.500000	0.775900	0.317400
H411	H41	0.500000	0.745400	0.282000
N101	N10	0.000000	0.363400	0.922100
C1061	C106	0.000000	0.275900	0.817400
H421	H42	0.000000	0.245400	0.782000
N111	N11	0.500000	0.136600	0.422100
C1071	C107	0.500000	0.224100	0.317400
H431	H43	0.500000	0.254600	0.282000
N121	N12	0.000000	0.636600	0.922100
C1081	C108	0.000000	0.724100	0.817400
H441	H44	0.000000	0.754600	0.782000
N131	N13	0.863400	0.500000	0.422100
C1091	C109	0.775900	0.500000	0.317400
H451	H45	0.745400	0.500000	0.282000
N141	N14	0.363400	0.000000	0.922100
C1101	C110	0.275900	0.000000	0.817400
H461	H46	0.245400	0.000000	0.782000
N151	N15	0.136600	0.500000	0.422100
C1111	C111	0.224100	0.500000	0.317400
H471	H47	0.254600	0.500000	0.282000
N161	N16	0.636600	0.000000	0.922100
C1121	C112	0.724100	0.000000	0.817400
H481	H48	0.754600	0.000000	0.782000
Cu91	Cu9	0.788760	0.788760	0.709350
Cu101	Cu10	0.288760	0.288760	0.209350
Cu111	Cu11	0.211240	0.211240	0.709350
Cu121	Cu12	0.711240	0.711240	0.209350
Cu131	Cu13	0.211240	0.788760	0.709350
Cu141	Cu14	0.711240	0.288760	0.209350
Cu151	Cu15	0.788760	0.211240	0.709350
Cu161	Cu16	0.288760	0.711240	0.209350
Cu171	Cu17	0.211240	0.788760	0.290650
Cu181	Cu18	0.711240	0.288760	0.790650
Cu191	Cu19	0.788760	0.211240	0.290650
Cu201	Cu20	0.288760	0.711240	0.790650
Cu211	Cu21	0.788760	0.788760	0.290650
Cu221	Cu22	0.288760	0.288760	0.790650
Cu231	Cu23	0.211240	0.211240	0.290650
Cu241	Cu24	0.711240	0.711240	0.790650
