data_EMUVAL_clean_PM
_symmetry_space_group_name_H-M	'P1'
_cell_length_a	9.952400
_cell_length_b	12.670000
_cell_length_c	16.213700
_cell_angle_alpha	90.000000
_cell_angle_beta	96.180000
_cell_angle_gamma	90.000000
_symmetry_Int_Tables_number 1

loop_
_symmetry_equiv_pos_as_xyz
'x,y,z'

loop_
_atom_site_label
_atom_site_type_symbol
_atom_site_fract_x
_atom_site_fract_y
_atom_site_fract_z
Sm11	Sm1	0.306340	0.043820	0.995030
O11	O1	0.413000	0.044500	0.133000
O21	O2	0.636000	0.022100	0.134200
O31	O3	0.735500	0.358200	0.477500
O41	O4	0.516300	0.376900	0.473200
O51	O5	0.095300	0.999900	0.915800
O61	O6	0.877000	0.962200	0.921000
C11	C1	0.554700	0.106400	0.250000
C21	C2	0.458400	0.176900	0.265800
H11	H1	0.378100	0.179900	0.230800
C31	C3	0.477800	0.246400	0.335000
H21	H2	0.410500	0.294000	0.345300
C41	C4	0.596500	0.242600	0.386300
C51	C5	0.697000	0.165800	0.374500
C61	C6	0.820300	0.155200	0.428900
H31	H3	0.838000	0.202200	0.472800
C71	C7	0.910600	0.078800	0.417700
H41	H4	0.991200	0.075100	0.452400
C81	C8	0.882900	0.004200	0.353200
H51	H5	0.942800	0.948900	0.347600
C91	C9	0.769000	0.013000	0.299300
H61	H6	0.753200	0.964400	0.256400
C101	C10	0.674600	0.094100	0.306900
C111	C11	0.533800	0.051400	0.166700
C121	C12	0.617500	0.328700	0.452000
C131	C13	0.992900	0.989600	0.952600
Br11	Br1	0.220600	0.256690	0.984200
Sm21	Sm2	0.693660	0.543820	0.504970
O71	O7	0.587000	0.544500	0.367000
O81	O8	0.364000	0.522100	0.365800
O91	O9	0.264500	0.858200	0.022500
O101	O10	0.483700	0.876900	0.026800
O111	O11	0.904700	0.499900	0.584200
O121	O12	0.123000	0.462200	0.579000
C141	C14	0.445300	0.606400	0.250000
C151	C15	0.541600	0.676900	0.234200
H71	H7	0.621900	0.679900	0.269200
C161	C16	0.522200	0.746400	0.165000
H81	H8	0.589500	0.794000	0.154700
C171	C17	0.403500	0.742600	0.113700
C181	C18	0.303000	0.665800	0.125500
C191	C19	0.179700	0.655200	0.071100
H91	H9	0.162000	0.702200	0.027200
C201	C20	0.089400	0.578800	0.082300
H101	H10	0.008800	0.575100	0.047600
C211	C21	0.117100	0.504200	0.146800
H111	H11	0.057200	0.448900	0.152400
C221	C22	0.231000	0.513000	0.200700
H121	H12	0.246800	0.464400	0.243600
C231	C23	0.325400	0.594100	0.193100
C241	C24	0.466200	0.551400	0.333300
C251	C25	0.382500	0.828700	0.048000
C261	C26	0.007100	0.489600	0.547400
Br21	Br2	0.779400	0.756690	0.515800
Sm31	Sm3	0.693660	0.956180	0.004970
O131	O13	0.587000	0.955500	0.867000
O141	O14	0.364000	0.977900	0.865800
O151	O15	0.264500	0.641800	0.522500
O161	O16	0.483700	0.623100	0.526800
O171	O17	0.904700	0.000100	0.084200
O181	O18	0.123000	0.037800	0.079000
C271	C27	0.445300	0.893600	0.750000
C281	C28	0.541600	0.823100	0.734200
H131	H13	0.621900	0.820100	0.769200
C291	C29	0.522200	0.753600	0.665000
H141	H14	0.589500	0.706000	0.654700
C301	C30	0.403500	0.757400	0.613700
C311	C31	0.303000	0.834200	0.625500
C321	C32	0.179700	0.844800	0.571100
H151	H15	0.162000	0.797800	0.527200
C331	C33	0.089400	0.921200	0.582300
H161	H16	0.008800	0.924900	0.547600
C341	C34	0.117100	0.995800	0.646800
H171	H17	0.057200	0.051100	0.652400
C351	C35	0.231000	0.987000	0.700700
H181	H18	0.246800	0.035600	0.743600
C361	C36	0.325400	0.905900	0.693100
C371	C37	0.466200	0.948600	0.833300
C381	C38	0.382500	0.671300	0.548000
C391	C39	0.007100	0.010400	0.047400
Br31	Br3	0.779400	0.743310	0.015800
Sm41	Sm4	0.306340	0.456180	0.495030
O191	O19	0.413000	0.455500	0.633000
O201	O20	0.636000	0.477900	0.634200
O211	O21	0.735500	0.141800	0.977500
O221	O22	0.516300	0.123100	0.973200
O231	O23	0.095300	0.500100	0.415800
O241	O24	0.877000	0.537800	0.421000
C401	C40	0.554700	0.393600	0.750000
C411	C41	0.458400	0.323100	0.765800
H191	H19	0.378100	0.320100	0.730800
C421	C42	0.477800	0.253600	0.835000
H201	H20	0.410500	0.206000	0.845300
C431	C43	0.596500	0.257400	0.886300
C441	C44	0.697000	0.334200	0.874500
C451	C45	0.820300	0.344800	0.928900
H211	H21	0.838000	0.297800	0.972800
C461	C46	0.910600	0.421200	0.917700
H221	H22	0.991200	0.424900	0.952400
C471	C47	0.882900	0.495800	0.853200
H231	H23	0.942800	0.551100	0.847600
C481	C48	0.769000	0.487000	0.799300
H241	H24	0.753200	0.535600	0.756400
C491	C49	0.674600	0.405900	0.806900
C501	C50	0.533800	0.448600	0.666700
C511	C51	0.617500	0.171300	0.952000
C521	C52	0.992900	0.510400	0.452600
Br41	Br4	0.220600	0.243310	0.484200
