data_ENAFAB_clean_PM
_symmetry_space_group_name_H-M	'P1'
_cell_length_a	29.557000
_cell_length_b	29.557000
_cell_length_c	29.557000
_cell_angle_alpha	90.000000
_cell_angle_beta	90.000000
_cell_angle_gamma	90.000000
_symmetry_Int_Tables_number 1

loop_
_symmetry_equiv_pos_as_xyz
'x,y,z'

loop_
_atom_site_label
_atom_site_type_symbol
_atom_site_fract_x
_atom_site_fract_y
_atom_site_fract_z
Ni11	Ni1	0.724100	0.000000	0.710430
Ni21	Ni2	0.275900	0.000000	0.710430
Ni31	Ni3	0.275900	0.000000	0.289570
Ni41	Ni4	0.724100	0.000000	0.289570
Ni51	Ni5	0.710430	0.724100	0.000000
Ni61	Ni6	0.710430	0.275900	0.000000
Ni71	Ni7	0.289570	0.275900	0.000000
Ni81	Ni8	0.289570	0.724100	0.000000
Ni91	Ni9	0.000000	0.710430	0.724100
Ni101	Ni10	0.000000	0.710430	0.275900
Ni111	Ni11	0.000000	0.289570	0.275900
Ni121	Ni12	0.000000	0.289570	0.724100
Ni131	Ni13	0.500000	0.224100	0.789570
Ni141	Ni14	0.500000	0.775900	0.789570
Ni151	Ni15	0.500000	0.775900	0.210430
Ni161	Ni16	0.500000	0.224100	0.210430
Ni171	Ni17	0.224100	0.210430	0.500000
Ni181	Ni18	0.775900	0.210430	0.500000
Ni191	Ni19	0.775900	0.789570	0.500000
Ni201	Ni20	0.224100	0.789570	0.500000
Ni211	Ni21	0.210430	0.500000	0.775900
Ni221	Ni22	0.210430	0.500000	0.224100
Ni231	Ni23	0.789570	0.500000	0.224100
Ni241	Ni24	0.789570	0.500000	0.775900
P11	P1	0.789240	0.789240	0.789240
P21	P2	0.210760	0.210760	0.789240
P31	P3	0.210760	0.789240	0.210760
P41	P4	0.789240	0.210760	0.210760
P51	P5	0.289240	0.289240	0.710760
P61	P6	0.710760	0.710760	0.710760
P71	P7	0.289240	0.710760	0.289240
P81	P8	0.710760	0.289240	0.289240
P91	P9	0.210760	0.210760	0.210760
P101	P10	0.789240	0.789240	0.210760
P111	P11	0.789240	0.210760	0.789240
P121	P12	0.210760	0.789240	0.789240
P131	P13	0.710760	0.710760	0.289240
P141	P14	0.289240	0.289240	0.289240
P151	P15	0.710760	0.289240	0.710760
P161	P16	0.289240	0.710760	0.710760
H11	H1	0.657600	0.934200	0.670800
H21	H2	0.595000	0.931300	0.624100
H31	H3	0.543500	0.972900	0.569900
H41	H4	0.768600	0.932800	0.645800
H51	H5	0.821600	0.931700	0.588600
H61	H6	0.880800	0.027300	0.543400
H71	H7	0.342400	0.065800	0.670800
H81	H8	0.405000	0.068700	0.624100
H91	H9	0.456500	0.027100	0.569900
H101	H10	0.231400	0.067200	0.645800
H111	H11	0.178400	0.068300	0.588600
H121	H12	0.119200	0.972700	0.543400
H131	H13	0.342400	0.934200	0.329200
H141	H14	0.405000	0.931300	0.375900
H151	H15	0.456500	0.972900	0.430100
H161	H16	0.231400	0.932800	0.354200
H171	H17	0.178400	0.931700	0.411400
H181	H18	0.119200	0.027300	0.456600
H191	H19	0.657600	0.065800	0.329200
H201	H20	0.595000	0.068700	0.375900
H211	H21	0.543500	0.027100	0.430100
H221	H22	0.768600	0.067200	0.354200
H231	H23	0.821600	0.068300	0.411400
H241	H24	0.880800	0.972700	0.456600
H251	H25	0.670800	0.657600	0.934200
H261	H26	0.624100	0.595000	0.931300
H271	H27	0.569900	0.543500	0.972900
H281	H28	0.645800	0.768600	0.932800
H291	H29	0.588600	0.821600	0.931700
H301	H30	0.543400	0.880800	0.027300
H311	H31	0.670800	0.342400	0.065800
H321	H32	0.624100	0.405000	0.068700
H331	H33	0.569900	0.456500	0.027100
H341	H34	0.645800	0.231400	0.067200
H351	H35	0.588600	0.178400	0.068300
H361	H36	0.543400	0.119200	0.972700
H371	H37	0.329200	0.342400	0.934200
H381	H38	0.375900	0.405000	0.931300
H391	H39	0.430100	0.456500	0.972900
H401	H40	0.354200	0.231400	0.932800
H411	H41	0.411400	0.178400	0.931700
H421	H42	0.456600	0.119200	0.027300
H431	H43	0.329200	0.657600	0.065800
H441	H44	0.375900	0.595000	0.068700
H451	H45	0.430100	0.543500	0.027100
H461	H46	0.354200	0.768600	0.067200
H471	H47	0.411400	0.821600	0.068300
H481	H48	0.456600	0.880800	0.972700
H491	H49	0.934200	0.670800	0.657600
H501	H50	0.931300	0.624100	0.595000
H511	H51	0.972900	0.569900	0.543500
H521	H52	0.932800	0.645800	0.768600
H531	H53	0.931700	0.588600	0.821600
H541	H54	0.027300	0.543400	0.880800
H551	H55	0.065800	0.670800	0.342400
H561	H56	0.068700	0.624100	0.405000
H571	H57	0.027100	0.569900	0.456500
H581	H58	0.067200	0.645800	0.231400
H591	H59	0.068300	0.588600	0.178400
H601	H60	0.972700	0.543400	0.119200
H611	H61	0.934200	0.329200	0.342400
H621	H62	0.931300	0.375900	0.405000
H631	H63	0.972900	0.430100	0.456500
H641	H64	0.932800	0.354200	0.231400
H651	H65	0.931700	0.411400	0.178400
H661	H66	0.027300	0.456600	0.119200
H671	H67	0.065800	0.329200	0.657600
H681	H68	0.068700	0.375900	0.595000
H691	H69	0.027100	0.430100	0.543500
H701	H70	0.067200	0.354200	0.768600
H711	H71	0.068300	0.411400	0.821600
H721	H72	0.972700	0.456600	0.880800
H731	H73	0.434200	0.157600	0.829200
H741	H74	0.431300	0.095000	0.875900
H751	H75	0.472900	0.043500	0.930100
H761	H76	0.432800	0.268600	0.854200
H771	H77	0.431700	0.321600	0.911400
H781	H78	0.527300	0.380800	0.956600
H791	H79	0.565800	0.842400	0.829200
H801	H80	0.568700	0.905000	0.875900
H811	H81	0.527100	0.956500	0.930100
H821	H82	0.567200	0.731400	0.854200
H831	H83	0.568300	0.678400	0.911400
H841	H84	0.472700	0.619200	0.956600
H851	H85	0.434200	0.842400	0.170800
H861	H86	0.431300	0.905000	0.124100
H871	H87	0.472900	0.956500	0.069900
H881	H88	0.432800	0.731400	0.145800
H891	H89	0.431700	0.678400	0.088600
H901	H90	0.527300	0.619200	0.043400
H911	H91	0.565800	0.157600	0.170800
H921	H92	0.568700	0.095000	0.124100
H931	H93	0.527100	0.043500	0.069900
H941	H94	0.567200	0.268600	0.145800
H951	H95	0.568300	0.321600	0.088600
H961	H96	0.472700	0.380800	0.043400
H971	H97	0.157600	0.170800	0.565800
H981	H98	0.095000	0.124100	0.568700
H991	H99	0.043500	0.069900	0.527100
H1001	H100	0.268600	0.145800	0.567200
H1011	H101	0.321600	0.088600	0.568300
H1021	H102	0.380800	0.043400	0.472700
H1031	H103	0.842400	0.170800	0.434200
H1041	H104	0.905000	0.124100	0.431300
H1051	H105	0.956500	0.069900	0.472900
H1061	H106	0.731400	0.145800	0.432800
H1071	H107	0.678400	0.088600	0.431700
H1081	H108	0.619200	0.043400	0.527300
H1091	H109	0.842400	0.829200	0.565800
H1101	H110	0.905000	0.875900	0.568700
H1111	H111	0.956500	0.930100	0.527100
H1121	H112	0.731400	0.854200	0.567200
H1131	H113	0.678400	0.911400	0.568300
H1141	H114	0.619200	0.956600	0.472700
H1151	H115	0.157600	0.829200	0.434200
H1161	H116	0.095000	0.875900	0.431300
H1171	H117	0.043500	0.930100	0.472900
H1181	H118	0.268600	0.854200	0.432800
H1191	H119	0.321600	0.911400	0.431700
H1201	H120	0.380800	0.956600	0.527300
H1211	H121	0.170800	0.434200	0.842400
H1221	H122	0.124100	0.431300	0.905000
H1231	H123	0.069900	0.472900	0.956500
H1241	H124	0.145800	0.432800	0.731400
H1251	H125	0.088600	0.431700	0.678400
H1261	H126	0.043400	0.527300	0.619200
H1271	H127	0.170800	0.565800	0.157600
H1281	H128	0.124100	0.568700	0.095000
H1291	H129	0.069900	0.527100	0.043500
H1301	H130	0.145800	0.567200	0.268600
H1311	H131	0.088600	0.568300	0.321600
H1321	H132	0.043400	0.472700	0.380800
H1331	H133	0.829200	0.434200	0.157600
H1341	H134	0.875900	0.431300	0.095000
H1351	H135	0.930100	0.472900	0.043500
H1361	H136	0.854200	0.432800	0.268600
H1371	H137	0.911400	0.431700	0.321600
H1381	H138	0.956600	0.527300	0.380800
H1391	H139	0.829200	0.565800	0.842400
H1401	H140	0.875900	0.568700	0.905000
H1411	H141	0.930100	0.527100	0.956500
H1421	H142	0.854200	0.567200	0.731400
H1431	H143	0.911400	0.568300	0.678400
H1441	H144	0.956600	0.472700	0.619200
H1451	H145	0.342400	0.065800	0.329200
H1461	H146	0.405000	0.068700	0.375900
H1471	H147	0.456500	0.027100	0.430100
H1481	H148	0.231400	0.067200	0.354200
H1491	H149	0.178400	0.068300	0.411400
H1501	H150	0.119200	0.972700	0.456600
H1511	H151	0.657600	0.934200	0.329200
H1521	H152	0.595000	0.931300	0.375900
H1531	H153	0.543500	0.972900	0.430100
H1541	H154	0.768600	0.932800	0.354200
H1551	H155	0.821600	0.931700	0.411400
H1561	H156	0.880800	0.027300	0.456600
H1571	H157	0.657600	0.065800	0.670800
H1581	H158	0.595000	0.068700	0.624100
H1591	H159	0.543500	0.027100	0.569900
H1601	H160	0.768600	0.067200	0.645800
H1611	H161	0.821600	0.068300	0.588600
H1621	H162	0.880800	0.972700	0.543400
H1631	H163	0.342400	0.934200	0.670800
H1641	H164	0.405000	0.931300	0.624100
H1651	H165	0.456500	0.972900	0.569900
H1661	H166	0.231400	0.932800	0.645800
H1671	H167	0.178400	0.931700	0.588600
H1681	H168	0.119200	0.027300	0.543400
H1691	H169	0.329200	0.342400	0.065800
H1701	H170	0.375900	0.405000	0.068700
H1711	H171	0.430100	0.456500	0.027100
H1721	H172	0.354200	0.231400	0.067200
H1731	H173	0.411400	0.178400	0.068300
H1741	H174	0.456600	0.119200	0.972700
H1751	H175	0.329200	0.657600	0.934200
H1761	H176	0.375900	0.595000	0.931300
H1771	H177	0.430100	0.543500	0.972900
H1781	H178	0.354200	0.768600	0.932800
H1791	H179	0.411400	0.821600	0.931700
H1801	H180	0.456600	0.880800	0.027300
H1811	H181	0.670800	0.657600	0.065800
H1821	H182	0.624100	0.595000	0.068700
H1831	H183	0.569900	0.543500	0.027100
H1841	H184	0.645800	0.768600	0.067200
H1851	H185	0.588600	0.821600	0.068300
H1861	H186	0.543400	0.880800	0.972700
H1871	H187	0.670800	0.342400	0.934200
H1881	H188	0.624100	0.405000	0.931300
H1891	H189	0.569900	0.456500	0.972900
H1901	H190	0.645800	0.231400	0.932800
H1911	H191	0.588600	0.178400	0.931700
H1921	H192	0.543400	0.119200	0.027300
H1931	H193	0.065800	0.329200	0.342400
H1941	H194	0.068700	0.375900	0.405000
H1951	H195	0.027100	0.430100	0.456500
H1961	H196	0.067200	0.354200	0.231400
H1971	H197	0.068300	0.411400	0.178400
H1981	H198	0.972700	0.456600	0.119200
H1991	H199	0.934200	0.329200	0.657600
H2001	H200	0.931300	0.375900	0.595000
H2011	H201	0.972900	0.430100	0.543500
H2021	H202	0.932800	0.354200	0.768600
H2031	H203	0.931700	0.411400	0.821600
H2041	H204	0.027300	0.456600	0.880800
H2051	H205	0.065800	0.670800	0.657600
H2061	H206	0.068700	0.624100	0.595000
H2071	H207	0.027100	0.569900	0.543500
H2081	H208	0.067200	0.645800	0.768600
H2091	H209	0.068300	0.588600	0.821600
H2101	H210	0.972700	0.543400	0.880800
H2111	H211	0.934200	0.670800	0.342400
H2121	H212	0.931300	0.624100	0.405000
H2131	H213	0.972900	0.569900	0.456500
H2141	H214	0.932800	0.645800	0.231400
H2151	H215	0.931700	0.588600	0.178400
H2161	H216	0.027300	0.543400	0.119200
H2171	H217	0.565800	0.842400	0.170800
H2181	H218	0.568700	0.905000	0.124100
H2191	H219	0.527100	0.956500	0.069900
H2201	H220	0.567200	0.731400	0.145800
H2211	H221	0.568300	0.678400	0.088600
H2221	H222	0.472700	0.619200	0.043400
H2231	H223	0.434200	0.157600	0.170800
H2241	H224	0.431300	0.095000	0.124100
H2251	H225	0.472900	0.043500	0.069900
H2261	H226	0.432800	0.268600	0.145800
H2271	H227	0.431700	0.321600	0.088600
H2281	H228	0.527300	0.380800	0.043400
H2291	H229	0.565800	0.157600	0.829200
H2301	H230	0.568700	0.095000	0.875900
H2311	H231	0.527100	0.043500	0.930100
H2321	H232	0.567200	0.268600	0.854200
H2331	H233	0.568300	0.321600	0.911400
H2341	H234	0.472700	0.380800	0.956600
H2351	H235	0.434200	0.842400	0.829200
H2361	H236	0.431300	0.905000	0.875900
H2371	H237	0.472900	0.956500	0.930100
H2381	H238	0.432800	0.731400	0.854200
H2391	H239	0.431700	0.678400	0.911400
H2401	H240	0.527300	0.619200	0.956600
H2411	H241	0.842400	0.829200	0.434200
H2421	H242	0.905000	0.875900	0.431300
H2431	H243	0.956500	0.930100	0.472900
H2441	H244	0.731400	0.854200	0.432800
H2451	H245	0.678400	0.911400	0.431700
H2461	H246	0.619200	0.956600	0.527300
H2471	H247	0.157600	0.829200	0.565800
H2481	H248	0.095000	0.875900	0.568700
H2491	H249	0.043500	0.930100	0.527100
H2501	H250	0.268600	0.854200	0.567200
H2511	H251	0.321600	0.911400	0.568300
H2521	H252	0.380800	0.956600	0.472700
H2531	H253	0.157600	0.170800	0.434200
H2541	H254	0.095000	0.124100	0.431300
H2551	H255	0.043500	0.069900	0.472900
H2561	H256	0.268600	0.145800	0.432800
H2571	H257	0.321600	0.088600	0.431700
H2581	H258	0.380800	0.043400	0.527300
H2591	H259	0.842400	0.170800	0.565800
H2601	H260	0.905000	0.124100	0.568700
H2611	H261	0.956500	0.069900	0.527100
H2621	H262	0.731400	0.145800	0.567200
H2631	H263	0.678400	0.088600	0.568300
H2641	H264	0.619200	0.043400	0.472700
H2651	H265	0.829200	0.565800	0.157600
H2661	H266	0.875900	0.568700	0.095000
H2671	H267	0.930100	0.527100	0.043500
H2681	H268	0.854200	0.567200	0.268600
H2691	H269	0.911400	0.568300	0.321600
H2701	H270	0.956600	0.472700	0.380800
H2711	H271	0.829200	0.434200	0.842400
H2721	H272	0.875900	0.431300	0.905000
H2731	H273	0.930100	0.472900	0.956500
H2741	H274	0.854200	0.432800	0.731400
H2751	H275	0.911400	0.431700	0.678400
H2761	H276	0.956600	0.527300	0.619200
H2771	H277	0.170800	0.565800	0.842400
H2781	H278	0.124100	0.568700	0.905000
H2791	H279	0.069900	0.527100	0.956500
H2801	H280	0.145800	0.567200	0.731400
H2811	H281	0.088600	0.568300	0.678400
H2821	H282	0.043400	0.472700	0.619200
H2831	H283	0.170800	0.434200	0.157600
H2841	H284	0.124100	0.431300	0.095000
H2851	H285	0.069900	0.472900	0.043500
H2861	H286	0.145800	0.432800	0.268600
H2871	H287	0.088600	0.431700	0.321600
H2881	H288	0.043400	0.527300	0.380800
H2891	H289	0.500000	0.972900	0.638700
H2901	H290	0.500000	0.027100	0.638700
H2911	H291	0.500000	0.972900	0.361300
H2921	H292	0.500000	0.027100	0.361300
H2931	H293	0.638700	0.500000	0.972900
H2941	H294	0.638700	0.500000	0.027100
H2951	H295	0.361300	0.500000	0.972900
H2961	H296	0.361300	0.500000	0.027100
H2971	H297	0.972900	0.638700	0.500000
H2981	H298	0.027100	0.638700	0.500000
H2991	H299	0.972900	0.361300	0.500000
H3001	H300	0.027100	0.361300	0.500000
H3011	H301	0.472900	0.000000	0.861300
H3021	H302	0.527100	0.000000	0.861300
H3031	H303	0.472900	0.000000	0.138700
H3041	H304	0.527100	0.000000	0.138700
H3051	H305	0.000000	0.138700	0.527100
H3061	H306	0.000000	0.138700	0.472900
H3071	H307	0.000000	0.861300	0.527100
H3081	H308	0.000000	0.861300	0.472900
H3091	H309	0.138700	0.472900	0.000000
H3101	H310	0.138700	0.527100	0.000000
H3111	H311	0.861300	0.472900	0.000000
H3121	H312	0.861300	0.527100	0.000000
H3131	H313	0.812800	0.027100	0.500000
H3141	H314	0.187200	0.972900	0.500000
H3151	H315	0.187200	0.027100	0.500000
H3161	H316	0.812800	0.972900	0.500000
H3171	H317	0.500000	0.812800	0.027100
H3181	H318	0.500000	0.187200	0.972900
H3191	H319	0.500000	0.187200	0.027100
H3201	H320	0.500000	0.812800	0.972900
H3211	H321	0.027100	0.500000	0.812800
H3221	H322	0.972900	0.500000	0.187200
H3231	H323	0.027100	0.500000	0.187200
H3241	H324	0.972900	0.500000	0.812800
H3251	H325	0.527100	0.312800	0.000000
H3261	H326	0.472900	0.687200	0.000000
H3271	H327	0.527100	0.687200	0.000000
H3281	H328	0.472900	0.312800	0.000000
H3291	H329	0.312800	0.000000	0.472900
H3301	H330	0.687200	0.000000	0.527100
H3311	H331	0.687200	0.000000	0.472900
H3321	H332	0.312800	0.000000	0.527100
H3331	H333	0.000000	0.527100	0.687200
H3341	H334	0.000000	0.472900	0.312800
H3351	H335	0.000000	0.527100	0.312800
H3361	H336	0.000000	0.472900	0.687200
W11	W1	0.690270	0.838910	0.834190
W21	W2	0.735840	0.880810	0.740190
W31	W3	0.845010	0.892710	0.800200
W41	W4	0.309730	0.161090	0.834190
W51	W5	0.264160	0.119190	0.740190
W61	W6	0.154990	0.107290	0.800200
W71	W7	0.309730	0.838910	0.165810
W81	W8	0.264160	0.880810	0.259810
W91	W9	0.154990	0.892710	0.199800
W101	W10	0.690270	0.161090	0.165810
W111	W11	0.735840	0.119190	0.259810
W121	W12	0.845010	0.107290	0.199800
W131	W13	0.834190	0.690270	0.838910
W141	W14	0.740190	0.735840	0.880810
W151	W15	0.800200	0.845010	0.892710
W161	W16	0.834190	0.309730	0.161090
W171	W17	0.740190	0.264160	0.119190
W181	W18	0.800200	0.154990	0.107290
W191	W19	0.165810	0.309730	0.838910
W201	W20	0.259810	0.264160	0.880810
W211	W21	0.199800	0.154990	0.892710
W221	W22	0.165810	0.690270	0.161090
W231	W23	0.259810	0.735840	0.119190
W241	W24	0.199800	0.845010	0.107290
W251	W25	0.838910	0.834190	0.690270
W261	W26	0.880810	0.740190	0.735840
W271	W27	0.892710	0.800200	0.845010
W281	W28	0.161090	0.834190	0.309730
W291	W29	0.119190	0.740190	0.264160
W301	W30	0.107290	0.800200	0.154990
W311	W31	0.838910	0.165810	0.309730
W321	W32	0.880810	0.259810	0.264160
W331	W33	0.892710	0.199800	0.154990
W341	W34	0.161090	0.165810	0.690270
W351	W35	0.119190	0.259810	0.735840
W361	W36	0.107290	0.199800	0.845010
W371	W37	0.338910	0.190270	0.665810
W381	W38	0.380810	0.235840	0.759810
W391	W39	0.392710	0.345010	0.699800
W401	W40	0.661090	0.809730	0.665810
W411	W41	0.619190	0.764160	0.759810
W421	W42	0.607290	0.654990	0.699800
W431	W43	0.338910	0.809730	0.334190
W441	W44	0.380810	0.764160	0.240190
W451	W45	0.392710	0.654990	0.300200
W461	W46	0.661090	0.190270	0.334190
W471	W47	0.619190	0.235840	0.240190
W481	W48	0.607290	0.345010	0.300200
W491	W49	0.190270	0.334190	0.661090
W501	W50	0.235840	0.240190	0.619190
W511	W51	0.345010	0.300200	0.607290
W521	W52	0.809730	0.334190	0.338910
W531	W53	0.764160	0.240190	0.380810
W541	W54	0.654990	0.300200	0.392710
W551	W55	0.809730	0.665810	0.661090
W561	W56	0.764160	0.759810	0.619190
W571	W57	0.654990	0.699800	0.607290
W581	W58	0.190270	0.665810	0.338910
W591	W59	0.235840	0.759810	0.380810
W601	W60	0.345010	0.699800	0.392710
W611	W61	0.334190	0.338910	0.809730
W621	W62	0.240190	0.380810	0.764160
W631	W63	0.300200	0.392710	0.654990
W641	W64	0.334190	0.661090	0.190270
W651	W65	0.240190	0.619190	0.235840
W661	W66	0.300200	0.607290	0.345010
W671	W67	0.665810	0.338910	0.190270
W681	W68	0.759810	0.380810	0.235840
W691	W69	0.699800	0.392710	0.345010
W701	W70	0.665810	0.661090	0.809730
W711	W71	0.759810	0.619190	0.764160
W721	W72	0.699800	0.607290	0.654990
W731	W73	0.309730	0.161090	0.165810
W741	W74	0.264160	0.119190	0.259810
W751	W75	0.154990	0.107290	0.199800
W761	W76	0.690270	0.838910	0.165810
W771	W77	0.735840	0.880810	0.259810
W781	W78	0.845010	0.892710	0.199800
W791	W79	0.690270	0.161090	0.834190
W801	W80	0.735840	0.119190	0.740190
W811	W81	0.845010	0.107290	0.800200
W821	W82	0.309730	0.838910	0.834190
W831	W83	0.264160	0.880810	0.740190
W841	W84	0.154990	0.892710	0.800200
W851	W85	0.165810	0.309730	0.161090
W861	W86	0.259810	0.264160	0.119190
W871	W87	0.199800	0.154990	0.107290
W881	W88	0.165810	0.690270	0.838910
W891	W89	0.259810	0.735840	0.880810
W901	W90	0.199800	0.845010	0.892710
W911	W91	0.834190	0.690270	0.161090
W921	W92	0.740190	0.735840	0.119190
W931	W93	0.800200	0.845010	0.107290
W941	W94	0.834190	0.309730	0.838910
W951	W95	0.740190	0.264160	0.880810
W961	W96	0.800200	0.154990	0.892710
W971	W97	0.161090	0.165810	0.309730
W981	W98	0.119190	0.259810	0.264160
W991	W99	0.107290	0.199800	0.154990
W1001	W100	0.838910	0.165810	0.690270
W1011	W101	0.880810	0.259810	0.735840
W1021	W102	0.892710	0.199800	0.845010
W1031	W103	0.161090	0.834190	0.690270
W1041	W104	0.119190	0.740190	0.735840
W1051	W105	0.107290	0.800200	0.845010
W1061	W106	0.838910	0.834190	0.309730
W1071	W107	0.880810	0.740190	0.264160
W1081	W108	0.892710	0.800200	0.154990
W1091	W109	0.661090	0.809730	0.334190
W1101	W110	0.619190	0.764160	0.240190
W1111	W111	0.607290	0.654990	0.300200
W1121	W112	0.338910	0.190270	0.334190
W1131	W113	0.380810	0.235840	0.240190
W1141	W114	0.392710	0.345010	0.300200
W1151	W115	0.661090	0.190270	0.665810
W1161	W116	0.619190	0.235840	0.759810
W1171	W117	0.607290	0.345010	0.699800
W1181	W118	0.338910	0.809730	0.665810
W1191	W119	0.380810	0.764160	0.759810
W1201	W120	0.392710	0.654990	0.699800
W1211	W121	0.809730	0.665810	0.338910
W1221	W122	0.764160	0.759810	0.380810
W1231	W123	0.654990	0.699800	0.392710
W1241	W124	0.190270	0.665810	0.661090
W1251	W125	0.235840	0.759810	0.619190
W1261	W126	0.345010	0.699800	0.607290
W1271	W127	0.190270	0.334190	0.338910
W1281	W128	0.235840	0.240190	0.380810
W1291	W129	0.345010	0.300200	0.392710
W1301	W130	0.809730	0.334190	0.661090
W1311	W131	0.764160	0.240190	0.619190
W1321	W132	0.654990	0.300200	0.607290
W1331	W133	0.665810	0.661090	0.190270
W1341	W134	0.759810	0.619190	0.235840
W1351	W135	0.699800	0.607290	0.345010
W1361	W136	0.665810	0.338910	0.809730
W1371	W137	0.759810	0.380810	0.764160
W1381	W138	0.699800	0.392710	0.654990
W1391	W139	0.334190	0.661090	0.809730
W1401	W140	0.240190	0.619190	0.764160
W1411	W141	0.300200	0.607290	0.654990
W1421	W142	0.334190	0.338910	0.190270
W1431	W143	0.240190	0.380810	0.235840
W1441	W144	0.300200	0.392710	0.345010
C11	C1	0.645200	0.961700	0.659600
C21	C2	0.607200	0.959700	0.633000
C31	C3	0.780200	0.960900	0.635400
C41	C4	0.811200	0.960000	0.599700
C51	C5	0.354800	0.038300	0.659600
C61	C6	0.392800	0.040300	0.633000
C71	C7	0.219800	0.039100	0.635400
C81	C8	0.188800	0.040000	0.599700
C91	C9	0.354800	0.961700	0.340400
C101	C10	0.392800	0.959700	0.367000
C111	C11	0.219800	0.960900	0.364600
C121	C12	0.188800	0.960000	0.400300
C131	C13	0.645200	0.038300	0.340400
C141	C14	0.607200	0.040300	0.367000
C151	C15	0.780200	0.039100	0.364600
C161	C16	0.811200	0.040000	0.400300
C171	C17	0.659600	0.645200	0.961700
C181	C18	0.633000	0.607200	0.959700
C191	C19	0.635400	0.780200	0.960900
C201	C20	0.599700	0.811200	0.960000
C211	C21	0.659600	0.354800	0.038300
C221	C22	0.633000	0.392800	0.040300
C231	C23	0.635400	0.219800	0.039100
C241	C24	0.599700	0.188800	0.040000
C251	C25	0.340400	0.354800	0.961700
C261	C26	0.367000	0.392800	0.959700
C271	C27	0.364600	0.219800	0.960900
C281	C28	0.400300	0.188800	0.960000
C291	C29	0.340400	0.645200	0.038300
C301	C30	0.367000	0.607200	0.040300
C311	C31	0.364600	0.780200	0.039100
C321	C32	0.400300	0.811200	0.040000
C331	C33	0.961700	0.659600	0.645200
C341	C34	0.959700	0.633000	0.607200
C351	C35	0.960900	0.635400	0.780200
C361	C36	0.960000	0.599700	0.811200
C371	C37	0.038300	0.659600	0.354800
C381	C38	0.040300	0.633000	0.392800
C391	C39	0.039100	0.635400	0.219800
C401	C40	0.040000	0.599700	0.188800
C411	C41	0.961700	0.340400	0.354800
C421	C42	0.959700	0.367000	0.392800
C431	C43	0.960900	0.364600	0.219800
C441	C44	0.960000	0.400300	0.188800
C451	C45	0.038300	0.340400	0.645200
C461	C46	0.040300	0.367000	0.607200
C471	C47	0.039100	0.364600	0.780200
C481	C48	0.040000	0.400300	0.811200
C491	C49	0.461700	0.145200	0.840400
C501	C50	0.459700	0.107200	0.867000
C511	C51	0.460900	0.280200	0.864600
C521	C52	0.460000	0.311200	0.900300
C531	C53	0.538300	0.854800	0.840400
C541	C54	0.540300	0.892800	0.867000
C551	C55	0.539100	0.719800	0.864600
C561	C56	0.540000	0.688800	0.900300
C571	C57	0.461700	0.854800	0.159600
C581	C58	0.459700	0.892800	0.133000
C591	C59	0.460900	0.719800	0.135400
C601	C60	0.460000	0.688800	0.099700
C611	C61	0.538300	0.145200	0.159600
C621	C62	0.540300	0.107200	0.133000
C631	C63	0.539100	0.280200	0.135400
C641	C64	0.540000	0.311200	0.099700
C651	C65	0.145200	0.159600	0.538300
C661	C66	0.107200	0.133000	0.540300
C671	C67	0.280200	0.135400	0.539100
C681	C68	0.311200	0.099700	0.540000
C691	C69	0.854800	0.159600	0.461700
C701	C70	0.892800	0.133000	0.459700
C711	C71	0.719800	0.135400	0.460900
C721	C72	0.688800	0.099700	0.460000
C731	C73	0.854800	0.840400	0.538300
C741	C74	0.892800	0.867000	0.540300
C751	C75	0.719800	0.864600	0.539100
C761	C76	0.688800	0.900300	0.540000
C771	C77	0.145200	0.840400	0.461700
C781	C78	0.107200	0.867000	0.459700
C791	C79	0.280200	0.864600	0.460900
C801	C80	0.311200	0.900300	0.460000
C811	C81	0.159600	0.461700	0.854800
C821	C82	0.133000	0.459700	0.892800
C831	C83	0.135400	0.460900	0.719800
C841	C84	0.099700	0.460000	0.688800
C851	C85	0.159600	0.538300	0.145200
C861	C86	0.133000	0.540300	0.107200
C871	C87	0.135400	0.539100	0.280200
C881	C88	0.099700	0.540000	0.311200
C891	C89	0.840400	0.461700	0.145200
C901	C90	0.867000	0.459700	0.107200
C911	C91	0.864600	0.460900	0.280200
C921	C92	0.900300	0.460000	0.311200
C931	C93	0.840400	0.538300	0.854800
C941	C94	0.867000	0.540300	0.892800
C951	C95	0.864600	0.539100	0.719800
C961	C96	0.900300	0.540000	0.688800
C971	C97	0.354800	0.038300	0.340400
C981	C98	0.392800	0.040300	0.367000
C991	C99	0.219800	0.039100	0.364600
C1001	C100	0.188800	0.040000	0.400300
C1011	C101	0.645200	0.961700	0.340400
C1021	C102	0.607200	0.959700	0.367000
C1031	C103	0.780200	0.960900	0.364600
C1041	C104	0.811200	0.960000	0.400300
C1051	C105	0.645200	0.038300	0.659600
C1061	C106	0.607200	0.040300	0.633000
C1071	C107	0.780200	0.039100	0.635400
C1081	C108	0.811200	0.040000	0.599700
C1091	C109	0.354800	0.961700	0.659600
C1101	C110	0.392800	0.959700	0.633000
C1111	C111	0.219800	0.960900	0.635400
C1121	C112	0.188800	0.960000	0.599700
C1131	C113	0.340400	0.354800	0.038300
C1141	C114	0.367000	0.392800	0.040300
C1151	C115	0.364600	0.219800	0.039100
C1161	C116	0.400300	0.188800	0.040000
C1171	C117	0.340400	0.645200	0.961700
C1181	C118	0.367000	0.607200	0.959700
C1191	C119	0.364600	0.780200	0.960900
C1201	C120	0.400300	0.811200	0.960000
C1211	C121	0.659600	0.645200	0.038300
C1221	C122	0.633000	0.607200	0.040300
C1231	C123	0.635400	0.780200	0.039100
C1241	C124	0.599700	0.811200	0.040000
C1251	C125	0.659600	0.354800	0.961700
C1261	C126	0.633000	0.392800	0.959700
C1271	C127	0.635400	0.219800	0.960900
C1281	C128	0.599700	0.188800	0.960000
C1291	C129	0.038300	0.340400	0.354800
C1301	C130	0.040300	0.367000	0.392800
C1311	C131	0.039100	0.364600	0.219800
C1321	C132	0.040000	0.400300	0.188800
C1331	C133	0.961700	0.340400	0.645200
C1341	C134	0.959700	0.367000	0.607200
C1351	C135	0.960900	0.364600	0.780200
C1361	C136	0.960000	0.400300	0.811200
C1371	C137	0.038300	0.659600	0.645200
C1381	C138	0.040300	0.633000	0.607200
C1391	C139	0.039100	0.635400	0.780200
C1401	C140	0.040000	0.599700	0.811200
C1411	C141	0.961700	0.659600	0.354800
C1421	C142	0.959700	0.633000	0.392800
C1431	C143	0.960900	0.635400	0.219800
C1441	C144	0.960000	0.599700	0.188800
C1451	C145	0.538300	0.854800	0.159600
C1461	C146	0.540300	0.892800	0.133000
C1471	C147	0.539100	0.719800	0.135400
C1481	C148	0.540000	0.688800	0.099700
C1491	C149	0.461700	0.145200	0.159600
C1501	C150	0.459700	0.107200	0.133000
C1511	C151	0.460900	0.280200	0.135400
C1521	C152	0.460000	0.311200	0.099700
C1531	C153	0.538300	0.145200	0.840400
C1541	C154	0.540300	0.107200	0.867000
C1551	C155	0.539100	0.280200	0.864600
C1561	C156	0.540000	0.311200	0.900300
C1571	C157	0.461700	0.854800	0.840400
C1581	C158	0.459700	0.892800	0.867000
C1591	C159	0.460900	0.719800	0.864600
C1601	C160	0.460000	0.688800	0.900300
C1611	C161	0.854800	0.840400	0.461700
C1621	C162	0.892800	0.867000	0.459700
C1631	C163	0.719800	0.864600	0.460900
C1641	C164	0.688800	0.900300	0.460000
C1651	C165	0.145200	0.840400	0.538300
C1661	C166	0.107200	0.867000	0.540300
C1671	C167	0.280200	0.864600	0.539100
C1681	C168	0.311200	0.900300	0.540000
C1691	C169	0.145200	0.159600	0.461700
C1701	C170	0.107200	0.133000	0.459700
C1711	C171	0.280200	0.135400	0.460900
C1721	C172	0.311200	0.099700	0.460000
C1731	C173	0.854800	0.159600	0.538300
C1741	C174	0.892800	0.133000	0.540300
C1751	C175	0.719800	0.135400	0.539100
C1761	C176	0.688800	0.099700	0.540000
C1771	C177	0.840400	0.538300	0.145200
C1781	C178	0.867000	0.540300	0.107200
C1791	C179	0.864600	0.539100	0.280200
C1801	C180	0.900300	0.540000	0.311200
C1811	C181	0.840400	0.461700	0.854800
C1821	C182	0.867000	0.459700	0.892800
C1831	C183	0.864600	0.460900	0.719800
C1841	C184	0.900300	0.460000	0.688800
C1851	C185	0.159600	0.538300	0.854800
C1861	C186	0.133000	0.540300	0.892800
C1871	C187	0.135400	0.539100	0.719800
C1881	C188	0.099700	0.540000	0.688800
C1891	C189	0.159600	0.461700	0.145200
C1901	C190	0.133000	0.459700	0.107200
C1911	C191	0.135400	0.460900	0.280200
C1921	C192	0.099700	0.460000	0.311200
C1931	C193	0.586900	0.000000	0.619200
C1941	C194	0.543500	0.000000	0.589600
C1951	C195	0.827200	0.000000	0.580100
C1961	C196	0.861400	0.000000	0.542200
C1971	C197	0.413100	0.000000	0.619200
C1981	C198	0.456500	0.000000	0.589600
C1991	C199	0.172800	0.000000	0.580100
C2001	C200	0.138600	0.000000	0.542200
C2011	C201	0.413100	0.000000	0.380800
C2021	C202	0.456500	0.000000	0.410400
C2031	C203	0.172800	0.000000	0.419900
C2041	C204	0.138600	0.000000	0.457800
C2051	C205	0.586900	0.000000	0.380800
C2061	C206	0.543500	0.000000	0.410400
C2071	C207	0.827200	0.000000	0.419900
C2081	C208	0.861400	0.000000	0.457800
C2091	C209	0.619200	0.586900	0.000000
C2101	C210	0.589600	0.543500	0.000000
C2111	C211	0.580100	0.827200	0.000000
C2121	C212	0.542200	0.861400	0.000000
C2131	C213	0.619200	0.413100	0.000000
C2141	C214	0.589600	0.456500	0.000000
C2151	C215	0.580100	0.172800	0.000000
C2161	C216	0.542200	0.138600	0.000000
C2171	C217	0.380800	0.413100	0.000000
C2181	C218	0.410400	0.456500	0.000000
C2191	C219	0.419900	0.172800	0.000000
C2201	C220	0.457800	0.138600	0.000000
C2211	C221	0.380800	0.586900	0.000000
C2221	C222	0.410400	0.543500	0.000000
C2231	C223	0.419900	0.827200	0.000000
C2241	C224	0.457800	0.861400	0.000000
C2251	C225	0.000000	0.619200	0.586900
C2261	C226	0.000000	0.589600	0.543500
C2271	C227	0.000000	0.580100	0.827200
C2281	C228	0.000000	0.542200	0.861400
C2291	C229	0.000000	0.619200	0.413100
C2301	C230	0.000000	0.589600	0.456500
C2311	C231	0.000000	0.580100	0.172800
C2321	C232	0.000000	0.542200	0.138600
C2331	C233	0.000000	0.380800	0.413100
C2341	C234	0.000000	0.410400	0.456500
C2351	C235	0.000000	0.419900	0.172800
C2361	C236	0.000000	0.457800	0.138600
C2371	C237	0.000000	0.380800	0.586900
C2381	C238	0.000000	0.410400	0.543500
C2391	C239	0.000000	0.419900	0.827200
C2401	C240	0.000000	0.457800	0.861400
C2411	C241	0.500000	0.086900	0.880800
C2421	C242	0.500000	0.043500	0.910400
C2431	C243	0.500000	0.327200	0.919900
C2441	C244	0.500000	0.361400	0.957800
C2451	C245	0.500000	0.913100	0.880800
C2461	C246	0.500000	0.956500	0.910400
C2471	C247	0.500000	0.672800	0.919900
C2481	C248	0.500000	0.638600	0.957800
C2491	C249	0.500000	0.913100	0.119200
C2501	C250	0.500000	0.956500	0.089600
C2511	C251	0.500000	0.672800	0.080100
C2521	C252	0.500000	0.638600	0.042200
C2531	C253	0.500000	0.086900	0.119200
C2541	C254	0.500000	0.043500	0.089600
C2551	C255	0.500000	0.327200	0.080100
C2561	C256	0.500000	0.361400	0.042200
C2571	C257	0.086900	0.119200	0.500000
C2581	C258	0.043500	0.089600	0.500000
C2591	C259	0.327200	0.080100	0.500000
C2601	C260	0.361400	0.042200	0.500000
C2611	C261	0.913100	0.119200	0.500000
C2621	C262	0.956500	0.089600	0.500000
C2631	C263	0.672800	0.080100	0.500000
C2641	C264	0.638600	0.042200	0.500000
C2651	C265	0.913100	0.880800	0.500000
C2661	C266	0.956500	0.910400	0.500000
C2671	C267	0.672800	0.919900	0.500000
C2681	C268	0.638600	0.957800	0.500000
C2691	C269	0.086900	0.880800	0.500000
C2701	C270	0.043500	0.910400	0.500000
C2711	C271	0.327200	0.919900	0.500000
C2721	C272	0.361400	0.957800	0.500000
C2731	C273	0.119200	0.500000	0.913100
C2741	C274	0.089600	0.500000	0.956500
C2751	C275	0.080100	0.500000	0.672800
C2761	C276	0.042200	0.500000	0.638600
C2771	C277	0.119200	0.500000	0.086900
C2781	C278	0.089600	0.500000	0.043500
C2791	C279	0.080100	0.500000	0.327200
C2801	C280	0.042200	0.500000	0.361400
C2811	C281	0.880800	0.500000	0.086900
C2821	C282	0.910400	0.500000	0.043500
C2831	C283	0.919900	0.500000	0.327200
C2841	C284	0.957800	0.500000	0.361400
C2851	C285	0.880800	0.500000	0.913100
C2861	C286	0.910400	0.500000	0.956500
C2871	C287	0.919900	0.500000	0.672800
C2881	C288	0.957800	0.500000	0.638600
C2891	C289	0.500000	0.000000	0.619000
C2901	C290	0.500000	0.000000	0.381000
C2911	C291	0.619000	0.500000	0.000000
C2921	C292	0.381000	0.500000	0.000000
C2931	C293	0.000000	0.619000	0.500000
C2941	C294	0.000000	0.381000	0.500000
C2951	C295	0.500000	0.000000	0.881000
C2961	C296	0.500000	0.000000	0.119000
C2971	C297	0.000000	0.119000	0.500000
C2981	C298	0.000000	0.881000	0.500000
C2991	C299	0.119000	0.500000	0.000000
C3001	C300	0.881000	0.500000	0.000000
C3011	C301	0.832000	0.000000	0.500000
C3021	C302	0.168000	0.000000	0.500000
C3031	C303	0.500000	0.832000	0.000000
C3041	C304	0.500000	0.168000	0.000000
C3051	C305	0.000000	0.500000	0.832000
C3061	C306	0.000000	0.500000	0.168000
C3071	C307	0.500000	0.332000	0.000000
C3081	C308	0.500000	0.668000	0.000000
C3091	C309	0.332000	0.000000	0.500000
C3101	C310	0.668000	0.000000	0.500000
C3111	C311	0.000000	0.500000	0.668000
C3121	C312	0.000000	0.500000	0.332000
N11	N1	0.665200	0.000000	0.670100
N21	N2	0.765100	0.000000	0.656800
N31	N3	0.334800	0.000000	0.670100
N41	N4	0.234900	0.000000	0.656800
N51	N5	0.334800	0.000000	0.329900
N61	N6	0.234900	0.000000	0.343200
N71	N7	0.665200	0.000000	0.329900
N81	N8	0.765100	0.000000	0.343200
N91	N9	0.670100	0.665200	0.000000
N101	N10	0.656800	0.765100	0.000000
N111	N11	0.670100	0.334800	0.000000
N121	N12	0.656800	0.234900	0.000000
N131	N13	0.329900	0.334800	0.000000
N141	N14	0.343200	0.234900	0.000000
N151	N15	0.329900	0.665200	0.000000
N161	N16	0.343200	0.765100	0.000000
N171	N17	0.000000	0.670100	0.665200
N181	N18	0.000000	0.656800	0.765100
N191	N19	0.000000	0.670100	0.334800
N201	N20	0.000000	0.656800	0.234900
N211	N21	0.000000	0.329900	0.334800
N221	N22	0.000000	0.343200	0.234900
N231	N23	0.000000	0.329900	0.665200
N241	N24	0.000000	0.343200	0.765100
N251	N25	0.500000	0.165200	0.829900
N261	N26	0.500000	0.265100	0.843200
N271	N27	0.500000	0.834800	0.829900
N281	N28	0.500000	0.734900	0.843200
N291	N29	0.500000	0.834800	0.170100
N301	N30	0.500000	0.734900	0.156800
N311	N31	0.500000	0.165200	0.170100
N321	N32	0.500000	0.265100	0.156800
N331	N33	0.165200	0.170100	0.500000
N341	N34	0.265100	0.156800	0.500000
N351	N35	0.834800	0.170100	0.500000
N361	N36	0.734900	0.156800	0.500000
N371	N37	0.834800	0.829900	0.500000
N381	N38	0.734900	0.843200	0.500000
N391	N39	0.165200	0.829900	0.500000
N401	N40	0.265100	0.843200	0.500000
N411	N41	0.170100	0.500000	0.834800
N421	N42	0.156800	0.500000	0.734900
N431	N43	0.170100	0.500000	0.165200
N441	N44	0.156800	0.500000	0.265100
N451	N45	0.829900	0.500000	0.165200
N461	N46	0.843200	0.500000	0.265100
N471	N47	0.829900	0.500000	0.834800
N481	N48	0.843200	0.500000	0.734900
O11	O1	0.745500	0.815600	0.779100
O21	O2	0.780100	0.858300	0.700300
O31	O3	0.691200	0.848900	0.709500
O41	O4	0.743600	0.857200	0.865500
O51	O5	0.725500	0.932600	0.715400
O61	O6	0.897000	0.861000	0.822100
O71	O7	0.696600	0.886000	0.791800
O81	O8	0.785800	0.901300	0.777500
O91	O9	0.254500	0.184400	0.779100
O101	O10	0.219900	0.141700	0.700300
O111	O11	0.308800	0.151100	0.709500
O121	O12	0.256400	0.142800	0.865500
O131	O13	0.274500	0.067400	0.715400
O141	O14	0.103000	0.139000	0.822100
O151	O15	0.303400	0.114000	0.791800
O161	O16	0.214200	0.098700	0.777500
O171	O17	0.254500	0.815600	0.220900
O181	O18	0.219900	0.858300	0.299700
O191	O19	0.308800	0.848900	0.290500
O201	O20	0.256400	0.857200	0.134500
O211	O21	0.274500	0.932600	0.284600
O221	O22	0.103000	0.861000	0.177900
O231	O23	0.303400	0.886000	0.208200
O241	O24	0.214200	0.901300	0.222500
O251	O25	0.745500	0.184400	0.220900
O261	O26	0.780100	0.141700	0.299700
O271	O27	0.691200	0.151100	0.290500
O281	O28	0.743600	0.142800	0.134500
O291	O29	0.725500	0.067400	0.284600
O301	O30	0.897000	0.139000	0.177900
O311	O31	0.696600	0.114000	0.208200
O321	O32	0.785800	0.098700	0.222500
O331	O33	0.779100	0.745500	0.815600
O341	O34	0.700300	0.780100	0.858300
O351	O35	0.709500	0.691200	0.848900
O361	O36	0.865500	0.743600	0.857200
O371	O37	0.715400	0.725500	0.932600
O381	O38	0.822100	0.897000	0.861000
O391	O39	0.791800	0.696600	0.886000
O401	O40	0.777500	0.785800	0.901300
O411	O41	0.779100	0.254500	0.184400
O421	O42	0.700300	0.219900	0.141700
O431	O43	0.709500	0.308800	0.151100
O441	O44	0.865500	0.256400	0.142800
O451	O45	0.715400	0.274500	0.067400
O461	O46	0.822100	0.103000	0.139000
O471	O47	0.791800	0.303400	0.114000
O481	O48	0.777500	0.214200	0.098700
O491	O49	0.220900	0.254500	0.815600
O501	O50	0.299700	0.219900	0.858300
O511	O51	0.290500	0.308800	0.848900
O521	O52	0.134500	0.256400	0.857200
O531	O53	0.284600	0.274500	0.932600
O541	O54	0.177900	0.103000	0.861000
O551	O55	0.208200	0.303400	0.886000
O561	O56	0.222500	0.214200	0.901300
O571	O57	0.220900	0.745500	0.184400
O581	O58	0.299700	0.780100	0.141700
O591	O59	0.290500	0.691200	0.151100
O601	O60	0.134500	0.743600	0.142800
O611	O61	0.284600	0.725500	0.067400
O621	O62	0.177900	0.897000	0.139000
O631	O63	0.208200	0.696600	0.114000
O641	O64	0.222500	0.785800	0.098700
O651	O65	0.815600	0.779100	0.745500
O661	O66	0.858300	0.700300	0.780100
O671	O67	0.848900	0.709500	0.691200
O681	O68	0.857200	0.865500	0.743600
O691	O69	0.932600	0.715400	0.725500
O701	O70	0.861000	0.822100	0.897000
O711	O71	0.886000	0.791800	0.696600
O721	O72	0.901300	0.777500	0.785800
O731	O73	0.184400	0.779100	0.254500
O741	O74	0.141700	0.700300	0.219900
O751	O75	0.151100	0.709500	0.308800
O761	O76	0.142800	0.865500	0.256400
O771	O77	0.067400	0.715400	0.274500
O781	O78	0.139000	0.822100	0.103000
O791	O79	0.114000	0.791800	0.303400
O801	O80	0.098700	0.777500	0.214200
O811	O81	0.815600	0.220900	0.254500
O821	O82	0.858300	0.299700	0.219900
O831	O83	0.848900	0.290500	0.308800
O841	O84	0.857200	0.134500	0.256400
O851	O85	0.932600	0.284600	0.274500
O861	O86	0.861000	0.177900	0.103000
O871	O87	0.886000	0.208200	0.303400
O881	O88	0.901300	0.222500	0.214200
O891	O89	0.184400	0.220900	0.745500
O901	O90	0.141700	0.299700	0.780100
O911	O91	0.151100	0.290500	0.691200
O921	O92	0.142800	0.134500	0.743600
O931	O93	0.067400	0.284600	0.725500
O941	O94	0.139000	0.177900	0.897000
O951	O95	0.114000	0.208200	0.696600
O961	O96	0.098700	0.222500	0.785800
O971	O97	0.315600	0.245500	0.720900
O981	O98	0.358300	0.280100	0.799700
O991	O99	0.348900	0.191200	0.790500
O1001	O100	0.357200	0.243600	0.634500
O1011	O101	0.432600	0.225500	0.784600
O1021	O102	0.361000	0.397000	0.677900
O1031	O103	0.386000	0.196600	0.708200
O1041	O104	0.401300	0.285800	0.722500
O1051	O105	0.684400	0.754500	0.720900
O1061	O106	0.641700	0.719900	0.799700
O1071	O107	0.651100	0.808800	0.790500
O1081	O108	0.642800	0.756400	0.634500
O1091	O109	0.567400	0.774500	0.784600
O1101	O110	0.639000	0.603000	0.677900
O1111	O111	0.614000	0.803400	0.708200
O1121	O112	0.598700	0.714200	0.722500
O1131	O113	0.315600	0.754500	0.279100
O1141	O114	0.358300	0.719900	0.200300
O1151	O115	0.348900	0.808800	0.209500
O1161	O116	0.357200	0.756400	0.365500
O1171	O117	0.432600	0.774500	0.215400
O1181	O118	0.361000	0.603000	0.322100
O1191	O119	0.386000	0.803400	0.291800
O1201	O120	0.401300	0.714200	0.277500
O1211	O121	0.684400	0.245500	0.279100
O1221	O122	0.641700	0.280100	0.200300
O1231	O123	0.651100	0.191200	0.209500
O1241	O124	0.642800	0.243600	0.365500
O1251	O125	0.567400	0.225500	0.215400
O1261	O126	0.639000	0.397000	0.322100
O1271	O127	0.614000	0.196600	0.291800
O1281	O128	0.598700	0.285800	0.277500
O1291	O129	0.245500	0.279100	0.684400
O1301	O130	0.280100	0.200300	0.641700
O1311	O131	0.191200	0.209500	0.651100
O1321	O132	0.243600	0.365500	0.642800
O1331	O133	0.225500	0.215400	0.567400
O1341	O134	0.397000	0.322100	0.639000
O1351	O135	0.196600	0.291800	0.614000
O1361	O136	0.285800	0.277500	0.598700
O1371	O137	0.754500	0.279100	0.315600
O1381	O138	0.719900	0.200300	0.358300
O1391	O139	0.808800	0.209500	0.348900
O1401	O140	0.756400	0.365500	0.357200
O1411	O141	0.774500	0.215400	0.432600
O1421	O142	0.603000	0.322100	0.361000
O1431	O143	0.803400	0.291800	0.386000
O1441	O144	0.714200	0.277500	0.401300
O1451	O145	0.754500	0.720900	0.684400
O1461	O146	0.719900	0.799700	0.641700
O1471	O147	0.808800	0.790500	0.651100
O1481	O148	0.756400	0.634500	0.642800
O1491	O149	0.774500	0.784600	0.567400
O1501	O150	0.603000	0.677900	0.639000
O1511	O151	0.803400	0.708200	0.614000
O1521	O152	0.714200	0.722500	0.598700
O1531	O153	0.245500	0.720900	0.315600
O1541	O154	0.280100	0.799700	0.358300
O1551	O155	0.191200	0.790500	0.348900
O1561	O156	0.243600	0.634500	0.357200
O1571	O157	0.225500	0.784600	0.432600
O1581	O158	0.397000	0.677900	0.361000
O1591	O159	0.196600	0.708200	0.386000
O1601	O160	0.285800	0.722500	0.401300
O1611	O161	0.279100	0.315600	0.754500
O1621	O162	0.200300	0.358300	0.719900
O1631	O163	0.209500	0.348900	0.808800
O1641	O164	0.365500	0.357200	0.756400
O1651	O165	0.215400	0.432600	0.774500
O1661	O166	0.322100	0.361000	0.603000
O1671	O167	0.291800	0.386000	0.803400
O1681	O168	0.277500	0.401300	0.714200
O1691	O169	0.279100	0.684400	0.245500
O1701	O170	0.200300	0.641700	0.280100
O1711	O171	0.209500	0.651100	0.191200
O1721	O172	0.365500	0.642800	0.243600
O1731	O173	0.215400	0.567400	0.225500
O1741	O174	0.322100	0.639000	0.397000
O1751	O175	0.291800	0.614000	0.196600
O1761	O176	0.277500	0.598700	0.285800
O1771	O177	0.720900	0.315600	0.245500
O1781	O178	0.799700	0.358300	0.280100
O1791	O179	0.790500	0.348900	0.191200
O1801	O180	0.634500	0.357200	0.243600
O1811	O181	0.784600	0.432600	0.225500
O1821	O182	0.677900	0.361000	0.397000
O1831	O183	0.708200	0.386000	0.196600
O1841	O184	0.722500	0.401300	0.285800
O1851	O185	0.720900	0.684400	0.754500
O1861	O186	0.799700	0.641700	0.719900
O1871	O187	0.790500	0.651100	0.808800
O1881	O188	0.634500	0.642800	0.756400
O1891	O189	0.784600	0.567400	0.774500
O1901	O190	0.677900	0.639000	0.603000
O1911	O191	0.708200	0.614000	0.803400
O1921	O192	0.722500	0.598700	0.714200
O1931	O193	0.254500	0.184400	0.220900
O1941	O194	0.219900	0.141700	0.299700
O1951	O195	0.308800	0.151100	0.290500
O1961	O196	0.256400	0.142800	0.134500
O1971	O197	0.274500	0.067400	0.284600
O1981	O198	0.103000	0.139000	0.177900
O1991	O199	0.303400	0.114000	0.208200
O2001	O200	0.214200	0.098700	0.222500
O2011	O201	0.745500	0.815600	0.220900
O2021	O202	0.780100	0.858300	0.299700
O2031	O203	0.691200	0.848900	0.290500
O2041	O204	0.743600	0.857200	0.134500
O2051	O205	0.725500	0.932600	0.284600
O2061	O206	0.897000	0.861000	0.177900
O2071	O207	0.696600	0.886000	0.208200
O2081	O208	0.785800	0.901300	0.222500
O2091	O209	0.745500	0.184400	0.779100
O2101	O210	0.780100	0.141700	0.700300
O2111	O211	0.691200	0.151100	0.709500
O2121	O212	0.743600	0.142800	0.865500
O2131	O213	0.725500	0.067400	0.715400
O2141	O214	0.897000	0.139000	0.822100
O2151	O215	0.696600	0.114000	0.791800
O2161	O216	0.785800	0.098700	0.777500
O2171	O217	0.254500	0.815600	0.779100
O2181	O218	0.219900	0.858300	0.700300
O2191	O219	0.308800	0.848900	0.709500
O2201	O220	0.256400	0.857200	0.865500
O2211	O221	0.274500	0.932600	0.715400
O2221	O222	0.103000	0.861000	0.822100
O2231	O223	0.303400	0.886000	0.791800
O2241	O224	0.214200	0.901300	0.777500
O2251	O225	0.220900	0.254500	0.184400
O2261	O226	0.299700	0.219900	0.141700
O2271	O227	0.290500	0.308800	0.151100
O2281	O228	0.134500	0.256400	0.142800
O2291	O229	0.284600	0.274500	0.067400
O2301	O230	0.177900	0.103000	0.139000
O2311	O231	0.208200	0.303400	0.114000
O2321	O232	0.222500	0.214200	0.098700
O2331	O233	0.220900	0.745500	0.815600
O2341	O234	0.299700	0.780100	0.858300
O2351	O235	0.290500	0.691200	0.848900
O2361	O236	0.134500	0.743600	0.857200
O2371	O237	0.284600	0.725500	0.932600
O2381	O238	0.177900	0.897000	0.861000
O2391	O239	0.208200	0.696600	0.886000
O2401	O240	0.222500	0.785800	0.901300
O2411	O241	0.779100	0.745500	0.184400
O2421	O242	0.700300	0.780100	0.141700
O2431	O243	0.709500	0.691200	0.151100
O2441	O244	0.865500	0.743600	0.142800
O2451	O245	0.715400	0.725500	0.067400
O2461	O246	0.822100	0.897000	0.139000
O2471	O247	0.791800	0.696600	0.114000
O2481	O248	0.777500	0.785800	0.098700
O2491	O249	0.779100	0.254500	0.815600
O2501	O250	0.700300	0.219900	0.858300
O2511	O251	0.709500	0.308800	0.848900
O2521	O252	0.865500	0.256400	0.857200
O2531	O253	0.715400	0.274500	0.932600
O2541	O254	0.822100	0.103000	0.861000
O2551	O255	0.791800	0.303400	0.886000
O2561	O256	0.777500	0.214200	0.901300
O2571	O257	0.184400	0.220900	0.254500
O2581	O258	0.141700	0.299700	0.219900
O2591	O259	0.151100	0.290500	0.308800
O2601	O260	0.142800	0.134500	0.256400
O2611	O261	0.067400	0.284600	0.274500
O2621	O262	0.139000	0.177900	0.103000
O2631	O263	0.114000	0.208200	0.303400
O2641	O264	0.098700	0.222500	0.214200
O2651	O265	0.815600	0.220900	0.745500
O2661	O266	0.858300	0.299700	0.780100
O2671	O267	0.848900	0.290500	0.691200
O2681	O268	0.857200	0.134500	0.743600
O2691	O269	0.932600	0.284600	0.725500
O2701	O270	0.861000	0.177900	0.897000
O2711	O271	0.886000	0.208200	0.696600
O2721	O272	0.901300	0.222500	0.785800
O2731	O273	0.184400	0.779100	0.745500
O2741	O274	0.141700	0.700300	0.780100
O2751	O275	0.151100	0.709500	0.691200
O2761	O276	0.142800	0.865500	0.743600
O2771	O277	0.067400	0.715400	0.725500
O2781	O278	0.139000	0.822100	0.897000
O2791	O279	0.114000	0.791800	0.696600
O2801	O280	0.098700	0.777500	0.785800
O2811	O281	0.815600	0.779100	0.254500
O2821	O282	0.858300	0.700300	0.219900
O2831	O283	0.848900	0.709500	0.308800
O2841	O284	0.857200	0.865500	0.256400
O2851	O285	0.932600	0.715400	0.274500
O2861	O286	0.861000	0.822100	0.103000
O2871	O287	0.886000	0.791800	0.303400
O2881	O288	0.901300	0.777500	0.214200
O2891	O289	0.684400	0.754500	0.279100
O2901	O290	0.641700	0.719900	0.200300
O2911	O291	0.651100	0.808800	0.209500
O2921	O292	0.642800	0.756400	0.365500
O2931	O293	0.567400	0.774500	0.215400
O2941	O294	0.639000	0.603000	0.322100
O2951	O295	0.614000	0.803400	0.291800
O2961	O296	0.598700	0.714200	0.277500
O2971	O297	0.315600	0.245500	0.279100
O2981	O298	0.358300	0.280100	0.200300
O2991	O299	0.348900	0.191200	0.209500
O3001	O300	0.357200	0.243600	0.365500
O3011	O301	0.432600	0.225500	0.215400
O3021	O302	0.361000	0.397000	0.322100
O3031	O303	0.386000	0.196600	0.291800
O3041	O304	0.401300	0.285800	0.277500
O3051	O305	0.684400	0.245500	0.720900
O3061	O306	0.641700	0.280100	0.799700
O3071	O307	0.651100	0.191200	0.790500
O3081	O308	0.642800	0.243600	0.634500
O3091	O309	0.567400	0.225500	0.784600
O3101	O310	0.639000	0.397000	0.677900
O3111	O311	0.614000	0.196600	0.708200
O3121	O312	0.598700	0.285800	0.722500
O3131	O313	0.315600	0.754500	0.720900
O3141	O314	0.358300	0.719900	0.799700
O3151	O315	0.348900	0.808800	0.790500
O3161	O316	0.357200	0.756400	0.634500
O3171	O317	0.432600	0.774500	0.784600
O3181	O318	0.361000	0.603000	0.677900
O3191	O319	0.386000	0.803400	0.708200
O3201	O320	0.401300	0.714200	0.722500
O3211	O321	0.754500	0.720900	0.315600
O3221	O322	0.719900	0.799700	0.358300
O3231	O323	0.808800	0.790500	0.348900
O3241	O324	0.756400	0.634500	0.357200
O3251	O325	0.774500	0.784600	0.432600
O3261	O326	0.603000	0.677900	0.361000
O3271	O327	0.803400	0.708200	0.386000
O3281	O328	0.714200	0.722500	0.401300
O3291	O329	0.245500	0.720900	0.684400
O3301	O330	0.280100	0.799700	0.641700
O3311	O331	0.191200	0.790500	0.651100
O3321	O332	0.243600	0.634500	0.642800
O3331	O333	0.225500	0.784600	0.567400
O3341	O334	0.397000	0.677900	0.639000
O3351	O335	0.196600	0.708200	0.614000
O3361	O336	0.285800	0.722500	0.598700
O3371	O337	0.245500	0.279100	0.315600
O3381	O338	0.280100	0.200300	0.358300
O3391	O339	0.191200	0.209500	0.348900
O3401	O340	0.243600	0.365500	0.357200
O3411	O341	0.225500	0.215400	0.432600
O3421	O342	0.397000	0.322100	0.361000
O3431	O343	0.196600	0.291800	0.386000
O3441	O344	0.285800	0.277500	0.401300
O3451	O345	0.754500	0.279100	0.684400
O3461	O346	0.719900	0.200300	0.641700
O3471	O347	0.808800	0.209500	0.651100
O3481	O348	0.756400	0.365500	0.642800
O3491	O349	0.774500	0.215400	0.567400
O3501	O350	0.603000	0.322100	0.639000
O3511	O351	0.803400	0.291800	0.614000
O3521	O352	0.714200	0.277500	0.598700
O3531	O353	0.720900	0.684400	0.245500
O3541	O354	0.799700	0.641700	0.280100
O3551	O355	0.790500	0.651100	0.191200
O3561	O356	0.634500	0.642800	0.243600
O3571	O357	0.784600	0.567400	0.225500
O3581	O358	0.677900	0.639000	0.397000
O3591	O359	0.708200	0.614000	0.196600
O3601	O360	0.722500	0.598700	0.285800
O3611	O361	0.720900	0.315600	0.754500
O3621	O362	0.799700	0.358300	0.719900
O3631	O363	0.790500	0.348900	0.808800
O3641	O364	0.634500	0.357200	0.756400
O3651	O365	0.784600	0.432600	0.774500
O3661	O366	0.677900	0.361000	0.603000
O3671	O367	0.708200	0.386000	0.803400
O3681	O368	0.722500	0.401300	0.714200
O3691	O369	0.279100	0.684400	0.754500
O3701	O370	0.200300	0.641700	0.719900
O3711	O371	0.209500	0.651100	0.808800
O3721	O372	0.365500	0.642800	0.756400
O3731	O373	0.215400	0.567400	0.774500
O3741	O374	0.322100	0.639000	0.603000
O3751	O375	0.291800	0.614000	0.803400
O3761	O376	0.277500	0.598700	0.714200
O3771	O377	0.279100	0.315600	0.245500
O3781	O378	0.200300	0.358300	0.280100
O3791	O379	0.209500	0.348900	0.191200
O3801	O380	0.365500	0.357200	0.243600
O3811	O381	0.215400	0.432600	0.225500
O3821	O382	0.322100	0.361000	0.397000
O3831	O383	0.291800	0.386000	0.196600
O3841	O384	0.277500	0.401300	0.285800
O3851	O385	0.820000	0.820000	0.820000
O3861	O386	0.180000	0.180000	0.820000
O3871	O387	0.180000	0.820000	0.180000
O3881	O388	0.820000	0.180000	0.180000
O3891	O389	0.320000	0.320000	0.680000
O3901	O390	0.680000	0.680000	0.680000
O3911	O391	0.320000	0.680000	0.320000
O3921	O392	0.680000	0.320000	0.320000
O3931	O393	0.180000	0.180000	0.180000
O3941	O394	0.820000	0.820000	0.180000
O3951	O395	0.820000	0.180000	0.820000
O3961	O396	0.180000	0.820000	0.820000
O3971	O397	0.680000	0.680000	0.320000
O3981	O398	0.320000	0.320000	0.320000
O3991	O399	0.680000	0.320000	0.680000
O4001	O400	0.320000	0.680000	0.680000
