data_ENESOH_clean_PM
_symmetry_space_group_name_H-M	'P1'
_cell_length_a	26.982900
_cell_length_b	37.605900
_cell_length_c	19.331400
_cell_angle_alpha	90.000000
_cell_angle_beta	90.000000
_cell_angle_gamma	90.000000
_symmetry_Int_Tables_number 1

loop_
_symmetry_equiv_pos_as_xyz
'x,y,z'

loop_
_atom_site_label
_atom_site_type_symbol
_atom_site_fract_x
_atom_site_fract_y
_atom_site_fract_z
C11	C1	0.311400	0.299160	0.582900
H11	H1	0.283000	0.299800	0.610200
N11	N1	0.312400	0.277910	0.527300
O11	O1	0.666400	0.627150	0.901100
C21	C2	0.352700	0.277820	0.488600
H21	H2	0.353500	0.263100	0.450000
N21	N2	0.555200	0.523020	0.806700
O21	O2	0.407100	0.381880	0.648900
C31	C3	0.393800	0.298700	0.503100
H31	H3	0.421500	0.298000	0.474400
N31	N3	0.447900	0.446990	0.803000
C41	C4	0.393200	0.320700	0.560600
H41	H4	0.420000	0.335200	0.571300
N41	N4	0.345400	0.340750	0.662000
H51	H5	0.321800	0.334400	0.689200
N51	N5	0.392500	0.407520	0.781100
C51	C5	0.351700	0.320380	0.600900
C61	C6	0.373000	0.369430	0.682100
N61	N6	0.410100	0.400510	0.844900
N71	N7	0.443800	0.423910	0.857600
C71	C7	0.353500	0.385400	0.749300
H61	H6	0.324400	0.399800	0.739900
H71	H7	0.344000	0.366500	0.780900
N81	N8	0.601600	0.590270	0.925700
H81	H8	0.580600	0.585300	0.957700
C81	C8	0.416000	0.436470	0.756300
H91	H9	0.410400	0.447100	0.713600
N91	N9	0.652400	0.665880	0.020100
C91	C9	0.563000	0.544200	0.862000
H101	H10	0.541000	0.542400	0.898900
N101	N10	0.676900	0.689380	0.982300
C101	C10	0.589200	0.524900	0.755500
H111	H11	0.584700	0.510700	0.716500
N111	N11	0.705400	0.708550	0.024300
C111	C11	0.630000	0.546700	0.758500
H121	H12	0.653300	0.546500	0.723000
N121	N12	0.695200	0.696390	0.090300
C121	C12	0.636300	0.569100	0.814500
H131	H13	0.663400	0.584400	0.816800
C131	C13	0.615200	0.640100	0.000800
H141	H14	0.584300	0.652300	0.990600
H151	H15	0.609300	0.624100	0.039300
C141	C14	0.663700	0.671210	0.087300
H161	H16	0.650800	0.658700	0.124700
C151	C15	0.631600	0.618560	0.937000
C161	C16	0.601500	0.568360	0.867400
C171	C17	0.188600	0.700840	0.082900
H171	H17	0.217000	0.700200	0.110200
N131	N13	0.187600	0.722090	0.027300
O31	O3	0.833600	0.372850	0.401100
C181	C18	0.147300	0.722180	0.988600
H181	H18	0.146500	0.736900	0.950000
N141	N14	0.944800	0.476980	0.306700
O41	O4	0.092900	0.618120	0.148900
C191	C19	0.106200	0.701300	0.003100
H191	H19	0.078500	0.702000	0.974400
N151	N15	0.052100	0.553010	0.303000
C201	C20	0.106800	0.679300	0.060600
H201	H20	0.080000	0.664800	0.071300
N161	N16	0.154600	0.659250	0.162000
H211	H21	0.178200	0.665600	0.189200
N171	N17	0.107500	0.592480	0.281100
C211	C21	0.148300	0.679620	0.100900
C221	C22	0.127000	0.630570	0.182100
N181	N18	0.089900	0.599490	0.344900
N191	N19	0.056200	0.576090	0.357600
C231	C23	0.146500	0.614600	0.249300
H221	H22	0.175600	0.600200	0.239900
H231	H23	0.156000	0.633500	0.280900
N201	N20	0.898400	0.409730	0.425700
H241	H24	0.919400	0.414700	0.457700
C241	C24	0.084000	0.563530	0.256300
H251	H25	0.089600	0.552900	0.213600
N211	N21	0.847600	0.334120	0.520100
C251	C25	0.937000	0.455800	0.362000
H261	H26	0.959000	0.457600	0.398900
N221	N22	0.823100	0.310620	0.482300
C261	C26	0.910800	0.475100	0.255500
H271	H27	0.915300	0.489300	0.216500
N231	N23	0.794600	0.291450	0.524300
C271	C27	0.870000	0.453300	0.258500
H281	H28	0.846700	0.453500	0.223000
N241	N24	0.804800	0.303610	0.590300
C281	C28	0.863700	0.430900	0.314500
H291	H29	0.836600	0.415600	0.316800
C291	C29	0.884800	0.359900	0.500800
H301	H30	0.915700	0.347700	0.490600
H311	H31	0.890700	0.375900	0.539300
C301	C30	0.836300	0.328790	0.587300
H321	H32	0.849200	0.341300	0.624700
C311	C31	0.868400	0.381440	0.437000
C321	C32	0.898500	0.431640	0.367400
C331	C33	0.688600	0.799160	0.917100
H331	H33	0.717000	0.799800	0.889800
N251	N25	0.687600	0.777910	0.972700
O51	O5	0.333600	0.127150	0.598900
C341	C34	0.647300	0.777820	0.011400
H341	H34	0.646500	0.763100	0.050000
N261	N26	0.444800	0.023020	0.693300
O61	O6	0.592900	0.881880	0.851100
C351	C35	0.606200	0.798700	0.996900
H351	H35	0.578500	0.798000	0.025600
N271	N27	0.552100	0.946990	0.697000
C361	C36	0.606800	0.820700	0.939400
H361	H36	0.580000	0.835200	0.928700
N281	N28	0.654600	0.840750	0.838000
H371	H37	0.678200	0.834400	0.810800
N291	N29	0.607500	0.907520	0.718900
C371	C37	0.648300	0.820380	0.899100
C381	C38	0.627000	0.869430	0.817900
N301	N30	0.589900	0.900510	0.655100
N311	N31	0.556200	0.923910	0.642400
C391	C39	0.646500	0.885400	0.750700
H381	H38	0.675600	0.899800	0.760100
H391	H39	0.656000	0.866500	0.719100
N321	N32	0.398400	0.090270	0.574300
H401	H40	0.419400	0.085300	0.542300
C401	C40	0.584000	0.936470	0.743700
H411	H41	0.589600	0.947100	0.786400
N331	N33	0.347600	0.165880	0.479900
C411	C41	0.437000	0.044200	0.638000
H421	H42	0.459000	0.042400	0.601100
N341	N34	0.323100	0.189380	0.517700
C421	C42	0.410800	0.024900	0.744500
H431	H43	0.415300	0.010700	0.783500
N351	N35	0.294600	0.208550	0.475700
C431	C43	0.370000	0.046700	0.741500
H441	H44	0.346700	0.046500	0.777000
N361	N36	0.304800	0.196390	0.409700
C441	C44	0.363700	0.069100	0.685500
H451	H45	0.336600	0.084400	0.683200
C451	C45	0.384800	0.140100	0.499200
H461	H46	0.415700	0.152300	0.509400
H471	H47	0.390700	0.124100	0.460700
C461	C46	0.336300	0.171210	0.412700
H481	H48	0.349200	0.158700	0.375300
C471	C47	0.368400	0.118560	0.563000
C481	C48	0.398500	0.068360	0.632600
C491	C49	0.811400	0.200840	0.417100
H491	H49	0.783000	0.200200	0.389800
N371	N37	0.812400	0.222090	0.472700
O71	O7	0.166400	0.872850	0.098900
C501	C50	0.852700	0.222180	0.511400
H501	H50	0.853500	0.236900	0.550000
N381	N38	0.055200	0.976980	0.193300
O81	O8	0.907100	0.118120	0.351100
C511	C51	0.893800	0.201300	0.496900
H511	H51	0.921500	0.202000	0.525600
N391	N39	0.947900	0.053010	0.197000
C521	C52	0.893200	0.179300	0.439400
H521	H52	0.920000	0.164800	0.428700
N401	N40	0.845400	0.159250	0.338000
H531	H53	0.821800	0.165600	0.310800
N411	N41	0.892500	0.092480	0.218900
C531	C53	0.851700	0.179620	0.399100
C541	C54	0.873000	0.130570	0.317900
N421	N42	0.910100	0.099490	0.155100
N431	N43	0.943800	0.076090	0.142400
C551	C55	0.853500	0.114600	0.250700
H541	H54	0.824400	0.100200	0.260100
H551	H55	0.844000	0.133500	0.219100
N441	N44	0.101600	0.909730	0.074300
H561	H56	0.080600	0.914700	0.042300
C561	C56	0.916000	0.063530	0.243700
H571	H57	0.910400	0.052900	0.286400
N451	N45	0.152400	0.834120	0.979900
C571	C57	0.063000	0.955800	0.138000
H581	H58	0.041000	0.957600	0.101100
N461	N46	0.176900	0.810620	0.017700
C581	C58	0.089200	0.975100	0.244500
H591	H59	0.084700	0.989300	0.283500
N471	N47	0.205400	0.791450	0.975700
C591	C59	0.130000	0.953300	0.241500
H601	H60	0.153300	0.953500	0.277000
N481	N48	0.195200	0.803610	0.909700
C601	C60	0.136300	0.930900	0.185500
H611	H61	0.163400	0.915600	0.183200
C611	C61	0.115200	0.859900	0.999200
H621	H62	0.084300	0.847700	0.009400
H631	H63	0.109300	0.875900	0.960700
C621	C62	0.163700	0.828790	0.912700
H641	H64	0.150800	0.841300	0.875300
C631	C63	0.131600	0.881440	0.063000
C641	C64	0.101500	0.931640	0.132600
C651	C65	0.188600	0.200840	0.417100
H651	H65	0.217000	0.200200	0.389800
N491	N49	0.187600	0.222090	0.472700
O91	O9	0.833600	0.872850	0.098900
C661	C66	0.147300	0.222180	0.511400
H661	H66	0.146500	0.236900	0.550000
N501	N50	0.944800	0.976980	0.193300
O101	O10	0.092900	0.118120	0.351100
C671	C67	0.106200	0.201300	0.496900
H671	H67	0.078500	0.202000	0.525600
N511	N51	0.052100	0.053010	0.197000
C681	C68	0.106800	0.179300	0.439400
H681	H68	0.080000	0.164800	0.428700
N521	N52	0.154600	0.159250	0.338000
H691	H69	0.178200	0.165600	0.310800
N531	N53	0.107500	0.092480	0.218900
C691	C69	0.148300	0.179620	0.399100
C701	C70	0.127000	0.130570	0.317900
N541	N54	0.089900	0.099490	0.155100
N551	N55	0.056200	0.076090	0.142400
C711	C71	0.146500	0.114600	0.250700
H701	H70	0.175600	0.100200	0.260100
H711	H71	0.156000	0.133500	0.219100
N561	N56	0.898400	0.909730	0.074300
H721	H72	0.919400	0.914700	0.042300
C721	C72	0.084000	0.063530	0.243700
H731	H73	0.089600	0.052900	0.286400
N571	N57	0.847600	0.834120	0.979900
C731	C73	0.937000	0.955800	0.138000
H741	H74	0.959000	0.957600	0.101100
N581	N58	0.823100	0.810620	0.017700
C741	C74	0.910800	0.975100	0.244500
H751	H75	0.915300	0.989300	0.283500
N591	N59	0.794600	0.791450	0.975700
C751	C75	0.870000	0.953300	0.241500
H761	H76	0.846700	0.953500	0.277000
N601	N60	0.804800	0.803610	0.909700
C761	C76	0.863700	0.930900	0.185500
H771	H77	0.836600	0.915600	0.183200
C771	C77	0.884800	0.859900	0.999200
H781	H78	0.915700	0.847700	0.009400
H791	H79	0.890700	0.875900	0.960700
C781	C78	0.836300	0.828790	0.912700
H801	H80	0.849200	0.841300	0.875300
C791	C79	0.868400	0.881440	0.063000
C801	C80	0.898500	0.931640	0.132600
C811	C81	0.311400	0.799160	0.917100
H811	H81	0.283000	0.799800	0.889800
N611	N61	0.312400	0.777910	0.972700
O111	O11	0.666400	0.127150	0.598900
C821	C82	0.352700	0.777820	0.011400
H821	H82	0.353500	0.763100	0.050000
N621	N62	0.555200	0.023020	0.693300
O121	O12	0.407100	0.881880	0.851100
C831	C83	0.393800	0.798700	0.996900
H831	H83	0.421500	0.798000	0.025600
N631	N63	0.447900	0.946990	0.697000
C841	C84	0.393200	0.820700	0.939400
H841	H84	0.420000	0.835200	0.928700
N641	N64	0.345400	0.840750	0.838000
H851	H85	0.321800	0.834400	0.810800
N651	N65	0.392500	0.907520	0.718900
C851	C85	0.351700	0.820380	0.899100
C861	C86	0.373000	0.869430	0.817900
N661	N66	0.410100	0.900510	0.655100
N671	N67	0.443800	0.923910	0.642400
C871	C87	0.353500	0.885400	0.750700
H861	H86	0.324400	0.899800	0.760100
H871	H87	0.344000	0.866500	0.719100
N681	N68	0.601600	0.090270	0.574300
H881	H88	0.580600	0.085300	0.542300
C881	C88	0.416000	0.936470	0.743700
H891	H89	0.410400	0.947100	0.786400
N691	N69	0.652400	0.165880	0.479900
C891	C89	0.563000	0.044200	0.638000
H901	H90	0.541000	0.042400	0.601100
N701	N70	0.676900	0.189380	0.517700
C901	C90	0.589200	0.024900	0.744500
H911	H91	0.584700	0.010700	0.783500
N711	N71	0.705400	0.208550	0.475700
C911	C91	0.630000	0.046700	0.741500
H921	H92	0.653300	0.046500	0.777000
N721	N72	0.695200	0.196390	0.409700
C921	C92	0.636300	0.069100	0.685500
H931	H93	0.663400	0.084400	0.683200
C931	C93	0.615200	0.140100	0.499200
H941	H94	0.584300	0.152300	0.509400
H951	H95	0.609300	0.124100	0.460700
C941	C94	0.663700	0.171210	0.412700
H961	H96	0.650800	0.158700	0.375300
C951	C95	0.631600	0.118560	0.563000
C961	C96	0.601500	0.068360	0.632600
C971	C97	0.811400	0.700840	0.082900
H971	H97	0.783000	0.700200	0.110200
N731	N73	0.812400	0.722090	0.027300
O131	O13	0.166400	0.372850	0.401100
C981	C98	0.852700	0.722180	0.988600
H981	H98	0.853500	0.736900	0.950000
N741	N74	0.055200	0.476980	0.306700
O141	O14	0.907100	0.618120	0.148900
C991	C99	0.893800	0.701300	0.003100
H991	H99	0.921500	0.702000	0.974400
N751	N75	0.947900	0.553010	0.303000
C1001	C100	0.893200	0.679300	0.060600
H1001	H100	0.920000	0.664800	0.071300
N761	N76	0.845400	0.659250	0.162000
H1011	H101	0.821800	0.665600	0.189200
N771	N77	0.892500	0.592480	0.281100
C1011	C101	0.851700	0.679620	0.100900
C1021	C102	0.873000	0.630570	0.182100
N781	N78	0.910100	0.599490	0.344900
N791	N79	0.943800	0.576090	0.357600
C1031	C103	0.853500	0.614600	0.249300
H1021	H102	0.824400	0.600200	0.239900
H1031	H103	0.844000	0.633500	0.280900
N801	N80	0.101600	0.409730	0.425700
H1041	H104	0.080600	0.414700	0.457700
C1041	C104	0.916000	0.563530	0.256300
H1051	H105	0.910400	0.552900	0.213600
N811	N81	0.152400	0.334120	0.520100
C1051	C105	0.063000	0.455800	0.362000
H1061	H106	0.041000	0.457600	0.398900
N821	N82	0.176900	0.310620	0.482300
C1061	C106	0.089200	0.475100	0.255500
H1071	H107	0.084700	0.489300	0.216500
N831	N83	0.205400	0.291450	0.524300
C1071	C107	0.130000	0.453300	0.258500
H1081	H108	0.153300	0.453500	0.223000
N841	N84	0.195200	0.303610	0.590300
C1081	C108	0.136300	0.430900	0.314500
H1091	H109	0.163400	0.415600	0.316800
C1091	C109	0.115200	0.359900	0.500800
H1101	H110	0.084300	0.347700	0.490600
H1111	H111	0.109300	0.375900	0.539300
C1101	C110	0.163700	0.328790	0.587300
H1121	H112	0.150800	0.341300	0.624700
C1111	C111	0.131600	0.381440	0.437000
C1121	C112	0.101500	0.431640	0.367400
C1131	C113	0.688600	0.299160	0.582900
H1131	H113	0.717000	0.299800	0.610200
N851	N85	0.687600	0.277910	0.527300
O151	O15	0.333600	0.627150	0.901100
C1141	C114	0.647300	0.277820	0.488600
H1141	H114	0.646500	0.263100	0.450000
N861	N86	0.444800	0.523020	0.806700
O161	O16	0.592900	0.381880	0.648900
C1151	C115	0.606200	0.298700	0.503100
H1151	H115	0.578500	0.298000	0.474400
N871	N87	0.552100	0.446990	0.803000
C1161	C116	0.606800	0.320700	0.560600
H1161	H116	0.580000	0.335200	0.571300
N881	N88	0.654600	0.340750	0.662000
H1171	H117	0.678200	0.334400	0.689200
N891	N89	0.607500	0.407520	0.781100
C1171	C117	0.648300	0.320380	0.600900
C1181	C118	0.627000	0.369430	0.682100
N901	N90	0.589900	0.400510	0.844900
N911	N91	0.556200	0.423910	0.857600
C1191	C119	0.646500	0.385400	0.749300
H1181	H118	0.675600	0.399800	0.739900
H1191	H119	0.656000	0.366500	0.780900
N921	N92	0.398400	0.590270	0.925700
H1201	H120	0.419400	0.585300	0.957700
C1201	C120	0.584000	0.436470	0.756300
H1211	H121	0.589600	0.447100	0.713600
N931	N93	0.347600	0.665880	0.020100
C1211	C121	0.437000	0.544200	0.862000
H1221	H122	0.459000	0.542400	0.898900
N941	N94	0.323100	0.689380	0.982300
C1221	C122	0.410800	0.524900	0.755500
H1231	H123	0.415300	0.510700	0.716500
N951	N95	0.294600	0.708550	0.024300
C1231	C123	0.370000	0.546700	0.758500
H1241	H124	0.346700	0.546500	0.723000
N961	N96	0.304800	0.696390	0.090300
C1241	C124	0.363700	0.569100	0.814500
H1251	H125	0.336600	0.584400	0.816800
C1251	C125	0.384800	0.640100	0.000800
H1261	H126	0.415700	0.652300	0.990600
H1271	H127	0.390700	0.624100	0.039300
C1261	C126	0.336300	0.671210	0.087300
H1281	H128	0.349200	0.658700	0.124700
C1271	C127	0.368400	0.618560	0.937000
C1281	C128	0.398500	0.568360	0.867400
Cu11	Cu1	0.500000	0.486160	0.804910
Cu21	Cu2	0.000000	0.513840	0.304910
Cu31	Cu3	0.500000	0.986160	0.695090
Cu41	Cu4	0.000000	0.013840	0.195090
Cu51	Cu5	0.250000	0.250000	0.500000
Cu61	Cu6	0.750000	0.750000	0.000000
Cu71	Cu7	0.250000	0.750000	0.000000
Cu81	Cu8	0.750000	0.250000	0.500000
C1291	C129	0.811400	0.799160	0.582900
H1291	H129	0.783000	0.799800	0.610200
N971	N97	0.812400	0.777910	0.527300
O171	O17	0.166400	0.127150	0.901100
C1301	C130	0.852700	0.777820	0.488600
H1301	H130	0.853500	0.763100	0.450000
N981	N98	0.055200	0.023020	0.806700
O181	O18	0.907100	0.881880	0.648900
C1311	C131	0.893800	0.798700	0.503100
H1311	H131	0.921500	0.798000	0.474400
N991	N99	0.947900	0.946990	0.803000
C1321	C132	0.893200	0.820700	0.560600
H1321	H132	0.920000	0.835200	0.571300
N1001	N100	0.845400	0.840750	0.662000
H1331	H133	0.821800	0.834400	0.689200
N1011	N101	0.892500	0.907520	0.781100
C1331	C133	0.851700	0.820380	0.600900
C1341	C134	0.873000	0.869430	0.682100
N1021	N102	0.910100	0.900510	0.844900
N1031	N103	0.943800	0.923910	0.857600
C1351	C135	0.853500	0.885400	0.749300
H1341	H134	0.824400	0.899800	0.739900
H1351	H135	0.844000	0.866500	0.780900
N1041	N104	0.101600	0.090270	0.925700
H1361	H136	0.080600	0.085300	0.957700
C1361	C136	0.916000	0.936470	0.756300
H1371	H137	0.910400	0.947100	0.713600
N1051	N105	0.152400	0.165880	0.020100
C1371	C137	0.063000	0.044200	0.862000
H1381	H138	0.041000	0.042400	0.898900
N1061	N106	0.176900	0.189380	0.982300
C1381	C138	0.089200	0.024900	0.755500
H1391	H139	0.084700	0.010700	0.716500
N1071	N107	0.205400	0.208550	0.024300
C1391	C139	0.130000	0.046700	0.758500
H1401	H140	0.153300	0.046500	0.723000
N1081	N108	0.195200	0.196390	0.090300
C1401	C140	0.136300	0.069100	0.814500
H1411	H141	0.163400	0.084400	0.816800
C1411	C141	0.115200	0.140100	0.000800
H1421	H142	0.084300	0.152300	0.990600
H1431	H143	0.109300	0.124100	0.039300
C1421	C142	0.163700	0.171210	0.087300
H1441	H144	0.150800	0.158700	0.124700
C1431	C143	0.131600	0.118560	0.937000
C1441	C144	0.101500	0.068360	0.867400
C1451	C145	0.688600	0.200840	0.082900
H1451	H145	0.717000	0.200200	0.110200
N1091	N109	0.687600	0.222090	0.027300
O191	O19	0.333600	0.872850	0.401100
C1461	C146	0.647300	0.222180	0.988600
H1461	H146	0.646500	0.236900	0.950000
N1101	N110	0.444800	0.976980	0.306700
O201	O20	0.592900	0.118120	0.148900
C1471	C147	0.606200	0.201300	0.003100
H1471	H147	0.578500	0.202000	0.974400
N1111	N111	0.552100	0.053010	0.303000
C1481	C148	0.606800	0.179300	0.060600
H1481	H148	0.580000	0.164800	0.071300
N1121	N112	0.654600	0.159250	0.162000
H1491	H149	0.678200	0.165600	0.189200
N1131	N113	0.607500	0.092480	0.281100
C1491	C149	0.648300	0.179620	0.100900
C1501	C150	0.627000	0.130570	0.182100
N1141	N114	0.589900	0.099490	0.344900
N1151	N115	0.556200	0.076090	0.357600
C1511	C151	0.646500	0.114600	0.249300
H1501	H150	0.675600	0.100200	0.239900
H1511	H151	0.656000	0.133500	0.280900
N1161	N116	0.398400	0.909730	0.425700
H1521	H152	0.419400	0.914700	0.457700
C1521	C152	0.584000	0.063530	0.256300
H1531	H153	0.589600	0.052900	0.213600
N1171	N117	0.347600	0.834120	0.520100
C1531	C153	0.437000	0.955800	0.362000
H1541	H154	0.459000	0.957600	0.398900
N1181	N118	0.323100	0.810620	0.482300
C1541	C154	0.410800	0.975100	0.255500
H1551	H155	0.415300	0.989300	0.216500
N1191	N119	0.294600	0.791450	0.524300
C1551	C155	0.370000	0.953300	0.258500
H1561	H156	0.346700	0.953500	0.223000
N1201	N120	0.304800	0.803610	0.590300
C1561	C156	0.363700	0.930900	0.314500
H1571	H157	0.336600	0.915600	0.316800
C1571	C157	0.384800	0.859900	0.500800
H1581	H158	0.415700	0.847700	0.490600
H1591	H159	0.390700	0.875900	0.539300
C1581	C158	0.336300	0.828790	0.587300
H1601	H160	0.349200	0.841300	0.624700
C1591	C159	0.368400	0.881440	0.437000
C1601	C160	0.398500	0.931640	0.367400
C1611	C161	0.188600	0.299160	0.917100
H1611	H161	0.217000	0.299800	0.889800
N1211	N121	0.187600	0.277910	0.972700
O211	O21	0.833600	0.627150	0.598900
C1621	C162	0.147300	0.277820	0.011400
H1621	H162	0.146500	0.263100	0.050000
N1221	N122	0.944800	0.523020	0.693300
O221	O22	0.092900	0.381880	0.851100
C1631	C163	0.106200	0.298700	0.996900
H1631	H163	0.078500	0.298000	0.025600
N1231	N123	0.052100	0.446990	0.697000
C1641	C164	0.106800	0.320700	0.939400
H1641	H164	0.080000	0.335200	0.928700
N1241	N124	0.154600	0.340750	0.838000
H1651	H165	0.178200	0.334400	0.810800
N1251	N125	0.107500	0.407520	0.718900
C1651	C165	0.148300	0.320380	0.899100
C1661	C166	0.127000	0.369430	0.817900
N1261	N126	0.089900	0.400510	0.655100
N1271	N127	0.056200	0.423910	0.642400
C1671	C167	0.146500	0.385400	0.750700
H1661	H166	0.175600	0.399800	0.760100
H1671	H167	0.156000	0.366500	0.719100
N1281	N128	0.898400	0.590270	0.574300
H1681	H168	0.919400	0.585300	0.542300
C1681	C168	0.084000	0.436470	0.743700
H1691	H169	0.089600	0.447100	0.786400
N1291	N129	0.847600	0.665880	0.479900
C1691	C169	0.937000	0.544200	0.638000
H1701	H170	0.959000	0.542400	0.601100
N1301	N130	0.823100	0.689380	0.517700
C1701	C170	0.910800	0.524900	0.744500
H1711	H171	0.915300	0.510700	0.783500
N1311	N131	0.794600	0.708550	0.475700
C1711	C171	0.870000	0.546700	0.741500
H1721	H172	0.846700	0.546500	0.777000
N1321	N132	0.804800	0.696390	0.409700
C1721	C172	0.863700	0.569100	0.685500
H1731	H173	0.836600	0.584400	0.683200
C1731	C173	0.884800	0.640100	0.499200
H1741	H174	0.915700	0.652300	0.509400
H1751	H175	0.890700	0.624100	0.460700
C1741	C174	0.836300	0.671210	0.412700
H1761	H176	0.849200	0.658700	0.375300
C1751	C175	0.868400	0.618560	0.563000
C1761	C176	0.898500	0.568360	0.632600
C1771	C177	0.311400	0.700840	0.417100
H1771	H177	0.283000	0.700200	0.389800
N1331	N133	0.312400	0.722090	0.472700
O231	O23	0.666400	0.372850	0.098900
C1781	C178	0.352700	0.722180	0.511400
H1781	H178	0.353500	0.736900	0.550000
N1341	N134	0.555200	0.476980	0.193300
O241	O24	0.407100	0.618120	0.351100
C1791	C179	0.393800	0.701300	0.496900
H1791	H179	0.421500	0.702000	0.525600
N1351	N135	0.447900	0.553010	0.197000
C1801	C180	0.393200	0.679300	0.439400
H1801	H180	0.420000	0.664800	0.428700
N1361	N136	0.345400	0.659250	0.338000
H1811	H181	0.321800	0.665600	0.310800
N1371	N137	0.392500	0.592480	0.218900
C1811	C181	0.351700	0.679620	0.399100
C1821	C182	0.373000	0.630570	0.317900
N1381	N138	0.410100	0.599490	0.155100
N1391	N139	0.443800	0.576090	0.142400
C1831	C183	0.353500	0.614600	0.250700
H1821	H182	0.324400	0.600200	0.260100
H1831	H183	0.344000	0.633500	0.219100
N1401	N140	0.601600	0.409730	0.074300
H1841	H184	0.580600	0.414700	0.042300
C1841	C184	0.416000	0.563530	0.243700
H1851	H185	0.410400	0.552900	0.286400
N1411	N141	0.652400	0.334120	0.979900
C1851	C185	0.563000	0.455800	0.138000
H1861	H186	0.541000	0.457600	0.101100
N1421	N142	0.676900	0.310620	0.017700
C1861	C186	0.589200	0.475100	0.244500
H1871	H187	0.584700	0.489300	0.283500
N1431	N143	0.705400	0.291450	0.975700
C1871	C187	0.630000	0.453300	0.241500
H1881	H188	0.653300	0.453500	0.277000
N1441	N144	0.695200	0.303610	0.909700
C1881	C188	0.636300	0.430900	0.185500
H1891	H189	0.663400	0.415600	0.183200
C1891	C189	0.615200	0.359900	0.999200
H1901	H190	0.584300	0.347700	0.009400
H1911	H191	0.609300	0.375900	0.960700
C1901	C190	0.663700	0.328790	0.912700
H1921	H192	0.650800	0.341300	0.875300
C1911	C191	0.631600	0.381440	0.063000
C1921	C192	0.601500	0.431640	0.132600
C1931	C193	0.688600	0.700840	0.417100
H1931	H193	0.717000	0.700200	0.389800
N1451	N145	0.687600	0.722090	0.472700
O251	O25	0.333600	0.372850	0.098900
C1941	C194	0.647300	0.722180	0.511400
H1941	H194	0.646500	0.736900	0.550000
N1461	N146	0.444800	0.476980	0.193300
O261	O26	0.592900	0.618120	0.351100
C1951	C195	0.606200	0.701300	0.496900
H1951	H195	0.578500	0.702000	0.525600
N1471	N147	0.552100	0.553010	0.197000
C1961	C196	0.606800	0.679300	0.439400
H1961	H196	0.580000	0.664800	0.428700
N1481	N148	0.654600	0.659250	0.338000
H1971	H197	0.678200	0.665600	0.310800
N1491	N149	0.607500	0.592480	0.218900
C1971	C197	0.648300	0.679620	0.399100
C1981	C198	0.627000	0.630570	0.317900
N1501	N150	0.589900	0.599490	0.155100
N1511	N151	0.556200	0.576090	0.142400
C1991	C199	0.646500	0.614600	0.250700
H1981	H198	0.675600	0.600200	0.260100
H1991	H199	0.656000	0.633500	0.219100
N1521	N152	0.398400	0.409730	0.074300
H2001	H200	0.419400	0.414700	0.042300
C2001	C200	0.584000	0.563530	0.243700
H2011	H201	0.589600	0.552900	0.286400
N1531	N153	0.347600	0.334120	0.979900
C2011	C201	0.437000	0.455800	0.138000
H2021	H202	0.459000	0.457600	0.101100
N1541	N154	0.323100	0.310620	0.017700
C2021	C202	0.410800	0.475100	0.244500
H2031	H203	0.415300	0.489300	0.283500
N1551	N155	0.294600	0.291450	0.975700
C2031	C203	0.370000	0.453300	0.241500
H2041	H204	0.346700	0.453500	0.277000
N1561	N156	0.304800	0.303610	0.909700
C2041	C204	0.363700	0.430900	0.185500
H2051	H205	0.336600	0.415600	0.183200
C2051	C205	0.384800	0.359900	0.999200
H2061	H206	0.415700	0.347700	0.009400
H2071	H207	0.390700	0.375900	0.960700
C2061	C206	0.336300	0.328790	0.912700
H2081	H208	0.349200	0.341300	0.875300
C2071	C207	0.368400	0.381440	0.063000
C2081	C208	0.398500	0.431640	0.132600
C2091	C209	0.811400	0.299160	0.917100
H2091	H209	0.783000	0.299800	0.889800
N1571	N157	0.812400	0.277910	0.972700
O271	O27	0.166400	0.627150	0.598900
C2101	C210	0.852700	0.277820	0.011400
H2101	H210	0.853500	0.263100	0.050000
N1581	N158	0.055200	0.523020	0.693300
O281	O28	0.907100	0.381880	0.851100
C2111	C211	0.893800	0.298700	0.996900
H2111	H211	0.921500	0.298000	0.025600
N1591	N159	0.947900	0.446990	0.697000
C2121	C212	0.893200	0.320700	0.939400
H2121	H212	0.920000	0.335200	0.928700
N1601	N160	0.845400	0.340750	0.838000
H2131	H213	0.821800	0.334400	0.810800
N1611	N161	0.892500	0.407520	0.718900
C2131	C213	0.851700	0.320380	0.899100
C2141	C214	0.873000	0.369430	0.817900
N1621	N162	0.910100	0.400510	0.655100
N1631	N163	0.943800	0.423910	0.642400
C2151	C215	0.853500	0.385400	0.750700
H2141	H214	0.824400	0.399800	0.760100
H2151	H215	0.844000	0.366500	0.719100
N1641	N164	0.101600	0.590270	0.574300
H2161	H216	0.080600	0.585300	0.542300
C2161	C216	0.916000	0.436470	0.743700
H2171	H217	0.910400	0.447100	0.786400
N1651	N165	0.152400	0.665880	0.479900
C2171	C217	0.063000	0.544200	0.638000
H2181	H218	0.041000	0.542400	0.601100
N1661	N166	0.176900	0.689380	0.517700
C2181	C218	0.089200	0.524900	0.744500
H2191	H219	0.084700	0.510700	0.783500
N1671	N167	0.205400	0.708550	0.475700
C2191	C219	0.130000	0.546700	0.741500
H2201	H220	0.153300	0.546500	0.777000
N1681	N168	0.195200	0.696390	0.409700
C2201	C220	0.136300	0.569100	0.685500
H2211	H221	0.163400	0.584400	0.683200
C2211	C221	0.115200	0.640100	0.499200
H2221	H222	0.084300	0.652300	0.509400
H2231	H223	0.109300	0.624100	0.460700
C2221	C222	0.163700	0.671210	0.412700
H2241	H224	0.150800	0.658700	0.375300
C2231	C223	0.131600	0.618560	0.563000
C2241	C224	0.101500	0.568360	0.632600
C2251	C225	0.311400	0.200840	0.082900
H2251	H225	0.283000	0.200200	0.110200
N1691	N169	0.312400	0.222090	0.027300
O291	O29	0.666400	0.872850	0.401100
C2261	C226	0.352700	0.222180	0.988600
H2261	H226	0.353500	0.236900	0.950000
N1701	N170	0.555200	0.976980	0.306700
O301	O30	0.407100	0.118120	0.148900
C2271	C227	0.393800	0.201300	0.003100
H2271	H227	0.421500	0.202000	0.974400
N1711	N171	0.447900	0.053010	0.303000
C2281	C228	0.393200	0.179300	0.060600
H2281	H228	0.420000	0.164800	0.071300
N1721	N172	0.345400	0.159250	0.162000
H2291	H229	0.321800	0.165600	0.189200
N1731	N173	0.392500	0.092480	0.281100
C2291	C229	0.351700	0.179620	0.100900
C2301	C230	0.373000	0.130570	0.182100
N1741	N174	0.410100	0.099490	0.344900
N1751	N175	0.443800	0.076090	0.357600
C2311	C231	0.353500	0.114600	0.249300
H2301	H230	0.324400	0.100200	0.239900
H2311	H231	0.344000	0.133500	0.280900
N1761	N176	0.601600	0.909730	0.425700
H2321	H232	0.580600	0.914700	0.457700
C2321	C232	0.416000	0.063530	0.256300
H2331	H233	0.410400	0.052900	0.213600
N1771	N177	0.652400	0.834120	0.520100
C2331	C233	0.563000	0.955800	0.362000
H2341	H234	0.541000	0.957600	0.398900
N1781	N178	0.676900	0.810620	0.482300
C2341	C234	0.589200	0.975100	0.255500
H2351	H235	0.584700	0.989300	0.216500
N1791	N179	0.705400	0.791450	0.524300
C2351	C235	0.630000	0.953300	0.258500
H2361	H236	0.653300	0.953500	0.223000
N1801	N180	0.695200	0.803610	0.590300
C2361	C236	0.636300	0.930900	0.314500
H2371	H237	0.663400	0.915600	0.316800
C2371	C237	0.615200	0.859900	0.500800
H2381	H238	0.584300	0.847700	0.490600
H2391	H239	0.609300	0.875900	0.539300
C2381	C238	0.663700	0.828790	0.587300
H2401	H240	0.650800	0.841300	0.624700
C2391	C239	0.631600	0.881440	0.437000
C2401	C240	0.601500	0.931640	0.367400
C2411	C241	0.188600	0.799160	0.582900
H2411	H241	0.217000	0.799800	0.610200
N1811	N181	0.187600	0.777910	0.527300
O311	O31	0.833600	0.127150	0.901100
C2421	C242	0.147300	0.777820	0.488600
H2421	H242	0.146500	0.763100	0.450000
N1821	N182	0.944800	0.023020	0.806700
O321	O32	0.092900	0.881880	0.648900
C2431	C243	0.106200	0.798700	0.503100
H2431	H243	0.078500	0.798000	0.474400
N1831	N183	0.052100	0.946990	0.803000
C2441	C244	0.106800	0.820700	0.560600
H2441	H244	0.080000	0.835200	0.571300
N1841	N184	0.154600	0.840750	0.662000
H2451	H245	0.178200	0.834400	0.689200
N1851	N185	0.107500	0.907520	0.781100
C2451	C245	0.148300	0.820380	0.600900
C2461	C246	0.127000	0.869430	0.682100
N1861	N186	0.089900	0.900510	0.844900
N1871	N187	0.056200	0.923910	0.857600
C2471	C247	0.146500	0.885400	0.749300
H2461	H246	0.175600	0.899800	0.739900
H2471	H247	0.156000	0.866500	0.780900
N1881	N188	0.898400	0.090270	0.925700
H2481	H248	0.919400	0.085300	0.957700
C2481	C248	0.084000	0.936470	0.756300
H2491	H249	0.089600	0.947100	0.713600
N1891	N189	0.847600	0.165880	0.020100
C2491	C249	0.937000	0.044200	0.862000
H2501	H250	0.959000	0.042400	0.898900
N1901	N190	0.823100	0.189380	0.982300
C2501	C250	0.910800	0.024900	0.755500
H2511	H251	0.915300	0.010700	0.716500
N1911	N191	0.794600	0.208550	0.024300
C2511	C251	0.870000	0.046700	0.758500
H2521	H252	0.846700	0.046500	0.723000
N1921	N192	0.804800	0.196390	0.090300
C2521	C252	0.863700	0.069100	0.814500
H2531	H253	0.836600	0.084400	0.816800
C2531	C253	0.884800	0.140100	0.000800
H2541	H254	0.915700	0.152300	0.990600
H2551	H255	0.890700	0.124100	0.039300
C2541	C254	0.836300	0.171210	0.087300
H2561	H256	0.849200	0.158700	0.124700
C2551	C255	0.868400	0.118560	0.937000
C2561	C256	0.898500	0.068360	0.867400
Cu91	Cu9	0.000000	0.986160	0.804910
Cu101	Cu10	0.500000	0.013840	0.304910
Cu111	Cu11	0.000000	0.486160	0.695090
Cu121	Cu12	0.500000	0.513840	0.195090
Cu131	Cu13	0.750000	0.250000	0.000000
Cu141	Cu14	0.250000	0.750000	0.500000
Cu151	Cu15	0.750000	0.750000	0.500000
Cu161	Cu16	0.250000	0.250000	0.000000
