data_ENITEB_clean_PM
_symmetry_space_group_name_H-M	'P1'
_cell_length_a	15.620600
_cell_length_b	15.905400
_cell_length_c	22.849600
_cell_angle_alpha	90.000000
_cell_angle_beta	90.000000
_cell_angle_gamma	119.410000
_symmetry_Int_Tables_number 1

loop_
_symmetry_equiv_pos_as_xyz
'x,y,z'

loop_
_atom_site_label
_atom_site_type_symbol
_atom_site_fract_x
_atom_site_fract_y
_atom_site_fract_z
Cd11	Cd1	0.320810	0.171240	0.370030
Cd21	Cd2	0.679190	0.828760	0.870030
Cd31	Cd3	0.850430	0.171240	0.129960
Cd41	Cd4	0.149570	0.828760	0.629970
Cd51	Cd5	0.235050	0.000000	0.500000
Cd61	Cd6	0.764950	0.000000	0.000000
Si11	Si1	0.832910	0.195280	0.551030
Si21	Si2	0.167090	0.804720	0.051030
Si31	Si3	0.362370	0.195280	0.948970
Si41	Si4	0.637630	0.804720	0.448970
H11	H1	0.993600	0.163400	0.582400
H21	H2	0.120000	0.154000	0.535300
H31	H3	0.996100	0.149000	0.378900
H41	H4	0.869100	0.158200	0.426200
H51	H5	0.805100	0.321200	0.634000
H61	H6	0.882900	0.486800	0.653800
H71	H7	0.079300	0.535600	0.524400
H81	H8	0.001600	0.370000	0.504600
H91	H9	0.687200	0.002800	0.586000
H101	H10	0.655100	0.903600	0.667700
H111	H11	0.861100	0.132000	0.759200
H121	H12	0.899500	0.228800	0.673900
H131	H13	0.624300	0.109200	0.580600
H141	H14	0.482900	0.090800	0.533800
H151	H15	0.639100	0.201200	0.384700
H161	H16	0.780500	0.219600	0.431600
H171	H17	0.006400	0.836600	0.082400
H181	H18	0.880000	0.846000	0.035300
H191	H19	0.003900	0.851000	0.878900
H201	H20	0.130900	0.841800	0.926200
H211	H21	0.194900	0.678800	0.134000
H221	H22	0.117100	0.513200	0.153800
H231	H23	0.920700	0.464400	0.024400
H241	H24	0.998400	0.630000	0.004600
H251	H25	0.312800	0.997200	0.086000
H261	H26	0.344900	0.096400	0.167700
H271	H27	0.138900	0.868000	0.259200
H281	H28	0.100500	0.771200	0.173900
H291	H29	0.375700	0.890800	0.080600
H301	H30	0.517100	0.909200	0.033800
H311	H31	0.360900	0.798800	0.884700
H321	H32	0.219500	0.780400	0.931600
H331	H33	0.169800	0.163400	0.917600
H341	H34	0.034000	0.154000	0.964700
H351	H35	0.152900	0.149000	0.121100
H361	H36	0.289100	0.158200	0.073800
H371	H37	0.516100	0.321200	0.866000
H381	H38	0.603900	0.486800	0.846200
H391	H39	0.456300	0.535600	0.975600
H401	H40	0.368400	0.370000	0.995400
H411	H41	0.315600	0.002800	0.914000
H421	H42	0.248500	0.903600	0.832300
H431	H43	0.270900	0.132000	0.740800
H441	H44	0.329300	0.228800	0.826100
H451	H45	0.484900	0.109200	0.919400
H461	H46	0.607900	0.090800	0.966200
H471	H47	0.562100	0.201200	0.115300
H481	H48	0.439100	0.219600	0.068400
H491	H49	0.830200	0.836600	0.417600
H501	H50	0.966000	0.846000	0.464700
H511	H51	0.847100	0.851000	0.621100
H521	H52	0.710900	0.841800	0.573800
H531	H53	0.483900	0.678800	0.366000
H541	H54	0.396100	0.513200	0.346200
H551	H55	0.543700	0.464400	0.475600
H561	H56	0.631600	0.630000	0.495400
H571	H57	0.684400	0.997200	0.414000
H581	H58	0.751500	0.096400	0.332300
H591	H59	0.729100	0.868000	0.240800
H601	H60	0.670700	0.771200	0.326100
H611	H61	0.515100	0.890800	0.419400
H621	H62	0.392100	0.909200	0.466200
H631	H63	0.437900	0.798800	0.615300
H641	H64	0.560900	0.780400	0.568400
C11	C1	0.918190	0.167180	0.509070
C21	C2	0.994100	0.161200	0.540800
C31	C3	0.067200	0.152000	0.513600
C41	C4	0.061710	0.139820	0.452560
C51	C5	0.993500	0.149000	0.420400
C61	C6	0.920100	0.158200	0.448800
C71	C7	0.144990	0.133980	0.423200
C81	C8	0.896000	0.330000	0.567450
C91	C9	0.860760	0.364720	0.611770
C101	C10	0.906950	0.463100	0.623530
C111	C11	0.988370	0.526740	0.590960
C121	C12	0.023610	0.492020	0.546640
C131	C13	0.977420	0.393640	0.534890
C141	C14	0.046030	0.634660	0.604000
C151	C15	0.802160	0.124320	0.620700
C161	C16	0.725320	0.028240	0.620500
C171	C17	0.704110	0.969820	0.669500
C181	C18	0.755290	0.009180	0.721650
C191	C19	0.827090	0.104780	0.723700
C201	C20	0.850160	0.162720	0.672400
C211	C21	0.731330	0.946860	0.775450
C221	C22	0.715690	0.166140	0.510510
C231	C23	0.627310	0.127860	0.540860
C241	C24	0.543300	0.116880	0.513030
C251	C25	0.547670	0.144200	0.454840
C261	C26	0.636050	0.182480	0.424480
C271	C27	0.720050	0.193440	0.452320
C281	C28	0.456670	0.135340	0.426200
C291	C29	0.081810	0.832820	0.009070
C301	C30	0.005900	0.838800	0.040800
C311	C31	0.932800	0.848000	0.013600
C321	C32	0.938290	0.860180	0.952560
C331	C33	0.006500	0.851000	0.920400
C341	C34	0.079900	0.841800	0.948800
C351	C35	0.855010	0.866020	0.923200
C361	C36	0.104000	0.670000	0.067450
C371	C37	0.139240	0.635280	0.111770
C381	C38	0.093050	0.536900	0.123530
C391	C39	0.011630	0.473260	0.090960
C401	C40	0.976390	0.507980	0.046640
C411	C41	0.022580	0.606360	0.034890
C421	C42	0.953970	0.365340	0.104000
C431	C43	0.197840	0.875680	0.120700
C441	C44	0.274680	0.971760	0.120500
C451	C45	0.295890	0.030180	0.169500
C461	C46	0.244710	0.990820	0.221650
C471	C47	0.172910	0.895220	0.223700
C481	C48	0.149840	0.837280	0.172400
C491	C49	0.268670	0.053140	0.275450
C501	C50	0.284310	0.833860	0.010510
C511	C51	0.372690	0.872140	0.040860
C521	C52	0.456700	0.883120	0.013030
C531	C53	0.452330	0.855800	0.954840
C541	C54	0.363950	0.817520	0.924480
C551	C55	0.279950	0.806560	0.952320
C561	C56	0.543330	0.864660	0.926200
C571	C57	0.248990	0.167180	0.990930
C581	C58	0.167100	0.161200	0.959200
C591	C59	0.084800	0.152000	0.986400
C601	C60	0.078110	0.139820	0.047440
C611	C61	0.155500	0.149000	0.079600
C621	C62	0.238100	0.158200	0.051200
C631	C63	0.988990	0.133980	0.076800
C641	C64	0.434000	0.330000	0.932550
C651	C65	0.503960	0.364720	0.888230
C661	C66	0.556150	0.463100	0.876470
C671	C67	0.538370	0.526740	0.909040
C681	C68	0.468410	0.492020	0.953360
C691	C69	0.416220	0.393640	0.965110
C701	C70	0.588630	0.634660	0.896000
C711	C71	0.322160	0.124320	0.879300
C721	C72	0.302920	0.028240	0.879500
C731	C73	0.265710	0.969820	0.830500
C741	C74	0.253890	0.009180	0.778350
C751	C75	0.277690	0.104780	0.776300
C761	C76	0.312560	0.162720	0.827600
C771	C77	0.215530	0.946860	0.724550
C781	C78	0.450450	0.166140	0.989490
C791	C79	0.500550	0.127860	0.959140
C801	C80	0.573580	0.116880	0.986970
C811	C81	0.596530	0.144200	0.045160
C821	C82	0.546430	0.182480	0.075520
C831	C83	0.473390	0.193440	0.047680
C841	C84	0.678670	0.135340	0.073800
C851	C85	0.751010	0.832820	0.490930
C861	C86	0.832900	0.838800	0.459200
C871	C87	0.915200	0.848000	0.486400
C881	C88	0.921890	0.860180	0.547440
C891	C89	0.844500	0.851000	0.579600
C901	C90	0.761900	0.841800	0.551200
C911	C91	0.011010	0.866020	0.576800
C921	C92	0.566000	0.670000	0.432550
C931	C93	0.496040	0.635280	0.388230
C941	C94	0.443850	0.536900	0.376470
C951	C95	0.461630	0.473260	0.409040
C961	C96	0.531590	0.507980	0.453360
C971	C97	0.583780	0.606360	0.465110
C981	C98	0.411370	0.365340	0.396000
C991	C99	0.677840	0.875680	0.379300
C1001	C100	0.697080	0.971760	0.379500
C1011	C101	0.734290	0.030180	0.330500
C1021	C102	0.746110	0.990820	0.278350
C1031	C103	0.722310	0.895220	0.276300
C1041	C104	0.687440	0.837280	0.327600
C1051	C105	0.784470	0.053140	0.224550
C1061	C106	0.549550	0.833860	0.489490
C1071	C107	0.499450	0.872140	0.459140
C1081	C108	0.426420	0.883120	0.486970
C1091	C109	0.403470	0.855800	0.545160
C1101	C110	0.453570	0.817520	0.575520
C1111	C111	0.526610	0.806560	0.547680
C1121	C112	0.321330	0.864660	0.573800
O11	O1	0.187720	0.096440	0.450100
O21	O2	0.173980	0.171540	0.373640
O31	O3	0.087500	0.693600	0.561800
O41	O4	0.044730	0.661060	0.656000
O51	O5	0.755700	0.986600	0.824560
O61	O6	0.687000	0.857400	0.769800
O71	O7	0.467290	0.171780	0.375230
O81	O8	0.376600	0.099800	0.450110
O91	O9	0.812280	0.903560	0.950100
O101	O10	0.826020	0.828460	0.873640
O111	O11	0.912500	0.306400	0.061800
O121	O12	0.955270	0.338940	0.156000
O131	O13	0.244300	0.013400	0.324560
O141	O14	0.313000	0.142600	0.269800
O151	O15	0.532710	0.828220	0.875230
O161	O16	0.623400	0.900200	0.950110
O171	O17	0.908720	0.096440	0.049900
O181	O18	0.997560	0.171540	0.126360
O191	O19	0.606100	0.693600	0.938200
O201	O20	0.616330	0.661060	0.844000
O211	O21	0.230900	0.986600	0.675440
O221	O22	0.170400	0.857400	0.730200
O231	O23	0.704490	0.171780	0.124770
O241	O24	0.723200	0.099800	0.049890
O251	O25	0.091280	0.903560	0.549900
O261	O26	0.002440	0.828460	0.626360
O271	O27	0.393900	0.306400	0.438200
O281	O28	0.383670	0.338940	0.344000
O291	O29	0.769100	0.013400	0.175440
O301	O30	0.829600	0.142600	0.230200
O311	O31	0.295510	0.828220	0.624770
O321	O32	0.276800	0.900200	0.549890
