data_ENIXUV_clean_PM
_symmetry_space_group_name_H-M	'P1'
_cell_length_a	17.442100
_cell_length_b	17.442100
_cell_length_c	26.682000
_cell_angle_alpha	90.032600
_cell_angle_beta	90.032600
_cell_angle_gamma	98.721200
_symmetry_Int_Tables_number 1

loop_
_symmetry_equiv_pos_as_xyz
'x,y,z'

loop_
_atom_site_label
_atom_site_type_symbol
_atom_site_fract_x
_atom_site_fract_y
_atom_site_fract_z
Mn11	Mn1	0.768400	0.730800	0.249530
Mn21	Mn2	0.269200	0.231600	0.250470
Mn31	Mn3	0.231600	0.269200	0.750470
Mn41	Mn4	0.730800	0.768400	0.749530
Mn51	Mn5	0.500000	0.500000	0.500000
Mn61	Mn6	0.500000	0.500000	0.000000
Mn71	Mn7	0.000000	0.000000	0.500000
Mn81	Mn8	0.000000	0.000000	0.000000
Mn91	Mn9	0.000000	0.500000	0.500000
Mn101	Mn10	0.500000	0.000000	0.000000
Mn111	Mn11	0.500000	0.000000	0.500000
Mn121	Mn12	0.000000	0.500000	0.000000
H11	H1	0.666500	0.407900	0.359800
H21	H2	0.571300	0.292500	0.379900
H31	H3	0.644400	0.776200	0.481400
H41	H4	0.703100	0.704500	0.416500
H51	H5	0.671000	0.634400	0.331600
H61	H6	0.889100	0.620700	0.300500
H71	H7	0.895000	0.532600	0.364100
H81	H8	0.786900	0.496500	0.415400
H91	H9	0.498500	0.819300	0.504400
H101	H10	0.594100	0.970500	0.603500
H111	H11	0.634500	0.873900	0.651400
H121	H12	0.605200	0.743800	0.624700
H131	H13	0.062100	0.810700	0.636200
H141	H14	0.189000	0.888400	0.617000
H151	H15	0.712600	0.884200	0.509200
H161	H16	0.773600	0.812600	0.574200
H171	H17	0.319300	0.978900	0.502900
H181	H18	0.465300	0.047300	0.611700
H191	H19	0.366300	0.069700	0.663700
H201	H20	0.237000	0.045200	0.634600
H211	H21	0.846600	0.855600	0.663600
H221	H22	0.811100	0.635100	0.700700
H231	H23	0.897200	0.605000	0.640900
H241	H24	0.955600	0.702800	0.586600
H251	H25	0.875000	0.265800	0.604400
H261	H26	0.775400	0.353000	0.602800
H271	H27	0.757100	0.630700	0.524800
H281	H28	0.843700	0.724300	0.472900
H291	H29	0.679100	0.479700	0.505100
H301	H30	0.539600	0.490000	0.619000
H311	H31	0.640700	0.496100	0.675200
H321	H32	0.767500	0.497900	0.645200
H331	H33	0.017700	0.816700	0.490400
H341	H34	0.973800	0.955400	0.382000
H351	H35	0.943900	0.851700	0.327400
H361	H36	0.948400	0.725800	0.356400
H371	H37	0.592100	0.333500	0.140200
H381	H38	0.707500	0.428700	0.120100
H391	H39	0.223800	0.355600	0.018600
H401	H40	0.295500	0.296900	0.083500
H411	H41	0.365600	0.329000	0.168400
H421	H42	0.379300	0.110900	0.199500
H431	H43	0.467400	0.105000	0.135900
H441	H44	0.503500	0.213100	0.084600
H451	H45	0.180700	0.501500	0.995600
H461	H46	0.029500	0.405900	0.896500
H471	H47	0.126100	0.365500	0.848600
H481	H48	0.256200	0.394800	0.875300
H491	H49	0.189300	0.937900	0.863800
H501	H50	0.111600	0.811000	0.883000
H511	H51	0.115800	0.287400	0.990800
H521	H52	0.187400	0.226400	0.925800
H531	H53	0.021100	0.680700	0.997100
H541	H54	0.952700	0.534700	0.888300
H551	H55	0.930300	0.633700	0.836300
H561	H56	0.954800	0.763000	0.865400
H571	H57	0.144400	0.153400	0.836400
H581	H58	0.364900	0.188900	0.799300
H591	H59	0.395000	0.102800	0.859100
H601	H60	0.297200	0.044400	0.913400
H611	H61	0.734200	0.125000	0.895600
H621	H62	0.647000	0.224600	0.897200
H631	H63	0.369300	0.242900	0.975200
H641	H64	0.275700	0.156300	0.027100
H651	H65	0.520300	0.320900	0.994900
H661	H66	0.510000	0.460400	0.881000
H671	H67	0.503900	0.359300	0.824800
H681	H68	0.502100	0.232500	0.854800
H691	H69	0.183300	0.982300	0.009600
H701	H70	0.044600	0.026200	0.118000
H711	H71	0.148300	0.056100	0.172600
H721	H72	0.274200	0.051600	0.143600
H731	H73	0.333500	0.592100	0.640200
H741	H74	0.428700	0.707500	0.620100
H751	H75	0.355600	0.223800	0.518600
H761	H76	0.296900	0.295500	0.583500
H771	H77	0.329000	0.365600	0.668400
H781	H78	0.110900	0.379300	0.699500
H791	H79	0.105000	0.467400	0.635900
H801	H80	0.213100	0.503500	0.584600
H811	H81	0.501500	0.180700	0.495600
H821	H82	0.405900	0.029500	0.396500
H831	H83	0.365500	0.126100	0.348600
H841	H84	0.394800	0.256200	0.375300
H851	H85	0.937900	0.189300	0.363800
H861	H86	0.811000	0.111600	0.383000
H871	H87	0.287400	0.115800	0.490800
H881	H88	0.226400	0.187400	0.425800
H891	H89	0.680700	0.021100	0.497100
H901	H90	0.534700	0.952700	0.388300
H911	H91	0.633700	0.930300	0.336300
H921	H92	0.763000	0.954800	0.365400
H931	H93	0.153400	0.144400	0.336400
H941	H94	0.188900	0.364900	0.299300
H951	H95	0.102800	0.395000	0.359100
H961	H96	0.044400	0.297200	0.413400
H971	H97	0.125000	0.734200	0.395600
H981	H98	0.224600	0.647000	0.397200
H991	H99	0.242900	0.369300	0.475200
H1001	H100	0.156300	0.275700	0.527100
H1011	H101	0.320900	0.520300	0.494900
H1021	H102	0.460400	0.510000	0.381000
H1031	H103	0.359300	0.503900	0.324800
H1041	H104	0.232500	0.502100	0.354800
H1051	H105	0.982300	0.183300	0.509600
H1061	H106	0.026200	0.044600	0.618000
H1071	H107	0.056100	0.148300	0.672600
H1081	H108	0.051600	0.274200	0.643600
H1091	H109	0.407900	0.666500	0.859800
H1101	H110	0.292500	0.571300	0.879900
H1111	H111	0.776200	0.644400	0.981400
H1121	H112	0.704500	0.703100	0.916500
H1131	H113	0.634400	0.671000	0.831600
H1141	H114	0.620700	0.889100	0.800500
H1151	H115	0.532600	0.895000	0.864100
H1161	H116	0.496500	0.786900	0.915400
H1171	H117	0.819300	0.498500	0.004400
H1181	H118	0.970500	0.594100	0.103500
H1191	H119	0.873900	0.634500	0.151400
H1201	H120	0.743800	0.605200	0.124700
H1211	H121	0.810700	0.062100	0.136200
H1221	H122	0.888400	0.189000	0.117000
H1231	H123	0.884200	0.712600	0.009200
H1241	H124	0.812600	0.773600	0.074200
H1251	H125	0.978900	0.319300	0.002900
H1261	H126	0.047300	0.465300	0.111700
H1271	H127	0.069700	0.366300	0.163700
H1281	H128	0.045200	0.237000	0.134600
H1291	H129	0.855600	0.846600	0.163600
H1301	H130	0.635100	0.811100	0.200700
H1311	H131	0.605000	0.897200	0.140900
H1321	H132	0.702800	0.955600	0.086600
H1331	H133	0.265800	0.875000	0.104400
H1341	H134	0.353000	0.775400	0.102800
H1351	H135	0.630700	0.757100	0.024800
H1361	H136	0.724300	0.843700	0.972900
H1371	H137	0.479700	0.679100	0.005100
H1381	H138	0.490000	0.539600	0.119000
H1391	H139	0.496100	0.640700	0.175200
H1401	H140	0.497900	0.767500	0.145200
H1411	H141	0.816700	0.017700	0.990400
H1421	H142	0.955400	0.973800	0.882000
H1431	H143	0.851700	0.943900	0.827400
H1441	H144	0.725800	0.948400	0.856400
C11	C1	0.609740	0.467500	0.415340
C21	C2	0.626380	0.405140	0.384060
C31	C3	0.575080	0.342060	0.395260
C41	C4	0.472710	0.636430	0.565330
C51	C5	0.531520	0.688320	0.540900
C61	C6	0.572840	0.669200	0.499270
C71	C7	0.630970	0.722510	0.474100
C81	C8	0.662810	0.683630	0.438770
C91	C9	0.625490	0.604930	0.440260
C101	C10	0.647390	0.543590	0.411860
C111	C11	0.716570	0.562350	0.378920
C121	C12	0.717190	0.613770	0.338870
C131	C13	0.844380	0.605420	0.320440
C141	C14	0.848540	0.553460	0.358490
C151	C15	0.784620	0.531800	0.388530
C161	C16	0.549640	0.768180	0.560700
C171	C17	0.526950	0.830030	0.534640
C181	C18	0.582330	0.918270	0.592440
C191	C19	0.606580	0.861220	0.621190
C201	C20	0.589580	0.784420	0.605260
C211	C21	0.014670	0.879930	0.581950
C221	C22	0.071460	0.851740	0.612610
C231	C23	0.140690	0.893950	0.602050
C241	C24	0.128140	0.948760	0.564140
C251	C25	0.186260	0.003000	0.542910
C261	C26	0.173740	0.051620	0.503170
C271	C27	0.765850	0.892190	0.518310
C281	C28	0.799220	0.853120	0.553710
C291	C29	0.879770	0.883470	0.555010
C301	C30	0.934860	0.853920	0.584320
C311	C31	0.264930	0.011350	0.564440
C321	C32	0.328460	0.998120	0.536050
C331	C33	0.413590	0.037410	0.599490
C341	C34	0.355200	0.051000	0.630630
C351	C35	0.278710	0.037090	0.613350
C361	C36	0.905360	0.789080	0.618470
C371	C37	0.855730	0.803950	0.658250
C381	C38	0.836580	0.675620	0.680210
C391	C39	0.886680	0.656720	0.643990
C401	C40	0.921370	0.714290	0.612260
C411	C41	0.944870	0.352570	0.559870
C421	C42	0.879280	0.314780	0.588270
C431	C43	0.825080	0.362540	0.587450
C441	C44	0.856070	0.430430	0.559310
C451	C45	0.816400	0.492820	0.549210
C461	C46	0.845880	0.557160	0.520560
C471	C47	0.806790	0.624250	0.512490
C481	C48	0.854120	0.675380	0.484410
C491	C49	0.924000	0.641860	0.475110
C501	C50	0.988110	0.678790	0.447980
C511	C51	0.736820	0.489360	0.571300
C521	C52	0.671850	0.484170	0.540170
C531	C53	0.590440	0.489600	0.606380
C541	C54	0.650400	0.493680	0.640260
C551	C55	0.724980	0.494240	0.622630
C561	C56	0.982630	0.757490	0.426960
C571	C57	0.001310	0.823370	0.456950
C581	C58	0.976450	0.904550	0.393860
C591	C59	0.958270	0.843130	0.361100
C601	C60	0.961150	0.768850	0.378240
C611	C61	0.532500	0.390260	0.084660
C621	C62	0.594860	0.373620	0.115940
C631	C63	0.657940	0.424920	0.104740
C641	C64	0.363570	0.527290	0.934670
C651	C65	0.311680	0.468480	0.959100
C661	C66	0.330800	0.427160	0.000730
C671	C67	0.277490	0.369030	0.025900
C681	C68	0.316370	0.337190	0.061230
C691	C69	0.395070	0.374510	0.059740
C701	C70	0.456410	0.352610	0.088140
C711	C71	0.437650	0.283430	0.121080
C721	C72	0.386230	0.282810	0.161130
C731	C73	0.394580	0.155620	0.179560
C741	C74	0.446540	0.151460	0.141510
C751	C75	0.468200	0.215380	0.111470
C761	C76	0.231820	0.450360	0.939300
C771	C77	0.169970	0.473050	0.965360
C781	C78	0.081730	0.417670	0.907560
C791	C79	0.138780	0.393420	0.878810
C801	C80	0.215580	0.410420	0.894740
C811	C81	0.120070	0.985330	0.918050
C821	C82	0.148260	0.928540	0.887390
C831	C83	0.106050	0.859310	0.897950
C841	C84	0.051240	0.871860	0.935860
C851	C85	0.997000	0.813740	0.957090
C861	C86	0.948380	0.826260	0.996830
C871	C87	0.107810	0.234150	0.981690
C881	C88	0.146880	0.200780	0.946290
C891	C89	0.116530	0.120230	0.944990
C901	C90	0.146080	0.065140	0.915680
C911	C91	0.988650	0.735070	0.935560
C921	C92	0.001880	0.671540	0.963950
C931	C93	0.962590	0.586410	0.900510
C941	C94	0.949000	0.644800	0.869370
C951	C95	0.962910	0.721290	0.886650
C961	C96	0.210920	0.094640	0.881530
C971	C97	0.196050	0.144270	0.841750
C981	C98	0.324380	0.163420	0.819790
C991	C99	0.343280	0.113320	0.856010
C1001	C100	0.285710	0.078630	0.887740
C1011	C101	0.647430	0.055130	0.940130
C1021	C102	0.685220	0.120720	0.911730
C1031	C103	0.637460	0.174920	0.912550
C1041	C104	0.569570	0.143930	0.940690
C1051	C105	0.507180	0.183600	0.950790
C1061	C106	0.442840	0.154120	0.979440
C1071	C107	0.375750	0.193210	0.987510
C1081	C108	0.324620	0.145880	0.015590
C1091	C109	0.358140	0.076000	0.024890
C1101	C110	0.321210	0.011890	0.052020
C1111	C111	0.510640	0.263180	0.928700
C1121	C112	0.515830	0.328150	0.959830
C1131	C113	0.510400	0.409560	0.893620
C1141	C114	0.506320	0.349600	0.859740
C1151	C115	0.505760	0.275020	0.877370
C1161	C116	0.242510	0.017370	0.073040
C1171	C117	0.176630	0.998690	0.043050
C1181	C118	0.095450	0.023550	0.106140
C1191	C119	0.156870	0.041730	0.138900
C1201	C120	0.231150	0.038850	0.121760
C1211	C121	0.390260	0.532500	0.584660
C1221	C122	0.373620	0.594860	0.615940
C1231	C123	0.424920	0.657940	0.604740
C1241	C124	0.527290	0.363570	0.434670
C1251	C125	0.468480	0.311680	0.459100
C1261	C126	0.427160	0.330800	0.500730
C1271	C127	0.369030	0.277490	0.525900
C1281	C128	0.337190	0.316370	0.561230
C1291	C129	0.374510	0.395070	0.559740
C1301	C130	0.352610	0.456410	0.588140
C1311	C131	0.283430	0.437650	0.621080
C1321	C132	0.282810	0.386230	0.661130
C1331	C133	0.155620	0.394580	0.679560
C1341	C134	0.151460	0.446540	0.641510
C1351	C135	0.215380	0.468200	0.611470
C1361	C136	0.450360	0.231820	0.439300
C1371	C137	0.473050	0.169970	0.465360
C1381	C138	0.417670	0.081730	0.407560
C1391	C139	0.393420	0.138780	0.378810
C1401	C140	0.410420	0.215580	0.394740
C1411	C141	0.985330	0.120070	0.418050
C1421	C142	0.928540	0.148260	0.387390
C1431	C143	0.859310	0.106050	0.397950
C1441	C144	0.871860	0.051240	0.435860
C1451	C145	0.813740	0.997000	0.457090
C1461	C146	0.826260	0.948380	0.496830
C1471	C147	0.234150	0.107810	0.481690
C1481	C148	0.200780	0.146880	0.446290
C1491	C149	0.120230	0.116530	0.444990
C1501	C150	0.065140	0.146080	0.415680
C1511	C151	0.735070	0.988650	0.435560
C1521	C152	0.671540	0.001880	0.463950
C1531	C153	0.586410	0.962590	0.400510
C1541	C154	0.644800	0.949000	0.369370
C1551	C155	0.721290	0.962910	0.386650
C1561	C156	0.094640	0.210920	0.381530
C1571	C157	0.144270	0.196050	0.341750
C1581	C158	0.163420	0.324380	0.319790
C1591	C159	0.113320	0.343280	0.356010
C1601	C160	0.078630	0.285710	0.387740
C1611	C161	0.055130	0.647430	0.440130
C1621	C162	0.120720	0.685220	0.411730
C1631	C163	0.174920	0.637460	0.412550
C1641	C164	0.143930	0.569570	0.440690
C1651	C165	0.183600	0.507180	0.450790
C1661	C166	0.154120	0.442840	0.479440
C1671	C167	0.193210	0.375750	0.487510
C1681	C168	0.145880	0.324620	0.515590
C1691	C169	0.076000	0.358140	0.524890
C1701	C170	0.011890	0.321210	0.552020
C1711	C171	0.263180	0.510640	0.428700
C1721	C172	0.328150	0.515830	0.459830
C1731	C173	0.409560	0.510400	0.393620
C1741	C174	0.349600	0.506320	0.359740
C1751	C175	0.275020	0.505760	0.377370
C1761	C176	0.017370	0.242510	0.573040
C1771	C177	0.998690	0.176630	0.543050
C1781	C178	0.023550	0.095450	0.606140
C1791	C179	0.041730	0.156870	0.638900
C1801	C180	0.038850	0.231150	0.621760
C1811	C181	0.467500	0.609740	0.915340
C1821	C182	0.405140	0.626380	0.884060
C1831	C183	0.342060	0.575080	0.895260
C1841	C184	0.636430	0.472710	0.065330
C1851	C185	0.688320	0.531520	0.040900
C1861	C186	0.669200	0.572840	0.999270
C1871	C187	0.722510	0.630970	0.974100
C1881	C188	0.683630	0.662810	0.938770
C1891	C189	0.604930	0.625490	0.940260
C1901	C190	0.543590	0.647390	0.911860
C1911	C191	0.562350	0.716570	0.878920
C1921	C192	0.613770	0.717190	0.838870
C1931	C193	0.605420	0.844380	0.820440
C1941	C194	0.553460	0.848540	0.858490
C1951	C195	0.531800	0.784620	0.888530
C1961	C196	0.768180	0.549640	0.060700
C1971	C197	0.830030	0.526950	0.034640
C1981	C198	0.918270	0.582330	0.092440
C1991	C199	0.861220	0.606580	0.121190
C2001	C200	0.784420	0.589580	0.105260
C2011	C201	0.879930	0.014670	0.081950
C2021	C202	0.851740	0.071460	0.112610
C2031	C203	0.893950	0.140690	0.102050
C2041	C204	0.948760	0.128140	0.064140
C2051	C205	0.003000	0.186260	0.042910
C2061	C206	0.051620	0.173740	0.003170
C2071	C207	0.892190	0.765850	0.018310
C2081	C208	0.853120	0.799220	0.053710
C2091	C209	0.883470	0.879770	0.055010
C2101	C210	0.853920	0.934860	0.084320
C2111	C211	0.011350	0.264930	0.064440
C2121	C212	0.998120	0.328460	0.036050
C2131	C213	0.037410	0.413590	0.099490
C2141	C214	0.051000	0.355200	0.130630
C2151	C215	0.037090	0.278710	0.113350
C2161	C216	0.789080	0.905360	0.118470
C2171	C217	0.803950	0.855730	0.158250
C2181	C218	0.675620	0.836580	0.180210
C2191	C219	0.656720	0.886680	0.143990
C2201	C220	0.714290	0.921370	0.112260
C2211	C221	0.352570	0.944870	0.059870
C2221	C222	0.314780	0.879280	0.088270
C2231	C223	0.362540	0.825080	0.087450
C2241	C224	0.430430	0.856070	0.059310
C2251	C225	0.492820	0.816400	0.049210
C2261	C226	0.557160	0.845880	0.020560
C2271	C227	0.624250	0.806790	0.012490
C2281	C228	0.675380	0.854120	0.984410
C2291	C229	0.641860	0.924000	0.975110
C2301	C230	0.678790	0.988110	0.947980
C2311	C231	0.489360	0.736820	0.071300
C2321	C232	0.484170	0.671850	0.040170
C2331	C233	0.489600	0.590440	0.106380
C2341	C234	0.493680	0.650400	0.140260
C2351	C235	0.494240	0.724980	0.122630
C2361	C236	0.757490	0.982630	0.926960
C2371	C237	0.823370	0.001310	0.956950
C2381	C238	0.904550	0.976450	0.893860
C2391	C239	0.843130	0.958270	0.861100
C2401	C240	0.768850	0.961150	0.878240
N11	N1	0.451120	0.559580	0.553160
N21	N2	0.568020	0.596960	0.477260
N31	N3	0.779460	0.635660	0.310080
N41	N4	0.542960	0.903880	0.549820
N51	N5	0.050430	0.938570	0.551480
N61	N6	0.104500	0.056280	0.479780
N71	N7	0.401600	0.010760	0.552440
N81	N8	0.821460	0.748020	0.688360
N91	N9	0.929930	0.423810	0.542420
N101	N10	0.917110	0.569850	0.497260
N111	N11	0.599160	0.485140	0.557340
N121	N12	0.997240	0.896020	0.440920
N131	N13	0.440420	0.548880	0.946840
N141	N14	0.403040	0.431980	0.022740
N151	N15	0.364340	0.220540	0.189920
N161	N16	0.096120	0.457040	0.950180
N171	N17	0.061430	0.949570	0.948520
N181	N18	0.943720	0.895500	0.020220
N191	N19	0.989240	0.598400	0.947560
N201	N20	0.251980	0.178540	0.811640
N211	N21	0.576190	0.070070	0.957580
N221	N22	0.430150	0.082890	0.002740
N231	N23	0.514860	0.400840	0.942660
N241	N24	0.103980	0.002760	0.059080
N251	N25	0.548880	0.440420	0.446840
N261	N26	0.431980	0.403040	0.522740
N271	N27	0.220540	0.364340	0.689920
N281	N28	0.457040	0.096120	0.450180
N291	N29	0.949570	0.061430	0.448520
N301	N30	0.895500	0.943720	0.520220
N311	N31	0.598400	0.989240	0.447560
N321	N32	0.178540	0.251980	0.311640
N331	N33	0.070070	0.576190	0.457580
N341	N34	0.082890	0.430150	0.502740
N351	N35	0.400840	0.514860	0.442660
N361	N36	0.002760	0.103980	0.559080
N371	N37	0.559580	0.451120	0.053160
N381	N38	0.596960	0.568020	0.977260
N391	N39	0.635660	0.779460	0.810080
N401	N40	0.903880	0.542960	0.049820
N411	N41	0.938570	0.050430	0.051480
N421	N42	0.056280	0.104500	0.979780
N431	N43	0.010760	0.401600	0.052440
N441	N44	0.748020	0.821460	0.188360
N451	N45	0.423810	0.929930	0.042420
N461	N46	0.569850	0.917110	0.997260
N471	N47	0.485140	0.599160	0.057340
N481	N48	0.896020	0.997240	0.940920
Cl11	Cl1	0.049240	0.575600	0.579000
Cl21	Cl2	0.665760	0.648220	0.208050
Cl31	Cl3	0.904110	0.739910	0.230730
Cl41	Cl4	0.727900	0.807840	0.314750
Cl51	Cl5	0.587010	0.101750	0.548810
Cl61	Cl6	0.424400	0.950760	0.921000
Cl71	Cl7	0.351780	0.334240	0.291950
Cl81	Cl8	0.260090	0.095890	0.269270
Cl91	Cl9	0.192160	0.272100	0.185250
Cl101	Cl10	0.898250	0.412990	0.951190
Cl111	Cl11	0.950760	0.424400	0.421000
Cl121	Cl12	0.334240	0.351780	0.791950
Cl131	Cl13	0.095890	0.260090	0.769270
Cl141	Cl14	0.272100	0.192160	0.685250
Cl151	Cl15	0.412990	0.898250	0.451190
Cl161	Cl16	0.575600	0.049240	0.079000
Cl171	Cl17	0.648220	0.665760	0.708050
Cl181	Cl18	0.739910	0.904110	0.730730
Cl191	Cl19	0.807840	0.727900	0.814750
Cl201	Cl20	0.101750	0.587010	0.048810
