data_ENUCOG_clean_PM
_symmetry_space_group_name_H-M	'P1'
_cell_length_a	12.683500
_cell_length_b	12.683500
_cell_length_c	12.683500
_cell_angle_alpha	83.976900
_cell_angle_beta	83.976900
_cell_angle_gamma	83.976900
_symmetry_Int_Tables_number 1

loop_
_symmetry_equiv_pos_as_xyz
'x,y,z'

loop_
_atom_site_label
_atom_site_type_symbol
_atom_site_fract_x
_atom_site_fract_y
_atom_site_fract_z
Cd11	Cd1	0.487950	0.012050	0.750000
Cd21	Cd2	0.750000	0.487950	0.012050
Cd31	Cd3	0.012050	0.750000	0.487950
Cd41	Cd4	0.512050	0.987950	0.250000
Cd51	Cd5	0.250000	0.512050	0.987950
Cd61	Cd6	0.987950	0.250000	0.512050
Ni11	Ni1	0.470690	0.750000	0.029310
Ni21	Ni2	0.029310	0.470690	0.750000
Ni31	Ni3	0.750000	0.029310	0.470690
Ni41	Ni4	0.529310	0.250000	0.970690
Ni51	Ni5	0.970690	0.529310	0.250000
Ni61	Ni6	0.250000	0.970690	0.529310
H11	H1	0.565200	0.636600	0.808400
H21	H2	0.485600	0.653500	0.720200
H31	H3	0.808400	0.565200	0.636600
H41	H4	0.720200	0.485600	0.653500
H51	H5	0.636600	0.808400	0.565200
H61	H6	0.653500	0.720200	0.485600
H71	H7	0.863400	0.934800	0.691600
H81	H8	0.846500	0.014400	0.779800
H91	H9	0.934800	0.691600	0.863400
H101	H10	0.014400	0.779800	0.846500
H111	H11	0.691600	0.863400	0.934800
H121	H12	0.779800	0.846500	0.014400
H131	H13	0.434800	0.363400	0.191600
H141	H14	0.514400	0.346500	0.279800
H151	H15	0.191600	0.434800	0.363400
H161	H16	0.279800	0.514400	0.346500
H171	H17	0.363400	0.191600	0.434800
H181	H18	0.346500	0.279800	0.514400
H191	H19	0.136600	0.065200	0.308400
H201	H20	0.153500	0.985600	0.220200
H211	H21	0.065200	0.308400	0.136600
H221	H22	0.985600	0.220200	0.153500
H231	H23	0.308400	0.136600	0.065200
H241	H24	0.220200	0.153500	0.985600
C11	C1	0.492370	0.788270	0.793670
C21	C2	0.495300	0.668800	0.791800
C31	C3	0.411820	0.617620	0.868920
C41	C4	0.793670	0.492370	0.788270
C51	C5	0.791800	0.495300	0.668800
C61	C6	0.868920	0.411820	0.617620
C71	C7	0.788270	0.793670	0.492370
C81	C8	0.668800	0.791800	0.495300
C91	C9	0.617620	0.868920	0.411820
C101	C10	0.711730	0.007630	0.706330
C111	C11	0.831200	0.004700	0.708200
C121	C12	0.882380	0.088180	0.631080
C131	C13	0.007630	0.706330	0.711730
C141	C14	0.004700	0.708200	0.831200
C151	C15	0.088180	0.631080	0.882380
C161	C16	0.706330	0.711730	0.007630
C171	C17	0.708200	0.831200	0.004700
C181	C18	0.631080	0.882380	0.088180
C191	C19	0.507630	0.211730	0.206330
C201	C20	0.504700	0.331200	0.208200
C211	C21	0.588180	0.382380	0.131080
C221	C22	0.206330	0.507630	0.211730
C231	C23	0.208200	0.504700	0.331200
C241	C24	0.131080	0.588180	0.382380
C251	C25	0.211730	0.206330	0.507630
C261	C26	0.331200	0.208200	0.504700
C271	C27	0.382380	0.131080	0.588180
C281	C28	0.288270	0.992370	0.293670
C291	C29	0.168800	0.995300	0.291800
C301	C30	0.117620	0.911820	0.368920
C311	C31	0.992370	0.293670	0.288270
C321	C32	0.995300	0.291800	0.168800
C331	C33	0.911820	0.368920	0.117620
C341	C34	0.293670	0.288270	0.992370
C351	C35	0.291800	0.168800	0.995300
C361	C36	0.368920	0.117620	0.911820
O11	O1	0.493430	0.844590	0.705150
O21	O2	0.491740	0.830150	0.879050
O31	O3	0.357520	0.553520	0.834920
O41	O4	0.399050	0.637910	0.964570
O51	O5	0.705150	0.493430	0.844590
O61	O6	0.879050	0.491740	0.830150
O71	O7	0.834920	0.357520	0.553520
O81	O8	0.964570	0.399050	0.637910
O91	O9	0.844590	0.705150	0.493430
O101	O10	0.830150	0.879050	0.491740
O111	O11	0.553520	0.834920	0.357520
O121	O12	0.637910	0.964570	0.399050
O131	O13	0.655410	0.006570	0.794850
O141	O14	0.669850	0.008260	0.620950
O151	O15	0.946480	0.142480	0.665080
O161	O16	0.862090	0.100950	0.535430
O171	O17	0.006570	0.794850	0.655410
O181	O18	0.008260	0.620950	0.669850
O191	O19	0.142480	0.665080	0.946480
O201	O20	0.100950	0.535430	0.862090
O211	O21	0.794850	0.655410	0.006570
O221	O22	0.620950	0.669850	0.008260
O231	O23	0.665080	0.946480	0.142480
O241	O24	0.535430	0.862090	0.100950
O251	O25	0.506570	0.155410	0.294850
O261	O26	0.508260	0.169850	0.120950
O271	O27	0.642480	0.446480	0.165080
O281	O28	0.600950	0.362090	0.035430
O291	O29	0.294850	0.506570	0.155410
O301	O30	0.120950	0.508260	0.169850
O311	O31	0.165080	0.642480	0.446480
O321	O32	0.035430	0.600950	0.362090
O331	O33	0.155410	0.294850	0.506570
O341	O34	0.169850	0.120950	0.508260
O351	O35	0.446480	0.165080	0.642480
O361	O36	0.362090	0.035430	0.600950
O371	O37	0.344590	0.993430	0.205150
O381	O38	0.330150	0.991740	0.379050
O391	O39	0.053520	0.857520	0.334920
O401	O40	0.137910	0.899050	0.464570
O411	O41	0.993430	0.205150	0.344590
O421	O42	0.991740	0.379050	0.330150
O431	O43	0.857520	0.334920	0.053520
O441	O44	0.899050	0.464570	0.137910
O451	O45	0.205150	0.344590	0.993430
O461	O46	0.379050	0.330150	0.991740
O471	O47	0.334920	0.053520	0.857520
O481	O48	0.464570	0.137910	0.899050
