data_EPAGEJ_clean_PM
_symmetry_space_group_name_H-M	'P1'
_cell_length_a	34.558300
_cell_length_b	19.057300
_cell_length_c	23.688000
_cell_angle_alpha	90.000000
_cell_angle_beta	128.188000
_cell_angle_gamma	90.000000
_symmetry_Int_Tables_number 1

loop_
_symmetry_equiv_pos_as_xyz
'x,y,z'

loop_
_atom_site_label
_atom_site_type_symbol
_atom_site_fract_x
_atom_site_fract_y
_atom_site_fract_z
Gd11	Gd1	0.206240	0.092030	0.717760
O11	O1	0.131010	0.114000	0.706100
O21	O2	0.297280	0.093800	0.805000
O31	O3	0.237070	0.038500	0.661500
O41	O4	0.140820	0.066400	0.594450
O51	O5	0.184530	0.974300	0.705000
O61	O6	0.208330	0.194900	0.663900
O71	O7	0.224200	0.075480	0.836200
O81	O8	0.227820	0.184100	0.806900
C11	C1	0.092300	0.079300	0.677100
C21	C2	0.316200	0.033700	0.824200
Gd21	Gd2	0.175680	0.042730	0.535200
Gd31	Gd3	0.242180	0.913920	0.695090
Gd41	Gd4	0.105150	0.955710	0.587370
C31	C3	0.053200	0.105500	0.681500
O91	O9	0.081050	0.024600	0.640400
C41	C4	0.370600	0.025500	0.877700
O101	O10	0.290710	0.977600	0.800200
O111	O11	0.238420	0.976100	0.548700
O121	O12	0.168160	0.933800	0.578070
O131	O13	0.094240	0.079600	0.442200
O141	O14	0.189360	0.164600	0.558300
O151	O15	0.202430	0.829800	0.715200
O161	O16	0.293280	0.926300	0.656800
O171	O17	0.122170	0.853100	0.653400
O181	O18	0.056300	0.004000	0.465500
C51	C5	0.045700	0.177000	0.681700
C61	C6	0.019400	0.058900	0.676500
C71	C7	0.390100	0.960300	0.907000
C81	C8	0.401400	0.079000	0.895900
C91	C9	0.276600	0.942200	0.592900
C101	C10	0.056800	0.049200	0.426300
C111	C11	0.161100	0.821600	0.701400
H11	H1	0.067700	0.209100	0.686000
C121	C12	0.005100	0.200200	0.675200
C131	C13	0.028200	0.981500	0.688800
N11	N1	0.978830	0.081700	0.667200
H21	H2	0.369100	0.922300	0.893800
C141	C14	0.440500	0.950800	0.955700
C151	C15	0.452700	0.069400	0.944200
H31	H3	0.388700	0.123200	0.876500
C161	C16	0.306400	0.921800	0.569400
C171	C17	0.008500	0.068100	0.355900
C181	C18	0.158800	0.769400	0.746400
H41	H4	0.000100	0.247800	0.677500
C191	C19	0.971900	0.150000	0.665200
N21	N2	0.072620	0.961800	0.748500
H51	H5	0.452900	0.906900	0.976500
C201	C20	0.472800	0.005300	0.974300
H61	H6	0.473400	0.107300	0.955700
C211	C21	0.354400	0.945100	0.608400
C221	C22	0.287000	0.882800	0.506800
C231	C23	0.000100	0.138200	0.335600
C241	C24	0.118000	0.726100	0.715700
C251	C25	0.197300	0.760600	0.819000
H71	H7	0.943200	0.165700	0.656700
C261	C26	0.080300	0.894700	0.765800
H81	H8	0.369000	0.968600	0.651600
C271	C27	0.380800	0.933600	0.583200
C281	C28	0.238100	0.846300	0.464100
N31	N3	0.312450	0.870600	0.482200
C291	C29	0.954600	0.157200	0.273100
H91	H9	0.024500	0.171700	0.363400
H101	H10	0.090900	0.731800	0.667800
C301	C30	0.117800	0.675300	0.755900
C311	C31	0.240400	0.808700	0.861600
N41	N4	0.197300	0.711300	0.859000
H111	H11	0.111200	0.881500	0.806700
H121	H12	0.413000	0.949500	0.608400
C321	C32	0.357700	0.897600	0.519200
C331	C33	0.212500	0.830700	0.391400
N51	N5	0.221740	0.824300	0.500200
H131	H13	0.947700	0.203600	0.257600
H141	H14	0.090800	0.645800	0.736000
C341	C34	0.158400	0.668600	0.826500
C351	C35	0.288800	0.782200	0.903200
N61	N6	0.230800	0.877000	0.862400
H151	H15	0.374700	0.891900	0.500700
C361	C36	0.170600	0.788600	0.356600
C371	C37	0.224370	0.858800	0.344600
C381	C38	0.180200	0.786800	0.464700
H161	H16	0.158800	0.632300	0.853100
C391	C39	0.327100	0.827000	0.950900
C401	C40	0.297500	0.707600	0.893600
C411	C41	0.268900	0.918300	0.908900
C421	C42	0.153700	0.766800	0.393400
H171	H17	0.154200	0.775200	0.309100
H181	H18	0.168300	0.773300	0.489200
C431	C43	0.317000	0.896200	0.954400
H191	H19	0.359400	0.810700	0.980300
H201	H20	0.262600	0.965400	0.910600
H211	H21	0.125500	0.739600	0.371200
H221	H22	0.342100	0.927100	0.986800
Gd51	Gd5	0.706240	0.592030	0.717760
O191	O19	0.631010	0.614000	0.706100
O201	O20	0.797280	0.593800	0.805000
O211	O21	0.737070	0.538500	0.661500
O221	O22	0.640820	0.566400	0.594450
O231	O23	0.684530	0.474300	0.705000
O241	O24	0.708330	0.694900	0.663900
O251	O25	0.724200	0.575480	0.836200
O261	O26	0.727820	0.684100	0.806900
C441	C44	0.592300	0.579300	0.677100
C451	C45	0.816200	0.533700	0.824200
Gd61	Gd6	0.675680	0.542730	0.535200
Gd71	Gd7	0.742180	0.413920	0.695090
Gd81	Gd8	0.605150	0.455710	0.587370
C461	C46	0.553200	0.605500	0.681500
O271	O27	0.581050	0.524600	0.640400
C471	C47	0.870600	0.525500	0.877700
O281	O28	0.790710	0.477600	0.800200
O291	O29	0.738420	0.476100	0.548700
O301	O30	0.668160	0.433800	0.578070
O311	O31	0.594240	0.579600	0.442200
O321	O32	0.689360	0.664600	0.558300
O331	O33	0.702430	0.329800	0.715200
O341	O34	0.793280	0.426300	0.656800
O351	O35	0.622170	0.353100	0.653400
O361	O36	0.556300	0.504000	0.465500
C481	C48	0.545700	0.677000	0.681700
C491	C49	0.519400	0.558900	0.676500
C501	C50	0.890100	0.460300	0.907000
C511	C51	0.901400	0.579000	0.895900
C521	C52	0.776600	0.442200	0.592900
C531	C53	0.556800	0.549200	0.426300
C541	C54	0.661100	0.321600	0.701400
H231	H23	0.567700	0.709100	0.686000
C551	C55	0.505100	0.700200	0.675200
C561	C56	0.528200	0.481500	0.688800
N71	N7	0.478830	0.581700	0.667200
H241	H24	0.869100	0.422300	0.893800
C571	C57	0.940500	0.450800	0.955700
C581	C58	0.952700	0.569400	0.944200
H251	H25	0.888700	0.623200	0.876500
C591	C59	0.806400	0.421800	0.569400
C601	C60	0.508500	0.568100	0.355900
C611	C61	0.658800	0.269400	0.746400
H261	H26	0.500100	0.747800	0.677500
C621	C62	0.471900	0.650000	0.665200
N81	N8	0.572620	0.461800	0.748500
H271	H27	0.952900	0.406900	0.976500
C631	C63	0.972800	0.505300	0.974300
H281	H28	0.973400	0.607300	0.955700
C641	C64	0.854400	0.445100	0.608400
C651	C65	0.787000	0.382800	0.506800
C661	C66	0.500100	0.638200	0.335600
C671	C67	0.618000	0.226100	0.715700
C681	C68	0.697300	0.260600	0.819000
H291	H29	0.443200	0.665700	0.656700
C691	C69	0.580300	0.394700	0.765800
H301	H30	0.869000	0.468600	0.651600
C701	C70	0.880800	0.433600	0.583200
C711	C71	0.738100	0.346300	0.464100
N91	N9	0.812450	0.370600	0.482200
C721	C72	0.454600	0.657200	0.273100
H311	H31	0.524500	0.671700	0.363400
H321	H32	0.590900	0.231800	0.667800
C731	C73	0.617800	0.175300	0.755900
C741	C74	0.740400	0.308700	0.861600
N101	N10	0.697300	0.211300	0.859000
H331	H33	0.611200	0.381500	0.806700
H341	H34	0.913000	0.449500	0.608400
C751	C75	0.857700	0.397600	0.519200
C761	C76	0.712500	0.330700	0.391400
N111	N11	0.721740	0.324300	0.500200
H351	H35	0.447700	0.703600	0.257600
H361	H36	0.590800	0.145800	0.736000
C771	C77	0.658400	0.168600	0.826500
C781	C78	0.788800	0.282200	0.903200
N121	N12	0.730800	0.377000	0.862400
H371	H37	0.874700	0.391900	0.500700
C791	C79	0.670600	0.288600	0.356600
C801	C80	0.724370	0.358800	0.344600
C811	C81	0.680200	0.286800	0.464700
H381	H38	0.658800	0.132300	0.853100
C821	C82	0.827100	0.327000	0.950900
C831	C83	0.797500	0.207600	0.893600
C841	C84	0.768900	0.418300	0.908900
C851	C85	0.653700	0.266800	0.393400
H391	H39	0.654200	0.275200	0.309100
H401	H40	0.668300	0.273300	0.489200
C861	C86	0.817000	0.396200	0.954400
H411	H41	0.859400	0.310700	0.980300
H421	H42	0.762600	0.465400	0.910600
H431	H43	0.625500	0.239600	0.371200
H441	H44	0.842100	0.427100	0.986800
Gd91	Gd9	0.793760	0.092030	0.782240
O371	O37	0.868990	0.114000	0.793900
O381	O38	0.702720	0.093800	0.695000
O391	O39	0.762930	0.038500	0.838500
O401	O40	0.859180	0.066400	0.905550
O411	O41	0.815470	0.974300	0.795000
O421	O42	0.791670	0.194900	0.836100
O431	O43	0.775800	0.075480	0.663800
O441	O44	0.772180	0.184100	0.693100
C871	C87	0.907700	0.079300	0.822900
C881	C88	0.683800	0.033700	0.675800
Gd101	Gd10	0.824320	0.042730	0.964800
Gd111	Gd11	0.757820	0.913920	0.804910
Gd121	Gd12	0.894850	0.955710	0.912630
C891	C89	0.946800	0.105500	0.818500
O451	O45	0.918950	0.024600	0.859600
C901	C90	0.629400	0.025500	0.622300
O461	O46	0.709290	0.977600	0.699800
O471	O47	0.761580	0.976100	0.951300
O481	O48	0.831840	0.933800	0.921930
O491	O49	0.905760	0.079600	0.057800
O501	O50	0.810640	0.164600	0.941700
O511	O51	0.797570	0.829800	0.784800
O521	O52	0.706720	0.926300	0.843200
O531	O53	0.877830	0.853100	0.846600
O541	O54	0.943700	0.004000	0.034500
C911	C91	0.954300	0.177000	0.818300
C921	C92	0.980600	0.058900	0.823500
C931	C93	0.609900	0.960300	0.593000
C941	C94	0.598600	0.079000	0.604100
C951	C95	0.723400	0.942200	0.907100
C961	C96	0.943200	0.049200	0.073700
C971	C97	0.838900	0.821600	0.798600
H451	H45	0.932300	0.209100	0.814000
C981	C98	0.994900	0.200200	0.824800
C991	C99	0.971800	0.981500	0.811200
N131	N13	0.021170	0.081700	0.832800
H461	H46	0.630900	0.922300	0.606200
C1001	C100	0.559500	0.950800	0.544300
C1011	C101	0.547300	0.069400	0.555800
H471	H47	0.611300	0.123200	0.623500
C1021	C102	0.693600	0.921800	0.930600
C1031	C103	0.991500	0.068100	0.144100
C1041	C104	0.841200	0.769400	0.753600
H481	H48	0.999900	0.247800	0.822500
C1051	C105	0.028100	0.150000	0.834800
N141	N14	0.927380	0.961800	0.751500
H491	H49	0.547100	0.906900	0.523500
C1061	C106	0.527200	0.005300	0.525700
H501	H50	0.526600	0.107300	0.544300
C1071	C107	0.645600	0.945100	0.891600
C1081	C108	0.713000	0.882800	0.993200
C1091	C109	0.999900	0.138200	0.164400
C1101	C110	0.882000	0.726100	0.784300
C1111	C111	0.802700	0.760600	0.681000
H511	H51	0.056800	0.165700	0.843300
C1121	C112	0.919700	0.894700	0.734200
H521	H52	0.631000	0.968600	0.848400
C1131	C113	0.619200	0.933600	0.916800
C1141	C114	0.761900	0.846300	0.035900
N151	N15	0.687550	0.870600	0.017800
C1151	C115	0.045400	0.157200	0.226900
H531	H53	0.975500	0.171700	0.136600
H541	H54	0.909100	0.731800	0.832200
C1161	C116	0.882200	0.675300	0.744100
C1171	C117	0.759600	0.808700	0.638400
N161	N16	0.802700	0.711300	0.641000
H551	H55	0.888800	0.881500	0.693300
H561	H56	0.587000	0.949500	0.891600
C1181	C118	0.642300	0.897600	0.980800
C1191	C119	0.787500	0.830700	0.108600
N171	N17	0.778260	0.824300	0.999800
H571	H57	0.052300	0.203600	0.242400
H581	H58	0.909200	0.645800	0.764000
C1201	C120	0.841600	0.668600	0.673500
C1211	C121	0.711200	0.782200	0.596800
N181	N18	0.769200	0.877000	0.637600
H591	H59	0.625300	0.891900	0.999300
C1221	C122	0.829400	0.788600	0.143400
C1231	C123	0.775630	0.858800	0.155400
C1241	C124	0.819800	0.786800	0.035300
H601	H60	0.841200	0.632300	0.646900
C1251	C125	0.672900	0.827000	0.549100
C1261	C126	0.702500	0.707600	0.606400
C1271	C127	0.731100	0.918300	0.591100
C1281	C128	0.846300	0.766800	0.106600
H611	H61	0.845800	0.775200	0.190900
H621	H62	0.831700	0.773300	0.010800
C1291	C129	0.683000	0.896200	0.545600
H631	H63	0.640600	0.810700	0.519700
H641	H64	0.737400	0.965400	0.589400
H651	H65	0.874500	0.739600	0.128800
H661	H66	0.657900	0.927100	0.513200
Gd131	Gd13	0.293760	0.592030	0.782240
O551	O55	0.368990	0.614000	0.793900
O561	O56	0.202720	0.593800	0.695000
O571	O57	0.262930	0.538500	0.838500
O581	O58	0.359180	0.566400	0.905550
O591	O59	0.315470	0.474300	0.795000
O601	O60	0.291670	0.694900	0.836100
O611	O61	0.275800	0.575480	0.663800
O621	O62	0.272180	0.684100	0.693100
C1301	C130	0.407700	0.579300	0.822900
C1311	C131	0.183800	0.533700	0.675800
Gd141	Gd14	0.324320	0.542730	0.964800
Gd151	Gd15	0.257820	0.413920	0.804910
Gd161	Gd16	0.394850	0.455710	0.912630
C1321	C132	0.446800	0.605500	0.818500
O631	O63	0.418950	0.524600	0.859600
C1331	C133	0.129400	0.525500	0.622300
O641	O64	0.209290	0.477600	0.699800
O651	O65	0.261580	0.476100	0.951300
O661	O66	0.331840	0.433800	0.921930
O671	O67	0.405760	0.579600	0.057800
O681	O68	0.310640	0.664600	0.941700
O691	O69	0.297570	0.329800	0.784800
O701	O70	0.206720	0.426300	0.843200
O711	O71	0.377830	0.353100	0.846600
O721	O72	0.443700	0.504000	0.034500
C1341	C134	0.454300	0.677000	0.818300
C1351	C135	0.480600	0.558900	0.823500
C1361	C136	0.109900	0.460300	0.593000
C1371	C137	0.098600	0.579000	0.604100
C1381	C138	0.223400	0.442200	0.907100
C1391	C139	0.443200	0.549200	0.073700
C1401	C140	0.338900	0.321600	0.798600
H671	H67	0.432300	0.709100	0.814000
C1411	C141	0.494900	0.700200	0.824800
C1421	C142	0.471800	0.481500	0.811200
N191	N19	0.521170	0.581700	0.832800
H681	H68	0.130900	0.422300	0.606200
C1431	C143	0.059500	0.450800	0.544300
C1441	C144	0.047300	0.569400	0.555800
H691	H69	0.111300	0.623200	0.623500
C1451	C145	0.193600	0.421800	0.930600
C1461	C146	0.491500	0.568100	0.144100
C1471	C147	0.341200	0.269400	0.753600
H701	H70	0.499900	0.747800	0.822500
C1481	C148	0.528100	0.650000	0.834800
N201	N20	0.427380	0.461800	0.751500
H711	H71	0.047100	0.406900	0.523500
C1491	C149	0.027200	0.505300	0.525700
H721	H72	0.026600	0.607300	0.544300
C1501	C150	0.145600	0.445100	0.891600
C1511	C151	0.213000	0.382800	0.993200
C1521	C152	0.499900	0.638200	0.164400
C1531	C153	0.382000	0.226100	0.784300
C1541	C154	0.302700	0.260600	0.681000
H731	H73	0.556800	0.665700	0.843300
C1551	C155	0.419700	0.394700	0.734200
H741	H74	0.131000	0.468600	0.848400
C1561	C156	0.119200	0.433600	0.916800
C1571	C157	0.261900	0.346300	0.035900
N211	N21	0.187550	0.370600	0.017800
C1581	C158	0.545400	0.657200	0.226900
H751	H75	0.475500	0.671700	0.136600
H761	H76	0.409100	0.231800	0.832200
C1591	C159	0.382200	0.175300	0.744100
C1601	C160	0.259600	0.308700	0.638400
N221	N22	0.302700	0.211300	0.641000
H771	H77	0.388800	0.381500	0.693300
H781	H78	0.087000	0.449500	0.891600
C1611	C161	0.142300	0.397600	0.980800
C1621	C162	0.287500	0.330700	0.108600
N231	N23	0.278260	0.324300	0.999800
H791	H79	0.552300	0.703600	0.242400
H801	H80	0.409200	0.145800	0.764000
C1631	C163	0.341600	0.168600	0.673500
C1641	C164	0.211200	0.282200	0.596800
N241	N24	0.269200	0.377000	0.637600
H811	H81	0.125300	0.391900	0.999300
C1651	C165	0.329400	0.288600	0.143400
C1661	C166	0.275630	0.358800	0.155400
C1671	C167	0.319800	0.286800	0.035300
H821	H82	0.341200	0.132300	0.646900
C1681	C168	0.172900	0.327000	0.549100
C1691	C169	0.202500	0.207600	0.606400
C1701	C170	0.231100	0.418300	0.591100
C1711	C171	0.346300	0.266800	0.106600
H831	H83	0.345800	0.275200	0.190900
H841	H84	0.331700	0.273300	0.010800
C1721	C172	0.183000	0.396200	0.545600
H851	H85	0.140600	0.310700	0.519700
H861	H86	0.237400	0.465400	0.589400
H871	H87	0.374500	0.239600	0.128800
H881	H88	0.157900	0.427100	0.513200
Gd171	Gd17	0.793760	0.907970	0.282240
O731	O73	0.868990	0.886000	0.293900
O741	O74	0.702720	0.906200	0.195000
O751	O75	0.762930	0.961500	0.338500
O761	O76	0.859180	0.933600	0.405550
O771	O77	0.815470	0.025700	0.295000
O781	O78	0.791670	0.805100	0.336100
O791	O79	0.775800	0.924520	0.163800
O801	O80	0.772180	0.815900	0.193100
C1731	C173	0.907700	0.920700	0.322900
C1741	C174	0.683800	0.966300	0.175800
Gd181	Gd18	0.824320	0.957270	0.464800
Gd191	Gd19	0.757820	0.086080	0.304910
Gd201	Gd20	0.894850	0.044290	0.412630
C1751	C175	0.946800	0.894500	0.318500
O811	O81	0.918950	0.975400	0.359600
C1761	C176	0.629400	0.974500	0.122300
O821	O82	0.709290	0.022400	0.199800
O831	O83	0.761580	0.023900	0.451300
O841	O84	0.831840	0.066200	0.421930
O851	O85	0.905760	0.920400	0.557800
O861	O86	0.810640	0.835400	0.441700
O871	O87	0.797570	0.170200	0.284800
O881	O88	0.706720	0.073700	0.343200
O891	O89	0.877830	0.146900	0.346600
O901	O90	0.943700	0.996000	0.534500
C1771	C177	0.954300	0.823000	0.318300
C1781	C178	0.980600	0.941100	0.323500
C1791	C179	0.609900	0.039700	0.093000
C1801	C180	0.598600	0.921000	0.104100
C1811	C181	0.723400	0.057800	0.407100
C1821	C182	0.943200	0.950800	0.573700
C1831	C183	0.838900	0.178400	0.298600
H891	H89	0.932300	0.790900	0.314000
C1841	C184	0.994900	0.799800	0.324800
C1851	C185	0.971800	0.018500	0.311200
N251	N25	0.021170	0.918300	0.332800
H901	H90	0.630900	0.077700	0.106200
C1861	C186	0.559500	0.049200	0.044300
C1871	C187	0.547300	0.930600	0.055800
H911	H91	0.611300	0.876800	0.123500
C1881	C188	0.693600	0.078200	0.430600
C1891	C189	0.991500	0.931900	0.644100
C1901	C190	0.841200	0.230600	0.253600
H921	H92	0.999900	0.752200	0.322500
C1911	C191	0.028100	0.850000	0.334800
N261	N26	0.927380	0.038200	0.251500
H931	H93	0.547100	0.093100	0.023500
C1921	C192	0.527200	0.994700	0.025700
H941	H94	0.526600	0.892700	0.044300
C1931	C193	0.645600	0.054900	0.391600
C1941	C194	0.713000	0.117200	0.493200
C1951	C195	0.999900	0.861800	0.664400
C1961	C196	0.882000	0.273900	0.284300
C1971	C197	0.802700	0.239400	0.181000
H951	H95	0.056800	0.834300	0.343300
C1981	C198	0.919700	0.105300	0.234200
H961	H96	0.631000	0.031400	0.348400
C1991	C199	0.619200	0.066400	0.416800
C2001	C200	0.761900	0.153700	0.535900
N271	N27	0.687550	0.129400	0.517800
C2011	C201	0.045400	0.842800	0.726900
H971	H97	0.975500	0.828300	0.636600
H981	H98	0.909100	0.268200	0.332200
C2021	C202	0.882200	0.324700	0.244100
C2031	C203	0.759600	0.191300	0.138400
N281	N28	0.802700	0.288700	0.141000
H991	H99	0.888800	0.118500	0.193300
H1001	H100	0.587000	0.050500	0.391600
C2041	C204	0.642300	0.102400	0.480800
C2051	C205	0.787500	0.169300	0.608600
N291	N29	0.778260	0.175700	0.499800
H1011	H101	0.052300	0.796400	0.742400
H1021	H102	0.909200	0.354200	0.264000
C2061	C206	0.841600	0.331400	0.173500
C2071	C207	0.711200	0.217800	0.096800
N301	N30	0.769200	0.123000	0.137600
H1031	H103	0.625300	0.108100	0.499300
C2081	C208	0.829400	0.211400	0.643400
C2091	C209	0.775630	0.141200	0.655400
C2101	C210	0.819800	0.213200	0.535300
H1041	H104	0.841200	0.367700	0.146900
C2111	C211	0.672900	0.173000	0.049100
C2121	C212	0.702500	0.292400	0.106400
C2131	C213	0.731100	0.081700	0.091100
C2141	C214	0.846300	0.233200	0.606600
H1051	H105	0.845800	0.224800	0.690900
H1061	H106	0.831700	0.226700	0.510800
C2151	C215	0.683000	0.103800	0.045600
H1071	H107	0.640600	0.189300	0.019700
H1081	H108	0.737400	0.034600	0.089400
H1091	H109	0.874500	0.260400	0.628800
H1101	H110	0.657900	0.072900	0.013200
Gd211	Gd21	0.293760	0.407970	0.282240
O911	O91	0.368990	0.386000	0.293900
O921	O92	0.202720	0.406200	0.195000
O931	O93	0.262930	0.461500	0.338500
O941	O94	0.359180	0.433600	0.405550
O951	O95	0.315470	0.525700	0.295000
O961	O96	0.291670	0.305100	0.336100
O971	O97	0.275800	0.424520	0.163800
O981	O98	0.272180	0.315900	0.193100
C2161	C216	0.407700	0.420700	0.322900
C2171	C217	0.183800	0.466300	0.175800
Gd221	Gd22	0.324320	0.457270	0.464800
Gd231	Gd23	0.257820	0.586080	0.304910
Gd241	Gd24	0.394850	0.544290	0.412630
C2181	C218	0.446800	0.394500	0.318500
O991	O99	0.418950	0.475400	0.359600
C2191	C219	0.129400	0.474500	0.122300
O1001	O100	0.209290	0.522400	0.199800
O1011	O101	0.261580	0.523900	0.451300
O1021	O102	0.331840	0.566200	0.421930
O1031	O103	0.405760	0.420400	0.557800
O1041	O104	0.310640	0.335400	0.441700
O1051	O105	0.297570	0.670200	0.284800
O1061	O106	0.206720	0.573700	0.343200
O1071	O107	0.377830	0.646900	0.346600
O1081	O108	0.443700	0.496000	0.534500
C2201	C220	0.454300	0.323000	0.318300
C2211	C221	0.480600	0.441100	0.323500
C2221	C222	0.109900	0.539700	0.093000
C2231	C223	0.098600	0.421000	0.104100
C2241	C224	0.223400	0.557800	0.407100
C2251	C225	0.443200	0.450800	0.573700
C2261	C226	0.338900	0.678400	0.298600
H1111	H111	0.432300	0.290900	0.314000
C2271	C227	0.494900	0.299800	0.324800
C2281	C228	0.471800	0.518500	0.311200
N311	N31	0.521170	0.418300	0.332800
H1121	H112	0.130900	0.577700	0.106200
C2291	C229	0.059500	0.549200	0.044300
C2301	C230	0.047300	0.430600	0.055800
H1131	H113	0.111300	0.376800	0.123500
C2311	C231	0.193600	0.578200	0.430600
C2321	C232	0.491500	0.431900	0.644100
C2331	C233	0.341200	0.730600	0.253600
H1141	H114	0.499900	0.252200	0.322500
C2341	C234	0.528100	0.350000	0.334800
N321	N32	0.427380	0.538200	0.251500
H1151	H115	0.047100	0.593100	0.023500
C2351	C235	0.027200	0.494700	0.025700
H1161	H116	0.026600	0.392700	0.044300
C2361	C236	0.145600	0.554900	0.391600
C2371	C237	0.213000	0.617200	0.493200
C2381	C238	0.499900	0.361800	0.664400
C2391	C239	0.382000	0.773900	0.284300
C2401	C240	0.302700	0.739400	0.181000
H1171	H117	0.556800	0.334300	0.343300
C2411	C241	0.419700	0.605300	0.234200
H1181	H118	0.131000	0.531400	0.348400
C2421	C242	0.119200	0.566400	0.416800
C2431	C243	0.261900	0.653700	0.535900
N331	N33	0.187550	0.629400	0.517800
C2441	C244	0.545400	0.342800	0.726900
H1191	H119	0.475500	0.328300	0.636600
H1201	H120	0.409100	0.768200	0.332200
C2451	C245	0.382200	0.824700	0.244100
C2461	C246	0.259600	0.691300	0.138400
N341	N34	0.302700	0.788700	0.141000
H1211	H121	0.388800	0.618500	0.193300
H1221	H122	0.087000	0.550500	0.391600
C2471	C247	0.142300	0.602400	0.480800
C2481	C248	0.287500	0.669300	0.608600
N351	N35	0.278260	0.675700	0.499800
H1231	H123	0.552300	0.296400	0.742400
H1241	H124	0.409200	0.854200	0.264000
C2491	C249	0.341600	0.831400	0.173500
C2501	C250	0.211200	0.717800	0.096800
N361	N36	0.269200	0.623000	0.137600
H1251	H125	0.125300	0.608100	0.499300
C2511	C251	0.329400	0.711400	0.643400
C2521	C252	0.275630	0.641200	0.655400
C2531	C253	0.319800	0.713200	0.535300
H1261	H126	0.341200	0.867700	0.146900
C2541	C254	0.172900	0.673000	0.049100
C2551	C255	0.202500	0.792400	0.106400
C2561	C256	0.231100	0.581700	0.091100
C2571	C257	0.346300	0.733200	0.606600
H1271	H127	0.345800	0.724800	0.690900
H1281	H128	0.331700	0.726700	0.510800
C2581	C258	0.183000	0.603800	0.045600
H1291	H129	0.140600	0.689300	0.019700
H1301	H130	0.237400	0.534600	0.089400
H1311	H131	0.374500	0.760400	0.628800
H1321	H132	0.157900	0.572900	0.013200
Gd251	Gd25	0.206240	0.907970	0.217760
O1091	O109	0.131010	0.886000	0.206100
O1101	O110	0.297280	0.906200	0.305000
O1111	O111	0.237070	0.961500	0.161500
O1121	O112	0.140820	0.933600	0.094450
O1131	O113	0.184530	0.025700	0.205000
O1141	O114	0.208330	0.805100	0.163900
O1151	O115	0.224200	0.924520	0.336200
O1161	O116	0.227820	0.815900	0.306900
C2591	C259	0.092300	0.920700	0.177100
C2601	C260	0.316200	0.966300	0.324200
Gd261	Gd26	0.175680	0.957270	0.035200
Gd271	Gd27	0.242180	0.086080	0.195090
Gd281	Gd28	0.105150	0.044290	0.087370
C2611	C261	0.053200	0.894500	0.181500
O1171	O117	0.081050	0.975400	0.140400
C2621	C262	0.370600	0.974500	0.377700
O1181	O118	0.290710	0.022400	0.300200
O1191	O119	0.238420	0.023900	0.048700
O1201	O120	0.168160	0.066200	0.078070
O1211	O121	0.094240	0.920400	0.942200
O1221	O122	0.189360	0.835400	0.058300
O1231	O123	0.202430	0.170200	0.215200
O1241	O124	0.293280	0.073700	0.156800
O1251	O125	0.122170	0.146900	0.153400
O1261	O126	0.056300	0.996000	0.965500
C2631	C263	0.045700	0.823000	0.181700
C2641	C264	0.019400	0.941100	0.176500
C2651	C265	0.390100	0.039700	0.407000
C2661	C266	0.401400	0.921000	0.395900
C2671	C267	0.276600	0.057800	0.092900
C2681	C268	0.056800	0.950800	0.926300
C2691	C269	0.161100	0.178400	0.201400
H1331	H133	0.067700	0.790900	0.186000
C2701	C270	0.005100	0.799800	0.175200
C2711	C271	0.028200	0.018500	0.188800
N371	N37	0.978830	0.918300	0.167200
H1341	H134	0.369100	0.077700	0.393800
C2721	C272	0.440500	0.049200	0.455700
C2731	C273	0.452700	0.930600	0.444200
H1351	H135	0.388700	0.876800	0.376500
C2741	C274	0.306400	0.078200	0.069400
C2751	C275	0.008500	0.931900	0.855900
C2761	C276	0.158800	0.230600	0.246400
H1361	H136	0.000100	0.752200	0.177500
C2771	C277	0.971900	0.850000	0.165200
N381	N38	0.072620	0.038200	0.248500
H1371	H137	0.452900	0.093100	0.476500
C2781	C278	0.472800	0.994700	0.474300
H1381	H138	0.473400	0.892700	0.455700
C2791	C279	0.354400	0.054900	0.108400
C2801	C280	0.287000	0.117200	0.006800
C2811	C281	0.000100	0.861800	0.835600
C2821	C282	0.118000	0.273900	0.215700
C2831	C283	0.197300	0.239400	0.319000
H1391	H139	0.943200	0.834300	0.156700
C2841	C284	0.080300	0.105300	0.265800
H1401	H140	0.369000	0.031400	0.151600
C2851	C285	0.380800	0.066400	0.083200
C2861	C286	0.238100	0.153700	0.964100
N391	N39	0.312450	0.129400	0.982200
C2871	C287	0.954600	0.842800	0.773100
H1411	H141	0.024500	0.828300	0.863400
H1421	H142	0.090900	0.268200	0.167800
C2881	C288	0.117800	0.324700	0.255900
C2891	C289	0.240400	0.191300	0.361600
N401	N40	0.197300	0.288700	0.359000
H1431	H143	0.111200	0.118500	0.306700
H1441	H144	0.413000	0.050500	0.108400
C2901	C290	0.357700	0.102400	0.019200
C2911	C291	0.212500	0.169300	0.891400
N411	N41	0.221740	0.175700	0.000200
H1451	H145	0.947700	0.796400	0.757600
H1461	H146	0.090800	0.354200	0.236000
C2921	C292	0.158400	0.331400	0.326500
C2931	C293	0.288800	0.217800	0.403200
N421	N42	0.230800	0.123000	0.362400
H1471	H147	0.374700	0.108100	0.000700
C2941	C294	0.170600	0.211400	0.856600
C2951	C295	0.224370	0.141200	0.844600
C2961	C296	0.180200	0.213200	0.964700
H1481	H148	0.158800	0.367700	0.353100
C2971	C297	0.327100	0.173000	0.450900
C2981	C298	0.297500	0.292400	0.393600
C2991	C299	0.268900	0.081700	0.408900
C3001	C300	0.153700	0.233200	0.893400
H1491	H149	0.154200	0.224800	0.809100
H1501	H150	0.168300	0.226700	0.989200
C3011	C301	0.317000	0.103800	0.454400
H1511	H151	0.359400	0.189300	0.480300
H1521	H152	0.262600	0.034600	0.410600
H1531	H153	0.125500	0.260400	0.871200
H1541	H154	0.342100	0.072900	0.486800
Gd291	Gd29	0.706240	0.407970	0.217760
O1271	O127	0.631010	0.386000	0.206100
O1281	O128	0.797280	0.406200	0.305000
O1291	O129	0.737070	0.461500	0.161500
O1301	O130	0.640820	0.433600	0.094450
O1311	O131	0.684530	0.525700	0.205000
O1321	O132	0.708330	0.305100	0.163900
O1331	O133	0.724200	0.424520	0.336200
O1341	O134	0.727820	0.315900	0.306900
C3021	C302	0.592300	0.420700	0.177100
C3031	C303	0.816200	0.466300	0.324200
Gd301	Gd30	0.675680	0.457270	0.035200
Gd311	Gd31	0.742180	0.586080	0.195090
Gd321	Gd32	0.605150	0.544290	0.087370
C3041	C304	0.553200	0.394500	0.181500
O1351	O135	0.581050	0.475400	0.140400
C3051	C305	0.870600	0.474500	0.377700
O1361	O136	0.790710	0.522400	0.300200
O1371	O137	0.738420	0.523900	0.048700
O1381	O138	0.668160	0.566200	0.078070
O1391	O139	0.594240	0.420400	0.942200
O1401	O140	0.689360	0.335400	0.058300
O1411	O141	0.702430	0.670200	0.215200
O1421	O142	0.793280	0.573700	0.156800
O1431	O143	0.622170	0.646900	0.153400
O1441	O144	0.556300	0.496000	0.965500
C3061	C306	0.545700	0.323000	0.181700
C3071	C307	0.519400	0.441100	0.176500
C3081	C308	0.890100	0.539700	0.407000
C3091	C309	0.901400	0.421000	0.395900
C3101	C310	0.776600	0.557800	0.092900
C3111	C311	0.556800	0.450800	0.926300
C3121	C312	0.661100	0.678400	0.201400
H1551	H155	0.567700	0.290900	0.186000
C3131	C313	0.505100	0.299800	0.175200
C3141	C314	0.528200	0.518500	0.188800
N431	N43	0.478830	0.418300	0.167200
H1561	H156	0.869100	0.577700	0.393800
C3151	C315	0.940500	0.549200	0.455700
C3161	C316	0.952700	0.430600	0.444200
H1571	H157	0.888700	0.376800	0.376500
C3171	C317	0.806400	0.578200	0.069400
C3181	C318	0.508500	0.431900	0.855900
C3191	C319	0.658800	0.730600	0.246400
H1581	H158	0.500100	0.252200	0.177500
C3201	C320	0.471900	0.350000	0.165200
N441	N44	0.572620	0.538200	0.248500
H1591	H159	0.952900	0.593100	0.476500
C3211	C321	0.972800	0.494700	0.474300
H1601	H160	0.973400	0.392700	0.455700
C3221	C322	0.854400	0.554900	0.108400
C3231	C323	0.787000	0.617200	0.006800
C3241	C324	0.500100	0.361800	0.835600
C3251	C325	0.618000	0.773900	0.215700
C3261	C326	0.697300	0.739400	0.319000
H1611	H161	0.443200	0.334300	0.156700
C3271	C327	0.580300	0.605300	0.265800
H1621	H162	0.869000	0.531400	0.151600
C3281	C328	0.880800	0.566400	0.083200
C3291	C329	0.738100	0.653700	0.964100
N451	N45	0.812450	0.629400	0.982200
C3301	C330	0.454600	0.342800	0.773100
H1631	H163	0.524500	0.328300	0.863400
H1641	H164	0.590900	0.768200	0.167800
C3311	C331	0.617800	0.824700	0.255900
C3321	C332	0.740400	0.691300	0.361600
N461	N46	0.697300	0.788700	0.359000
H1651	H165	0.611200	0.618500	0.306700
H1661	H166	0.913000	0.550500	0.108400
C3331	C333	0.857700	0.602400	0.019200
C3341	C334	0.712500	0.669300	0.891400
N471	N47	0.721740	0.675700	0.000200
H1671	H167	0.447700	0.296400	0.757600
H1681	H168	0.590800	0.854200	0.236000
C3351	C335	0.658400	0.831400	0.326500
C3361	C336	0.788800	0.717800	0.403200
N481	N48	0.730800	0.623000	0.362400
H1691	H169	0.874700	0.608100	0.000700
C3371	C337	0.670600	0.711400	0.856600
C3381	C338	0.724370	0.641200	0.844600
C3391	C339	0.680200	0.713200	0.964700
H1701	H170	0.658800	0.867700	0.353100
C3401	C340	0.827100	0.673000	0.450900
C3411	C341	0.797500	0.792400	0.393600
C3421	C342	0.768900	0.581700	0.408900
C3431	C343	0.653700	0.733200	0.893400
H1711	H171	0.654200	0.724800	0.809100
H1721	H172	0.668300	0.726700	0.989200
C3441	C344	0.817000	0.603800	0.454400
H1731	H173	0.859400	0.689300	0.480300
H1741	H174	0.762600	0.534600	0.410600
H1751	H175	0.625500	0.760400	0.871200
H1761	H176	0.842100	0.572900	0.486800
