data_EPECIN_clean_PM
_symmetry_space_group_name_H-M	'P1'
_cell_length_a	19.556000
_cell_length_b	16.330000
_cell_length_c	25.573000
_cell_angle_alpha	90.000000
_cell_angle_beta	91.097000
_cell_angle_gamma	90.000000
_symmetry_Int_Tables_number 1

loop_
_symmetry_equiv_pos_as_xyz
'x,y,z'

loop_
_atom_site_label
_atom_site_type_symbol
_atom_site_fract_x
_atom_site_fract_y
_atom_site_fract_z
C11	C1	0.370000	0.389100	0.219100
C21	C2	0.123200	0.936600	0.370600
C31	C3	0.458400	0.599600	0.025900
H11	H1	0.429600	0.618700	0.998200
C41	C4	0.123800	0.064700	0.233400
C51	C5	0.275800	0.237400	0.354400
C61	C6	0.611100	0.585000	0.263100
C71	C7	0.475900	0.461100	0.186000
C81	C8	0.427700	0.450000	0.223800
C91	C9	0.139400	0.822900	0.312200
C101	C10	0.535000	0.378000	0.124400
C111	C11	0.014000	0.900200	0.298600
C121	C12	0.068500	0.006200	0.246500
C131	C13	0.073400	0.941500	0.283500
C141	C14	0.583100	0.510000	0.150600
H21	H2	0.626600	0.540400	0.158000
C151	C15	0.952700	0.911000	0.272300
C161	C16	0.315700	0.310500	0.437600
C171	C17	0.284600	0.256800	0.522100
C181	C18	0.537100	0.507100	0.198200
C191	C19	0.249700	0.194000	0.496400
H31	H3	0.225200	0.155100	0.516300
C201	C20	0.060600	0.904000	0.386900
C211	C21	0.026600	0.846000	0.348200
H41	H4	0.984200	0.819600	0.361600
C221	C22	0.548700	0.381400	0.496600
H51	H5	0.590500	0.382600	0.516200
C231	C23	0.137100	0.915100	0.314000
H61	H6	0.179700	0.941200	0.300800
C241	C24	0.319200	0.465700	0.485000
C251	C25	0.437000	0.488400	0.273100
H71	H7	0.403100	0.483500	0.299000
C261	C26	0.596000	0.419200	0.137000
C271	C27	0.159600	0.988500	0.402400
H81	H8	0.199700	0.014300	0.390100
C281	C28	0.281900	0.246600	0.412500
C291	C29	0.316500	0.315000	0.492000
C301	C30	0.486100	0.386100	0.522900
H91	H9	0.485100	0.389800	0.559900
C311	C31	0.137300	0.003300	0.453200
H101	H10	0.163900	0.036400	0.476400
C321	C32	0.355300	0.381200	0.412800
H111	H11	0.356900	0.377400	0.373800
C331	C33	0.482000	0.504300	0.094700
C341	C34	0.249900	0.187000	0.442800
H121	H12	0.228200	0.141500	0.426200
C351	C35	0.489000	0.378800	0.414000
H131	H13	0.489700	0.380700	0.376900
C361	C36	0.353400	0.392200	0.512800
H141	H14	0.352200	0.396800	0.551800
C371	C37	0.289800	0.529400	0.509400
H151	H15	0.288800	0.532100	0.546400
C381	C38	0.080900	0.785000	0.331400
C391	C39	0.659100	0.382700	0.133500
H161	H16	0.700100	0.412600	0.140000
C401	C40	0.515000	0.639900	0.037700
H171	H17	0.525800	0.687800	0.018400
C411	C41	0.536700	0.295400	0.110900
H181	H18	0.496000	0.265900	0.102700
C421	C42	0.191300	0.693700	0.298800
H191	H19	0.228900	0.661900	0.287300
C431	C43	0.006000	0.016000	0.219800
H201	H20	0.002100	0.054700	0.192200
C441	C44	0.545700	0.539300	0.246800
C451	C45	0.949400	0.969300	0.233600
H211	H21	0.907000	0.978100	0.215600
C461	C46	0.284100	0.257400	0.580300
C471	C47	0.193500	0.774700	0.295100
H221	H22	0.232500	0.800300	0.280700
C481	C48	0.265200	0.587700	0.425600
H231	H23	0.247500	0.631000	0.404600
C491	C49	0.039400	0.918400	0.436400
H241	H24	0.999000	0.893600	0.449100
C501	C50	0.494500	0.532000	0.283100
H251	H25	0.500000	0.558500	0.316000
C511	C51	0.079600	0.971600	0.468800
H261	H26	0.064000	0.984400	0.502800
C521	C52	0.560500	0.613500	0.078600
H271	H27	0.602600	0.640700	0.085800
C531	C53	0.439900	0.529200	0.053500
H281	H28	0.399700	0.499400	0.044200
C541	C54	0.261100	0.591300	0.478500
H291	H29	0.238600	0.636100	0.494500
C551	C55	0.471200	0.431100	0.129200
H301	H30	0.427800	0.401000	0.120900
C561	C56	0.599900	0.258200	0.110000
H311	H31	0.602300	0.201400	0.102100
C571	C57	0.078300	0.702400	0.336000
H321	H32	0.039300	0.676900	0.350400
C581	C58	0.550200	0.375100	0.443100
H331	H33	0.592500	0.368300	0.426000
C591	C59	0.295300	0.520400	0.402500
H341	H34	0.297100	0.517900	0.365400
C601	C60	0.427700	0.379700	0.439800
C611	C61	0.887800	0.865300	0.281900
C621	C62	0.322400	0.457700	0.431300
C631	C63	0.425400	0.385100	0.492700
C641	C64	0.541000	0.549300	0.105800
C651	C65	0.133400	0.654500	0.319600
H351	H35	0.131900	0.596500	0.322400
C661	C66	0.660500	0.300600	0.120100
H361	H36	0.703100	0.273000	0.117900
O11	O1	0.385400	0.327300	0.194100
O21	O2	0.315000	0.404300	0.240800
O31	O3	0.664800	0.568500	0.242100
O41	O4	0.269900	0.167500	0.335700
O51	O5	0.273400	0.303400	0.329200
O61	O6	0.837400	0.890800	0.255700
O71	O7	0.339300	0.281600	0.602800
O81	O8	0.248700	0.222900	0.214100
O91	O9	0.112400	0.122100	0.202200
O101	O10	0.180600	0.054900	0.258300
O111	O11	0.234300	0.228700	0.603800
O121	O12	0.601700	0.639600	0.296200
O131	O13	0.888100	0.807000	0.313500
Zn11	Zn1	0.333300	0.224270	0.177480
Zn21	Zn2	0.251140	0.135610	0.262960
Zn31	Zn3	0.171050	0.208920	0.162230
Zn41	Zn4	0.243480	0.321720	0.255200
C671	C67	0.630000	0.889100	0.280900
C681	C68	0.876800	0.436600	0.129400
C691	C69	0.541600	0.099600	0.474100
H371	H37	0.570400	0.118700	0.501800
C701	C70	0.876200	0.564700	0.266600
C711	C71	0.724200	0.737400	0.145600
C721	C72	0.388900	0.085000	0.236900
C731	C73	0.524100	0.961100	0.314000
C741	C74	0.572300	0.950000	0.276200
C751	C75	0.860600	0.322900	0.187800
C761	C76	0.465000	0.878000	0.375600
C771	C77	0.986000	0.400200	0.201400
C781	C78	0.931500	0.506200	0.253500
C791	C79	0.926600	0.441500	0.216500
C801	C80	0.416900	0.010000	0.349400
H381	H38	0.373400	0.040400	0.342000
C811	C81	0.047300	0.411000	0.227700
C821	C82	0.684300	0.810500	0.062400
C831	C83	0.715400	0.756800	0.977900
C841	C84	0.462900	0.007100	0.301800
C851	C85	0.750300	0.694000	0.003600
H391	H39	0.774800	0.655100	0.983700
C861	C86	0.939400	0.404000	0.113100
C871	C87	0.973400	0.346000	0.151800
H401	H40	0.015800	0.319600	0.138400
C881	C88	0.451300	0.881400	0.003400
H411	H41	0.409500	0.882600	0.983800
C891	C89	0.862900	0.415100	0.186000
H421	H42	0.820300	0.441200	0.199200
C901	C90	0.680800	0.965700	0.015000
C911	C91	0.563000	0.988400	0.226900
H431	H43	0.596900	0.983500	0.201000
C921	C92	0.404000	0.919200	0.363000
C931	C93	0.840400	0.488500	0.097600
H441	H44	0.800300	0.514300	0.109900
C941	C94	0.718100	0.746600	0.087500
C951	C95	0.683500	0.815000	0.008000
C961	C96	0.513900	0.886100	0.977100
H451	H45	0.514900	0.889800	0.940100
C971	C97	0.862700	0.503300	0.046800
H461	H46	0.836100	0.536400	0.023600
C981	C98	0.644700	0.881200	0.087200
H471	H47	0.643100	0.877400	0.126200
C991	C99	0.518000	0.004300	0.405300
C1001	C100	0.750100	0.687000	0.057200
H481	H48	0.771800	0.641500	0.073800
C1011	C101	0.511000	0.878800	0.086000
H491	H49	0.510300	0.880700	0.123100
C1021	C102	0.646600	0.892200	0.987200
H501	H50	0.647800	0.896800	0.948200
C1031	C103	0.710200	0.029400	0.990600
H511	H51	0.711200	0.032100	0.953600
C1041	C104	0.919100	0.285000	0.168600
C1051	C105	0.340900	0.882700	0.366500
H521	H52	0.299900	0.912600	0.360000
C1061	C106	0.485000	0.139900	0.462300
H531	H53	0.474200	0.187800	0.481600
C1071	C107	0.463300	0.795400	0.389100
H541	H54	0.504000	0.765900	0.397300
C1081	C108	0.808700	0.193700	0.201200
H551	H55	0.771100	0.161900	0.212700
C1091	C109	0.994000	0.516000	0.280200
H561	H56	0.997900	0.554700	0.307800
C1101	C110	0.454300	0.039300	0.253200
C1111	C111	0.050600	0.469300	0.266400
H571	H57	0.093000	0.478100	0.284400
C1121	C112	0.715900	0.757400	0.919700
C1131	C113	0.806500	0.274700	0.204900
H581	H58	0.767500	0.300300	0.219300
C1141	C114	0.734800	0.087700	0.074400
H591	H59	0.752500	0.131000	0.095400
C1151	C115	0.960600	0.418400	0.063600
H601	H60	0.001000	0.393600	0.050900
C1161	C116	0.505500	0.032000	0.216900
H611	H61	0.500000	0.058500	0.184000
C1171	C117	0.920400	0.471600	0.031200
H621	H62	0.936000	0.484400	0.997200
C1181	C118	0.439500	0.113500	0.421400
H631	H63	0.397400	0.140700	0.414200
C1191	C119	0.560100	0.029200	0.446500
H641	H64	0.600300	0.999400	0.455800
C1201	C120	0.738900	0.091300	0.021500
H651	H65	0.761400	0.136100	0.005500
C1211	C121	0.528800	0.931100	0.370800
H661	H66	0.572200	0.901000	0.379100
C1221	C122	0.400100	0.758200	0.390000
H671	H67	0.397700	0.701400	0.397900
C1231	C123	0.921700	0.202400	0.164000
H681	H68	0.960700	0.176900	0.149600
C1241	C124	0.449800	0.875100	0.056900
H691	H69	0.407500	0.868300	0.074000
C1251	C125	0.704700	0.020400	0.097500
H701	H70	0.702900	0.017900	0.134600
C1261	C126	0.572300	0.879700	0.060200
C1271	C127	0.112200	0.365300	0.218100
C1281	C128	0.677600	0.957700	0.068700
C1291	C129	0.574600	0.885100	0.007300
C1301	C130	0.459000	0.049300	0.394200
C1311	C131	0.866600	0.154500	0.180400
H711	H71	0.868100	0.096500	0.177600
C1321	C132	0.339500	0.800600	0.379900
H721	H72	0.296900	0.773000	0.382100
O141	O14	0.614600	0.827300	0.305900
O151	O15	0.685000	0.904300	0.259200
O161	O16	0.335200	0.068500	0.257900
O171	O17	0.730100	0.667500	0.164300
O181	O18	0.726600	0.803400	0.170800
O191	O19	0.162600	0.390800	0.244300
O201	O20	0.660700	0.781600	0.897200
O211	O21	0.751300	0.722900	0.285900
O221	O22	0.887600	0.622100	0.297800
O231	O23	0.819400	0.554900	0.241700
O241	O24	0.765700	0.728700	0.896200
O251	O25	0.398300	0.139600	0.203800
O261	O26	0.111900	0.307000	0.186500
Zn51	Zn5	0.666700	0.724270	0.322520
Zn61	Zn6	0.748860	0.635610	0.237040
Zn71	Zn7	0.828950	0.708920	0.337770
Zn81	Zn8	0.756520	0.821720	0.244800
C1331	C133	0.630000	0.610900	0.780900
C1341	C134	0.876800	0.063400	0.629400
C1351	C135	0.541600	0.400400	0.974100
H731	H73	0.570400	0.381300	0.001800
C1361	C136	0.876200	0.935300	0.766600
C1371	C137	0.724200	0.762600	0.645600
C1381	C138	0.388900	0.415000	0.736900
C1391	C139	0.524100	0.538900	0.814000
C1401	C140	0.572300	0.550000	0.776200
C1411	C141	0.860600	0.177100	0.687800
C1421	C142	0.465000	0.622000	0.875600
C1431	C143	0.986000	0.099800	0.701400
C1441	C144	0.931500	0.993800	0.753500
C1451	C145	0.926600	0.058500	0.716500
C1461	C146	0.416900	0.490000	0.849400
H741	H74	0.373400	0.459600	0.842000
C1471	C147	0.047300	0.089000	0.727700
C1481	C148	0.684300	0.689500	0.562400
C1491	C149	0.715400	0.743200	0.477900
C1501	C150	0.462900	0.492900	0.801800
C1511	C151	0.750300	0.806000	0.503600
H751	H75	0.774800	0.844900	0.483700
C1521	C152	0.939400	0.096000	0.613100
C1531	C153	0.973400	0.154000	0.651800
H761	H76	0.015800	0.180400	0.638400
C1541	C154	0.451300	0.618600	0.503400
H771	H77	0.409500	0.617400	0.483800
C1551	C155	0.862900	0.084900	0.686000
H781	H78	0.820300	0.058800	0.699200
C1561	C156	0.680800	0.534300	0.515000
C1571	C157	0.563000	0.511600	0.726900
H791	H79	0.596900	0.516500	0.701000
C1581	C158	0.404000	0.580800	0.863000
C1591	C159	0.840400	0.011500	0.597600
H801	H80	0.800300	0.985700	0.609900
C1601	C160	0.718100	0.753400	0.587500
C1611	C161	0.683500	0.685000	0.508000
C1621	C162	0.513900	0.613900	0.477100
H811	H81	0.514900	0.610200	0.440100
C1631	C163	0.862700	0.996700	0.546800
H821	H82	0.836100	0.963600	0.523600
C1641	C164	0.644700	0.618800	0.587200
H831	H83	0.643100	0.622600	0.626200
C1651	C165	0.518000	0.495700	0.905300
C1661	C166	0.750100	0.813000	0.557200
H841	H84	0.771800	0.858500	0.573800
C1671	C167	0.511000	0.621200	0.586000
H851	H85	0.510300	0.619300	0.623100
C1681	C168	0.646600	0.607800	0.487200
H861	H86	0.647800	0.603200	0.448200
C1691	C169	0.710200	0.470600	0.490600
H871	H87	0.711200	0.467900	0.453600
C1701	C170	0.919100	0.215000	0.668600
C1711	C171	0.340900	0.617300	0.866500
H881	H88	0.299900	0.587400	0.860000
C1721	C172	0.485000	0.360100	0.962300
H891	H89	0.474200	0.312200	0.981600
C1731	C173	0.463300	0.704600	0.889100
H901	H90	0.504000	0.734100	0.897300
C1741	C174	0.808700	0.306300	0.701200
H911	H91	0.771100	0.338100	0.712700
C1751	C175	0.994000	0.984000	0.780200
H921	H92	0.997900	0.945300	0.807800
C1761	C176	0.454300	0.460700	0.753200
C1771	C177	0.050600	0.030700	0.766400
H931	H93	0.093000	0.021900	0.784400
C1781	C178	0.715900	0.742600	0.419700
C1791	C179	0.806500	0.225300	0.704900
H941	H94	0.767500	0.199700	0.719300
C1801	C180	0.734800	0.412300	0.574400
H951	H95	0.752500	0.369000	0.595400
C1811	C181	0.960600	0.081600	0.563600
H961	H96	0.001000	0.106400	0.550900
C1821	C182	0.505500	0.468000	0.716900
H971	H97	0.500000	0.441500	0.684000
C1831	C183	0.920400	0.028400	0.531200
H981	H98	0.936000	0.015600	0.497200
C1841	C184	0.439500	0.386500	0.921400
H991	H99	0.397400	0.359300	0.914200
C1851	C185	0.560100	0.470800	0.946500
H1001	H100	0.600300	0.500600	0.955800
C1861	C186	0.738900	0.408700	0.521500
H1011	H101	0.761400	0.363900	0.505500
C1871	C187	0.528800	0.568900	0.870800
H1021	H102	0.572200	0.599000	0.879100
C1881	C188	0.400100	0.741800	0.890000
H1031	H103	0.397700	0.798600	0.897900
C1891	C189	0.921700	0.297600	0.664000
H1041	H104	0.960700	0.323100	0.649600
C1901	C190	0.449800	0.624900	0.556900
H1051	H105	0.407500	0.631700	0.574000
C1911	C191	0.704700	0.479600	0.597500
H1061	H106	0.702900	0.482100	0.634600
C1921	C192	0.572300	0.620300	0.560200
C1931	C193	0.112200	0.134700	0.718100
C1941	C194	0.677600	0.542300	0.568700
C1951	C195	0.574600	0.614900	0.507300
C1961	C196	0.459000	0.450700	0.894200
C1971	C197	0.866600	0.345500	0.680400
H1071	H107	0.868100	0.403500	0.677600
C1981	C198	0.339500	0.699400	0.879900
H1081	H108	0.296900	0.727000	0.882100
O271	O27	0.614600	0.672700	0.805900
O281	O28	0.685000	0.595700	0.759200
O291	O29	0.335200	0.431500	0.757900
O301	O30	0.730100	0.832500	0.664300
O311	O31	0.726600	0.696600	0.670800
O321	O32	0.162600	0.109200	0.744300
O331	O33	0.660700	0.718400	0.397200
O341	O34	0.751300	0.777100	0.785900
O351	O35	0.887600	0.877900	0.797800
O361	O36	0.819400	0.945100	0.741700
O371	O37	0.765700	0.771300	0.396200
O381	O38	0.398300	0.360400	0.703800
O391	O39	0.111900	0.193000	0.686500
Zn91	Zn9	0.666700	0.775730	0.822520
Zn101	Zn10	0.748860	0.864390	0.737040
Zn111	Zn11	0.828950	0.791080	0.837770
Zn121	Zn12	0.756520	0.678280	0.744800
C1991	C199	0.370000	0.110900	0.719100
C2001	C200	0.123200	0.563400	0.870600
C2011	C201	0.458400	0.900400	0.525900
H1091	H109	0.429600	0.881300	0.498200
C2021	C202	0.123800	0.435300	0.733400
C2031	C203	0.275800	0.262600	0.854400
C2041	C204	0.611100	0.915000	0.763100
C2051	C205	0.475900	0.038900	0.686000
C2061	C206	0.427700	0.050000	0.723800
C2071	C207	0.139400	0.677100	0.812200
C2081	C208	0.535000	0.122000	0.624400
C2091	C209	0.014000	0.599800	0.798600
C2101	C210	0.068500	0.493800	0.746500
C2111	C211	0.073400	0.558500	0.783500
C2121	C212	0.583100	0.990000	0.650600
H1101	H110	0.626600	0.959600	0.658000
C2131	C213	0.952700	0.589000	0.772300
C2141	C214	0.315700	0.189500	0.937600
C2151	C215	0.284600	0.243200	0.022100
C2161	C216	0.537100	0.992900	0.698200
C2171	C217	0.249700	0.306000	0.996400
H1111	H111	0.225200	0.344900	0.016300
C2181	C218	0.060600	0.596000	0.886900
C2191	C219	0.026600	0.654000	0.848200
H1121	H112	0.984200	0.680400	0.861600
C2201	C220	0.548700	0.118600	0.996600
H1131	H113	0.590500	0.117400	0.016200
C2211	C221	0.137100	0.584900	0.814000
H1141	H114	0.179700	0.558800	0.800800
C2221	C222	0.319200	0.034300	0.985000
C2231	C223	0.437000	0.011600	0.773100
H1151	H115	0.403100	0.016500	0.799000
C2241	C224	0.596000	0.080800	0.637000
C2251	C225	0.159600	0.511500	0.902400
H1161	H116	0.199700	0.485700	0.890100
C2261	C226	0.281900	0.253400	0.912500
C2271	C227	0.316500	0.185000	0.992000
C2281	C228	0.486100	0.113900	0.022900
H1171	H117	0.485100	0.110200	0.059900
C2291	C229	0.137300	0.496700	0.953200
H1181	H118	0.163900	0.463600	0.976400
C2301	C230	0.355300	0.118800	0.912800
H1191	H119	0.356900	0.122600	0.873800
C2311	C231	0.482000	0.995700	0.594700
C2321	C232	0.249900	0.313000	0.942800
H1201	H120	0.228200	0.358500	0.926200
C2331	C233	0.489000	0.121200	0.914000
H1211	H121	0.489700	0.119300	0.876900
C2341	C234	0.353400	0.107800	0.012800
H1221	H122	0.352200	0.103200	0.051800
C2351	C235	0.289800	0.970600	0.009400
H1231	H123	0.288800	0.967900	0.046400
C2361	C236	0.080900	0.715000	0.831400
C2371	C237	0.659100	0.117300	0.633500
H1241	H124	0.700100	0.087400	0.640000
C2381	C238	0.515000	0.860100	0.537700
H1251	H125	0.525800	0.812200	0.518400
C2391	C239	0.536700	0.204600	0.610900
H1261	H126	0.496000	0.234100	0.602700
C2401	C240	0.191300	0.806300	0.798800
H1271	H127	0.228900	0.838100	0.787300
C2411	C241	0.006000	0.484000	0.719800
H1281	H128	0.002100	0.445300	0.692200
C2421	C242	0.545700	0.960700	0.746800
C2431	C243	0.949400	0.530700	0.733600
H1291	H129	0.907000	0.521900	0.715600
C2441	C244	0.284100	0.242600	0.080300
C2451	C245	0.193500	0.725300	0.795100
H1301	H130	0.232500	0.699700	0.780700
C2461	C246	0.265200	0.912300	0.925600
H1311	H131	0.247500	0.869000	0.904600
C2471	C247	0.039400	0.581600	0.936400
H1321	H132	0.999000	0.606400	0.949100
C2481	C248	0.494500	0.968000	0.783100
H1331	H133	0.500000	0.941500	0.816000
C2491	C249	0.079600	0.528400	0.968800
H1341	H134	0.064000	0.515600	0.002800
C2501	C250	0.560500	0.886500	0.578600
H1351	H135	0.602600	0.859300	0.585800
C2511	C251	0.439900	0.970800	0.553500
H1361	H136	0.399700	0.000600	0.544200
C2521	C252	0.261100	0.908700	0.978500
H1371	H137	0.238600	0.863900	0.994500
C2531	C253	0.471200	0.068900	0.629200
H1381	H138	0.427800	0.099000	0.620900
C2541	C254	0.599900	0.241800	0.610000
H1391	H139	0.602300	0.298600	0.602100
C2551	C255	0.078300	0.797600	0.836000
H1401	H140	0.039300	0.823100	0.850400
C2561	C256	0.550200	0.124900	0.943100
H1411	H141	0.592500	0.131700	0.926000
C2571	C257	0.295300	0.979600	0.902500
H1421	H142	0.297100	0.982100	0.865400
C2581	C258	0.427700	0.120300	0.939800
C2591	C259	0.887800	0.634700	0.781900
C2601	C260	0.322400	0.042300	0.931300
C2611	C261	0.425400	0.114900	0.992700
C2621	C262	0.541000	0.950700	0.605800
C2631	C263	0.133400	0.845500	0.819600
H1431	H143	0.131900	0.903500	0.822400
C2641	C264	0.660500	0.199400	0.620100
H1441	H144	0.703100	0.227000	0.617900
O401	O40	0.385400	0.172700	0.694100
O411	O41	0.315000	0.095700	0.740800
O421	O42	0.664800	0.931500	0.742100
O431	O43	0.269900	0.332500	0.835700
O441	O44	0.273400	0.196600	0.829200
O451	O45	0.837400	0.609200	0.755700
O461	O46	0.339300	0.218400	0.102800
O471	O47	0.248700	0.277100	0.714100
O481	O48	0.112400	0.377900	0.702200
O491	O49	0.180600	0.445100	0.758300
O501	O50	0.234300	0.271300	0.103800
O511	O51	0.601700	0.860400	0.796200
O521	O52	0.888100	0.693000	0.813500
Zn131	Zn13	0.333300	0.275730	0.677480
Zn141	Zn14	0.251140	0.364390	0.762960
Zn151	Zn15	0.171050	0.291080	0.662230
Zn161	Zn16	0.243480	0.178280	0.755200
