data_EPECEJ_clean_PM
_symmetry_space_group_name_H-M	'P1'
_cell_length_a	21.898000
_cell_length_b	22.149000
_cell_length_c	24.663000
_cell_angle_alpha	109.978000
_cell_angle_beta	109.835000
_cell_angle_gamma	104.489000
_symmetry_Int_Tables_number 1

loop_
_symmetry_equiv_pos_as_xyz
'x,y,z'

loop_
_atom_site_label
_atom_site_type_symbol
_atom_site_fract_x
_atom_site_fract_y
_atom_site_fract_z
C11	C1	0.208700	0.716800	0.394600
H11	H1	0.210000	0.675600	0.366800
C21	C2	0.221400	0.730300	0.457900
H21	H2	0.230500	0.697500	0.472500
C31	C3	0.221000	0.789800	0.499500
H31	H3	0.231100	0.798300	0.542700
C41	C4	0.205800	0.837900	0.478400
H41	H4	0.204600	0.878700	0.506900
C51	C5	0.192300	0.825400	0.414700
C61	C6	0.194100	0.764500	0.372780
C71	C7	0.179600	0.760000	0.306730
H51	H5	0.180900	0.716800	0.277100
C81	C8	0.174400	0.870500	0.383460
H61	H6	0.172900	0.913600	0.413100
C91	C9	0.231800	0.827400	0.317500
C101	C10	0.277500	0.833800	0.290300
H71	H7	0.278400	0.792800	0.261800
C111	C11	0.321100	0.899100	0.304500
H81	H8	0.352100	0.903700	0.285600
C121	C12	0.320000	0.959300	0.347200
H91	H9	0.351600	0.004800	0.358400
C131	C13	0.272200	0.952800	0.373900
H101	H10	0.270200	0.993600	0.401700
C141	C14	0.229300	0.887600	0.359000
C151	C15	0.107570	0.762770	0.279970
C161	C16	0.104030	0.822060	0.321670
C171	C17	0.043130	0.834130	0.304780
C181	C18	0.985130	0.786060	0.244550
H111	H11	0.943000	0.793900	0.231400
C191	C19	0.987350	0.727410	0.203550
H121	H12	0.946300	0.694700	0.163000
C201	C20	0.048940	0.714930	0.220310
C211	C21	0.048210	0.651930	0.171020
C221	C22	0.034710	0.894050	0.347410
C231	C23	0.277700	0.223160	0.658580
C241	C24	0.300700	0.177900	0.677200
H131	H13	0.267600	0.132100	0.663800
C251	C25	0.372200	0.199500	0.715400
H141	H14	0.388700	0.168900	0.729300
C261	C26	0.420700	0.265900	0.733800
H151	H15	0.470200	0.280300	0.759500
C271	C27	0.396800	0.310900	0.714900
H161	H16	0.429800	0.356500	0.727800
C281	C28	0.325300	0.289650	0.677310
C291	C29	0.201560	0.208350	0.615840
H171	H17	0.166700	0.160200	0.601800
C301	C30	0.289990	0.331860	0.651430
H181	H18	0.325100	0.380200	0.666200
C311	C31	0.186020	0.266930	0.654670
C321	C32	0.233390	0.333710	0.672840
C331	C33	0.224000	0.392700	0.705920
H191	H19	0.255800	0.438500	0.718000
C341	C34	0.168100	0.384600	0.721200
H201	H20	0.161100	0.425000	0.742700
C351	C35	0.122300	0.318800	0.705600
H211	H21	0.085400	0.313900	0.718000
C361	C36	0.131000	0.259200	0.671370
H221	H22	0.099300	0.213500	0.659600
C371	C37	0.202500	0.220090	0.557780
C381	C38	0.252100	0.287150	0.577650
C391	C39	0.259600	0.308500	0.532200
C401	C40	0.216500	0.261300	0.466600
H231	H23	0.221000	0.274800	0.435000
C411	C41	0.167200	0.195400	0.446300
H241	H24	0.137600	0.164200	0.401000
C421	C42	0.160700	0.174140	0.491960
C431	C43	0.105730	0.102040	0.466410
C441	C44	0.312900	0.378600	0.549600
C451	C45	0.790600	0.157180	0.331780
C461	C46	0.852000	0.212300	0.384200
H251	H25	0.882800	0.205100	0.416900
C471	C47	0.867500	0.278000	0.387800
H261	H26	0.908700	0.317100	0.424600
C481	C48	0.824900	0.288900	0.339400
H271	H27	0.837100	0.334900	0.343000
C491	C49	0.765500	0.233800	0.286700
H281	H28	0.736700	0.240700	0.252700
C501	C50	0.747500	0.168050	0.283100
C511	C51	0.764700	0.081390	0.319530
H291	H29	0.796600	0.074600	0.354900
C521	C52	0.684460	0.100820	0.228720
H301	H30	0.652400	0.108100	0.193800
C531	C53	0.689700	0.060940	0.311130
C541	C54	0.663900	0.036200	0.347270
H311	H31	0.693800	0.029000	0.380400
C551	C55	0.593000	0.022100	0.334000
H321	H32	0.574400	0.005400	0.358200
C561	C56	0.550700	0.032700	0.285800
H331	H33	0.502800	0.023800	0.277300
C571	C57	0.576900	0.056400	0.248400
H341	H34	0.546500	0.061900	0.214100
C581	C58	0.646800	0.071400	0.262260
C591	C59	0.760080	0.039890	0.253030
C601	C60	0.717060	0.050800	0.203700
C611	C61	0.709180	0.018440	0.140560
C621	C62	0.744760	0.974780	0.127690
H351	H35	0.738000	0.950800	0.084600
C631	C63	0.788910	0.966410	0.176400
H361	H36	0.815100	0.939300	0.167600
C641	C64	0.795840	0.997950	0.239990
C651	C65	0.842700	0.986460	0.291980
C661	C66	0.663510	0.027780	0.086500
C671	C67	0.576630	0.344310	0.929030
C681	C68	0.525700	0.361200	0.944240
H371	H37	0.493200	0.329500	0.949900
C691	C69	0.523000	0.425500	0.951090
H381	H38	0.488500	0.437800	0.961700
C701	C70	0.569800	0.471100	0.942650
H391	H39	0.567300	0.514800	0.947900
C711	C71	0.621000	0.454750	0.926450
H401	H40	0.653000	0.486800	0.920700
C721	C72	0.623990	0.390500	0.919000
C731	C73	0.588390	0.277560	0.919000
H411	H41	0.555100	0.243900	0.925500
C741	C74	0.674080	0.362910	0.899680
H421	H42	0.707500	0.396400	0.893200
C751	C75	0.581810	0.245950	0.850410
C761	C76	0.627480	0.292010	0.839600
C771	C77	0.628600	0.272200	0.779560
H431	H43	0.661000	0.303900	0.773800
C781	C78	0.581700	0.206300	0.729690
H441	H44	0.580400	0.191900	0.688200
C791	C79	0.536100	0.160200	0.739700
H451	H45	0.503900	0.114300	0.704700
C801	C80	0.536430	0.180000	0.800800
H461	H46	0.505400	0.147600	0.807100
C811	C81	0.694140	0.281510	0.012710
C821	C82	0.666510	0.301490	0.965090
C831	C83	0.712190	0.345680	0.953030
C841	C84	0.784450	0.370880	0.988200
C851	C85	0.812690	0.353240	0.037310
H471	H47	0.862900	0.372100	0.063200
C861	C86	0.767390	0.307980	0.048450
H481	H48	0.787200	0.295100	0.081200
C871	C87	0.649550	0.232560	0.027770
C881	C88	0.834190	0.413070	0.972160
C891	C89	0.400350	0.563250	0.767090
C901	C90	0.425900	0.513470	0.772080
H491	H49	0.425700	0.480000	0.735600
C911	C91	0.452000	0.513480	0.832340
H501	H50	0.467900	0.478300	0.836100
C921	C92	0.455000	0.563400	0.886410
H511	H51	0.474300	0.563100	0.927100
C931	C93	0.429920	0.614400	0.881820
H521	H52	0.431500	0.648800	0.918800
C941	C94	0.402560	0.613650	0.821850
C951	C95	0.367360	0.570520	0.705790
H531	H53	0.364700	0.533800	0.666600
C961	C96	0.370670	0.663900	0.806830
H541	H54	0.372100	0.699900	0.845600
C971	C97	0.294700	0.567120	0.698300
C981	C98	0.230900	0.518900	0.644500
H551	H55	0.229200	0.485700	0.606700
C991	C99	0.168600	0.520500	0.647300
H561	H56	0.123700	0.487500	0.610700
C1001	C100	0.170300	0.568600	0.702000
H571	H57	0.127000	0.567700	0.702900
C1011	C101	0.235000	0.617800	0.755000
H581	H58	0.237100	0.652000	0.792400
C1021	C102	0.296800	0.616200	0.752400
C1031	C103	0.411220	0.645080	0.722320
C1041	C104	0.413190	0.696420	0.777310
C1051	C105	0.453290	0.766470	0.799890
C1061	C106	0.494370	0.785410	0.770610
H591	H59	0.523500	0.833900	0.787700
C1071	C107	0.494010	0.735830	0.717550
H601	H60	0.522700	0.749900	0.698800
C1081	C108	0.450520	0.664690	0.692240
C1091	C109	0.449500	0.612900	0.632590
C1101	C110	0.453860	0.824450	0.855140
C1111	C111	0.283900	0.357480	0.147560
C1121	C112	0.309400	0.358600	0.102910
H611	H61	0.285400	0.367600	0.068500
C1131	C113	0.369800	0.346600	0.109300
H621	H62	0.387600	0.347100	0.079200
C1141	C114	0.404000	0.334000	0.159500
H631	H63	0.445700	0.326100	0.164000
C1151	C115	0.378500	0.332600	0.204800
H641	H64	0.402700	0.323500	0.239100
C1161	C116	0.318200	0.344540	0.198710
C1171	C117	0.218500	0.369890	0.148880
H651	H65	0.192900	0.379100	0.112500
C1181	C118	0.281900	0.344790	0.242270
H661	H66	0.306800	0.334700	0.278200
C1191	C119	0.172300	0.306500	0.147600
C1201	C120	0.205800	0.292300	0.198200
C1211	C121	0.169400	0.235300	0.203000
H671	H67	0.192200	0.225800	0.237500
C1221	C122	0.100500	0.193100	0.157500
H681	H68	0.074800	0.153800	0.160400
C1231	C123	0.067200	0.206300	0.107400
H691	H69	0.019100	0.175400	0.075600
C1241	C124	0.102100	0.263300	0.102300
H701	H70	0.078300	0.272800	0.068100
C1251	C125	0.245750	0.431320	0.216490
C1261	C126	0.279420	0.416600	0.267620
C1271	C127	0.304000	0.464910	0.331900
C1281	C128	0.294300	0.527900	0.345060
H711	H71	0.309600	0.560800	0.388800
C1291	C129	0.262800	0.541900	0.294980
H721	H72	0.257600	0.585100	0.304700
C1301	C130	0.238220	0.493630	0.229620
C1311	C131	0.205310	0.513590	0.178200
C1321	C132	0.341750	0.454950	0.388920
O11	O1	0.107300	0.649410	0.179310
O21	O2	0.989670	0.606540	0.126060
O31	O3	0.990470	0.914110	0.318410
O41	O4	0.068930	0.919550	0.407660
O51	O5	0.036100	0.500490	0.058040
O61	O6	0.887280	0.465130	0.018630
O71	O7	0.958890	0.970300	0.434180
H731	H73	0.922100	0.920700	0.411600
O81	O8	0.054540	0.079190	0.410730
O91	O9	0.113800	0.070030	0.499110
O101	O10	0.905150	0.999190	0.297770
O111	O11	0.820020	0.966260	0.325650
O121	O12	0.629640	0.976320	0.031240
O131	O13	0.662820	0.087280	0.100400
O141	O14	0.365830	0.413970	0.602510
O151	O15	0.299910	0.396220	0.504150
O161	O16	0.479000	0.942770	0.006560
O171	O17	0.508000	0.880900	0.887510
O181	O18	0.678140	0.195380	0.047680
O191	O19	0.590010	0.229110	0.021200
O201	O20	0.399400	0.812480	0.863440
O211	O21	0.389940	0.564000	0.590400
O221	O22	0.506560	0.623120	0.629130
O231	O23	0.465000	0.477010	0.530170
O241	O24	0.333940	0.483480	0.439160
O251	O25	0.380210	0.421590	0.384580
O261	O26	0.206120	0.488460	0.124970
O271	O27	0.177640	0.556660	0.194040
O281	O28	0.817650	0.391360	0.912310
Zn11	Zn1	0.125390	0.575070	0.125560
Zn21	Zn2	0.967430	0.549530	0.030840
Zn31	Zn3	0.056490	0.971180	0.488000
Zn41	Zn4	0.971260	0.991890	0.366750
Zn51	Zn5	0.544280	0.971980	0.964880
Zn61	Zn6	0.610620	0.134030	0.059920
Zn71	Zn7	0.373240	0.476590	0.519760
Zn81	Zn8	0.468910	0.422340	0.444700
H741	H74	0.506000	0.941000	0.038000
H751	H75	0.475000	0.460000	0.557000
H761	H76	0.008000	0.455000	0.061000
C1331	C133	0.791300	0.283200	0.605400
H771	H77	0.790000	0.324400	0.633200
C1341	C134	0.778600	0.269700	0.542100
H781	H78	0.769500	0.302500	0.527500
C1351	C135	0.779000	0.210200	0.500500
H791	H79	0.768900	0.201700	0.457300
C1361	C136	0.794200	0.162100	0.521600
H801	H80	0.795400	0.121300	0.493100
C1371	C137	0.807700	0.174600	0.585300
C1381	C138	0.805900	0.235500	0.627220
C1391	C139	0.820400	0.240000	0.693270
H811	H81	0.819100	0.283200	0.722900
C1401	C140	0.825600	0.129500	0.616540
H821	H82	0.827100	0.086400	0.586900
C1411	C141	0.768200	0.172600	0.682500
C1421	C142	0.722500	0.166200	0.709700
H831	H83	0.721600	0.207200	0.738200
C1431	C143	0.678900	0.100900	0.695500
H841	H84	0.647900	0.096300	0.714400
C1441	C144	0.680000	0.040700	0.652800
H851	H85	0.648400	0.995200	0.641600
C1451	C145	0.727800	0.047200	0.626100
H861	H86	0.729800	0.006400	0.598300
C1461	C146	0.770700	0.112400	0.641000
C1471	C147	0.892430	0.237230	0.720030
C1481	C148	0.895970	0.177940	0.678330
C1491	C149	0.956870	0.165870	0.695220
C1501	C150	0.014870	0.213940	0.755450
H871	H87	0.057000	0.206100	0.768600
C1511	C151	0.012650	0.272590	0.796450
H881	H88	0.053700	0.305300	0.837000
C1521	C152	0.951060	0.285070	0.779690
C1531	C153	0.951790	0.348070	0.828980
C1541	C154	0.965290	0.105950	0.652590
C1551	C155	0.722300	0.776840	0.341420
C1561	C156	0.699300	0.822100	0.322800
H891	H89	0.732400	0.867900	0.336200
C1571	C157	0.627800	0.800500	0.284600
H901	H90	0.611300	0.831100	0.270700
C1581	C158	0.579300	0.734100	0.266200
H911	H91	0.529800	0.719700	0.240500
C1591	C159	0.603200	0.689100	0.285100
H921	H92	0.570200	0.643500	0.272200
C1601	C160	0.674700	0.710350	0.322690
C1611	C161	0.798440	0.791650	0.384160
H931	H93	0.833300	0.839800	0.398200
C1621	C162	0.710010	0.668140	0.348570
H941	H94	0.674900	0.619800	0.333800
C1631	C163	0.813980	0.733070	0.345330
C1641	C164	0.766610	0.666290	0.327160
C1651	C165	0.776000	0.607300	0.294080
H951	H95	0.744200	0.561500	0.282000
C1661	C166	0.831900	0.615400	0.278800
H961	H96	0.838900	0.575000	0.257300
C1671	C167	0.877700	0.681200	0.294400
H971	H97	0.914600	0.686100	0.282000
C1681	C168	0.869000	0.740800	0.328630
H981	H98	0.900700	0.786500	0.340400
C1691	C169	0.797500	0.779910	0.442220
C1701	C170	0.747900	0.712850	0.422350
C1711	C171	0.740400	0.691500	0.467800
C1721	C172	0.783500	0.738700	0.533400
H991	H99	0.779000	0.725200	0.565000
C1731	C173	0.832800	0.804600	0.553700
H1001	H100	0.862400	0.835800	0.599000
C1741	C174	0.839300	0.825860	0.508040
C1751	C175	0.894270	0.897960	0.533590
C1761	C176	0.687100	0.621400	0.450400
C1771	C177	0.209400	0.842820	0.668220
C1781	C178	0.148000	0.787700	0.615800
H1011	H101	0.117200	0.794900	0.583100
C1791	C179	0.132500	0.722000	0.612200
H1021	H102	0.091300	0.682900	0.575400
C1801	C180	0.175100	0.711100	0.660600
H1031	H103	0.162900	0.665100	0.657000
C1811	C181	0.234500	0.766200	0.713300
H1041	H104	0.263300	0.759300	0.747300
C1821	C182	0.252500	0.831950	0.716900
C1831	C183	0.235300	0.918610	0.680470
H1051	H105	0.203400	0.925400	0.645100
C1841	C184	0.315540	0.899180	0.771280
H1061	H106	0.347600	0.891900	0.806200
C1851	C185	0.310300	0.939060	0.688870
C1861	C186	0.336100	0.963800	0.652730
H1071	H107	0.306200	0.971000	0.619600
C1871	C187	0.407000	0.977900	0.666000
H1081	H108	0.425600	0.994600	0.641800
C1881	C188	0.449300	0.967300	0.714200
H1091	H109	0.497200	0.976200	0.722700
C1891	C189	0.423100	0.943600	0.751600
H1101	H110	0.453500	0.938100	0.785900
C1901	C190	0.353200	0.928600	0.737740
C1911	C191	0.239920	0.960110	0.746970
C1921	C192	0.282940	0.949200	0.796300
C1931	C193	0.290820	0.981560	0.859440
C1941	C194	0.255240	0.025220	0.872310
H1111	H111	0.262000	0.049200	0.915400
C1951	C195	0.211090	0.033590	0.823600
H1121	H112	0.184900	0.060700	0.832400
C1961	C196	0.204160	0.002050	0.760010
C1971	C197	0.157300	0.013540	0.708020
C1981	C198	0.336490	0.972220	0.913500
C1991	C199	0.423370	0.655690	0.070970
C2001	C200	0.474300	0.638800	0.055760
H1131	H113	0.506800	0.670500	0.050100
C2011	C201	0.477000	0.574500	0.048910
H1141	H114	0.511500	0.562200	0.038300
C2021	C202	0.430200	0.528900	0.057350
H1151	H115	0.432700	0.485200	0.052100
C2031	C203	0.379000	0.545250	0.073550
H1161	H116	0.347000	0.513200	0.079300
C2041	C204	0.376010	0.609500	0.081000
C2051	C205	0.411610	0.722440	0.081000
H1171	H117	0.444900	0.756100	0.074500
C2061	C206	0.325920	0.637090	0.100320
H1181	H118	0.292500	0.603600	0.106800
C2071	C207	0.418190	0.754050	0.149590
C2081	C208	0.372520	0.707990	0.160400
C2091	C209	0.371400	0.727800	0.220440
H1191	H119	0.339000	0.696100	0.226200
C2101	C210	0.418300	0.793700	0.270310
H1201	H120	0.419600	0.808100	0.311800
C2111	C211	0.463900	0.839800	0.260300
H1211	H121	0.496100	0.885700	0.295300
C2121	C212	0.463570	0.820000	0.199200
H1221	H122	0.494600	0.852400	0.192900
C2131	C213	0.305860	0.718490	0.987290
C2141	C214	0.333490	0.698510	0.034910
C2151	C215	0.287810	0.654320	0.046970
C2161	C216	0.215550	0.629120	0.011800
C2171	C217	0.187310	0.646760	0.962690
H1231	H123	0.137100	0.627900	0.936800
C2181	C218	0.232610	0.692020	0.951550
H1241	H124	0.212800	0.704900	0.918800
C2191	C219	0.350450	0.767440	0.972230
C2201	C220	0.165810	0.586930	0.027840
C2211	C221	0.599650	0.436750	0.232910
C2221	C222	0.574100	0.486530	0.227920
H1251	H125	0.574300	0.520000	0.264400
C2231	C223	0.548000	0.486520	0.167660
H1261	H126	0.532100	0.521700	0.163900
C2241	C224	0.545000	0.436600	0.113590
H1271	H127	0.525700	0.436900	0.072900
C2251	C225	0.570080	0.385600	0.118180
H1281	H128	0.568500	0.351200	0.081200
C2261	C226	0.597440	0.386350	0.178150
C2271	C227	0.632640	0.429480	0.294210
H1291	H129	0.635300	0.466200	0.333400
C2281	C228	0.629330	0.336100	0.193170
H1301	H130	0.627900	0.300100	0.154400
C2291	C229	0.705300	0.432880	0.301700
C2301	C230	0.769100	0.481100	0.355500
H1311	H131	0.770800	0.514300	0.393300
C2311	C231	0.831400	0.479500	0.352700
H1321	H132	0.876300	0.512500	0.389300
C2321	C232	0.829700	0.431400	0.298000
H1331	H133	0.873000	0.432300	0.297100
C2331	C233	0.765000	0.382200	0.245000
H1341	H134	0.762900	0.348000	0.207600
C2341	C234	0.703200	0.383800	0.247600
C2351	C235	0.588780	0.354920	0.277680
C2361	C236	0.586810	0.303580	0.222690
C2371	C237	0.546710	0.233530	0.200110
C2381	C238	0.505630	0.214590	0.229390
H1351	H135	0.476500	0.166100	0.212300
C2391	C239	0.505990	0.264170	0.282450
H1361	H136	0.477300	0.250100	0.301200
C2401	C240	0.549480	0.335310	0.307760
C2411	C241	0.550500	0.387100	0.367410
C2421	C242	0.546140	0.175550	0.144860
C2431	C243	0.716100	0.642520	0.852440
C2441	C244	0.690600	0.641400	0.897090
H1371	H137	0.714600	0.632400	0.931500
C2451	C245	0.630200	0.653400	0.890700
H1381	H138	0.612400	0.652900	0.920800
C2461	C246	0.596000	0.666000	0.840500
H1391	H139	0.554300	0.673900	0.836000
C2471	C247	0.621500	0.667400	0.795200
H1401	H140	0.597300	0.676500	0.760900
C2481	C248	0.681800	0.655460	0.801290
C2491	C249	0.781500	0.630110	0.851120
H1411	H141	0.807100	0.620900	0.887500
C2501	C250	0.718100	0.655210	0.757730
H1421	H142	0.693200	0.665300	0.721800
C2511	C251	0.827700	0.693500	0.852400
C2521	C252	0.794200	0.707700	0.801800
C2531	C253	0.830600	0.764700	0.797000
H1431	H143	0.807800	0.774200	0.762500
C2541	C254	0.899500	0.806900	0.842500
H1441	H144	0.925200	0.846200	0.839600
C2551	C255	0.932800	0.793700	0.892600
H1451	H145	0.980900	0.824600	0.924400
C2561	C256	0.897900	0.736700	0.897700
H1461	H146	0.921700	0.727200	0.931900
C2571	C257	0.754250	0.568680	0.783510
C2581	C258	0.720580	0.583400	0.732380
C2591	C259	0.696000	0.535090	0.668100
C2601	C260	0.705700	0.472100	0.654940
H1471	H147	0.690400	0.439200	0.611200
C2611	C261	0.737200	0.458100	0.705020
H1481	H148	0.742400	0.414900	0.695300
C2621	C262	0.761780	0.506370	0.770380
C2631	C263	0.794690	0.486410	0.821800
C2641	C264	0.658250	0.545050	0.611080
O291	O29	0.892700	0.350590	0.820690
O301	O30	0.010330	0.393460	0.873940
O311	O31	0.009530	0.085890	0.681590
O321	O32	0.931070	0.080450	0.592340
O331	O33	0.963900	0.499510	0.941960
O341	O34	0.112720	0.534870	0.981370
O351	O35	0.041110	0.029700	0.565820
H1491	H149	0.077900	0.079300	0.588400
O361	O36	0.945460	0.920810	0.589270
O371	O37	0.886200	0.929970	0.500890
O381	O38	0.094850	0.000810	0.702230
O391	O39	0.179980	0.033740	0.674350
O401	O40	0.370360	0.023680	0.968760
O411	O41	0.337180	0.912720	0.899600
O421	O42	0.634170	0.586030	0.397490
O431	O43	0.700090	0.603780	0.495850
O441	O44	0.521000	0.057230	0.993440
O451	O45	0.492000	0.119100	0.112490
O461	O46	0.321860	0.804620	0.952320
O471	O47	0.409990	0.770890	0.978800
O481	O48	0.600600	0.187520	0.136560
O491	O49	0.610060	0.436000	0.409600
O501	O50	0.493440	0.376880	0.370870
O511	O51	0.535000	0.522990	0.469830
O521	O52	0.666060	0.516520	0.560840
O531	O53	0.619790	0.578410	0.615420
O541	O54	0.793880	0.511540	0.875030
O551	O55	0.822360	0.443340	0.805960
O561	O56	0.182350	0.608640	0.087690
Zn91	Zn9	0.874610	0.424930	0.874440
Zn101	Zn10	0.032570	0.450470	0.969160
Zn111	Zn11	0.943510	0.028820	0.512000
Zn121	Zn12	0.028740	0.008110	0.633250
Zn131	Zn13	0.455720	0.028020	0.035120
Zn141	Zn14	0.389380	0.865970	0.940080
Zn151	Zn15	0.626760	0.523410	0.480240
Zn161	Zn16	0.531090	0.577660	0.555300
H1501	H150	0.494000	0.059000	0.962000
H1511	H151	0.525000	0.540000	0.443000
H1521	H152	0.992000	0.545000	0.939000
