data_EPEWEC_clean_PM
_symmetry_space_group_name_H-M	'P1'
_cell_length_a	11.310800
_cell_length_b	11.310800
_cell_length_c	25.238000
_cell_angle_alpha	90.000000
_cell_angle_beta	90.000000
_cell_angle_gamma	90.000000
_symmetry_Int_Tables_number 1

loop_
_symmetry_equiv_pos_as_xyz
'x,y,z'

loop_
_atom_site_label
_atom_site_type_symbol
_atom_site_fract_x
_atom_site_fract_y
_atom_site_fract_z
Co11	Co1	0.500000	0.296780	0.000000
Co21	Co2	0.500000	0.703220	0.500000
Co31	Co3	0.703220	0.500000	0.250000
Co41	Co4	0.296780	0.500000	0.750000
Co51	Co5	0.403710	0.403710	0.875000
Co61	Co6	0.596290	0.596290	0.375000
Co71	Co7	0.596290	0.403710	0.125000
Co81	Co8	0.403710	0.596290	0.625000
H11	H1	0.441000	0.575800	0.038700
H21	H2	0.329900	0.052100	0.819200
H31	H3	0.419800	0.756100	0.938300
H41	H4	0.432100	0.948700	0.962900
H51	H5	0.303100	0.859600	0.795500
H61	H6	0.178200	0.705700	0.982700
H71	H7	0.103000	0.614600	0.016300
H81	H8	0.188500	0.500800	0.946200
H91	H9	0.239400	0.604100	0.078700
H101	H10	0.291300	0.721300	0.053800
H111	H11	0.559000	0.424200	0.538700
H121	H12	0.670100	0.947900	0.319200
H131	H13	0.580200	0.243900	0.438300
H141	H14	0.567900	0.051300	0.462900
H151	H15	0.696900	0.140400	0.295500
H161	H16	0.821800	0.294300	0.482700
H171	H17	0.897000	0.385400	0.516300
H181	H18	0.811500	0.499200	0.446200
H191	H19	0.760600	0.395900	0.578700
H201	H20	0.708700	0.278700	0.553800
H211	H21	0.424200	0.441000	0.288700
H221	H22	0.947900	0.329900	0.069200
H231	H23	0.243900	0.419800	0.188300
H241	H24	0.051300	0.432100	0.212900
H251	H25	0.140400	0.303100	0.045500
H261	H26	0.294300	0.178200	0.232700
H271	H27	0.385400	0.103000	0.266300
H281	H28	0.499200	0.188500	0.196200
H291	H29	0.395900	0.239400	0.328700
H301	H30	0.278700	0.291300	0.303800
H311	H31	0.575800	0.559000	0.788700
H321	H32	0.052100	0.670100	0.569200
H331	H33	0.756100	0.580200	0.688300
H341	H34	0.948700	0.567900	0.712900
H351	H35	0.859600	0.696900	0.545500
H361	H36	0.705700	0.821800	0.732700
H371	H37	0.614600	0.897000	0.766300
H381	H38	0.500800	0.811500	0.696200
H391	H39	0.604100	0.760600	0.828700
H401	H40	0.721300	0.708700	0.803800
H411	H41	0.559000	0.575800	0.961300
H421	H42	0.670100	0.052100	0.180800
H431	H43	0.580200	0.756100	0.061700
H441	H44	0.567900	0.948700	0.037100
H451	H45	0.696900	0.859600	0.204500
H461	H46	0.821800	0.705700	0.017300
H471	H47	0.897000	0.614600	0.983700
H481	H48	0.811500	0.500800	0.053800
H491	H49	0.760600	0.604100	0.921300
H501	H50	0.708700	0.721300	0.946200
H511	H51	0.441000	0.424200	0.461300
H521	H52	0.329900	0.947900	0.680800
H531	H53	0.419800	0.243900	0.561700
H541	H54	0.432100	0.051300	0.537100
H551	H55	0.303100	0.140400	0.704500
H561	H56	0.178200	0.294300	0.517300
H571	H57	0.103000	0.385400	0.483700
H581	H58	0.188500	0.499200	0.553800
H591	H59	0.239400	0.395900	0.421300
H601	H60	0.291300	0.278700	0.446200
H611	H61	0.575800	0.441000	0.711300
H621	H62	0.052100	0.329900	0.930800
H631	H63	0.756100	0.419800	0.811700
H641	H64	0.948700	0.432100	0.787100
H651	H65	0.859600	0.303100	0.954500
H661	H66	0.705700	0.178200	0.767300
H671	H67	0.614600	0.103000	0.733700
H681	H68	0.500800	0.188500	0.803800
H691	H69	0.604100	0.239400	0.671300
H701	H70	0.721300	0.291300	0.696200
H711	H71	0.424200	0.559000	0.211300
H721	H72	0.947900	0.670100	0.430800
H731	H73	0.243900	0.580200	0.311700
H741	H74	0.051300	0.567900	0.287100
H751	H75	0.140400	0.696900	0.454500
H761	H76	0.294300	0.821800	0.267300
H771	H77	0.385400	0.897000	0.233700
H781	H78	0.499200	0.811500	0.303800
H791	H79	0.395900	0.760600	0.171300
H801	H80	0.278700	0.708700	0.196200
C11	C1	0.337300	0.508800	0.984500
C21	C2	0.384500	0.020300	0.894400
C31	C3	0.361700	0.785200	0.863500
C41	C4	0.346100	0.992100	0.843400
C51	C5	0.400100	0.815200	0.914200
C61	C6	0.355100	0.659700	0.846300
C71	C7	0.408800	0.930500	0.928600
C81	C8	0.332500	0.877300	0.829000
C91	C9	0.181300	0.632600	0.002800
C101	C10	0.402300	0.147100	0.910500
C111	C11	0.269800	0.639800	0.046500
C121	C12	0.662700	0.491200	0.484500
C131	C13	0.615500	0.979700	0.394400
C141	C14	0.638300	0.214800	0.363500
C151	C15	0.653900	0.007900	0.343400
C161	C16	0.599900	0.184800	0.414200
C171	C17	0.644900	0.340300	0.346300
C181	C18	0.591200	0.069500	0.428600
C191	C19	0.667500	0.122700	0.329000
C201	C20	0.818700	0.367400	0.502800
C211	C21	0.597700	0.852900	0.410500
C221	C22	0.730200	0.360200	0.546500
C231	C23	0.491200	0.337300	0.234500
C241	C24	0.979700	0.384500	0.144400
C251	C25	0.214800	0.361700	0.113500
C261	C26	0.007900	0.346100	0.093400
C271	C27	0.184800	0.400100	0.164200
C281	C28	0.340300	0.355100	0.096300
C291	C29	0.069500	0.408800	0.178600
C301	C30	0.122700	0.332500	0.079000
C311	C31	0.367400	0.181300	0.252800
C321	C32	0.852900	0.402300	0.160500
C331	C33	0.360200	0.269800	0.296500
C341	C34	0.508800	0.662700	0.734500
C351	C35	0.020300	0.615500	0.644400
C361	C36	0.785200	0.638300	0.613500
C371	C37	0.992100	0.653900	0.593400
C381	C38	0.815200	0.599900	0.664200
C391	C39	0.659700	0.644900	0.596300
C401	C40	0.930500	0.591200	0.678600
C411	C41	0.877300	0.667500	0.579000
C421	C42	0.632600	0.818700	0.752800
C431	C43	0.147100	0.597700	0.660500
C441	C44	0.639800	0.730200	0.796500
C451	C45	0.662700	0.508800	0.015500
C461	C46	0.615500	0.020300	0.105600
C471	C47	0.638300	0.785200	0.136500
C481	C48	0.653900	0.992100	0.156600
C491	C49	0.599900	0.815200	0.085800
C501	C50	0.644900	0.659700	0.153700
C511	C51	0.591200	0.930500	0.071400
C521	C52	0.667500	0.877300	0.171000
C531	C53	0.818700	0.632600	0.997200
C541	C54	0.597700	0.147100	0.089500
C551	C55	0.730200	0.639800	0.953500
C561	C56	0.337300	0.491200	0.515500
C571	C57	0.384500	0.979700	0.605600
C581	C58	0.361700	0.214800	0.636500
C591	C59	0.346100	0.007900	0.656600
C601	C60	0.400100	0.184800	0.585800
C611	C61	0.355100	0.340300	0.653700
C621	C62	0.408800	0.069500	0.571400
C631	C63	0.332500	0.122700	0.671000
C641	C64	0.181300	0.367400	0.497200
C651	C65	0.402300	0.852900	0.589500
C661	C66	0.269800	0.360200	0.453500
C671	C67	0.508800	0.337300	0.765500
C681	C68	0.020300	0.384500	0.855600
C691	C69	0.785200	0.361700	0.886500
C701	C70	0.992100	0.346100	0.906600
C711	C71	0.815200	0.400100	0.835800
C721	C72	0.659700	0.355100	0.903700
C731	C73	0.930500	0.408800	0.821400
C741	C74	0.877300	0.332500	0.921000
C751	C75	0.632600	0.181300	0.747200
C761	C76	0.147100	0.402300	0.839500
C771	C77	0.639800	0.269800	0.703500
C781	C78	0.491200	0.662700	0.265500
C791	C79	0.979700	0.615500	0.355600
C801	C80	0.214800	0.638300	0.386500
C811	C81	0.007900	0.653900	0.406600
C821	C82	0.184800	0.599900	0.335800
C831	C83	0.340300	0.644900	0.403700
C841	C84	0.069500	0.591200	0.321400
C851	C85	0.122700	0.667500	0.421000
C861	C86	0.367400	0.818700	0.247200
C871	C87	0.852900	0.597700	0.339500
C881	C88	0.360200	0.730200	0.203500
N11	N1	0.370500	0.573400	0.025900
N21	N2	0.227500	0.535900	0.970900
N31	N3	0.629500	0.426600	0.525900
N41	N4	0.772500	0.464100	0.470900
N51	N5	0.426600	0.370500	0.275900
N61	N6	0.464100	0.227500	0.220900
N71	N7	0.573400	0.629500	0.775900
N81	N8	0.535900	0.772500	0.720900
N91	N9	0.629500	0.573400	0.974100
N101	N10	0.772500	0.535900	0.029100
N111	N11	0.370500	0.426600	0.474100
N121	N12	0.227500	0.464100	0.529100
N131	N13	0.573400	0.370500	0.724100
N141	N14	0.535900	0.227500	0.779100
N151	N15	0.426600	0.629500	0.224100
N161	N16	0.464100	0.772500	0.279100
O11	O1	0.409900	0.585300	0.874900
O21	O2	0.404600	0.224000	0.874700
O31	O3	0.412500	0.167100	0.959700
O41	O4	0.401900	0.434200	0.960900
O51	O5	0.299600	0.636100	0.804800
O61	O6	0.590100	0.414700	0.374900
O71	O7	0.595400	0.776000	0.374700
O81	O8	0.587500	0.832900	0.459700
O91	O9	0.598100	0.565800	0.460900
O101	O10	0.700400	0.363900	0.304800
O111	O11	0.414700	0.409900	0.124900
O121	O12	0.776000	0.404600	0.124700
O131	O13	0.832900	0.412500	0.209700
O141	O14	0.565800	0.401900	0.210900
O151	O15	0.363900	0.299600	0.054800
O161	O16	0.585300	0.590100	0.624900
O171	O17	0.224000	0.595400	0.624700
O181	O18	0.167100	0.587500	0.709700
O191	O19	0.434200	0.598100	0.710900
O201	O20	0.636100	0.700400	0.554800
O211	O21	0.590100	0.585300	0.125100
O221	O22	0.595400	0.224000	0.125300
O231	O23	0.587500	0.167100	0.040300
O241	O24	0.598100	0.434200	0.039100
O251	O25	0.700400	0.636100	0.195200
O261	O26	0.409900	0.414700	0.625100
O271	O27	0.404600	0.776000	0.625300
O281	O28	0.412500	0.832900	0.540300
O291	O29	0.401900	0.565800	0.539100
O301	O30	0.299600	0.363900	0.695200
O311	O31	0.585300	0.409900	0.875100
O321	O32	0.224000	0.404600	0.875300
O331	O33	0.167100	0.412500	0.790300
O341	O34	0.434200	0.401900	0.789100
O351	O35	0.636100	0.299600	0.945200
O361	O36	0.414700	0.590100	0.375100
O371	O37	0.776000	0.595400	0.375300
O381	O38	0.832900	0.587500	0.290300
O391	O39	0.565800	0.598100	0.289100
O401	O40	0.363900	0.700400	0.445200
