data_EPISOM_clean_PM
_symmetry_space_group_name_H-M	'P1'
_cell_length_a	18.900000
_cell_length_b	18.900000
_cell_length_c	33.561000
_cell_angle_alpha	90.000000
_cell_angle_beta	90.000000
_cell_angle_gamma	90.000000
_symmetry_Int_Tables_number 1

loop_
_symmetry_equiv_pos_as_xyz
'x,y,z'

loop_
_atom_site_label
_atom_site_type_symbol
_atom_site_fract_x
_atom_site_fract_y
_atom_site_fract_z
Cu11	Cu1	0.950120	0.514920	0.780380
Cu21	Cu2	0.549880	0.985080	0.780380
Cu31	Cu3	0.985080	0.950120	0.780380
Cu41	Cu4	0.514920	0.549880	0.780380
Cu51	Cu5	0.049880	0.014920	0.719620
Cu61	Cu6	0.450120	0.485080	0.719620
Cu71	Cu7	0.014920	0.450120	0.719620
Cu81	Cu8	0.485080	0.049880	0.719620
Cu91	Cu9	0.049880	0.485080	0.219620
Cu101	Cu10	0.450120	0.014920	0.219620
Cu111	Cu11	0.014920	0.049880	0.219620
Cu121	Cu12	0.485080	0.450120	0.219620
Cu131	Cu13	0.950120	0.985080	0.280380
Cu141	Cu14	0.549880	0.514920	0.280380
Cu151	Cu15	0.985080	0.549880	0.280380
Cu161	Cu16	0.514920	0.950120	0.280380
H11	H1	0.785400	0.138200	0.954400
H21	H2	0.858600	0.130000	0.900300
H31	H3	0.931100	0.326300	0.921000
H41	H4	0.860100	0.333800	0.976300
H51	H5	0.949500	0.124600	0.857500
H61	H6	0.009600	0.231100	0.761200
H71	H7	0.927700	0.334800	0.854500
H81	H8	0.714600	0.361800	0.954400
H91	H9	0.641400	0.370000	0.900300
H101	H10	0.568900	0.173700	0.921000
H111	H11	0.639900	0.166200	0.976300
H121	H12	0.550500	0.375400	0.857500
H131	H13	0.490400	0.268900	0.761200
H141	H14	0.572300	0.165200	0.854500
H151	H15	0.361800	0.785400	0.954400
H161	H16	0.370000	0.858600	0.900300
H171	H17	0.173700	0.931100	0.921000
H181	H18	0.166200	0.860100	0.976300
H191	H19	0.375400	0.949500	0.857500
H201	H20	0.268900	0.009600	0.761200
H211	H21	0.165200	0.927700	0.854500
H221	H22	0.138200	0.714600	0.954400
H231	H23	0.130000	0.641400	0.900300
H241	H24	0.326300	0.568900	0.921000
H251	H25	0.333800	0.639900	0.976300
H261	H26	0.124600	0.550500	0.857500
H271	H27	0.231100	0.490400	0.761200
H281	H28	0.334800	0.572300	0.854500
H291	H29	0.214600	0.638200	0.545600
H301	H30	0.141400	0.630000	0.599700
H311	H31	0.068900	0.826300	0.579000
H321	H32	0.139900	0.833800	0.523700
H331	H33	0.050500	0.624600	0.642500
H341	H34	0.990400	0.731100	0.738800
H351	H35	0.072300	0.834800	0.645500
H361	H36	0.285400	0.861800	0.545600
H371	H37	0.358600	0.870000	0.599700
H381	H38	0.431100	0.673700	0.579000
H391	H39	0.360100	0.666200	0.523700
H401	H40	0.449500	0.875400	0.642500
H411	H41	0.509600	0.768900	0.738800
H421	H42	0.427700	0.665200	0.645500
H431	H43	0.638200	0.285400	0.545600
H441	H44	0.630000	0.358600	0.599700
H451	H45	0.826300	0.431100	0.579000
H461	H46	0.833800	0.360100	0.523700
H471	H47	0.624600	0.449500	0.642500
H481	H48	0.731100	0.509600	0.738800
H491	H49	0.834800	0.427700	0.645500
H501	H50	0.861800	0.214600	0.545600
H511	H51	0.870000	0.141400	0.599700
H521	H52	0.673700	0.068900	0.579000
H531	H53	0.666200	0.139900	0.523700
H541	H54	0.875400	0.050500	0.642500
H551	H55	0.768900	0.990400	0.738800
H561	H56	0.665200	0.072300	0.645500
H571	H57	0.214600	0.861800	0.045600
H581	H58	0.141400	0.870000	0.099700
H591	H59	0.068900	0.673700	0.079000
H601	H60	0.139900	0.666200	0.023700
H611	H61	0.050500	0.875400	0.142500
H621	H62	0.990400	0.768900	0.238800
H631	H63	0.072300	0.665200	0.145500
H641	H64	0.285400	0.638200	0.045600
H651	H65	0.358600	0.630000	0.099700
H661	H66	0.431100	0.826300	0.079000
H671	H67	0.360100	0.833800	0.023700
H681	H68	0.449500	0.624600	0.142500
H691	H69	0.509600	0.731100	0.238800
H701	H70	0.427700	0.834800	0.145500
H711	H71	0.638200	0.214600	0.045600
H721	H72	0.630000	0.141400	0.099700
H731	H73	0.826300	0.068900	0.079000
H741	H74	0.833800	0.139900	0.023700
H751	H75	0.624600	0.050500	0.142500
H761	H76	0.731100	0.990400	0.238800
H771	H77	0.834800	0.072300	0.145500
H781	H78	0.861800	0.285400	0.045600
H791	H79	0.870000	0.358600	0.099700
H801	H80	0.673700	0.431100	0.079000
H811	H81	0.666200	0.360100	0.023700
H821	H82	0.875400	0.449500	0.142500
H831	H83	0.768900	0.509600	0.238800
H841	H84	0.665200	0.427700	0.145500
H851	H85	0.785400	0.361800	0.454400
H861	H86	0.858600	0.370000	0.400300
H871	H87	0.931100	0.173700	0.421000
H881	H88	0.860100	0.166200	0.476300
H891	H89	0.949500	0.375400	0.357500
H901	H90	0.009600	0.268900	0.261200
H911	H91	0.927700	0.165200	0.354500
H921	H92	0.714600	0.138200	0.454400
H931	H93	0.641400	0.130000	0.400300
H941	H94	0.568900	0.326300	0.421000
H951	H95	0.639900	0.333800	0.476300
H961	H96	0.550500	0.124600	0.357500
H971	H97	0.490400	0.231100	0.261200
H981	H98	0.572300	0.334800	0.354500
H991	H99	0.361800	0.714600	0.454400
H1001	H100	0.370000	0.641400	0.400300
H1011	H101	0.173700	0.568900	0.421000
H1021	H102	0.166200	0.639900	0.476300
H1031	H103	0.375400	0.550500	0.357500
H1041	H104	0.268900	0.490400	0.261200
H1051	H105	0.165200	0.572300	0.354500
H1061	H106	0.138200	0.785400	0.454400
H1071	H107	0.130000	0.858600	0.400300
H1081	H108	0.326300	0.931100	0.421000
H1091	H109	0.333800	0.860100	0.476300
H1101	H110	0.124600	0.949500	0.357500
H1111	H111	0.231100	0.009600	0.261200
H1121	H112	0.334800	0.927700	0.354500
C11	C1	0.811400	0.238400	0.971100
C21	C2	0.813700	0.176700	0.947560
C31	C3	0.857000	0.172100	0.914570
C41	C4	0.898700	0.229400	0.902010
C51	C5	0.900600	0.289100	0.927040
C61	C6	0.857900	0.293500	0.960490
C71	C7	0.934000	0.228600	0.862930
C81	C8	0.954200	0.167300	0.844090
C91	C9	0.981700	0.166900	0.805630
C101	C10	0.989600	0.230800	0.786510
C111	C11	0.969300	0.294900	0.803390
C121	C12	0.941400	0.292800	0.842230
C131	C13	0.998100	0.099300	0.784980
C141	C14	0.973300	0.362800	0.781720
C151	C15	0.688600	0.261600	0.971100
C161	C16	0.686300	0.323300	0.947560
C171	C17	0.643000	0.327900	0.914570
C181	C18	0.601300	0.270600	0.902010
C191	C19	0.599400	0.210900	0.927040
C201	C20	0.642100	0.206500	0.960490
C211	C21	0.566000	0.271400	0.862930
C221	C22	0.545800	0.332700	0.844090
C231	C23	0.518300	0.333100	0.805630
C241	C24	0.510400	0.269200	0.786510
C251	C25	0.530700	0.205100	0.803390
C261	C26	0.558600	0.207200	0.842230
C271	C27	0.501900	0.400700	0.784980
C281	C28	0.526700	0.137200	0.781720
C291	C29	0.261600	0.811400	0.971100
C301	C30	0.323300	0.813700	0.947560
C311	C31	0.327900	0.857000	0.914570
C321	C32	0.270600	0.898700	0.902010
C331	C33	0.210900	0.900600	0.927040
C341	C34	0.206500	0.857900	0.960490
C351	C35	0.271400	0.934000	0.862930
C361	C36	0.332700	0.954200	0.844090
C371	C37	0.333100	0.981700	0.805630
C381	C38	0.269200	0.989600	0.786510
C391	C39	0.205100	0.969300	0.803390
C401	C40	0.207200	0.941400	0.842230
C411	C41	0.400700	0.998100	0.784980
C421	C42	0.137200	0.973300	0.781720
C431	C43	0.238400	0.688600	0.971100
C441	C44	0.176700	0.686300	0.947560
C451	C45	0.172100	0.643000	0.914570
C461	C46	0.229400	0.601300	0.902010
C471	C47	0.289100	0.599400	0.927040
C481	C48	0.293500	0.642100	0.960490
C491	C49	0.228600	0.566000	0.862930
C501	C50	0.167300	0.545800	0.844090
C511	C51	0.166900	0.518300	0.805630
C521	C52	0.230800	0.510400	0.786510
C531	C53	0.294900	0.530700	0.803390
C541	C54	0.292800	0.558600	0.842230
C551	C55	0.099300	0.501900	0.784980
C561	C56	0.362800	0.526700	0.781720
C571	C57	0.188600	0.738400	0.528900
C581	C58	0.186300	0.676700	0.552440
C591	C59	0.143000	0.672100	0.585430
C601	C60	0.101300	0.729400	0.597990
C611	C61	0.099400	0.789100	0.572960
C621	C62	0.142100	0.793500	0.539510
C631	C63	0.066000	0.728600	0.637070
C641	C64	0.045800	0.667300	0.655910
C651	C65	0.018300	0.666900	0.694370
C661	C66	0.010400	0.730800	0.713490
C671	C67	0.030700	0.794900	0.696610
C681	C68	0.058600	0.792800	0.657770
C691	C69	0.001900	0.599300	0.715020
C701	C70	0.026700	0.862800	0.718280
C711	C71	0.311400	0.761600	0.528900
C721	C72	0.313700	0.823300	0.552440
C731	C73	0.357000	0.827900	0.585430
C741	C74	0.398700	0.770600	0.597990
C751	C75	0.400600	0.710900	0.572960
C761	C76	0.357900	0.706500	0.539510
C771	C77	0.434000	0.771400	0.637070
C781	C78	0.454200	0.832700	0.655910
C791	C79	0.481700	0.833100	0.694370
C801	C80	0.489600	0.769200	0.713490
C811	C81	0.469300	0.705100	0.696610
C821	C82	0.441400	0.707200	0.657770
C831	C83	0.498100	0.900700	0.715020
C841	C84	0.473300	0.637200	0.718280
C851	C85	0.738400	0.311400	0.528900
C861	C86	0.676700	0.313700	0.552440
C871	C87	0.672100	0.357000	0.585430
C881	C88	0.729400	0.398700	0.597990
C891	C89	0.789100	0.400600	0.572960
C901	C90	0.793500	0.357900	0.539510
C911	C91	0.728600	0.434000	0.637070
C921	C92	0.667300	0.454200	0.655910
C931	C93	0.666900	0.481700	0.694370
C941	C94	0.730800	0.489600	0.713490
C951	C95	0.794900	0.469300	0.696610
C961	C96	0.792800	0.441400	0.657770
C971	C97	0.599300	0.498100	0.715020
C981	C98	0.862800	0.473300	0.718280
C991	C99	0.761600	0.188600	0.528900
C1001	C100	0.823300	0.186300	0.552440
C1011	C101	0.827900	0.143000	0.585430
C1021	C102	0.770600	0.101300	0.597990
C1031	C103	0.710900	0.099400	0.572960
C1041	C104	0.706500	0.142100	0.539510
C1051	C105	0.771400	0.066000	0.637070
C1061	C106	0.832700	0.045800	0.655910
C1071	C107	0.833100	0.018300	0.694370
C1081	C108	0.769200	0.010400	0.713490
C1091	C109	0.705100	0.030700	0.696610
C1101	C110	0.707200	0.058600	0.657770
C1111	C111	0.900700	0.001900	0.715020
C1121	C112	0.637200	0.026700	0.718280
C1131	C113	0.188600	0.761600	0.028900
C1141	C114	0.186300	0.823300	0.052440
C1151	C115	0.143000	0.827900	0.085430
C1161	C116	0.101300	0.770600	0.097990
C1171	C117	0.099400	0.710900	0.072960
C1181	C118	0.142100	0.706500	0.039510
C1191	C119	0.066000	0.771400	0.137070
C1201	C120	0.045800	0.832700	0.155910
C1211	C121	0.018300	0.833100	0.194370
C1221	C122	0.010400	0.769200	0.213490
C1231	C123	0.030700	0.705100	0.196610
C1241	C124	0.058600	0.707200	0.157770
C1251	C125	0.001900	0.900700	0.215020
C1261	C126	0.026700	0.637200	0.218280
C1271	C127	0.311400	0.738400	0.028900
C1281	C128	0.313700	0.676700	0.052440
C1291	C129	0.357000	0.672100	0.085430
C1301	C130	0.398700	0.729400	0.097990
C1311	C131	0.400600	0.789100	0.072960
C1321	C132	0.357900	0.793500	0.039510
C1331	C133	0.434000	0.728600	0.137070
C1341	C134	0.454200	0.667300	0.155910
C1351	C135	0.481700	0.666900	0.194370
C1361	C136	0.489600	0.730800	0.213490
C1371	C137	0.469300	0.794900	0.196610
C1381	C138	0.441400	0.792800	0.157770
C1391	C139	0.498100	0.599300	0.215020
C1401	C140	0.473300	0.862800	0.218280
C1411	C141	0.738400	0.188600	0.028900
C1421	C142	0.676700	0.186300	0.052440
C1431	C143	0.672100	0.143000	0.085430
C1441	C144	0.729400	0.101300	0.097990
C1451	C145	0.789100	0.099400	0.072960
C1461	C146	0.793500	0.142100	0.039510
C1471	C147	0.728600	0.066000	0.137070
C1481	C148	0.667300	0.045800	0.155910
C1491	C149	0.666900	0.018300	0.194370
C1501	C150	0.730800	0.010400	0.213490
C1511	C151	0.794900	0.030700	0.196610
C1521	C152	0.792800	0.058600	0.157770
C1531	C153	0.599300	0.001900	0.215020
C1541	C154	0.862800	0.026700	0.218280
C1551	C155	0.761600	0.311400	0.028900
C1561	C156	0.823300	0.313700	0.052440
C1571	C157	0.827900	0.357000	0.085430
C1581	C158	0.770600	0.398700	0.097990
C1591	C159	0.710900	0.400600	0.072960
C1601	C160	0.706500	0.357900	0.039510
C1611	C161	0.771400	0.434000	0.137070
C1621	C162	0.832700	0.454200	0.155910
C1631	C163	0.833100	0.481700	0.194370
C1641	C164	0.769200	0.489600	0.213490
C1651	C165	0.705100	0.469300	0.196610
C1661	C166	0.707200	0.441400	0.157770
C1671	C167	0.900700	0.498100	0.215020
C1681	C168	0.637200	0.473300	0.218280
C1691	C169	0.811400	0.261600	0.471100
C1701	C170	0.813700	0.323300	0.447560
C1711	C171	0.857000	0.327900	0.414570
C1721	C172	0.898700	0.270600	0.402010
C1731	C173	0.900600	0.210900	0.427040
C1741	C174	0.857900	0.206500	0.460490
C1751	C175	0.934000	0.271400	0.362930
C1761	C176	0.954200	0.332700	0.344090
C1771	C177	0.981700	0.333100	0.305630
C1781	C178	0.989600	0.269200	0.286510
C1791	C179	0.969300	0.205100	0.303390
C1801	C180	0.941400	0.207200	0.342230
C1811	C181	0.998100	0.400700	0.284980
C1821	C182	0.973300	0.137200	0.281720
C1831	C183	0.688600	0.238400	0.471100
C1841	C184	0.686300	0.176700	0.447560
C1851	C185	0.643000	0.172100	0.414570
C1861	C186	0.601300	0.229400	0.402010
C1871	C187	0.599400	0.289100	0.427040
C1881	C188	0.642100	0.293500	0.460490
C1891	C189	0.566000	0.228600	0.362930
C1901	C190	0.545800	0.167300	0.344090
C1911	C191	0.518300	0.166900	0.305630
C1921	C192	0.510400	0.230800	0.286510
C1931	C193	0.530700	0.294900	0.303390
C1941	C194	0.558600	0.292800	0.342230
C1951	C195	0.501900	0.099300	0.284980
C1961	C196	0.526700	0.362800	0.281720
C1971	C197	0.261600	0.688600	0.471100
C1981	C198	0.323300	0.686300	0.447560
C1991	C199	0.327900	0.643000	0.414570
C2001	C200	0.270600	0.601300	0.402010
C2011	C201	0.210900	0.599400	0.427040
C2021	C202	0.206500	0.642100	0.460490
C2031	C203	0.271400	0.566000	0.362930
C2041	C204	0.332700	0.545800	0.344090
C2051	C205	0.333100	0.518300	0.305630
C2061	C206	0.269200	0.510400	0.286510
C2071	C207	0.205100	0.530700	0.303390
C2081	C208	0.207200	0.558600	0.342230
C2091	C209	0.400700	0.501900	0.284980
C2101	C210	0.137200	0.526700	0.281720
C2111	C211	0.238400	0.811400	0.471100
C2121	C212	0.176700	0.813700	0.447560
C2131	C213	0.172100	0.857000	0.414570
C2141	C214	0.229400	0.898700	0.402010
C2151	C215	0.289100	0.900600	0.427040
C2161	C216	0.293500	0.857900	0.460490
C2171	C217	0.228600	0.934000	0.362930
C2181	C218	0.167300	0.954200	0.344090
C2191	C219	0.166900	0.981700	0.305630
C2201	C220	0.230800	0.989600	0.286510
C2211	C221	0.294900	0.969300	0.303390
C2221	C222	0.292800	0.941400	0.342230
C2231	C223	0.099300	0.998100	0.284980
C2241	C224	0.362800	0.973300	0.281720
C2251	C225	0.750000	0.250000	0.000000
C2261	C226	0.250000	0.750000	0.000000
C2271	C227	0.250000	0.750000	0.500000
C2281	C228	0.750000	0.250000	0.500000
O11	O1	0.944230	0.415460	0.798070
O21	O2	0.005470	0.362890	0.748410
O31	O3	0.025850	0.100660	0.751240
O41	O4	0.979760	0.042620	0.804390
O51	O5	0.555770	0.084540	0.798070
O61	O6	0.494530	0.137110	0.748410
O71	O7	0.474150	0.399340	0.751240
O81	O8	0.520240	0.457380	0.804390
O91	O9	0.084540	0.944230	0.798070
O101	O10	0.137110	0.005470	0.748410
O111	O11	0.399340	0.025850	0.751240
O121	O12	0.457380	0.979760	0.804390
O131	O13	0.415460	0.555770	0.798070
O141	O14	0.362890	0.494530	0.748410
O151	O15	0.100660	0.474150	0.751240
O161	O16	0.042620	0.520240	0.804390
O171	O17	0.055770	0.915460	0.701930
O181	O18	0.994530	0.862890	0.751590
O191	O19	0.974150	0.600660	0.748760
O201	O20	0.020240	0.542620	0.695610
O211	O21	0.444230	0.584540	0.701930
O221	O22	0.505470	0.637110	0.751590
O231	O23	0.525850	0.899340	0.748760
O241	O24	0.479760	0.957380	0.695610
O251	O25	0.915460	0.444230	0.701930
O261	O26	0.862890	0.505470	0.751590
O271	O27	0.600660	0.525850	0.748760
O281	O28	0.542620	0.479760	0.695610
O291	O29	0.584540	0.055770	0.701930
O301	O30	0.637110	0.994530	0.751590
O311	O31	0.899340	0.974150	0.748760
O321	O32	0.957380	0.020240	0.695610
O331	O33	0.055770	0.584540	0.201930
O341	O34	0.994530	0.637110	0.251590
O351	O35	0.974150	0.899340	0.248760
O361	O36	0.020240	0.957380	0.195610
O371	O37	0.444230	0.915460	0.201930
O381	O38	0.505470	0.862890	0.251590
O391	O39	0.525850	0.600660	0.248760
O401	O40	0.479760	0.542620	0.195610
O411	O41	0.915460	0.055770	0.201930
O421	O42	0.862890	0.994530	0.251590
O431	O43	0.600660	0.974150	0.248760
O441	O44	0.542620	0.020240	0.195610
O451	O45	0.584540	0.444230	0.201930
O461	O46	0.637110	0.505470	0.251590
O471	O47	0.899340	0.525850	0.248760
O481	O48	0.957380	0.479760	0.195610
O491	O49	0.944230	0.084540	0.298070
O501	O50	0.005470	0.137110	0.248410
O511	O51	0.025850	0.399340	0.251240
O521	O52	0.979760	0.457380	0.304390
O531	O53	0.555770	0.415460	0.298070
O541	O54	0.494530	0.362890	0.248410
O551	O55	0.474150	0.100660	0.251240
O561	O56	0.520240	0.042620	0.304390
O571	O57	0.084540	0.555770	0.298070
O581	O58	0.137110	0.494530	0.248410
O591	O59	0.399340	0.474150	0.251240
O601	O60	0.457380	0.520240	0.304390
O611	O61	0.415460	0.944230	0.298070
O621	O62	0.362890	0.005470	0.248410
O631	O63	0.100660	0.025850	0.251240
O641	O64	0.042620	0.979760	0.304390
