data_EPOTAF_clean_PM
_symmetry_space_group_name_H-M	'P1'
_cell_length_a	10.776500
_cell_length_b	15.068300
_cell_length_c	28.487000
_cell_angle_alpha	86.897300
_cell_angle_beta	81.294100
_cell_angle_gamma	69.047800
_symmetry_Int_Tables_number 1

loop_
_symmetry_equiv_pos_as_xyz
'x,y,z'

loop_
_atom_site_label
_atom_site_type_symbol
_atom_site_fract_x
_atom_site_fract_y
_atom_site_fract_z
Cu11	Cu1	0.622160	0.962120	0.010880
Cu21	Cu2	0.415720	0.962120	0.489120
Cu31	Cu3	0.377840	0.037880	0.989120
Cu41	Cu4	0.584280	0.037880	0.510880
H11	H1	0.554000	0.775200	0.128200
H21	H2	0.199700	0.888800	0.087000
H31	H3	0.107000	0.792400	0.144800
H41	H4	0.175100	0.521600	0.185100
H51	H5	0.159700	0.445600	0.223700
H61	H6	0.229200	0.278000	0.086100
H71	H7	0.395800	0.564400	0.209600
H81	H8	0.332900	0.637400	0.252000
H91	H9	0.471300	0.682200	0.185500
H101	H10	0.557600	0.291000	0.170700
H111	H11	0.604600	0.168400	0.113600
H121	H12	0.172900	0.395600	0.143200
H131	H13	0.670800	0.775200	0.371800
H141	H14	0.911500	0.888800	0.413000
H151	H15	0.100600	0.792400	0.355200
H161	H16	0.303300	0.521600	0.314900
H171	H17	0.394700	0.445600	0.276300
H181	H18	0.492800	0.278000	0.413900
H191	H19	0.039800	0.564400	0.290400
H201	H20	0.029700	0.637400	0.248000
H211	H21	0.846500	0.682200	0.314500
H221	H22	0.151400	0.291000	0.329300
H231	H23	0.227000	0.168400	0.386400
H241	H24	0.431500	0.395600	0.356800
H251	H25	0.446000	0.224800	0.871800
H261	H26	0.800300	0.111200	0.913000
H271	H27	0.893000	0.207600	0.855200
H281	H28	0.824900	0.478400	0.814900
H291	H29	0.840300	0.554400	0.776300
H301	H30	0.770800	0.722000	0.913900
H311	H31	0.604200	0.435600	0.790400
H321	H32	0.667100	0.362600	0.748000
H331	H33	0.528700	0.317800	0.814500
H341	H34	0.442400	0.709000	0.829300
H351	H35	0.395400	0.831600	0.886400
H361	H36	0.827100	0.604400	0.856800
H371	H37	0.329200	0.224800	0.628200
H381	H38	0.088500	0.111200	0.587000
H391	H39	0.899400	0.207600	0.644800
H401	H40	0.696700	0.478400	0.685100
H411	H41	0.605300	0.554400	0.723700
H421	H42	0.507200	0.722000	0.586100
H431	H43	0.960200	0.435600	0.709600
H441	H44	0.970300	0.362600	0.752000
H451	H45	0.153500	0.317800	0.685500
H461	H46	0.848600	0.709000	0.670700
H471	H47	0.773000	0.831600	0.613600
H481	H48	0.568500	0.604400	0.643200
C11	C1	0.465000	0.779600	0.130300
C21	C2	0.386810	0.838980	0.101700
C31	C3	0.255600	0.845800	0.106200
C41	C4	0.196800	0.786800	0.141100
C51	C5	0.430790	0.900820	0.065610
C61	C6	0.215100	0.482200	0.210880
C71	C7	0.294990	0.280420	0.103200
C81	C8	0.312360	0.604480	0.227590
C91	C9	0.290820	0.723160	0.167200
C101	C10	0.415440	0.721120	0.164900
C111	C11	0.361450	0.355500	0.159700
C121	C12	0.492200	0.288400	0.153500
C131	C13	0.519200	0.214800	0.118700
C141	C14	0.424630	0.211340	0.093600
C151	C15	0.260080	0.352240	0.136700
C161	C16	0.450330	0.132940	0.059500
C171	C17	0.755400	0.779600	0.369700
C181	C18	0.774210	0.838980	0.398300
C191	C19	0.898600	0.845800	0.393800
C201	C20	0.016400	0.786800	0.358900
C211	C21	0.668390	0.900820	0.434390
C221	C22	0.302700	0.482200	0.289120
C231	C23	0.424590	0.280420	0.396800
C241	C24	0.083160	0.604480	0.272410
C251	C25	0.986020	0.723160	0.332800
C261	C26	0.863440	0.721120	0.335100
C271	C27	0.283050	0.355500	0.340300
C281	C28	0.219400	0.288400	0.346500
C291	C29	0.266000	0.214800	0.381300
C301	C30	0.364030	0.211340	0.406400
C311	C31	0.387680	0.352240	0.363300
C321	C32	0.416730	0.132940	0.440500
C331	C33	0.535000	0.220400	0.869700
C341	C34	0.613190	0.161020	0.898300
C351	C35	0.744400	0.154200	0.893800
C361	C36	0.803200	0.213200	0.858900
C371	C37	0.569210	0.099180	0.934390
C381	C38	0.784900	0.517800	0.789120
C391	C39	0.705010	0.719580	0.896800
C401	C40	0.687640	0.395520	0.772410
C411	C41	0.709180	0.276840	0.832800
C421	C42	0.584560	0.278880	0.835100
C431	C43	0.638550	0.644500	0.840300
C441	C44	0.507800	0.711600	0.846500
C451	C45	0.480800	0.785200	0.881300
C461	C46	0.575370	0.788660	0.906400
C471	C47	0.739920	0.647760	0.863300
C481	C48	0.549670	0.867060	0.940500
C491	C49	0.244600	0.220400	0.630300
C501	C50	0.225790	0.161020	0.601700
C511	C51	0.101400	0.154200	0.606200
C521	C52	0.983600	0.213200	0.641100
C531	C53	0.331610	0.099180	0.565610
C541	C54	0.697300	0.517800	0.710880
C551	C55	0.575410	0.719580	0.603200
C561	C56	0.916840	0.395520	0.727590
C571	C57	0.013980	0.276840	0.667200
C581	C58	0.136560	0.278880	0.664900
C591	C59	0.716950	0.644500	0.659700
C601	C60	0.780600	0.711600	0.653500
C611	C61	0.734000	0.785200	0.618700
C621	C62	0.635970	0.788660	0.593600
C631	C63	0.612320	0.647760	0.636700
C641	C64	0.583270	0.867060	0.559500
C651	C65	0.227800	0.544400	0.250000
C661	C66	0.772200	0.455600	0.750000
O11	O1	0.342380	0.955640	0.042460
O21	O2	0.549900	0.892000	0.061220
O31	O3	0.568410	0.069980	0.054870
O41	O4	0.360110	0.135180	0.036400
O51	O5	0.230230	0.671140	0.196980
O61	O6	0.349060	0.420280	0.194380
O71	O7	0.701980	0.955640	0.457540
O81	O8	0.558100	0.892000	0.438780
O91	O9	0.361610	0.069980	0.445130
O101	O10	0.504710	0.135180	0.463600
O111	O11	0.098630	0.671140	0.303020
O121	O12	0.230660	0.420280	0.305620
O131	O13	0.657620	0.044360	0.957540
O141	O14	0.450100	0.108000	0.938780
O151	O15	0.431590	0.930020	0.945130
O161	O16	0.639890	0.864820	0.963600
O171	O17	0.769770	0.328860	0.803020
O181	O18	0.650940	0.579720	0.805620
O191	O19	0.298020	0.044360	0.542460
O201	O20	0.441900	0.108000	0.561220
O211	O21	0.638390	0.930020	0.554870
O221	O22	0.495290	0.864820	0.536400
O231	O23	0.901370	0.328860	0.696980
O241	O24	0.769340	0.579720	0.694380
