data_EPUJIJ_clean_PM
_symmetry_space_group_name_H-M	'P1'
_cell_length_a	11.288000
_cell_length_b	12.645000
_cell_length_c	14.725000
_cell_angle_alpha	90.000000
_cell_angle_beta	90.000000
_cell_angle_gamma	90.000000
_symmetry_Int_Tables_number 1

loop_
_symmetry_equiv_pos_as_xyz
'x,y,z'

loop_
_atom_site_label
_atom_site_type_symbol
_atom_site_fract_x
_atom_site_fract_y
_atom_site_fract_z
Pr11	Pr1	0.149360	0.385440	0.992860
Pr21	Pr2	0.350640	0.114560	0.492860
Pr31	Pr3	0.850640	0.385440	0.507140
Pr41	Pr4	0.649360	0.114560	0.007140
Pr51	Pr5	0.850640	0.614560	0.007140
Pr61	Pr6	0.649360	0.885440	0.507140
Pr71	Pr7	0.149360	0.614560	0.492860
Pr81	Pr8	0.350640	0.885440	0.992860
H11	H1	0.945000	0.597000	0.762000
H21	H2	0.437000	0.587000	0.848000
H31	H3	0.331000	0.526000	0.809000
H41	H4	0.555000	0.903000	0.262000
H51	H5	0.063000	0.913000	0.348000
H61	H6	0.169000	0.974000	0.309000
H71	H7	0.055000	0.597000	0.738000
H81	H8	0.563000	0.587000	0.652000
H91	H9	0.669000	0.526000	0.691000
H101	H10	0.445000	0.903000	0.238000
H111	H11	0.937000	0.913000	0.152000
H121	H12	0.831000	0.974000	0.191000
H131	H13	0.055000	0.403000	0.238000
H141	H14	0.563000	0.413000	0.152000
H151	H15	0.669000	0.474000	0.191000
H161	H16	0.445000	0.097000	0.738000
H171	H17	0.937000	0.087000	0.652000
H181	H18	0.831000	0.026000	0.691000
H191	H19	0.945000	0.403000	0.262000
H201	H20	0.437000	0.413000	0.348000
H211	H21	0.331000	0.474000	0.309000
H221	H22	0.555000	0.097000	0.762000
H231	H23	0.063000	0.087000	0.848000
H241	H24	0.169000	0.026000	0.809000
C11	C1	0.427100	0.447600	0.904150
C21	C2	0.380500	0.549000	0.863100
C31	C3	0.301700	0.614610	0.924500
C41	C4	0.030000	0.486500	0.832010
C51	C5	0.072900	0.052400	0.404150
C61	C6	0.119500	0.951000	0.363100
C71	C7	0.198300	0.885390	0.424500
C81	C8	0.470000	0.013500	0.332010
C91	C9	0.572900	0.447600	0.595850
C101	C10	0.619500	0.549000	0.636900
C111	C11	0.698300	0.614610	0.575500
C121	C12	0.970000	0.486500	0.667990
C131	C13	0.927100	0.052400	0.095850
C141	C14	0.880500	0.951000	0.136900
C151	C15	0.801700	0.885390	0.075500
C161	C16	0.530000	0.013500	0.167990
C171	C17	0.572900	0.552400	0.095850
C181	C18	0.619500	0.451000	0.136900
C191	C19	0.698300	0.385390	0.075500
C201	C20	0.970000	0.513500	0.167990
C211	C21	0.927100	0.947600	0.595850
C221	C22	0.880500	0.049000	0.636900
C231	C23	0.801700	0.114610	0.575500
C241	C24	0.530000	0.986500	0.667990
C251	C25	0.427100	0.552400	0.404150
C261	C26	0.380500	0.451000	0.363100
C271	C27	0.301700	0.385390	0.424500
C281	C28	0.030000	0.513500	0.332010
C291	C29	0.072900	0.947600	0.904150
C301	C30	0.119500	0.049000	0.863100
C311	C31	0.198300	0.114610	0.924500
C321	C32	0.470000	0.986500	0.832010
C331	C33	0.000000	0.551800	0.750000
C341	C34	0.500000	0.948200	0.250000
C351	C35	0.000000	0.448200	0.250000
C361	C36	0.500000	0.051800	0.750000
O11	O1	0.354510	0.382710	0.937100
O21	O2	0.317220	0.711810	0.926220
O31	O3	0.221000	0.567700	0.968460
O41	O4	0.985220	0.508650	0.908340
O51	O5	0.104100	0.413110	0.825490
O61	O6	0.535910	0.431230	0.902190
O71	O7	0.145490	0.117290	0.437100
O81	O8	0.182780	0.788190	0.426220
O91	O9	0.279000	0.932300	0.468460
O101	O10	0.514780	0.991350	0.408340
O111	O11	0.395900	0.086890	0.325490
O121	O12	0.964090	0.068770	0.402190
O131	O13	0.645490	0.382710	0.562900
O141	O14	0.682780	0.711810	0.573780
O151	O15	0.779000	0.567700	0.531540
O161	O16	0.014780	0.508650	0.591660
O171	O17	0.895900	0.413110	0.674510
O181	O18	0.464090	0.431230	0.597810
O191	O19	0.854510	0.117290	0.062900
O201	O20	0.817220	0.788190	0.073780
O211	O21	0.721000	0.932300	0.031540
O221	O22	0.485220	0.991350	0.091660
O231	O23	0.604100	0.086890	0.174510
O241	O24	0.035910	0.068770	0.097810
O251	O25	0.645490	0.617290	0.062900
O261	O26	0.682780	0.288190	0.073780
O271	O27	0.779000	0.432300	0.031540
O281	O28	0.014780	0.491350	0.091660
O291	O29	0.895900	0.586890	0.174510
O301	O30	0.464090	0.568770	0.097810
O311	O31	0.854510	0.882710	0.562900
O321	O32	0.817220	0.211810	0.573780
O331	O33	0.721000	0.067700	0.531540
O341	O34	0.485220	0.008650	0.591660
O351	O35	0.604100	0.913110	0.674510
O361	O36	0.035910	0.931230	0.597810
O371	O37	0.354510	0.617290	0.437100
O381	O38	0.317220	0.288190	0.426220
O391	O39	0.221000	0.432300	0.468460
O401	O40	0.985220	0.491350	0.408340
O411	O41	0.104100	0.586890	0.325490
O421	O42	0.535910	0.568770	0.402190
O431	O43	0.145490	0.882710	0.937100
O441	O44	0.182780	0.211810	0.926220
O451	O45	0.279000	0.067700	0.968460
O461	O46	0.514780	0.008650	0.908340
O471	O47	0.395900	0.913110	0.825490
O481	O48	0.964090	0.931230	0.902190
