data_EQAMUG_clean_PM
_symmetry_space_group_name_H-M	'P1'
_cell_length_a	6.907000
_cell_length_b	21.897000
_cell_length_c	23.151000
_cell_angle_alpha	90.000000
_cell_angle_beta	90.000000
_cell_angle_gamma	90.000000
_symmetry_Int_Tables_number 1

loop_
_symmetry_equiv_pos_as_xyz
'x,y,z'

loop_
_atom_site_label
_atom_site_type_symbol
_atom_site_fract_x
_atom_site_fract_y
_atom_site_fract_z
Nd11	Nd1	0.578300	0.268430	0.449360
O11	O1	0.600600	0.310260	0.349500
O21	O2	0.566400	0.210880	0.358730
O31	O3	0.798200	0.351420	0.460750
O41	O4	0.415000	0.224520	0.052410
O51	O5	0.728400	0.239460	0.051490
O61	O6	0.049400	0.336250	0.520310
C11	C1	0.582400	0.257700	0.327400
C21	C2	0.579500	0.249700	0.263400
C31	C3	0.570700	0.191800	0.239800
H11	H1	0.564600	0.157600	0.263600
C41	C4	0.586800	0.300200	0.227100
H21	H2	0.592800	0.339200	0.242900
C51	C5	0.573000	0.231500	0.078500
C61	C6	0.576500	0.234700	0.143800
C71	C7	0.585300	0.293100	0.167500
H31	H3	0.590100	0.327100	0.143600
C81	C8	0.571000	0.185400	0.180400
O71	O7	0.602100	0.117000	0.105000
O81	O8	0.535000	0.082600	0.188700
N11	N1	0.568300	0.123900	0.156200
N21	N2	0.097600	0.430800	0.599500
O91	O9	0.961000	0.413700	0.629700
O101	O10	0.263000	0.424500	0.610700
C91	C9	0.931300	0.369700	0.493200
C101	C10	0.898000	0.475000	0.453400
C111	C11	0.062800	0.462700	0.544100
C121	C12	0.964100	0.437400	0.498000
Nd21	Nd2	0.921700	0.731570	0.949360
O111	O11	0.899400	0.689740	0.849500
O121	O12	0.933600	0.789120	0.858730
O131	O13	0.701800	0.648580	0.960750
O141	O14	0.085000	0.775480	0.552410
O151	O15	0.771600	0.760540	0.551490
O161	O16	0.450600	0.663750	0.020310
C131	C13	0.917600	0.742300	0.827400
C141	C14	0.920500	0.750300	0.763400
C151	C15	0.929300	0.808200	0.739800
H41	H4	0.935400	0.842400	0.763600
C161	C16	0.913200	0.699800	0.727100
H51	H5	0.907200	0.660800	0.742900
C171	C17	0.927000	0.768500	0.578500
C181	C18	0.923500	0.765300	0.643800
C191	C19	0.914700	0.706900	0.667500
H61	H6	0.909900	0.672900	0.643600
C201	C20	0.929000	0.814600	0.680400
O171	O17	0.897900	0.883000	0.605000
O181	O18	0.965000	0.917400	0.688700
N31	N3	0.931700	0.876100	0.656200
N41	N4	0.402400	0.569200	0.099500
O191	O19	0.539000	0.586300	0.129700
O201	O20	0.237000	0.575500	0.110700
C211	C21	0.568700	0.630300	0.993200
C221	C22	0.602000	0.525000	0.953400
C231	C23	0.437200	0.537300	0.044100
C241	C24	0.535900	0.562600	0.998000
Nd31	Nd3	0.421700	0.768430	0.050640
O211	O21	0.399400	0.810260	0.150500
O221	O22	0.433600	0.710880	0.141270
O231	O23	0.201800	0.851420	0.039250
O241	O24	0.585000	0.724520	0.447590
O251	O25	0.271600	0.739460	0.448510
O261	O26	0.950600	0.836250	0.979690
C251	C25	0.417600	0.757700	0.172600
C261	C26	0.420500	0.749700	0.236600
C271	C27	0.429300	0.691800	0.260200
H71	H7	0.435400	0.657600	0.236400
C281	C28	0.413200	0.800200	0.272900
H81	H8	0.407200	0.839200	0.257100
C291	C29	0.427000	0.731500	0.421500
C301	C30	0.423500	0.734700	0.356200
C311	C31	0.414700	0.793100	0.332500
H91	H9	0.409900	0.827100	0.356400
C321	C32	0.429000	0.685400	0.319600
O271	O27	0.397900	0.617000	0.395000
O281	O28	0.465000	0.582600	0.311300
N51	N5	0.431700	0.623900	0.343800
N61	N6	0.902400	0.930800	0.900500
O291	O29	0.039000	0.913700	0.870300
O301	O30	0.737000	0.924500	0.889300
C331	C33	0.068700	0.869700	0.006800
C341	C34	0.102000	0.975000	0.046600
C351	C35	0.937200	0.962700	0.955900
C361	C36	0.035900	0.937400	0.002000
Nd41	Nd4	0.078300	0.231570	0.550640
O311	O31	0.100600	0.189740	0.650500
O321	O32	0.066400	0.289120	0.641270
O331	O33	0.298200	0.148580	0.539250
O341	O34	0.915000	0.275480	0.947590
O351	O35	0.228400	0.260540	0.948510
O361	O36	0.549400	0.163750	0.479690
C371	C37	0.082400	0.242300	0.672600
C381	C38	0.079500	0.250300	0.736600
C391	C39	0.070700	0.308200	0.760200
H101	H10	0.064600	0.342400	0.736400
C401	C40	0.086800	0.199800	0.772900
H111	H11	0.092800	0.160800	0.757100
C411	C41	0.073000	0.268500	0.921500
C421	C42	0.076500	0.265300	0.856200
C431	C43	0.085300	0.206900	0.832500
H121	H12	0.090100	0.172900	0.856400
C441	C44	0.071000	0.314600	0.819600
O371	O37	0.102100	0.383000	0.895000
O381	O38	0.035000	0.417400	0.811300
N71	N7	0.068300	0.376100	0.843800
N81	N8	0.597600	0.069200	0.400500
O391	O39	0.461000	0.086300	0.370300
O401	O40	0.763000	0.075500	0.389300
C451	C45	0.431300	0.130300	0.506800
C461	C46	0.398000	0.025000	0.546600
C471	C47	0.562800	0.037300	0.455900
C481	C48	0.464100	0.062600	0.502000
Nd51	Nd5	0.421700	0.731570	0.550640
O411	O41	0.399400	0.689740	0.650500
O421	O42	0.433600	0.789120	0.641270
O431	O43	0.201800	0.648580	0.539250
O441	O44	0.585000	0.775480	0.947590
O451	O45	0.271600	0.760540	0.948510
O461	O46	0.950600	0.663750	0.479690
C491	C49	0.417600	0.742300	0.672600
C501	C50	0.420500	0.750300	0.736600
C511	C51	0.429300	0.808200	0.760200
H131	H13	0.435400	0.842400	0.736400
C521	C52	0.413200	0.699800	0.772900
H141	H14	0.407200	0.660800	0.757100
C531	C53	0.427000	0.768500	0.921500
C541	C54	0.423500	0.765300	0.856200
C551	C55	0.414700	0.706900	0.832500
H151	H15	0.409900	0.672900	0.856400
C561	C56	0.429000	0.814600	0.819600
O471	O47	0.397900	0.883000	0.895000
O481	O48	0.465000	0.917400	0.811300
N91	N9	0.431700	0.876100	0.843800
N101	N10	0.902400	0.569200	0.400500
O491	O49	0.039000	0.586300	0.370300
O501	O50	0.737000	0.575500	0.389300
C571	C57	0.068700	0.630300	0.506800
C581	C58	0.102000	0.525000	0.546600
C591	C59	0.937200	0.537300	0.455900
C601	C60	0.035900	0.562600	0.502000
Nd61	Nd6	0.078300	0.268430	0.050640
O511	O51	0.100600	0.310260	0.150500
O521	O52	0.066400	0.210880	0.141270
O531	O53	0.298200	0.351420	0.039250
O541	O54	0.915000	0.224520	0.447590
O551	O55	0.228400	0.239460	0.448510
O561	O56	0.549400	0.336250	0.979690
C611	C61	0.082400	0.257700	0.172600
C621	C62	0.079500	0.249700	0.236600
C631	C63	0.070700	0.191800	0.260200
H161	H16	0.064600	0.157600	0.236400
C641	C64	0.086800	0.300200	0.272900
H171	H17	0.092800	0.339200	0.257100
C651	C65	0.073000	0.231500	0.421500
C661	C66	0.076500	0.234700	0.356200
C671	C67	0.085300	0.293100	0.332500
H181	H18	0.090100	0.327100	0.356400
C681	C68	0.071000	0.185400	0.319600
O571	O57	0.102100	0.117000	0.395000
O581	O58	0.035000	0.082600	0.311300
N111	N11	0.068300	0.123900	0.343800
N121	N12	0.597600	0.430800	0.900500
O591	O59	0.461000	0.413700	0.870300
O601	O60	0.763000	0.424500	0.889300
C691	C69	0.431300	0.369700	0.006800
C701	C70	0.398000	0.475000	0.046600
C711	C71	0.562800	0.462700	0.955900
C721	C72	0.464100	0.437400	0.002000
Nd71	Nd7	0.578300	0.231570	0.949360
O611	O61	0.600600	0.189740	0.849500
O621	O62	0.566400	0.289120	0.858730
O631	O63	0.798200	0.148580	0.960750
O641	O64	0.415000	0.275480	0.552410
O651	O65	0.728400	0.260540	0.551490
O661	O66	0.049400	0.163750	0.020310
C731	C73	0.582400	0.242300	0.827400
C741	C74	0.579500	0.250300	0.763400
C751	C75	0.570700	0.308200	0.739800
H191	H19	0.564600	0.342400	0.763600
C761	C76	0.586800	0.199800	0.727100
H201	H20	0.592800	0.160800	0.742900
C771	C77	0.573000	0.268500	0.578500
C781	C78	0.576500	0.265300	0.643800
C791	C79	0.585300	0.206900	0.667500
H211	H21	0.590100	0.172900	0.643600
C801	C80	0.571000	0.314600	0.680400
O671	O67	0.602100	0.383000	0.605000
O681	O68	0.535000	0.417400	0.688700
N131	N13	0.568300	0.376100	0.656200
N141	N14	0.097600	0.069200	0.099500
O691	O69	0.961000	0.086300	0.129700
O701	O70	0.263000	0.075500	0.110700
C811	C81	0.931300	0.130300	0.993200
C821	C82	0.898000	0.025000	0.953400
C831	C83	0.062800	0.037300	0.044100
C841	C84	0.964100	0.062600	0.998000
Nd81	Nd8	0.921700	0.768430	0.449360
O711	O71	0.899400	0.810260	0.349500
O721	O72	0.933600	0.710880	0.358730
O731	O73	0.701800	0.851420	0.460750
O741	O74	0.085000	0.724520	0.052410
O751	O75	0.771600	0.739460	0.051490
O761	O76	0.450600	0.836250	0.520310
C851	C85	0.917600	0.757700	0.327400
C861	C86	0.920500	0.749700	0.263400
C871	C87	0.929300	0.691800	0.239800
H221	H22	0.935400	0.657600	0.263600
C881	C88	0.913200	0.800200	0.227100
H231	H23	0.907200	0.839200	0.242900
C891	C89	0.927000	0.731500	0.078500
C901	C90	0.923500	0.734700	0.143800
C911	C91	0.914700	0.793100	0.167500
H241	H24	0.909900	0.827100	0.143600
C921	C92	0.929000	0.685400	0.180400
O771	O77	0.897900	0.617000	0.105000
O781	O78	0.965000	0.582600	0.188700
N151	N15	0.931700	0.623900	0.156200
N161	N16	0.402400	0.930800	0.599500
O791	O79	0.539000	0.913700	0.629700
O801	O80	0.237000	0.924500	0.610700
C931	C93	0.568700	0.869700	0.493200
C941	C94	0.602000	0.975000	0.453400
C951	C95	0.437200	0.962700	0.544100
C961	C96	0.535900	0.937400	0.498000
