data_EQERIC_clean_PM
_symmetry_space_group_name_H-M	'P1'
_cell_length_a	10.583500
_cell_length_b	11.648600
_cell_length_c	17.609000
_cell_angle_alpha	90.000000
_cell_angle_beta	90.000000
_cell_angle_gamma	110.272000
_symmetry_Int_Tables_number 1

loop_
_symmetry_equiv_pos_as_xyz
'x,y,z'

loop_
_atom_site_label
_atom_site_type_symbol
_atom_site_fract_x
_atom_site_fract_y
_atom_site_fract_z
Co11	Co1	0.983170	0.216280	0.826470
Co21	Co2	0.516830	0.783720	0.326470
Co31	Co3	0.016830	0.783720	0.173530
Co41	Co4	0.483170	0.216280	0.673530
H11	H1	0.298800	0.632000	0.654100
H21	H2	0.338700	0.978900	0.604400
H31	H3	0.124600	0.815100	0.786100
H41	H4	0.152500	0.447100	0.712600
H51	H5	0.966200	0.450400	0.903500
H61	H6	0.358700	0.872900	0.460800
H71	H7	0.632400	0.719400	0.477200
H81	H8	0.019400	0.967700	0.770600
H91	H9	0.272300	0.301300	0.746300
H101	H10	0.201200	0.368000	0.154100
H111	H11	0.161300	0.021100	0.104400
H121	H12	0.375400	0.184900	0.286100
H131	H13	0.347500	0.552900	0.212600
H141	H14	0.533800	0.549600	0.403500
H151	H15	0.141300	0.127100	0.960800
H161	H16	0.867600	0.280600	0.977200
H171	H17	0.480600	0.032300	0.270600
H181	H18	0.227700	0.698700	0.246300
H191	H19	0.701200	0.368000	0.345900
H201	H20	0.661300	0.021100	0.395600
H211	H21	0.875400	0.184900	0.213900
H221	H22	0.847500	0.552900	0.287400
H231	H23	0.033800	0.549600	0.096500
H241	H24	0.641300	0.127100	0.539200
H251	H25	0.367600	0.280600	0.522800
H261	H26	0.980600	0.032300	0.229400
H271	H27	0.727700	0.698700	0.253700
H281	H28	0.798800	0.632000	0.845900
H291	H29	0.838700	0.978900	0.895600
H301	H30	0.624600	0.815100	0.713900
H311	H31	0.652500	0.447100	0.787400
H321	H32	0.466200	0.450400	0.596500
H331	H33	0.858700	0.872900	0.039200
H341	H34	0.132400	0.719400	0.022800
H351	H35	0.519400	0.967700	0.729400
H361	H36	0.772300	0.301300	0.753700
C11	C1	0.199000	0.703700	0.726630
C21	C2	0.280300	0.702600	0.665080
C31	C3	0.334300	0.805100	0.619630
C41	C4	0.306700	0.911300	0.636240
C51	C5	0.232300	0.916100	0.699700
C61	C6	0.176900	0.812400	0.744200
C71	C7	0.133300	0.592200	0.770530
C81	C8	0.117700	0.473600	0.754930
C91	C9	0.015900	0.475700	0.859200
C101	C10	0.418300	0.799700	0.554110
C111	C11	0.414900	0.833800	0.480300
C121	C12	0.564400	0.749600	0.489470
C131	C13	0.205100	0.028000	0.722230
C141	C14	0.095100	0.034400	0.757900
C151	C15	0.233900	0.216500	0.744400
C161	C16	0.301000	0.296300	0.226630
C171	C17	0.219700	0.297400	0.165080
C181	C18	0.165700	0.194900	0.119630
C191	C19	0.193300	0.088700	0.136240
C201	C20	0.267700	0.083900	0.199700
C211	C21	0.323100	0.187600	0.244200
C221	C22	0.366700	0.407800	0.270530
C231	C23	0.382300	0.526400	0.254930
C241	C24	0.484100	0.524300	0.359200
C251	C25	0.081700	0.200300	0.054110
C261	C26	0.085100	0.166200	0.980300
C271	C27	0.935600	0.250400	0.989470
C281	C28	0.294900	0.972000	0.222230
C291	C29	0.404900	0.965600	0.257900
C301	C30	0.266100	0.783500	0.244400
C311	C31	0.801000	0.296300	0.273370
C321	C32	0.719700	0.297400	0.334920
C331	C33	0.665700	0.194900	0.380370
C341	C34	0.693300	0.088700	0.363760
C351	C35	0.767700	0.083900	0.300300
C361	C36	0.823100	0.187600	0.255800
C371	C37	0.866700	0.407800	0.229470
C381	C38	0.882300	0.526400	0.245070
C391	C39	0.984100	0.524300	0.140800
C401	C40	0.581700	0.200300	0.445890
C411	C41	0.585100	0.166200	0.519700
C421	C42	0.435600	0.250400	0.510530
C431	C43	0.794900	0.972000	0.277770
C441	C44	0.904900	0.965600	0.242100
C451	C45	0.766100	0.783500	0.255600
C461	C46	0.699000	0.703700	0.773370
C471	C47	0.780300	0.702600	0.834920
C481	C48	0.834300	0.805100	0.880370
C491	C49	0.806700	0.911300	0.863760
C501	C50	0.732300	0.916100	0.800300
C511	C51	0.676900	0.812400	0.755800
C521	C52	0.633300	0.592200	0.729470
C531	C53	0.617700	0.473600	0.745070
C541	C54	0.515900	0.475700	0.640800
C551	C55	0.918300	0.799700	0.945890
C561	C56	0.914900	0.833800	0.019700
C571	C57	0.064400	0.749600	0.010530
C581	C58	0.705100	0.028000	0.777770
C591	C59	0.595100	0.034400	0.742100
C601	C60	0.733900	0.216500	0.755600
N11	N1	0.042800	0.398900	0.811380
N21	N2	0.066600	0.591800	0.837700
N31	N3	0.507700	0.801300	0.439220
N41	N4	0.514400	0.745000	0.559560
N51	N5	0.112100	0.154900	0.772540
N61	N6	0.295800	0.145900	0.713350
N71	N7	0.457200	0.601100	0.311380
N81	N8	0.433400	0.408200	0.337700
N91	N9	0.992300	0.198700	0.939220
N101	N10	0.985600	0.255000	0.059560
N111	N11	0.387900	0.845100	0.272540
N121	N12	0.204200	0.854100	0.213350
N131	N13	0.957200	0.601100	0.188620
N141	N14	0.933400	0.408200	0.162300
N151	N15	0.492300	0.198700	0.560780
N161	N16	0.485600	0.255000	0.440440
N171	N17	0.887900	0.845100	0.227460
N181	N18	0.704200	0.854100	0.286650
N191	N19	0.542800	0.398900	0.688620
N201	N20	0.566600	0.591800	0.662300
N211	N21	0.007700	0.801300	0.060780
N221	N22	0.014400	0.745000	0.940440
N231	N23	0.612100	0.154900	0.727460
N241	N24	0.795800	0.145900	0.786650
