data_EQEREY_clean_PM
_symmetry_space_group_name_H-M	'P1'
_cell_length_a	14.935900
_cell_length_b	18.118200
_cell_length_c	18.118200
_cell_angle_alpha	80.218500
_cell_angle_beta	65.658200
_cell_angle_gamma	65.658200
_symmetry_Int_Tables_number 1

loop_
_symmetry_equiv_pos_as_xyz
'x,y,z'

loop_
_atom_site_label
_atom_site_type_symbol
_atom_site_fract_x
_atom_site_fract_y
_atom_site_fract_z
Co11	Co1	0.537370	0.169230	0.577970
Co21	Co2	0.784570	0.330770	0.922030
Co31	Co3	0.115340	0.422030	0.669230
Co41	Co4	0.706600	0.077970	0.830770
Co51	Co5	0.462630	0.830770	0.422030
Co61	Co6	0.215430	0.669230	0.077970
Co71	Co7	0.884660	0.577970	0.330770
Co81	Co8	0.293400	0.922030	0.169230
H11	H1	0.109200	0.352500	0.503900
H21	H2	0.901300	0.247300	0.555300
H31	H3	0.129300	0.156400	0.645400
H41	H4	0.345200	0.142900	0.552500
H51	H5	0.352600	0.333000	0.618800
H61	H6	0.034100	0.437600	0.412800
H71	H7	0.759600	0.463900	0.417300
H81	H8	0.796500	0.194900	0.694300
H91	H9	0.960600	0.978500	0.753300
H101	H10	0.465600	0.147500	0.996100
H111	H11	0.203900	0.252700	0.944700
H121	H12	0.431100	0.343600	0.854600
H131	H13	0.540600	0.357100	0.947500
H141	H14	0.804400	0.167000	0.881200
H151	H15	0.384500	0.062400	0.087200
H161	H16	0.140800	0.036100	0.082700
H171	H17	0.185700	0.305100	0.805700
H181	H18	0.192400	0.521500	0.746700
H191	H19	0.613100	0.496100	0.852500
H201	H20	0.456600	0.444700	0.747300
H211	H21	0.774700	0.354600	0.656400
H221	H22	0.897700	0.447500	0.642900
H231	H23	0.971400	0.381200	0.833000
H241	H24	0.446900	0.587200	0.937600
H251	H25	0.176900	0.582700	0.963900
H261	H26	0.490800	0.305700	0.694900
H271	H27	0.713900	0.246700	0.478500
H281	H28	0.461700	0.003900	0.647500
H291	H29	0.148600	0.055300	0.752700
H301	H30	0.285700	0.145400	0.843600
H311	H31	0.488100	0.052500	0.857100
H321	H32	0.685600	0.118800	0.667000
H331	H33	0.471700	0.912800	0.562400
H341	H34	0.223500	0.917300	0.536100
H351	H35	0.991400	0.194300	0.805100
H361	H36	0.939100	0.253300	0.021500
H371	H37	0.890800	0.647500	0.496100
H381	H38	0.098700	0.752700	0.444700
H391	H39	0.870700	0.843600	0.354600
H401	H40	0.654800	0.857100	0.447500
H411	H41	0.647400	0.667000	0.381200
H421	H42	0.965900	0.562400	0.587200
H431	H43	0.240400	0.536100	0.582700
H441	H44	0.203500	0.805100	0.305700
H451	H45	0.039400	0.021500	0.246700
H461	H46	0.534400	0.852500	0.003900
H471	H47	0.796100	0.747300	0.055300
H481	H48	0.568900	0.656400	0.145400
H491	H49	0.459400	0.642900	0.052500
H501	H50	0.195600	0.833000	0.118800
H511	H51	0.615500	0.937600	0.912800
H521	H52	0.859200	0.963900	0.917300
H531	H53	0.814300	0.694900	0.194300
H541	H54	0.807600	0.478500	0.253300
H551	H55	0.386900	0.503900	0.147500
H561	H56	0.543400	0.555300	0.252700
H571	H57	0.225300	0.645400	0.343600
H581	H58	0.102300	0.552500	0.357100
H591	H59	0.028600	0.618800	0.167000
H601	H60	0.553100	0.412800	0.062400
H611	H61	0.823100	0.417300	0.036100
H621	H62	0.509200	0.694300	0.305100
H631	H63	0.286100	0.753300	0.521500
H641	H64	0.538300	0.996100	0.352500
H651	H65	0.851400	0.944700	0.247300
H661	H66	0.714300	0.854600	0.156400
H671	H67	0.511900	0.947500	0.142900
H681	H68	0.314400	0.881200	0.333000
H691	H69	0.528300	0.087200	0.437600
H701	H70	0.776500	0.082700	0.463900
H711	H71	0.008600	0.805700	0.194900
H721	H72	0.060900	0.746700	0.978500
C11	C1	0.134090	0.254930	0.576290
C21	C2	0.083640	0.312270	0.530250
C31	C3	0.995340	0.310490	0.522830
C41	C4	0.958390	0.250120	0.561700
C51	C5	0.005810	0.193570	0.610410
C61	C6	0.095000	0.195730	0.615270
C71	C7	0.228010	0.255510	0.583670
C81	C8	0.325590	0.195060	0.569160
C91	C9	0.328700	0.299100	0.605500
C101	C10	0.942610	0.372400	0.474580
C111	C11	0.971300	0.430340	0.425060
C121	C12	0.821400	0.444900	0.427700
C131	C13	0.957210	0.136610	0.660170
C141	C14	0.852800	0.148370	0.698230
C151	C15	0.942730	0.029990	0.730750
C161	C16	0.465310	0.245070	0.923710
C171	C17	0.426160	0.187730	0.969750
C181	C18	0.328660	0.189510	0.977170
C191	C19	0.270210	0.249880	0.938300
C201	C20	0.309790	0.306430	0.889590
C211	C21	0.406000	0.304270	0.884730
C221	C22	0.567190	0.244490	0.916330
C231	C23	0.589810	0.304940	0.930840
C241	C24	0.733300	0.200900	0.894500
C251	C25	0.289590	0.127600	0.025420
C261	C26	0.326700	0.069660	0.074940
C271	C27	0.194000	0.055100	0.072300
C281	C28	0.253990	0.363390	0.839830
C291	C29	0.199400	0.351630	0.801770
C301	C30	0.203470	0.470010	0.769250
C311	C31	0.710380	0.423710	0.754930
C321	C32	0.613890	0.469750	0.812270
C331	C33	0.518170	0.477170	0.810490
C341	C34	0.520090	0.438300	0.750120
C351	C35	0.616220	0.389590	0.693570
C361	C36	0.710270	0.384730	0.695730
C371	C37	0.811680	0.416330	0.755510
C381	C38	0.894750	0.430840	0.695060
C391	C39	0.934200	0.394500	0.799100
C401	C40	0.417190	0.525420	0.872400
C411	C41	0.396360	0.574940	0.930340
C421	C42	0.249100	0.572300	0.944900
C431	C43	0.617380	0.339830	0.636610
C441	C44	0.551030	0.301770	0.648370
C451	C45	0.673480	0.269250	0.529990
C461	C46	0.389020	0.076290	0.745070
C471	C47	0.395910	0.030250	0.687730
C481	C48	0.305830	0.022830	0.689510
C491	C49	0.208510	0.061700	0.749880
C501	C50	0.199380	0.110410	0.806430
C511	C51	0.290730	0.115270	0.804270
C521	C52	0.483520	0.083670	0.744490
C531	C53	0.520650	0.069160	0.804940
C541	C54	0.627800	0.105500	0.700900
C551	C55	0.315010	0.974580	0.627600
C561	C56	0.401640	0.925060	0.569660
C571	C57	0.266300	0.927700	0.555100
C581	C58	0.093820	0.160170	0.863390
C591	C59	0.001170	0.198230	0.851630
C601	C60	0.972720	0.230750	0.970010
C611	C61	0.865910	0.745070	0.423710
C621	C62	0.916360	0.687730	0.469750
C631	C63	0.004660	0.689510	0.477170
C641	C64	0.041610	0.749880	0.438300
C651	C65	0.994190	0.806430	0.389590
C661	C66	0.905000	0.804270	0.384730
C671	C67	0.771990	0.744490	0.416330
C681	C68	0.674410	0.804940	0.430840
C691	C69	0.671300	0.700900	0.394500
C701	C70	0.057390	0.627600	0.525420
C711	C71	0.028700	0.569660	0.574940
C721	C72	0.178600	0.555100	0.572300
C731	C73	0.042790	0.863390	0.339830
C741	C74	0.147200	0.851630	0.301770
C751	C75	0.057270	0.970010	0.269250
C761	C76	0.534690	0.754930	0.076290
C771	C77	0.573840	0.812270	0.030250
C781	C78	0.671340	0.810490	0.022830
C791	C79	0.729790	0.750120	0.061700
C801	C80	0.690210	0.693570	0.110410
C811	C81	0.594000	0.695730	0.115270
C821	C82	0.432810	0.755510	0.083670
C831	C83	0.410190	0.695060	0.069160
C841	C84	0.266700	0.799100	0.105500
C851	C85	0.710410	0.872400	0.974580
C861	C86	0.673300	0.930340	0.925060
C871	C87	0.806000	0.944900	0.927700
C881	C88	0.746010	0.636610	0.160170
C891	C89	0.800600	0.648370	0.198230
C901	C90	0.796530	0.529990	0.230750
C911	C91	0.289620	0.576290	0.245070
C921	C92	0.386110	0.530250	0.187730
C931	C93	0.481830	0.522830	0.189510
C941	C94	0.479910	0.561700	0.249880
C951	C95	0.383780	0.610410	0.306430
C961	C96	0.289730	0.615270	0.304270
C971	C97	0.188320	0.583670	0.244490
C981	C98	0.105250	0.569160	0.304940
C991	C99	0.065800	0.605500	0.200900
C1001	C100	0.582810	0.474580	0.127600
C1011	C101	0.603640	0.425060	0.069660
C1021	C102	0.750900	0.427700	0.055100
C1031	C103	0.382620	0.660170	0.363390
C1041	C104	0.448970	0.698230	0.351630
C1051	C105	0.326520	0.730750	0.470010
C1061	C106	0.610980	0.923710	0.254930
C1071	C107	0.604090	0.969750	0.312270
C1081	C108	0.694170	0.977170	0.310490
C1091	C109	0.791490	0.938300	0.250120
C1101	C110	0.800620	0.889590	0.193570
C1111	C111	0.709270	0.884730	0.195730
C1121	C112	0.516480	0.916330	0.255510
C1131	C113	0.479350	0.930840	0.195060
C1141	C114	0.372200	0.894500	0.299100
C1151	C115	0.684990	0.025420	0.372400
C1161	C116	0.598360	0.074940	0.430340
C1171	C117	0.733700	0.072300	0.444900
C1181	C118	0.906180	0.839830	0.136610
C1191	C119	0.998830	0.801770	0.148370
C1201	C120	0.027280	0.769250	0.029990
N11	N1	0.390070	0.222280	0.582600
N21	N2	0.230460	0.323380	0.607900
N31	N3	0.893510	0.477270	0.395310
N41	N4	0.844860	0.382520	0.476360
N51	N5	0.842720	0.080670	0.743690
N61	N6	0.014420	0.060820	0.681940
N71	N7	0.694950	0.277720	0.917400
N81	N8	0.661740	0.176620	0.892100
N91	N9	0.266090	0.022730	0.104690
N101	N10	0.203740	0.117480	0.023640
N111	N11	0.167080	0.419330	0.756310
N121	N12	0.257180	0.439180	0.818060
N131	N13	0.972670	0.417400	0.722280
N141	N14	0.838360	0.392100	0.823380
N151	N15	0.288820	0.604690	0.977270
N161	N16	0.321220	0.523640	0.882520
N171	N17	0.586410	0.256310	0.580670
N181	N18	0.696360	0.318060	0.560820
N191	N19	0.612350	0.082600	0.777720
N201	N20	0.553840	0.107900	0.676620
N211	N21	0.370780	0.895310	0.522730
N221	N22	0.227380	0.976360	0.617480
N231	N23	0.923390	0.243690	0.919330
N241	N24	0.075240	0.181940	0.939180
N251	N25	0.609930	0.777720	0.417400
N261	N26	0.769540	0.676620	0.392100
N271	N27	0.106490	0.522730	0.604690
N281	N28	0.155140	0.617480	0.523640
N291	N29	0.157280	0.919330	0.256310
N301	N30	0.985580	0.939180	0.318060
N311	N31	0.305050	0.722280	0.082600
N321	N32	0.338260	0.823380	0.107900
N331	N33	0.733910	0.977270	0.895310
N341	N34	0.796260	0.882520	0.976360
N351	N35	0.832920	0.580670	0.243690
N361	N36	0.742820	0.560820	0.181940
N371	N37	0.027330	0.582600	0.277720
N381	N38	0.161640	0.607900	0.176620
N391	N39	0.711180	0.395310	0.022730
N401	N40	0.678780	0.476360	0.117480
N411	N41	0.413590	0.743690	0.419330
N421	N42	0.303640	0.681940	0.439180
N431	N43	0.387650	0.917400	0.222280
N441	N44	0.446160	0.892100	0.323380
N451	N45	0.629220	0.104690	0.477270
N461	N46	0.772620	0.023640	0.382520
N471	N47	0.076610	0.756310	0.080670
N481	N48	0.924760	0.818060	0.060820
