data_EQETAX_clean_PM
_symmetry_space_group_name_H-M	'P1'
_cell_length_a	16.269000
_cell_length_b	20.730000
_cell_length_c	14.982800
_cell_angle_alpha	90.000000
_cell_angle_beta	90.000000
_cell_angle_gamma	90.000000
_symmetry_Int_Tables_number 1

loop_
_symmetry_equiv_pos_as_xyz
'x,y,z'

loop_
_atom_site_label
_atom_site_type_symbol
_atom_site_fract_x
_atom_site_fract_y
_atom_site_fract_z
C11	C1	0.216760	0.431590	0.859650
C21	C2	0.013010	0.252370	0.829230
C31	C3	0.008730	0.438870	0.614800
Cu11	Cu1	0.106190	0.566300	0.533140
C41	C4	0.112380	0.431090	0.737080
H11	H1	0.133200	0.471600	0.717700
N11	N1	0.331180	0.503310	0.958020
O11	O1	0.026980	0.496020	0.602550
O21	O2	0.959310	0.405140	0.568230
N21	N2	0.942470	0.140970	0.900190
C51	C5	0.117900	0.340130	0.837170
H21	H2	0.143600	0.317600	0.884900
C61	C6	0.045880	0.403580	0.693460
C71	C7	0.263420	0.479950	0.819730
H31	H3	0.257900	0.488600	0.757800
C81	C8	0.896530	0.189970	0.872300
H41	H4	0.838500	0.186500	0.877300
C91	C9	0.289580	0.454000	0.994390
H51	H5	0.300300	0.443300	0.054900
C101	C10	0.232330	0.418060	0.948870
H61	H6	0.203600	0.384200	0.978200
C111	C11	0.060930	0.200810	0.858070
H71	H7	0.119100	0.203100	0.854200
C121	C12	0.149180	0.399560	0.809730
C131	C13	0.317670	0.515080	0.871080
H81	H8	0.347000	0.549400	0.843600
C141	C14	0.929100	0.245710	0.836500
H91	H9	0.893800	0.279300	0.817000
C151	C15	0.023920	0.146820	0.892020
H101	H10	0.057700	0.111900	0.910600
C161	C16	0.048940	0.313270	0.795050
C171	C17	0.013830	0.345460	0.722350
H111	H11	0.967700	0.327300	0.692700
C181	C18	0.283240	0.068410	0.859650
C191	C19	0.486990	0.247630	0.829230
C201	C20	0.491270	0.061130	0.614800
Cu21	Cu2	0.393810	0.933700	0.533140
C211	C21	0.387620	0.068910	0.737080
H121	H12	0.366800	0.028400	0.717700
N31	N3	0.168820	0.996690	0.958020
O31	O3	0.473020	0.003980	0.602550
O41	O4	0.540690	0.094860	0.568230
N41	N4	0.557530	0.359030	0.900190
C221	C22	0.382100	0.159870	0.837170
H131	H13	0.356400	0.182400	0.884900
C231	C23	0.454120	0.096420	0.693460
C241	C24	0.236580	0.020050	0.819730
H141	H14	0.242100	0.011400	0.757800
C251	C25	0.603470	0.310030	0.872300
H151	H15	0.661500	0.313500	0.877300
C261	C26	0.210420	0.046000	0.994390
H161	H16	0.199700	0.056700	0.054900
C271	C27	0.267670	0.081940	0.948870
H171	H17	0.296400	0.115800	0.978200
C281	C28	0.439070	0.299190	0.858070
H181	H18	0.380900	0.296900	0.854200
C291	C29	0.350820	0.100440	0.809730
C301	C30	0.182330	0.984920	0.871080
H191	H19	0.153000	0.950600	0.843600
C311	C31	0.570900	0.254290	0.836500
H201	H20	0.606200	0.220700	0.817000
C321	C32	0.476080	0.353180	0.892020
H211	H21	0.442300	0.388100	0.910600
C331	C33	0.451060	0.186730	0.795050
C341	C34	0.486170	0.154540	0.722350
H221	H22	0.532300	0.172700	0.692700
C351	C35	0.783240	0.931590	0.640350
C361	C36	0.986990	0.752370	0.670770
C371	C37	0.991270	0.938870	0.885200
Cu31	Cu3	0.893810	0.066300	0.966860
C381	C38	0.887620	0.931090	0.762920
H231	H23	0.866800	0.971600	0.782300
N51	N5	0.668820	0.003310	0.541980
O51	O5	0.973020	0.996020	0.897450
O61	O6	0.040690	0.905140	0.931770
N61	N6	0.057530	0.640970	0.599810
C391	C39	0.882100	0.840130	0.662830
H241	H24	0.856400	0.817600	0.615100
C401	C40	0.954120	0.903580	0.806540
C411	C41	0.736580	0.979950	0.680270
H251	H25	0.742100	0.988600	0.742200
C421	C42	0.103470	0.689970	0.627700
H261	H26	0.161500	0.686500	0.622700
C431	C43	0.710420	0.954000	0.505610
H271	H27	0.699700	0.943300	0.445100
C441	C44	0.767670	0.918060	0.551130
H281	H28	0.796400	0.884200	0.521800
C451	C45	0.939070	0.700810	0.641930
H291	H29	0.880900	0.703100	0.645800
C461	C46	0.850820	0.899560	0.690270
C471	C47	0.682330	0.015080	0.628920
H301	H30	0.653000	0.049400	0.656400
C481	C48	0.070900	0.745710	0.663500
H311	H31	0.106200	0.779300	0.683000
C491	C49	0.976080	0.646820	0.607980
H321	H32	0.942300	0.611900	0.589400
C501	C50	0.951060	0.813270	0.704950
C511	C51	0.986170	0.845460	0.777650
H331	H33	0.032300	0.827300	0.807300
C521	C52	0.716760	0.568410	0.640350
C531	C53	0.513010	0.747630	0.670770
C541	C54	0.508730	0.561130	0.885200
Cu41	Cu4	0.606190	0.433700	0.966860
C551	C55	0.612380	0.568910	0.762920
H341	H34	0.633200	0.528400	0.782300
N71	N7	0.831180	0.496690	0.541980
O71	O7	0.526980	0.503980	0.897450
O81	O8	0.459310	0.594860	0.931770
N81	N8	0.442470	0.859030	0.599810
C561	C56	0.617900	0.659870	0.662830
H351	H35	0.643600	0.682400	0.615100
C571	C57	0.545880	0.596420	0.806540
C581	C58	0.763420	0.520050	0.680270
H361	H36	0.757900	0.511400	0.742200
C591	C59	0.396530	0.810030	0.627700
H371	H37	0.338500	0.813500	0.622700
C601	C60	0.789580	0.546000	0.505610
H381	H38	0.800300	0.556700	0.445100
C611	C61	0.732330	0.581940	0.551130
H391	H39	0.703600	0.615800	0.521800
C621	C62	0.560930	0.799190	0.641930
H401	H40	0.619100	0.796900	0.645800
C631	C63	0.649180	0.600440	0.690270
C641	C64	0.817670	0.484920	0.628920
H411	H41	0.847000	0.450600	0.656400
C651	C65	0.429100	0.754290	0.663500
H421	H42	0.393800	0.720700	0.683000
C661	C66	0.523920	0.853180	0.607980
H431	H43	0.557700	0.888100	0.589400
C671	C67	0.548940	0.686730	0.704950
C681	C68	0.513830	0.654540	0.777650
H441	H44	0.467700	0.672700	0.807300
C691	C69	0.783240	0.568410	0.140350
C701	C70	0.986990	0.747630	0.170770
C711	C71	0.991270	0.561130	0.385200
Cu51	Cu5	0.893810	0.433700	0.466860
C721	C72	0.887620	0.568910	0.262920
H451	H45	0.866800	0.528400	0.282300
N91	N9	0.668820	0.496690	0.041980
O91	O9	0.973020	0.503980	0.397450
O101	O10	0.040690	0.594860	0.431770
N101	N10	0.057530	0.859030	0.099810
C731	C73	0.882100	0.659870	0.162830
H461	H46	0.856400	0.682400	0.115100
C741	C74	0.954120	0.596420	0.306540
C751	C75	0.736580	0.520050	0.180270
H471	H47	0.742100	0.511400	0.242200
C761	C76	0.103470	0.810030	0.127700
H481	H48	0.161500	0.813500	0.122700
C771	C77	0.710420	0.546000	0.005610
H491	H49	0.699700	0.556700	0.945100
C781	C78	0.767670	0.581940	0.051130
H501	H50	0.796400	0.615800	0.021800
C791	C79	0.939070	0.799190	0.141930
H511	H51	0.880900	0.796900	0.145800
C801	C80	0.850820	0.600440	0.190270
C811	C81	0.682330	0.484920	0.128920
H521	H52	0.653000	0.450600	0.156400
C821	C82	0.070900	0.754290	0.163500
H531	H53	0.106200	0.720700	0.183000
C831	C83	0.976080	0.853180	0.107980
H541	H54	0.942300	0.888100	0.089400
C841	C84	0.951060	0.686730	0.204950
C851	C85	0.986170	0.654540	0.277650
H551	H55	0.032300	0.672700	0.307300
C861	C86	0.716760	0.931590	0.140350
C871	C87	0.513010	0.752370	0.170770
C881	C88	0.508730	0.938870	0.385200
Cu61	Cu6	0.606190	0.066300	0.466860
C891	C89	0.612380	0.931090	0.262920
H561	H56	0.633200	0.971600	0.282300
N111	N11	0.831180	0.003310	0.041980
O111	O11	0.526980	0.996020	0.397450
O121	O12	0.459310	0.905140	0.431770
N121	N12	0.442470	0.640970	0.099810
C901	C90	0.617900	0.840130	0.162830
H571	H57	0.643600	0.817600	0.115100
C911	C91	0.545880	0.903580	0.306540
C921	C92	0.763420	0.979950	0.180270
H581	H58	0.757900	0.988600	0.242200
C931	C93	0.396530	0.689970	0.127700
H591	H59	0.338500	0.686500	0.122700
C941	C94	0.789580	0.954000	0.005610
H601	H60	0.800300	0.943300	0.945100
C951	C95	0.732330	0.918060	0.051130
H611	H61	0.703600	0.884200	0.021800
C961	C96	0.560930	0.700810	0.141930
H621	H62	0.619100	0.703100	0.145800
C971	C97	0.649180	0.899560	0.190270
C981	C98	0.817670	0.015080	0.128920
H631	H63	0.847000	0.049400	0.156400
C991	C99	0.429100	0.745710	0.163500
H641	H64	0.393800	0.779300	0.183000
C1001	C100	0.523920	0.646820	0.107980
H651	H65	0.557700	0.611900	0.089400
C1011	C101	0.548940	0.813270	0.204950
C1021	C102	0.513830	0.845460	0.277650
H661	H66	0.467700	0.827300	0.307300
C1031	C103	0.216760	0.068410	0.359650
C1041	C104	0.013010	0.247630	0.329230
C1051	C105	0.008730	0.061130	0.114800
Cu71	Cu7	0.106190	0.933700	0.033140
C1061	C106	0.112380	0.068910	0.237080
H671	H67	0.133200	0.028400	0.217700
N131	N13	0.331180	0.996690	0.458020
O131	O13	0.026980	0.003980	0.102550
O141	O14	0.959310	0.094860	0.068230
N141	N14	0.942470	0.359030	0.400190
C1071	C107	0.117900	0.159870	0.337170
H681	H68	0.143600	0.182400	0.384900
C1081	C108	0.045880	0.096420	0.193460
C1091	C109	0.263420	0.020050	0.319730
H691	H69	0.257900	0.011400	0.257800
C1101	C110	0.896530	0.310030	0.372300
H701	H70	0.838500	0.313500	0.377300
C1111	C111	0.289580	0.046000	0.494390
H711	H71	0.300300	0.056700	0.554900
C1121	C112	0.232330	0.081940	0.448870
H721	H72	0.203600	0.115800	0.478200
C1131	C113	0.060930	0.299190	0.358070
H731	H73	0.119100	0.296900	0.354200
C1141	C114	0.149180	0.100440	0.309730
C1151	C115	0.317670	0.984920	0.371080
H741	H74	0.347000	0.950600	0.343600
C1161	C116	0.929100	0.254290	0.336500
H751	H75	0.893800	0.220700	0.317000
C1171	C117	0.023920	0.353180	0.392020
H761	H76	0.057700	0.388100	0.410600
C1181	C118	0.048940	0.186730	0.295050
C1191	C119	0.013830	0.154540	0.222350
H771	H77	0.967700	0.172700	0.192700
C1201	C120	0.283240	0.431590	0.359650
C1211	C121	0.486990	0.252370	0.329230
C1221	C122	0.491270	0.438870	0.114800
Cu81	Cu8	0.393810	0.566300	0.033140
C1231	C123	0.387620	0.431090	0.237080
H781	H78	0.366800	0.471600	0.217700
N151	N15	0.168820	0.503310	0.458020
O151	O15	0.473020	0.496020	0.102550
O161	O16	0.540690	0.405140	0.068230
N161	N16	0.557530	0.140970	0.400190
C1241	C124	0.382100	0.340130	0.337170
H791	H79	0.356400	0.317600	0.384900
C1251	C125	0.454120	0.403580	0.193460
C1261	C126	0.236580	0.479950	0.319730
H801	H80	0.242100	0.488600	0.257800
C1271	C127	0.603470	0.189970	0.372300
H811	H81	0.661500	0.186500	0.377300
C1281	C128	0.210420	0.454000	0.494390
H821	H82	0.199700	0.443300	0.554900
C1291	C129	0.267670	0.418060	0.448870
H831	H83	0.296400	0.384200	0.478200
C1301	C130	0.439070	0.200810	0.358070
H841	H84	0.380900	0.203100	0.354200
C1311	C131	0.350820	0.399560	0.309730
C1321	C132	0.182330	0.515080	0.371080
H851	H85	0.153000	0.549400	0.343600
C1331	C133	0.570900	0.245710	0.336500
H861	H86	0.606200	0.279300	0.317000
C1341	C134	0.476080	0.146820	0.392020
H871	H87	0.442300	0.111900	0.410600
C1351	C135	0.451060	0.313270	0.295050
C1361	C136	0.486170	0.345460	0.222350
H881	H88	0.532300	0.327300	0.192700
