data_EQOCES_clean_PM
_symmetry_space_group_name_H-M	'P1'
_cell_length_a	9.081000
_cell_length_b	9.917900
_cell_length_c	14.578100
_cell_angle_alpha	81.802300
_cell_angle_beta	71.852700
_cell_angle_gamma	62.754400
_symmetry_Int_Tables_number 1

loop_
_symmetry_equiv_pos_as_xyz
'x,y,z'

loop_
_atom_site_label
_atom_site_type_symbol
_atom_site_fract_x
_atom_site_fract_y
_atom_site_fract_z
Co11	Co1	0.592390	0.570080	0.873960
Co21	Co2	0.036430	0.429920	0.126040
Co31	Co3	0.216350	0.070080	0.626040
Co41	Co4	0.912470	0.929920	0.373960
H11	H1	0.846400	0.242400	0.770200
H21	H2	0.171000	0.409200	0.638800
H31	H3	0.922800	0.604000	0.741800
H41	H4	0.898600	0.463200	0.953000
H51	H5	0.614300	0.650800	0.202000
H61	H6	0.427400	0.708600	0.098600
H71	H7	0.859000	0.757600	0.229800
H81	H8	0.219000	0.590800	0.361200
H91	H9	0.268600	0.396000	0.258200
H101	H10	0.314800	0.536800	0.047000
H111	H11	0.467100	0.349200	0.798000
H121	H12	0.234600	0.291400	0.901400
H131	H13	0.366600	0.742400	0.729800
H141	H14	0.559800	0.909200	0.861200
H151	H15	0.414600	0.104000	0.758200
H161	H16	0.601600	0.963200	0.547000
H171	H17	0.566300	0.150800	0.298000
H181	H18	0.276000	0.208600	0.401400
H191	H19	0.838800	0.257600	0.270200
H201	H20	0.330200	0.090800	0.138800
H211	H21	0.276800	0.896000	0.241800
H221	H22	0.111800	0.036800	0.453000
H231	H23	0.015100	0.849200	0.702000
H241	H24	0.886000	0.791400	0.598600
C11	C1	0.895930	0.309400	0.749540
C21	C2	0.074000	0.399000	0.678000
C31	C3	0.936700	0.506800	0.734600
C41	C4	0.803200	0.519000	0.002600
C51	C5	0.650700	0.619200	0.138400
C61	C6	0.546700	0.652400	0.081200
C71	C7	0.954870	0.690600	0.250460
C81	C8	0.151000	0.601000	0.322000
C91	C9	0.178100	0.493200	0.265400
C101	C10	0.324800	0.481000	0.997400
C111	C11	0.408300	0.380800	0.861600
C121	C12	0.280300	0.347600	0.918800
C131	C13	0.395470	0.809400	0.750460
C141	C14	0.502000	0.899000	0.822000
C151	C15	0.421300	0.006800	0.765400
C161	C16	0.555800	0.019000	0.497400
C171	C17	0.539100	0.119200	0.361600
C181	C18	0.377900	0.152400	0.418800
C191	C19	0.955330	0.190600	0.249540
C201	C20	0.223000	0.101000	0.178000
C211	C21	0.193500	0.993200	0.234600
C221	C22	0.072200	0.981000	0.502600
C231	C23	0.019900	0.880800	0.638400
C241	C24	0.949100	0.847600	0.581200
N11	N1	0.818260	0.451600	0.780680
N21	N2	0.049620	0.271400	0.686760
N31	N3	0.648360	0.589000	0.992880
N41	N4	0.815040	0.533200	0.089320
N51	N5	0.050540	0.548400	0.219320
N61	N6	0.007780	0.728600	0.313240
N71	N7	0.230240	0.411000	0.007120
N81	N8	0.437560	0.466800	0.910680
N91	N9	0.348940	0.951600	0.719320
N101	N10	0.486380	0.771400	0.813240
N111	N11	0.391240	0.089000	0.507120
N121	N12	0.654360	0.033200	0.410680
N131	N13	0.019860	0.048400	0.280680
N141	N14	0.071020	0.228600	0.186760
N151	N15	0.987360	0.911000	0.492880
N161	N16	0.098240	0.966800	0.589320
