data_EQUNEL_clean_PM
_symmetry_space_group_name_H-M	'P1'
_cell_length_a	22.623000
_cell_length_b	22.623000
_cell_length_c	22.623000
_cell_angle_alpha	90.000000
_cell_angle_beta	90.000000
_cell_angle_gamma	90.000000
_symmetry_Int_Tables_number 1

loop_
_symmetry_equiv_pos_as_xyz
'x,y,z'

loop_
_atom_site_label
_atom_site_type_symbol
_atom_site_fract_x
_atom_site_fract_y
_atom_site_fract_z
O11	O1	0.264900	0.113200	0.254900
O21	O2	0.305900	0.156300	0.174200
C11	C1	0.308500	0.053600	0.117400
H11	H1	0.310900	0.089500	0.097500
C21	C2	0.295600	0.052500	0.175100
C31	C3	0.286400	0.111200	0.206400
O31	O3	0.735100	0.886800	0.254900
O41	O4	0.694100	0.843700	0.174200
C41	C4	0.691500	0.946400	0.117400
H21	H2	0.689100	0.910500	0.097500
C51	C5	0.704400	0.947500	0.175100
C61	C6	0.713600	0.888800	0.206400
O51	O5	0.735100	0.113200	0.745100
O61	O6	0.694100	0.156300	0.825800
C71	C7	0.691500	0.053600	0.882600
H31	H3	0.689100	0.089500	0.902500
C81	C8	0.704400	0.052500	0.824900
C91	C9	0.713600	0.111200	0.793600
O71	O7	0.264900	0.886800	0.745100
O81	O8	0.305900	0.843700	0.825800
C101	C10	0.308500	0.946400	0.882600
H41	H4	0.310900	0.910500	0.902500
C111	C11	0.295600	0.947500	0.824900
C121	C12	0.286400	0.888800	0.793600
O91	O9	0.254900	0.264900	0.113200
O101	O10	0.174200	0.305900	0.156300
C131	C13	0.117400	0.308500	0.053600
H51	H5	0.097500	0.310900	0.089500
C141	C14	0.175100	0.295600	0.052500
C151	C15	0.206400	0.286400	0.111200
O111	O11	0.254900	0.735100	0.886800
O121	O12	0.174200	0.694100	0.843700
C161	C16	0.117400	0.691500	0.946400
H61	H6	0.097500	0.689100	0.910500
C171	C17	0.175100	0.704400	0.947500
C181	C18	0.206400	0.713600	0.888800
O131	O13	0.745100	0.735100	0.113200
O141	O14	0.825800	0.694100	0.156300
C191	C19	0.882600	0.691500	0.053600
H71	H7	0.902500	0.689100	0.089500
C201	C20	0.824900	0.704400	0.052500
C211	C21	0.793600	0.713600	0.111200
O151	O15	0.745100	0.264900	0.886800
O161	O16	0.825800	0.305900	0.843700
C221	C22	0.882600	0.308500	0.946400
H81	H8	0.902500	0.310900	0.910500
C231	C23	0.824900	0.295600	0.947500
C241	C24	0.793600	0.286400	0.888800
O171	O17	0.113200	0.254900	0.264900
O181	O18	0.156300	0.174200	0.305900
C251	C25	0.053600	0.117400	0.308500
H91	H9	0.089500	0.097500	0.310900
C261	C26	0.052500	0.175100	0.295600
C271	C27	0.111200	0.206400	0.286400
O191	O19	0.886800	0.254900	0.735100
O201	O20	0.843700	0.174200	0.694100
C281	C28	0.946400	0.117400	0.691500
H101	H10	0.910500	0.097500	0.689100
C291	C29	0.947500	0.175100	0.704400
C301	C30	0.888800	0.206400	0.713600
O211	O21	0.113200	0.745100	0.735100
O221	O22	0.156300	0.825800	0.694100
C311	C31	0.053600	0.882600	0.691500
H111	H11	0.089500	0.902500	0.689100
C321	C32	0.052500	0.824900	0.704400
C331	C33	0.111200	0.793600	0.713600
O231	O23	0.886800	0.745100	0.264900
O241	O24	0.843700	0.825800	0.305900
C341	C34	0.946400	0.882600	0.308500
H121	H12	0.910500	0.902500	0.310900
C351	C35	0.947500	0.824900	0.295600
C361	C36	0.888800	0.793600	0.286400
O251	O25	0.613200	0.764900	0.245100
O261	O26	0.656300	0.805900	0.325800
C371	C37	0.553600	0.808500	0.382600
H131	H13	0.589500	0.810900	0.402500
C381	C38	0.552500	0.795600	0.324900
C391	C39	0.611200	0.786400	0.293600
O271	O27	0.386800	0.235100	0.245100
O281	O28	0.343700	0.194100	0.325800
C401	C40	0.446400	0.191500	0.382600
H141	H14	0.410500	0.189100	0.402500
C411	C41	0.447500	0.204400	0.324900
C421	C42	0.388800	0.213600	0.293600
O291	O29	0.613200	0.235100	0.754900
O301	O30	0.656300	0.194100	0.674200
C431	C43	0.553600	0.191500	0.617400
H151	H15	0.589500	0.189100	0.597500
C441	C44	0.552500	0.204400	0.675100
C451	C45	0.611200	0.213600	0.706400
O311	O31	0.386800	0.764900	0.754900
O321	O32	0.343700	0.805900	0.674200
C461	C46	0.446400	0.808500	0.617400
H161	H16	0.410500	0.810900	0.597500
C471	C47	0.447500	0.795600	0.675100
C481	C48	0.388800	0.786400	0.706400
O331	O33	0.764900	0.754900	0.386800
O341	O34	0.805900	0.674200	0.343700
C491	C49	0.808500	0.617400	0.446400
H171	H17	0.810900	0.597500	0.410500
C501	C50	0.795600	0.675100	0.447500
C511	C51	0.786400	0.706400	0.388800
O351	O35	0.235100	0.754900	0.613200
O361	O36	0.194100	0.674200	0.656300
C521	C52	0.191500	0.617400	0.553600
H181	H18	0.189100	0.597500	0.589500
C531	C53	0.204400	0.675100	0.552500
C541	C54	0.213600	0.706400	0.611200
O371	O37	0.235100	0.245100	0.386800
O381	O38	0.194100	0.325800	0.343700
C551	C55	0.191500	0.382600	0.446400
H191	H19	0.189100	0.402500	0.410500
C561	C56	0.204400	0.324900	0.447500
C571	C57	0.213600	0.293600	0.388800
O391	O39	0.764900	0.245100	0.613200
O401	O40	0.805900	0.325800	0.656300
C581	C58	0.808500	0.382600	0.553600
H201	H20	0.810900	0.402500	0.589500
C591	C59	0.795600	0.324900	0.552500
C601	C60	0.786400	0.293600	0.611200
O411	O41	0.754900	0.613200	0.235100
O421	O42	0.674200	0.656300	0.194100
C611	C61	0.617400	0.553600	0.191500
H211	H21	0.597500	0.589500	0.189100
C621	C62	0.675100	0.552500	0.204400
C631	C63	0.706400	0.611200	0.213600
O431	O43	0.754900	0.386800	0.764900
O441	O44	0.674200	0.343700	0.805900
C641	C64	0.617400	0.446400	0.808500
H221	H22	0.597500	0.410500	0.810900
C651	C65	0.675100	0.447500	0.795600
C661	C66	0.706400	0.388800	0.786400
O451	O45	0.245100	0.613200	0.764900
O461	O46	0.325800	0.656300	0.805900
C671	C67	0.382600	0.553600	0.808500
H231	H23	0.402500	0.589500	0.810900
C681	C68	0.324900	0.552500	0.795600
C691	C69	0.293600	0.611200	0.786400
O471	O47	0.245100	0.386800	0.235100
O481	O48	0.325800	0.343700	0.194100
C701	C70	0.382600	0.446400	0.191500
H241	H24	0.402500	0.410500	0.189100
C711	C71	0.324900	0.447500	0.204400
C721	C72	0.293600	0.388800	0.213600
O491	O49	0.735100	0.886800	0.745100
O501	O50	0.694100	0.843700	0.825800
C731	C73	0.691500	0.946400	0.882600
H251	H25	0.689100	0.910500	0.902500
C741	C74	0.704400	0.947500	0.824900
C751	C75	0.713600	0.888800	0.793600
O511	O51	0.264900	0.113200	0.745100
O521	O52	0.305900	0.156300	0.825800
C761	C76	0.308500	0.053600	0.882600
H261	H26	0.310900	0.089500	0.902500
C771	C77	0.295600	0.052500	0.824900
C781	C78	0.286400	0.111200	0.793600
O531	O53	0.264900	0.886800	0.254900
O541	O54	0.305900	0.843700	0.174200
C791	C79	0.308500	0.946400	0.117400
H271	H27	0.310900	0.910500	0.097500
C801	C80	0.295600	0.947500	0.175100
C811	C81	0.286400	0.888800	0.206400
O551	O55	0.735100	0.113200	0.254900
O561	O56	0.694100	0.156300	0.174200
C821	C82	0.691500	0.053600	0.117400
H281	H28	0.689100	0.089500	0.097500
C831	C83	0.704400	0.052500	0.175100
C841	C84	0.713600	0.111200	0.206400
O571	O57	0.745100	0.735100	0.886800
O581	O58	0.825800	0.694100	0.843700
C851	C85	0.882600	0.691500	0.946400
H291	H29	0.902500	0.689100	0.910500
C861	C86	0.824900	0.704400	0.947500
C871	C87	0.793600	0.713600	0.888800
O591	O59	0.745100	0.264900	0.113200
O601	O60	0.825800	0.305900	0.156300
C881	C88	0.882600	0.308500	0.053600
H301	H30	0.902500	0.310900	0.089500
C891	C89	0.824900	0.295600	0.052500
C901	C90	0.793600	0.286400	0.111200
O611	O61	0.254900	0.264900	0.886800
O621	O62	0.174200	0.305900	0.843700
C911	C91	0.117400	0.308500	0.946400
H311	H31	0.097500	0.310900	0.910500
C921	C92	0.175100	0.295600	0.947500
C931	C93	0.206400	0.286400	0.888800
O631	O63	0.254900	0.735100	0.113200
O641	O64	0.174200	0.694100	0.156300
C941	C94	0.117400	0.691500	0.053600
H321	H32	0.097500	0.689100	0.089500
C951	C95	0.175100	0.704400	0.052500
C961	C96	0.206400	0.713600	0.111200
O651	O65	0.886800	0.745100	0.735100
O661	O66	0.843700	0.825800	0.694100
C971	C97	0.946400	0.882600	0.691500
H331	H33	0.910500	0.902500	0.689100
C981	C98	0.947500	0.824900	0.704400
C991	C99	0.888800	0.793600	0.713600
O671	O67	0.113200	0.745100	0.264900
O681	O68	0.156300	0.825800	0.305900
C1001	C100	0.053600	0.882600	0.308500
H341	H34	0.089500	0.902500	0.310900
C1011	C101	0.052500	0.824900	0.295600
C1021	C102	0.111200	0.793600	0.286400
O691	O69	0.886800	0.254900	0.264900
O701	O70	0.843700	0.174200	0.305900
C1031	C103	0.946400	0.117400	0.308500
H351	H35	0.910500	0.097500	0.310900
C1041	C104	0.947500	0.175100	0.295600
C1051	C105	0.888800	0.206400	0.286400
O711	O71	0.113200	0.254900	0.735100
O721	O72	0.156300	0.174200	0.694100
C1061	C106	0.053600	0.117400	0.691500
H361	H36	0.089500	0.097500	0.689100
C1071	C107	0.052500	0.175100	0.704400
C1081	C108	0.111200	0.206400	0.713600
O731	O73	0.386800	0.235100	0.754900
O741	O74	0.343700	0.194100	0.674200
C1091	C109	0.446400	0.191500	0.617400
H371	H37	0.410500	0.189100	0.597500
C1101	C110	0.447500	0.204400	0.675100
C1111	C111	0.388800	0.213600	0.706400
O751	O75	0.613200	0.764900	0.754900
O761	O76	0.656300	0.805900	0.674200
C1121	C112	0.553600	0.808500	0.617400
H381	H38	0.589500	0.810900	0.597500
C1131	C113	0.552500	0.795600	0.675100
C1141	C114	0.611200	0.786400	0.706400
O771	O77	0.386800	0.764900	0.245100
O781	O78	0.343700	0.805900	0.325800
C1151	C115	0.446400	0.808500	0.382600
H391	H39	0.410500	0.810900	0.402500
C1161	C116	0.447500	0.795600	0.324900
C1171	C117	0.388800	0.786400	0.293600
O791	O79	0.613200	0.235100	0.245100
O801	O80	0.656300	0.194100	0.325800
C1181	C118	0.553600	0.191500	0.382600
H401	H40	0.589500	0.189100	0.402500
C1191	C119	0.552500	0.204400	0.324900
C1201	C120	0.611200	0.213600	0.293600
O811	O81	0.235100	0.245100	0.613200
O821	O82	0.194100	0.325800	0.656300
C1211	C121	0.191500	0.382600	0.553600
H411	H41	0.189100	0.402500	0.589500
C1221	C122	0.204400	0.324900	0.552500
C1231	C123	0.213600	0.293600	0.611200
O831	O83	0.764900	0.245100	0.386800
O841	O84	0.805900	0.325800	0.343700
C1241	C124	0.808500	0.382600	0.446400
H421	H42	0.810900	0.402500	0.410500
C1251	C125	0.795600	0.324900	0.447500
C1261	C126	0.786400	0.293600	0.388800
O851	O85	0.764900	0.754900	0.613200
O861	O86	0.805900	0.674200	0.656300
C1271	C127	0.808500	0.617400	0.553600
H431	H43	0.810900	0.597500	0.589500
C1281	C128	0.795600	0.675100	0.552500
C1291	C129	0.786400	0.706400	0.611200
O871	O87	0.235100	0.754900	0.386800
O881	O88	0.194100	0.674200	0.343700
C1301	C130	0.191500	0.617400	0.446400
H441	H44	0.189100	0.597500	0.410500
C1311	C131	0.204400	0.675100	0.447500
C1321	C132	0.213600	0.706400	0.388800
O891	O89	0.245100	0.386800	0.764900
O901	O90	0.325800	0.343700	0.805900
C1331	C133	0.382600	0.446400	0.808500
H451	H45	0.402500	0.410500	0.810900
C1341	C134	0.324900	0.447500	0.795600
C1351	C135	0.293600	0.388800	0.786400
O911	O91	0.245100	0.613200	0.235100
O921	O92	0.325800	0.656300	0.194100
C1361	C136	0.382600	0.553600	0.191500
H461	H46	0.402500	0.589500	0.189100
C1371	C137	0.324900	0.552500	0.204400
C1381	C138	0.293600	0.611200	0.213600
O931	O93	0.754900	0.386800	0.235100
O941	O94	0.674200	0.343700	0.194100
C1391	C139	0.617400	0.446400	0.191500
H471	H47	0.597500	0.410500	0.189100
C1401	C140	0.675100	0.447500	0.204400
C1411	C141	0.706400	0.388800	0.213600
O951	O95	0.754900	0.613200	0.764900
O961	O96	0.674200	0.656300	0.805900
C1421	C142	0.617400	0.553600	0.808500
H481	H48	0.597500	0.589500	0.810900
C1431	C143	0.675100	0.552500	0.795600
C1441	C144	0.706400	0.611200	0.786400
In11	In1	0.250000	0.186330	0.313670
In21	In2	0.750000	0.813670	0.313670
In31	In3	0.750000	0.186330	0.686330
In41	In4	0.250000	0.813670	0.686330
In51	In5	0.313670	0.250000	0.186330
In61	In6	0.313670	0.750000	0.813670
In71	In7	0.686330	0.750000	0.186330
In81	In8	0.686330	0.250000	0.813670
In91	In9	0.186330	0.313670	0.250000
In101	In10	0.813670	0.313670	0.750000
In111	In11	0.186330	0.686330	0.750000
In121	In12	0.813670	0.686330	0.250000
In131	In13	0.750000	0.813670	0.686330
In141	In14	0.250000	0.186330	0.686330
In151	In15	0.250000	0.813670	0.313670
In161	In16	0.750000	0.186330	0.313670
In171	In17	0.686330	0.750000	0.813670
In181	In18	0.686330	0.250000	0.186330
In191	In19	0.313670	0.250000	0.813670
In201	In20	0.313670	0.750000	0.186330
In211	In21	0.813670	0.686330	0.750000
In221	In22	0.186330	0.686330	0.250000
In231	In23	0.813670	0.313670	0.250000
In241	In24	0.186330	0.313670	0.750000
O971	O97	0.250000	0.250000	0.250000
O981	O98	0.750000	0.750000	0.250000
O991	O99	0.750000	0.250000	0.750000
O1001	O100	0.250000	0.750000	0.750000
O1011	O101	0.750000	0.750000	0.750000
O1021	O102	0.250000	0.250000	0.750000
O1031	O103	0.250000	0.750000	0.250000
O1041	O104	0.750000	0.250000	0.250000
C1451	C145	0.318700	0.000000	0.086700
C1461	C146	0.286500	0.000000	0.205500
H491	H49	0.274600	0.000000	0.244800
C1471	C147	0.330700	0.000000	0.025600
C1481	C148	0.681300	0.000000	0.086700
C1491	C149	0.713500	0.000000	0.205500
H501	H50	0.725400	0.000000	0.244800
C1501	C150	0.669300	0.000000	0.025600
C1511	C151	0.681300	0.000000	0.913300
C1521	C152	0.713500	0.000000	0.794500
H511	H51	0.725400	0.000000	0.755200
C1531	C153	0.669300	0.000000	0.974400
C1541	C154	0.318700	0.000000	0.913300
C1551	C155	0.286500	0.000000	0.794500
H521	H52	0.274600	0.000000	0.755200
C1561	C156	0.330700	0.000000	0.974400
C1571	C157	0.086700	0.318700	0.000000
C1581	C158	0.205500	0.286500	0.000000
H531	H53	0.244800	0.274600	0.000000
C1591	C159	0.025600	0.330700	0.000000
C1601	C160	0.086700	0.681300	0.000000
C1611	C161	0.205500	0.713500	0.000000
H541	H54	0.244800	0.725400	0.000000
C1621	C162	0.025600	0.669300	0.000000
C1631	C163	0.913300	0.681300	0.000000
C1641	C164	0.794500	0.713500	0.000000
H551	H55	0.755200	0.725400	0.000000
C1651	C165	0.974400	0.669300	0.000000
C1661	C166	0.913300	0.318700	0.000000
C1671	C167	0.794500	0.286500	0.000000
H561	H56	0.755200	0.274600	0.000000
C1681	C168	0.974400	0.330700	0.000000
C1691	C169	0.000000	0.086700	0.318700
C1701	C170	0.000000	0.205500	0.286500
H571	H57	0.000000	0.244800	0.274600
C1711	C171	0.000000	0.025600	0.330700
C1721	C172	0.000000	0.086700	0.681300
C1731	C173	0.000000	0.205500	0.713500
H581	H58	0.000000	0.244800	0.725400
C1741	C174	0.000000	0.025600	0.669300
C1751	C175	0.000000	0.913300	0.681300
C1761	C176	0.000000	0.794500	0.713500
H591	H59	0.000000	0.755200	0.725400
C1771	C177	0.000000	0.974400	0.669300
C1781	C178	0.000000	0.913300	0.318700
C1791	C179	0.000000	0.794500	0.286500
H601	H60	0.000000	0.755200	0.274600
C1801	C180	0.000000	0.974400	0.330700
C1811	C181	0.500000	0.818700	0.413300
C1821	C182	0.500000	0.786500	0.294500
H611	H61	0.500000	0.774600	0.255200
C1831	C183	0.500000	0.830700	0.474400
C1841	C184	0.500000	0.181300	0.413300
C1851	C185	0.500000	0.213500	0.294500
H621	H62	0.500000	0.225400	0.255200
C1861	C186	0.500000	0.169300	0.474400
C1871	C187	0.500000	0.181300	0.586700
C1881	C188	0.500000	0.213500	0.705500
H631	H63	0.500000	0.225400	0.744800
C1891	C189	0.500000	0.169300	0.525600
C1901	C190	0.500000	0.818700	0.586700
C1911	C191	0.500000	0.786500	0.705500
H641	H64	0.500000	0.774600	0.744800
C1921	C192	0.500000	0.830700	0.525600
C1931	C193	0.818700	0.586700	0.500000
C1941	C194	0.786500	0.705500	0.500000
H651	H65	0.774600	0.744800	0.500000
C1951	C195	0.830700	0.525600	0.500000
C1961	C196	0.181300	0.586700	0.500000
C1971	C197	0.213500	0.705500	0.500000
H661	H66	0.225400	0.744800	0.500000
C1981	C198	0.169300	0.525600	0.500000
C1991	C199	0.181300	0.413300	0.500000
C2001	C200	0.213500	0.294500	0.500000
H671	H67	0.225400	0.255200	0.500000
C2011	C201	0.169300	0.474400	0.500000
C2021	C202	0.818700	0.413300	0.500000
C2031	C203	0.786500	0.294500	0.500000
H681	H68	0.774600	0.255200	0.500000
C2041	C204	0.830700	0.474400	0.500000
C2051	C205	0.586700	0.500000	0.181300
C2061	C206	0.705500	0.500000	0.213500
H691	H69	0.744800	0.500000	0.225400
C2071	C207	0.525600	0.500000	0.169300
C2081	C208	0.586700	0.500000	0.818700
C2091	C209	0.705500	0.500000	0.786500
H701	H70	0.744800	0.500000	0.774600
C2101	C210	0.525600	0.500000	0.830700
C2111	C211	0.413300	0.500000	0.818700
C2121	C212	0.294500	0.500000	0.786500
H711	H71	0.255200	0.500000	0.774600
C2131	C213	0.474400	0.500000	0.830700
C2141	C214	0.413300	0.500000	0.181300
C2151	C215	0.294500	0.500000	0.213500
H721	H72	0.255200	0.500000	0.225400
C2161	C216	0.474400	0.500000	0.169300
