data_ERAHOV_clean_PM
_symmetry_space_group_name_H-M	'P1'
_cell_length_a	11.450000
_cell_length_b	11.467000
_cell_length_c	20.944000
_cell_angle_alpha	90.000000
_cell_angle_beta	90.000000
_cell_angle_gamma	90.000000
_symmetry_Int_Tables_number 1

loop_
_symmetry_equiv_pos_as_xyz
'x,y,z'

loop_
_atom_site_label
_atom_site_type_symbol
_atom_site_fract_x
_atom_site_fract_y
_atom_site_fract_z
C11	C1	0.039300	0.747400	0.700100
C21	C2	0.038300	0.627500	0.697200
C31	C3	0.748500	0.954900	0.702700
C41	C4	0.628300	0.955500	0.700500
H11	H1	0.068800	0.788100	0.665500
H21	H2	0.064200	0.589300	0.660300
H31	H3	0.790000	0.919200	0.669000
H41	H4	0.590300	0.922800	0.665300
C51	C5	0.960700	0.252600	0.700100
C61	C6	0.961700	0.372500	0.697200
C71	C7	0.251500	0.045100	0.702700
C81	C8	0.371700	0.044500	0.700500
H51	H5	0.931200	0.211900	0.665500
H61	H6	0.935800	0.410700	0.660300
H71	H7	0.210000	0.080800	0.669000
H81	H8	0.409700	0.077200	0.665300
C91	C9	0.960700	0.747400	0.799900
C101	C10	0.961700	0.627500	0.802800
C111	C11	0.251500	0.954900	0.797300
C121	C12	0.371700	0.955500	0.799500
H91	H9	0.931200	0.788100	0.834500
H101	H10	0.935800	0.589300	0.839700
H111	H11	0.210000	0.919200	0.831000
H121	H12	0.409700	0.922800	0.834700
C131	C13	0.039300	0.252600	0.799900
C141	C14	0.038300	0.372500	0.802800
C151	C15	0.748500	0.045100	0.797300
C161	C16	0.628300	0.044500	0.799500
H131	H13	0.068800	0.211900	0.834500
H141	H14	0.064200	0.410700	0.839700
H151	H15	0.790000	0.080800	0.831000
H161	H16	0.590300	0.077200	0.834700
C171	C17	0.960700	0.252600	0.299900
C181	C18	0.961700	0.372500	0.302800
C191	C19	0.251500	0.045100	0.297300
C201	C20	0.371700	0.044500	0.299500
H171	H17	0.931200	0.211900	0.334500
H181	H18	0.935800	0.410700	0.339700
H191	H19	0.210000	0.080800	0.331000
H201	H20	0.409700	0.077200	0.334700
C211	C21	0.039300	0.747400	0.299900
C221	C22	0.038300	0.627500	0.302800
C231	C23	0.748500	0.954900	0.297300
C241	C24	0.628300	0.955500	0.299500
H211	H21	0.068800	0.788100	0.334500
H221	H22	0.064200	0.589300	0.339700
H231	H23	0.790000	0.919200	0.331000
H241	H24	0.590300	0.922800	0.334700
C251	C25	0.039300	0.252600	0.200100
C261	C26	0.038300	0.372500	0.197200
C271	C27	0.748500	0.045100	0.202700
C281	C28	0.628300	0.044500	0.200500
H251	H25	0.068800	0.211900	0.165500
H261	H26	0.064200	0.410700	0.160300
H271	H27	0.790000	0.080800	0.169000
H281	H28	0.590300	0.077200	0.165300
C291	C29	0.960700	0.747400	0.200100
C301	C30	0.961700	0.627500	0.197200
C311	C31	0.251500	0.954900	0.202700
C321	C32	0.371700	0.955500	0.200500
H291	H29	0.931200	0.788100	0.165500
H301	H30	0.935800	0.589300	0.160300
H311	H31	0.210000	0.919200	0.169000
H321	H32	0.409700	0.922800	0.165300
Au11	Au1	0.000000	0.000000	0.500000
Au21	Au2	0.000000	0.000000	0.000000
Br11	Br1	0.060600	0.796330	0.500000
Br21	Br2	0.939400	0.203670	0.500000
Br31	Br3	0.939400	0.796330	0.000000
Br41	Br4	0.060600	0.203670	0.000000
Co11	Co1	0.000000	0.000000	0.750000
Co21	Co2	0.000000	0.000000	0.250000
N11	N1	0.000000	0.000000	0.649300
C331	C33	0.000000	0.000000	0.594500
N21	N2	0.000000	0.000000	0.850700
C341	C34	0.000000	0.000000	0.905500
N31	N3	0.000000	0.000000	0.350700
C351	C35	0.000000	0.000000	0.405500
N41	N4	0.000000	0.000000	0.149300
C361	C36	0.000000	0.000000	0.094500
N51	N5	0.000000	0.811400	0.750000
C371	C37	0.000000	0.564500	0.750000
N61	N6	0.000000	0.188600	0.750000
C381	C38	0.000000	0.435500	0.750000
N71	N7	0.000000	0.188600	0.250000
C391	C39	0.000000	0.435500	0.250000
N81	N8	0.000000	0.811400	0.250000
C401	C40	0.000000	0.564500	0.250000
N91	N9	0.810100	0.000000	0.750000
C411	C41	0.564400	0.000000	0.750000
N101	N10	0.189900	0.000000	0.750000
C421	C42	0.435600	0.000000	0.750000
N111	N11	0.189900	0.000000	0.250000
C431	C43	0.435600	0.000000	0.250000
N121	N12	0.810100	0.000000	0.250000
C441	C44	0.564400	0.000000	0.250000
