data_ESANET_clean_PM
_symmetry_space_group_name_H-M	'P1'
_cell_length_a	27.148000
_cell_length_b	27.148000
_cell_length_c	9.957000
_cell_angle_alpha	90.000000
_cell_angle_beta	90.000000
_cell_angle_gamma	120.000000
_symmetry_Int_Tables_number 1

loop_
_symmetry_equiv_pos_as_xyz
'x,y,z'

loop_
_atom_site_label
_atom_site_type_symbol
_atom_site_fract_x
_atom_site_fract_y
_atom_site_fract_z
C11	C1	0.949280	0.555900	0.727300
C21	C2	0.924540	0.506560	0.819300
H11	H1	0.904500	0.471600	0.768200
H21	H2	0.954500	0.505600	0.870100
C31	C3	0.870100	0.472920	0.025800
H31	H3	0.867200	0.437400	0.996900
H41	H4	0.833600	0.464600	0.062400
C41	C4	0.914830	0.500080	0.129700
Cd11	Cd1	0.929900	0.611880	0.992630
Cl11	Cl1	0.830160	0.571440	0.105750
H51	H5	0.846100	0.499000	0.869000
N11	N1	0.952160	0.604450	0.758000
N21	N2	0.884910	0.511770	0.911300
N31	N3	0.949130	0.555820	0.139600
N41	N4	0.981020	0.563790	0.247100
N51	N5	0.980180	0.639070	0.654600
N61	N6	0.993490	0.612210	0.566800
N71	N7	0.974370	0.559170	0.610300
N81	N8	0.966340	0.514110	0.299000
N91	N9	0.924900	0.473140	0.227500
C51	C5	0.615950	0.889230	0.060630
C61	C6	0.591210	0.839890	0.152630
H61	H6	0.571170	0.804930	0.101530
H71	H7	0.621170	0.838930	0.203430
C71	C7	0.536770	0.806250	0.359130
H81	H8	0.533870	0.770730	0.330230
H91	H9	0.500270	0.797930	0.395730
C81	C8	0.581500	0.833410	0.463030
Cd21	Cd2	0.596560	0.945210	0.325960
Cl21	Cl2	0.496830	0.904770	0.439080
H101	H10	0.512770	0.832330	0.202330
N101	N10	0.618830	0.937780	0.091330
N111	N11	0.551580	0.845100	0.244630
N121	N12	0.615800	0.889150	0.472930
N131	N13	0.647690	0.897120	0.580430
N141	N14	0.646850	0.972400	0.987930
N151	N15	0.660160	0.945540	0.900130
N161	N16	0.641040	0.892500	0.943630
N171	N17	0.633010	0.847440	0.632330
N181	N18	0.591570	0.806470	0.560830
C91	C9	0.282610	0.222570	0.393970
C101	C10	0.257870	0.173230	0.485970
H111	H11	0.237830	0.138270	0.434870
H121	H12	0.287830	0.172270	0.536770
C111	C11	0.203430	0.139590	0.692470
H131	H13	0.200530	0.104070	0.663570
H141	H14	0.166930	0.131270	0.729070
C121	C12	0.248160	0.166750	0.796370
Cd31	Cd3	0.263230	0.278550	0.659300
Cl31	Cl3	0.163490	0.238110	0.772420
H151	H15	0.179430	0.165670	0.535670
N191	N19	0.285490	0.271120	0.424670
N201	N20	0.218240	0.178440	0.577970
N211	N21	0.282460	0.222490	0.806270
N221	N22	0.314350	0.230460	0.913770
N231	N23	0.313510	0.305740	0.321270
N241	N24	0.326820	0.278880	0.233470
N251	N25	0.307700	0.225840	0.276970
N261	N26	0.299670	0.180780	0.965670
N271	N27	0.258230	0.139810	0.894170
C131	C13	0.444100	0.393380	0.727300
C141	C14	0.493440	0.417980	0.819300
H161	H16	0.528400	0.432900	0.768200
H171	H17	0.494400	0.448900	0.870100
C151	C15	0.527080	0.397180	0.025800
H181	H18	0.562600	0.429800	0.996900
H191	H19	0.535400	0.369000	0.062400
C161	C16	0.499920	0.414750	0.129700
Cd41	Cd4	0.388120	0.318020	0.992630
Cl41	Cl4	0.428560	0.258720	0.105750
H201	H20	0.501000	0.347100	0.869000
N281	N28	0.395550	0.347710	0.758000
N291	N29	0.488230	0.373140	0.911300
N301	N30	0.444180	0.393310	0.139600
N311	N31	0.436210	0.417230	0.247100
N321	N32	0.360930	0.341110	0.654600
N331	N33	0.387790	0.381280	0.566800
N341	N34	0.440830	0.415200	0.610300
N351	N35	0.485890	0.452230	0.299000
N361	N36	0.526860	0.451760	0.227500
C171	C17	0.110770	0.726710	0.060630
C181	C18	0.160110	0.751310	0.152630
H211	H21	0.195070	0.766230	0.101530
H221	H22	0.161070	0.782230	0.203430
C191	C19	0.193750	0.730510	0.359130
H231	H23	0.229270	0.763130	0.330230
H241	H24	0.202070	0.702330	0.395730
C201	C20	0.166590	0.748080	0.463030
Cd51	Cd5	0.054790	0.651350	0.325960
Cl51	Cl5	0.095230	0.592050	0.439080
H251	H25	0.167670	0.680430	0.202330
N371	N37	0.062220	0.681040	0.091330
N381	N38	0.154900	0.706470	0.244630
N391	N39	0.110850	0.726640	0.472930
N401	N40	0.102880	0.750560	0.580430
N411	N41	0.027600	0.674440	0.987930
N421	N42	0.054460	0.714610	0.900130
N431	N43	0.107500	0.748530	0.943630
N441	N44	0.152560	0.785560	0.632330
N451	N45	0.193530	0.785090	0.560830
C211	C21	0.777430	0.060050	0.393970
C221	C22	0.826770	0.084650	0.485970
H261	H26	0.861730	0.099570	0.434870
H271	H27	0.827730	0.115570	0.536770
C231	C23	0.860410	0.063850	0.692470
H281	H28	0.895930	0.096470	0.663570
H291	H29	0.868730	0.035670	0.729070
C241	C24	0.833250	0.081420	0.796370
Cd61	Cd6	0.721450	0.984680	0.659300
Cl61	Cl6	0.761890	0.925390	0.772420
H301	H30	0.834330	0.013770	0.535670
N461	N46	0.728880	0.014380	0.424670
N471	N47	0.821560	0.039810	0.577970
N481	N48	0.777510	0.059980	0.806270
N491	N49	0.769540	0.083900	0.913770
N501	N50	0.694260	0.007780	0.321270
N511	N51	0.721120	0.047950	0.233470
N521	N52	0.774160	0.081870	0.276970
N531	N53	0.819220	0.118900	0.965670
N541	N54	0.860190	0.118430	0.894170
C251	C25	0.606620	0.050720	0.727300
C261	C26	0.582020	0.075460	0.819300
H311	H31	0.567100	0.095500	0.768200
H321	H32	0.551100	0.045500	0.870100
C271	C27	0.602820	0.129900	0.025800
H331	H33	0.570200	0.132800	0.996900
H341	H34	0.631000	0.166400	0.062400
C281	C28	0.585250	0.085170	0.129700
Cd71	Cd7	0.681990	0.070100	0.992630
Cl71	Cl7	0.741280	0.169840	0.105750
H351	H35	0.652900	0.153900	0.869000
N551	N55	0.652290	0.047840	0.758000
N561	N56	0.626860	0.115090	0.911300
N571	N57	0.606690	0.050870	0.139600
N581	N58	0.582770	0.018980	0.247100
N591	N59	0.658890	0.019820	0.654600
N601	N60	0.618720	0.006510	0.566800
N611	N61	0.584800	0.025630	0.610300
N621	N62	0.547770	0.033660	0.299000
N631	N63	0.548240	0.075100	0.227500
C291	C29	0.273290	0.384050	0.060630
C301	C30	0.248690	0.408790	0.152630
H361	H36	0.233770	0.428830	0.101530
H371	H37	0.217770	0.378830	0.203430
C311	C31	0.269490	0.463230	0.359130
H381	H38	0.236870	0.466130	0.330230
H391	H39	0.297670	0.499730	0.395730
C321	C32	0.251920	0.418500	0.463030
Cd81	Cd8	0.348650	0.403440	0.325960
Cl81	Cl8	0.407950	0.503170	0.439080
H401	H40	0.319570	0.487230	0.202330
N641	N64	0.318960	0.381170	0.091330
N651	N65	0.293530	0.448420	0.244630
N661	N66	0.273360	0.384200	0.472930
N671	N67	0.249440	0.352310	0.580430
N681	N68	0.325560	0.353150	0.987930
N691	N69	0.285390	0.339840	0.900130
N701	N70	0.251470	0.358960	0.943630
N711	N71	0.214440	0.366990	0.632330
N721	N72	0.214910	0.408430	0.560830
C331	C33	0.939950	0.717390	0.393970
C341	C34	0.915350	0.742130	0.485970
H411	H41	0.900430	0.762170	0.434870
H421	H42	0.884430	0.712170	0.536770
C351	C35	0.936150	0.796570	0.692470
H431	H43	0.903530	0.799470	0.663570
H441	H44	0.964330	0.833070	0.729070
C361	C36	0.918580	0.751840	0.796370
Cd91	Cd9	0.015320	0.736770	0.659300
Cl91	Cl9	0.074610	0.836510	0.772420
H451	H45	0.986230	0.820570	0.535670
N731	N73	0.985620	0.714510	0.424670
N741	N74	0.960190	0.781760	0.577970
N751	N75	0.940020	0.717540	0.806270
N761	N76	0.916100	0.685650	0.913770
N771	N77	0.992220	0.686490	0.321270
N781	N78	0.952050	0.673180	0.233470
N791	N79	0.918130	0.692300	0.276970
N801	N80	0.881100	0.700330	0.965670
N811	N81	0.881570	0.741770	0.894170
C371	C37	0.050720	0.444100	0.272700
C381	C38	0.075460	0.493440	0.180700
H461	H46	0.095500	0.528400	0.231800
H471	H47	0.045500	0.494400	0.129900
C391	C39	0.129900	0.527080	0.974200
H481	H48	0.132800	0.562600	0.003100
H491	H49	0.166400	0.535400	0.937600
C401	C40	0.085170	0.499920	0.870300
Cd101	Cd10	0.070100	0.388120	0.007370
Cl101	Cl10	0.169840	0.428560	0.894250
H501	H50	0.153900	0.501000	0.131000
N821	N82	0.047840	0.395550	0.242000
N831	N83	0.115090	0.488230	0.088700
N841	N84	0.050870	0.444180	0.860400
N851	N85	0.018980	0.436210	0.752900
N861	N86	0.019820	0.360930	0.345400
N871	N87	0.006510	0.387790	0.433200
N881	N88	0.025630	0.440830	0.389700
N891	N89	0.033660	0.485890	0.701000
N901	N90	0.075100	0.526860	0.772500
C411	C41	0.717390	0.777430	0.606030
C421	C42	0.742130	0.826770	0.514030
H511	H51	0.762170	0.861730	0.565130
H521	H52	0.712170	0.827730	0.463230
C431	C43	0.796570	0.860410	0.307530
H531	H53	0.799470	0.895930	0.336430
H541	H54	0.833070	0.868730	0.270930
C441	C44	0.751840	0.833250	0.203630
Cd111	Cd11	0.736770	0.721450	0.340700
Cl111	Cl11	0.836510	0.761890	0.227580
H551	H55	0.820570	0.834330	0.464330
N911	N91	0.714510	0.728880	0.575330
N921	N92	0.781760	0.821560	0.422030
N931	N93	0.717540	0.777510	0.193730
N941	N94	0.685650	0.769540	0.086230
N951	N95	0.686490	0.694260	0.678730
N961	N96	0.673180	0.721120	0.766530
N971	N97	0.692300	0.774160	0.723030
N981	N98	0.700330	0.819220	0.034330
N991	N99	0.741770	0.860190	0.105830
C451	C45	0.384050	0.110770	0.939370
C461	C46	0.408790	0.160110	0.847370
H561	H56	0.428830	0.195070	0.898470
H571	H57	0.378830	0.161070	0.796570
C471	C47	0.463230	0.193750	0.640870
H581	H58	0.466130	0.229270	0.669770
H591	H59	0.499730	0.202070	0.604270
C481	C48	0.418500	0.166590	0.536970
Cd121	Cd12	0.403440	0.054790	0.674040
Cl121	Cl12	0.503170	0.095230	0.560920
H601	H60	0.487230	0.167670	0.797670
N1001	N100	0.381170	0.062220	0.908670
N1011	N101	0.448420	0.154900	0.755370
N1021	N102	0.384200	0.110850	0.527070
N1031	N103	0.352310	0.102880	0.419570
N1041	N104	0.353150	0.027600	0.012070
N1051	N105	0.339840	0.054460	0.099870
N1061	N106	0.358960	0.107500	0.056370
N1071	N107	0.366990	0.152560	0.367670
N1081	N108	0.408430	0.193530	0.439170
C491	C49	0.555900	0.606620	0.272700
C501	C50	0.506560	0.582020	0.180700
H611	H61	0.471600	0.567100	0.231800
H621	H62	0.505600	0.551100	0.129900
C511	C51	0.472920	0.602820	0.974200
H631	H63	0.437400	0.570200	0.003100
H641	H64	0.464600	0.631000	0.937600
C521	C52	0.500080	0.585250	0.870300
Cd131	Cd13	0.611880	0.681990	0.007370
Cl131	Cl13	0.571440	0.741280	0.894250
H651	H65	0.499000	0.652900	0.131000
N1091	N109	0.604450	0.652290	0.242000
N1101	N110	0.511770	0.626860	0.088700
N1111	N111	0.555820	0.606690	0.860400
N1121	N112	0.563790	0.582770	0.752900
N1131	N113	0.639070	0.658890	0.345400
N1141	N114	0.612210	0.618720	0.433200
N1151	N115	0.559170	0.584800	0.389700
N1161	N116	0.514110	0.547770	0.701000
N1171	N117	0.473140	0.548240	0.772500
C531	C53	0.222570	0.939950	0.606030
C541	C54	0.173230	0.915350	0.514030
H661	H66	0.138270	0.900430	0.565130
H671	H67	0.172270	0.884430	0.463230
C551	C55	0.139590	0.936150	0.307530
H681	H68	0.104070	0.903530	0.336430
H691	H69	0.131270	0.964330	0.270930
C561	C56	0.166750	0.918580	0.203630
Cd141	Cd14	0.278550	0.015320	0.340700
Cl141	Cl14	0.238110	0.074610	0.227580
H701	H70	0.165670	0.986230	0.464330
N1181	N118	0.271120	0.985620	0.575330
N1191	N119	0.178440	0.960190	0.422030
N1201	N120	0.222490	0.940020	0.193730
N1211	N121	0.230460	0.916100	0.086230
N1221	N122	0.305740	0.992220	0.678730
N1231	N123	0.278880	0.952050	0.766530
N1241	N124	0.225840	0.918130	0.723030
N1251	N125	0.180780	0.881100	0.034330
N1261	N126	0.139810	0.881570	0.105830
C571	C57	0.889230	0.273290	0.939370
C581	C58	0.839890	0.248690	0.847370
H711	H71	0.804930	0.233770	0.898470
H721	H72	0.838930	0.217770	0.796570
C591	C59	0.806250	0.269490	0.640870
H731	H73	0.770730	0.236870	0.669770
H741	H74	0.797930	0.297670	0.604270
C601	C60	0.833410	0.251920	0.536970
Cd151	Cd15	0.945210	0.348650	0.674040
Cl151	Cl15	0.904770	0.407950	0.560920
H751	H75	0.832330	0.319570	0.797670
N1271	N127	0.937780	0.318960	0.908670
N1281	N128	0.845100	0.293530	0.755370
N1291	N129	0.889150	0.273360	0.527070
N1301	N130	0.897120	0.249440	0.419570
N1311	N131	0.972400	0.325560	0.012070
N1321	N132	0.945540	0.285390	0.099870
N1331	N133	0.892500	0.251470	0.056370
N1341	N134	0.847440	0.214440	0.367670
N1351	N135	0.806470	0.214910	0.439170
C611	C61	0.393380	0.949280	0.272700
C621	C62	0.417980	0.924540	0.180700
H761	H76	0.432900	0.904500	0.231800
H771	H77	0.448900	0.954500	0.129900
C631	C63	0.397180	0.870100	0.974200
H781	H78	0.429800	0.867200	0.003100
H791	H79	0.369000	0.833600	0.937600
C641	C64	0.414750	0.914830	0.870300
Cd161	Cd16	0.318020	0.929900	0.007370
Cl161	Cl16	0.258720	0.830160	0.894250
H801	H80	0.347100	0.846100	0.131000
N1361	N136	0.347710	0.952160	0.242000
N1371	N137	0.373140	0.884910	0.088700
N1381	N138	0.393310	0.949130	0.860400
N1391	N139	0.417230	0.981020	0.752900
N1401	N140	0.341110	0.980180	0.345400
N1411	N141	0.381280	0.993490	0.433200
N1421	N142	0.415200	0.974370	0.389700
N1431	N143	0.452230	0.966340	0.701000
N1441	N144	0.451760	0.924900	0.772500
C651	C65	0.060050	0.282610	0.606030
C661	C66	0.084650	0.257870	0.514030
H811	H81	0.099570	0.237830	0.565130
H821	H82	0.115570	0.287830	0.463230
C671	C67	0.063850	0.203430	0.307530
H831	H83	0.096470	0.200530	0.336430
H841	H84	0.035670	0.166930	0.270930
C681	C68	0.081420	0.248160	0.203630
Cd171	Cd17	0.984680	0.263230	0.340700
Cl171	Cl17	0.925390	0.163490	0.227580
H851	H85	0.013770	0.179430	0.464330
N1451	N145	0.014380	0.285490	0.575330
N1461	N146	0.039810	0.218240	0.422030
N1471	N147	0.059980	0.282460	0.193730
N1481	N148	0.083900	0.314350	0.086230
N1491	N149	0.007780	0.313510	0.678730
N1501	N150	0.047950	0.326820	0.766530
N1511	N151	0.081870	0.307700	0.723030
N1521	N152	0.118900	0.299670	0.034330
N1531	N153	0.118430	0.258230	0.105830
C691	C69	0.726710	0.615950	0.939370
C701	C70	0.751310	0.591210	0.847370
H861	H86	0.766230	0.571170	0.898470
H871	H87	0.782230	0.621170	0.796570
C711	C71	0.730510	0.536770	0.640870
H881	H88	0.763130	0.533870	0.669770
H891	H89	0.702330	0.500270	0.604270
C721	C72	0.748080	0.581500	0.536970
Cd181	Cd18	0.651350	0.596560	0.674040
Cl181	Cl18	0.592050	0.496830	0.560920
H901	H90	0.680430	0.512770	0.797670
N1541	N154	0.681040	0.618830	0.908670
N1551	N155	0.706470	0.551580	0.755370
N1561	N156	0.726640	0.615800	0.527070
N1571	N157	0.750560	0.647690	0.419570
N1581	N158	0.674440	0.646850	0.012070
N1591	N159	0.714610	0.660160	0.099870
N1601	N160	0.748530	0.641040	0.056370
N1611	N161	0.785560	0.633010	0.367670
N1621	N162	0.785090	0.591570	0.439170
Cd191	Cd19	0.833330	0.666670	0.166670
Cd201	Cd20	0.500000	0.000000	0.500000
Cd211	Cd21	0.333330	0.166670	0.166670
Cd221	Cd22	0.000000	0.500000	0.500000
Cd231	Cd23	0.833330	0.166670	0.166670
Cd241	Cd24	0.500000	0.500000	0.500000
Cd251	Cd25	0.166670	0.333330	0.833330
Cd261	Cd26	0.666670	0.833330	0.833330
Cd271	Cd27	0.166670	0.833330	0.833330
