data_ESAROH_clean_PM
_symmetry_space_group_name_H-M	'P1'
_cell_length_a	10.373000
_cell_length_b	15.088000
_cell_length_c	24.126000
_cell_angle_alpha	90.000000
_cell_angle_beta	90.000000
_cell_angle_gamma	90.000000
_symmetry_Int_Tables_number 1

loop_
_symmetry_equiv_pos_as_xyz
'x,y,z'

loop_
_atom_site_label
_atom_site_type_symbol
_atom_site_fract_x
_atom_site_fract_y
_atom_site_fract_z
Zn11	Zn1	0.592980	0.500240	0.959720
Zn21	Zn2	0.815130	0.500090	0.045740
O11	O1	0.359300	0.095400	0.011200
C11	C1	0.547700	0.296600	0.150900
H11	H1	0.604600	0.331300	0.171300
C21	C2	0.536700	0.305100	0.093500
O21	O2	0.207700	0.092300	0.077300
C31	C3	0.472800	0.190800	0.408800
C41	C4	0.389500	0.184900	0.089300
C51	C5	0.469300	0.233400	0.176100
C61	C6	0.627100	0.313400	0.407900
O31	O3	0.713600	0.404200	0.086900
C71	C7	0.545900	0.252400	0.321900
O41	O4	0.561500	0.406900	0.020600
C81	C8	0.461500	0.248100	0.062400
H21	H2	0.459800	0.252400	0.024000
N11	N1	0.171700	0.527200	0.124200
C91	C9	0.313900	0.118200	0.055800
C101	C10	0.388500	0.178800	0.146100
H31	H3	0.334500	0.138700	0.163900
C111	C11	0.550900	0.252000	0.437200
H41	H4	0.552200	0.251900	0.475700
N21	N2	0.462500	0.225200	0.238200
N31	N3	0.548900	0.258000	0.265100
C121	C12	0.627800	0.311300	0.350100
H51	H5	0.682200	0.348700	0.330300
C131	C13	0.610800	0.378400	0.065000
C141	C14	0.466900	0.192600	0.351300
H61	H6	0.411500	0.154700	0.332400
C151	C15	0.110800	0.605300	0.139000
H71	H7	0.146600	0.651300	0.159600
N41	N4	0.975100	0.522200	0.090900
C161	C16	0.304800	0.507700	0.137300
H81	H8	0.352500	0.563000	0.136400
H91	H9	0.339000	0.470500	0.108000
C171	C17	0.083900	0.478300	0.095500
C181	C18	0.317000	0.508500	0.244500
H101	H10	0.226700	0.522100	0.250400
H111	H11	0.364100	0.564000	0.244100
C191	C19	0.331800	0.464400	0.190000
H121	H12	0.420400	0.444000	0.188100
H131	H13	0.278200	0.411700	0.191200
O51	O5	0.679700	0.262500	0.244700
C201	C20	0.183700	0.392400	0.016100
H141	H14	0.138600	0.430900	0.991100
H151	H15	0.189000	0.334100	0.000300
H161	H16	0.269000	0.414900	0.022300
C211	C21	0.703000	0.381000	0.439600
O61	O6	0.802700	0.409500	0.416900
O71	O7	0.654400	0.405900	0.485200
C221	C22	0.364800	0.452800	0.292000
H171	H17	0.309300	0.401200	0.294100
H181	H18	0.449900	0.431600	0.281900
C231	C23	0.111000	0.388000	0.071400
H191	H19	0.029900	0.357200	0.065800
H201	H20	0.161500	0.354000	0.097700
C241	C24	0.993300	0.602700	0.118900
H211	H21	0.931900	0.647200	0.122600
C251	C25	0.374700	0.490200	0.349300
H221	H22	0.409200	0.444800	0.373600
H231	H23	0.435900	0.538800	0.348800
N51	N5	0.253300	0.522500	0.372900
C261	C26	0.209600	0.608600	0.371400
H241	H24	0.251000	0.656700	0.355100
C271	C27	0.164100	0.473800	0.402000
C281	C28	0.182800	0.378200	0.417200
H251	H25	0.226500	0.348200	0.387000
H261	H26	0.099000	0.350600	0.421900
N61	N6	0.068400	0.525100	0.417200
C291	C29	0.096900	0.609800	0.397600
H271	H27	0.045100	0.659600	0.402300
C301	C30	0.260500	0.365900	0.470000
H281	H28	0.335100	0.403500	0.469000
H291	H29	0.287200	0.305200	0.473000
H301	H30	0.208200	0.381200	0.501400
O81	O8	0.368100	0.167800	0.251300
C311	C31	0.402200	0.121100	0.440700
O91	O9	0.449800	0.098300	0.485100
O101	O10	0.302800	0.090300	0.417300
Zn31	Zn3	0.907020	0.499760	0.459720
Zn41	Zn4	0.684870	0.499910	0.545740
O111	O11	0.140700	0.904600	0.511200
C321	C32	0.952300	0.703400	0.650900
H311	H31	0.895400	0.668700	0.671300
C331	C33	0.963300	0.694900	0.593500
O121	O12	0.292300	0.907700	0.577300
C341	C34	0.027200	0.809200	0.908800
C351	C35	0.110500	0.815100	0.589300
C361	C36	0.030700	0.766600	0.676100
C371	C37	0.872900	0.686600	0.907900
O131	O13	0.786400	0.595800	0.586900
C381	C38	0.954100	0.747600	0.821900
O141	O14	0.938500	0.593100	0.520600
C391	C39	0.038500	0.751900	0.562400
H321	H32	0.040200	0.747600	0.524000
N71	N7	0.328300	0.472800	0.624200
C401	C40	0.186100	0.881800	0.555800
C411	C41	0.111500	0.821200	0.646100
H331	H33	0.165500	0.861300	0.663900
C421	C42	0.949100	0.748000	0.937200
H341	H34	0.947800	0.748100	0.975700
N81	N8	0.037500	0.774800	0.738200
N91	N9	0.951100	0.742000	0.765100
C431	C43	0.872200	0.688700	0.850100
H351	H35	0.817800	0.651300	0.830300
C441	C44	0.889200	0.621600	0.565000
C451	C45	0.033100	0.807400	0.851300
H361	H36	0.088500	0.845300	0.832400
C461	C46	0.389200	0.394700	0.639000
H371	H37	0.353400	0.348700	0.659600
N101	N10	0.524900	0.477800	0.590900
C471	C47	0.195200	0.492300	0.637300
H381	H38	0.147500	0.437000	0.636400
H391	H39	0.161000	0.529500	0.608000
C481	C48	0.416100	0.521700	0.595500
C491	C49	0.183000	0.491500	0.744500
H401	H40	0.273300	0.477900	0.750400
H411	H41	0.135900	0.436000	0.744100
C501	C50	0.168200	0.535600	0.690000
H421	H42	0.079600	0.556000	0.688100
H431	H43	0.221800	0.588300	0.691200
O151	O15	0.820300	0.737500	0.744700
C511	C51	0.316300	0.607600	0.516100
H441	H44	0.361400	0.569100	0.491100
H451	H45	0.311000	0.665900	0.500300
H461	H46	0.231000	0.585100	0.522300
C521	C52	0.797000	0.619000	0.939600
O161	O16	0.697300	0.590500	0.916900
O171	O17	0.845600	0.594100	0.985200
C531	C53	0.135200	0.547200	0.792000
H471	H47	0.190700	0.598800	0.794100
H481	H48	0.050100	0.568400	0.781900
C541	C54	0.389000	0.612000	0.571400
H491	H49	0.470100	0.642800	0.565800
H501	H50	0.338500	0.646000	0.597700
C551	C55	0.506700	0.397300	0.618900
H511	H51	0.568100	0.352800	0.622600
C561	C56	0.125300	0.509800	0.849300
H521	H52	0.090800	0.555200	0.873600
H531	H53	0.064100	0.461200	0.848800
N111	N11	0.246700	0.477500	0.872900
C571	C57	0.290400	0.391400	0.871400
H541	H54	0.249000	0.343300	0.855100
C581	C58	0.335900	0.526200	0.902000
C591	C59	0.317200	0.621800	0.917200
H551	H55	0.273500	0.651800	0.887000
H561	H56	0.401000	0.649400	0.921900
N121	N12	0.431600	0.474900	0.917200
C601	C60	0.403100	0.390200	0.897600
H571	H57	0.454900	0.340400	0.902300
C611	C61	0.239500	0.634100	0.970000
H581	H58	0.164900	0.596500	0.969000
H591	H59	0.212800	0.694800	0.973000
H601	H60	0.291800	0.618800	0.001400
O181	O18	0.131900	0.832200	0.751300
C621	C62	0.097800	0.878900	0.940700
O191	O19	0.050200	0.901700	0.985100
O201	O20	0.197200	0.909700	0.917300
Zn51	Zn5	0.407020	0.000240	0.540280
Zn61	Zn6	0.184870	0.000090	0.454260
O211	O21	0.640700	0.595400	0.488800
C631	C63	0.452300	0.796600	0.349100
H611	H61	0.395400	0.831300	0.328700
C641	C64	0.463300	0.805100	0.406500
O221	O22	0.792300	0.592300	0.422700
C651	C65	0.527200	0.690800	0.091200
C661	C66	0.610500	0.684900	0.410700
C671	C67	0.530700	0.733400	0.323900
C681	C68	0.372900	0.813400	0.092100
O231	O23	0.286400	0.904200	0.413100
C691	C69	0.454100	0.752400	0.178100
O241	O24	0.438500	0.906900	0.479400
C701	C70	0.538500	0.748100	0.437600
H621	H62	0.540200	0.752400	0.476000
N131	N13	0.828300	0.027200	0.375800
C711	C71	0.686100	0.618200	0.444200
C721	C72	0.611500	0.678800	0.353900
H631	H63	0.665500	0.638700	0.336100
C731	C73	0.449100	0.752000	0.062800
H641	H64	0.447800	0.751900	0.024300
N141	N14	0.537500	0.725200	0.261800
N151	N15	0.451100	0.758000	0.234900
C741	C74	0.372200	0.811300	0.149900
H651	H65	0.317800	0.848700	0.169700
C751	C75	0.389200	0.878400	0.435000
C761	C76	0.533100	0.692600	0.148700
H661	H66	0.588500	0.654700	0.167600
C771	C77	0.889200	0.105300	0.361000
H671	H67	0.853400	0.151300	0.340400
N161	N16	0.024900	0.022200	0.409100
C781	C78	0.695200	0.007700	0.362700
H681	H68	0.647500	0.063000	0.363600
H691	H69	0.661000	0.970500	0.392000
C791	C79	0.916100	0.978300	0.404500
C801	C80	0.683000	0.008500	0.255500
H701	H70	0.773300	0.022100	0.249600
H711	H71	0.635900	0.064000	0.255900
C811	C81	0.668200	0.964400	0.310000
H721	H72	0.579600	0.944000	0.311900
H731	H73	0.721800	0.911700	0.308800
O251	O25	0.320300	0.762500	0.255300
C821	C82	0.816300	0.892400	0.483900
H741	H74	0.861400	0.930900	0.508900
H751	H75	0.811000	0.834100	0.499700
H761	H76	0.731000	0.914900	0.477700
C831	C83	0.297000	0.881000	0.060400
O261	O26	0.197300	0.909500	0.083100
O271	O27	0.345600	0.905900	0.014800
C841	C84	0.635200	0.952800	0.208000
H771	H77	0.690700	0.901200	0.205900
H781	H78	0.550100	0.931600	0.218100
C851	C85	0.889000	0.888000	0.428600
H791	H79	0.970100	0.857200	0.434200
H801	H80	0.838500	0.854000	0.402300
C861	C86	0.006700	0.102700	0.381100
H811	H81	0.068100	0.147200	0.377400
C871	C87	0.625300	0.990200	0.150700
H821	H82	0.590800	0.944800	0.126400
H831	H83	0.564100	0.038800	0.151200
N171	N17	0.746700	0.022500	0.127100
C881	C88	0.790400	0.108600	0.128600
H841	H84	0.749000	0.156700	0.144900
C891	C89	0.835900	0.973800	0.098000
C901	C90	0.817200	0.878200	0.082800
H851	H85	0.773500	0.848200	0.113000
H861	H86	0.901000	0.850600	0.078100
N181	N18	0.931600	0.025100	0.082800
C911	C91	0.903100	0.109800	0.102400
H871	H87	0.954900	0.159600	0.097700
C921	C92	0.739500	0.865900	0.030000
H881	H88	0.664900	0.903500	0.031000
H891	H89	0.712800	0.805200	0.027000
H901	H90	0.791800	0.881200	0.998600
O281	O28	0.631900	0.667800	0.248700
C931	C93	0.597800	0.621100	0.059300
O291	O29	0.550200	0.598300	0.014900
O301	O30	0.697200	0.590300	0.082700
Zn71	Zn7	0.092980	0.999760	0.040280
Zn81	Zn8	0.315130	0.999910	0.954260
O311	O31	0.859300	0.404600	0.988800
C941	C94	0.047700	0.203400	0.849100
H911	H91	0.104600	0.168700	0.828700
C951	C95	0.036700	0.194900	0.906500
O321	O32	0.707700	0.407700	0.922700
C961	C96	0.972800	0.309200	0.591200
C971	C97	0.889500	0.315100	0.910700
C981	C98	0.969300	0.266600	0.823900
C991	C99	0.127100	0.186600	0.592100
O331	O33	0.213600	0.095800	0.913100
C1001	C100	0.045900	0.247600	0.678100
O341	O34	0.061500	0.093100	0.979400
C1011	C101	0.961500	0.251900	0.937600
H921	H92	0.959800	0.247600	0.976000
N191	N19	0.671700	0.972800	0.875800
C1021	C102	0.813900	0.381800	0.944200
C1031	C103	0.888500	0.321200	0.853900
H931	H93	0.834500	0.361300	0.836100
C1041	C104	0.050900	0.248000	0.562800
H941	H94	0.052200	0.248100	0.524300
N201	N20	0.962500	0.274800	0.761800
N211	N21	0.048900	0.242000	0.734900
C1051	C105	0.127800	0.188700	0.649900
H951	H95	0.182200	0.151300	0.669700
C1061	C106	0.110800	0.121600	0.935000
C1071	C107	0.966900	0.307400	0.648700
H961	H96	0.911500	0.345300	0.667600
C1081	C108	0.610800	0.894700	0.861000
H971	H97	0.646600	0.848700	0.840400
N221	N22	0.475100	0.977800	0.909100
C1091	C109	0.804800	0.992300	0.862700
H981	H98	0.852500	0.937000	0.863600
H991	H99	0.839000	0.029500	0.892000
C1101	C110	0.583900	0.021700	0.904500
C1111	C111	0.817000	0.991500	0.755500
H1001	H100	0.726700	0.977900	0.749600
H1011	H101	0.864100	0.936000	0.755900
C1121	C112	0.831800	0.035600	0.810000
H1021	H102	0.920400	0.056000	0.811900
H1031	H103	0.778200	0.088300	0.808800
O351	O35	0.179700	0.237500	0.755300
C1131	C113	0.683700	0.107600	0.983900
H1041	H104	0.638600	0.069100	0.008900
H1051	H105	0.689000	0.165900	0.999700
H1061	H106	0.769000	0.085100	0.977700
C1141	C114	0.203000	0.119000	0.560400
O361	O36	0.302700	0.090500	0.583100
O371	O37	0.154400	0.094100	0.514800
C1151	C115	0.864800	0.047200	0.708000
H1071	H107	0.809300	0.098800	0.705900
H1081	H108	0.949900	0.068400	0.718100
C1161	C116	0.611000	0.112000	0.928600
H1091	H109	0.529900	0.142800	0.934200
H1101	H110	0.661500	0.146000	0.902300
C1171	C117	0.493300	0.897300	0.881100
H1111	H111	0.431900	0.852800	0.877400
C1181	C118	0.874700	0.009800	0.650700
H1121	H112	0.909200	0.055200	0.626400
H1131	H113	0.935900	0.961200	0.651200
N231	N23	0.753300	0.977500	0.627100
C1191	C119	0.709600	0.891400	0.628600
H1141	H114	0.751000	0.843300	0.644900
C1201	C120	0.664100	0.026200	0.598000
C1211	C121	0.682800	0.121800	0.582800
H1151	H115	0.726500	0.151800	0.613000
H1161	H116	0.599000	0.149400	0.578100
N241	N24	0.568400	0.974900	0.582800
C1221	C122	0.596900	0.890200	0.602400
H1171	H117	0.545100	0.840400	0.597700
C1231	C123	0.760500	0.134100	0.530000
H1181	H118	0.835100	0.096500	0.531000
H1191	H119	0.787200	0.194800	0.527000
H1201	H120	0.708200	0.118800	0.498600
O381	O38	0.868100	0.332200	0.748700
C1241	C124	0.902200	0.378900	0.559300
O391	O39	0.949800	0.401700	0.514900
O401	O40	0.802800	0.409700	0.582700
