data_ESEDIQ_clean_PM
_symmetry_space_group_name_H-M	'P1'
_cell_length_a	10.195000
_cell_length_b	21.342000
_cell_length_c	18.533000
_cell_angle_alpha	90.000000
_cell_angle_beta	102.960000
_cell_angle_gamma	90.000000
_symmetry_Int_Tables_number 1

loop_
_symmetry_equiv_pos_as_xyz
'x,y,z'

loop_
_atom_site_label
_atom_site_type_symbol
_atom_site_fract_x
_atom_site_fract_y
_atom_site_fract_z
Zn11	Zn1	0.348430	0.650820	0.786060
O11	O1	0.356800	0.529000	0.883700
O21	O2	0.238700	0.615770	0.849800
O31	O3	0.130600	0.730400	0.294800
O41	O4	0.230000	0.789110	0.222200
O51	O5	0.227500	0.559100	0.660100
O61	O6	0.424700	0.600800	0.717440
O71	O7	0.616200	0.724470	0.781500
O81	O8	0.498700	0.684660	0.859400
C11	C1	0.263500	0.565700	0.886800
C21	C2	0.100600	0.600000	0.963500
H11	H1	0.122500	0.641300	0.955600
C31	C3	0.166700	0.550200	0.935000
C41	C4	0.134800	0.489700	0.946800
H21	H2	0.180600	0.457400	0.929500
C51	C5	0.032400	0.475200	0.985500
C61	C6	0.004800	0.587100	0.002500
H31	H3	0.963200	0.620000	0.021600
C71	C7	0.134200	0.754500	0.234100
C81	C8	0.350500	0.568100	0.666700
C91	C9	0.363700	0.537600	0.538600
H41	H4	0.276900	0.553100	0.522000
C101	C10	0.422800	0.539000	0.612700
C111	C11	0.553200	0.514700	0.638800
H51	H5	0.592600	0.516200	0.689200
C121	C12	0.623200	0.488500	0.590500
H61	H6	0.708200	0.471400	0.608300
C131	C13	0.434900	0.512200	0.486000
C141	C14	0.602400	0.709700	0.844200
C151	C15	0.716900	0.721900	0.910700
C161	C16	0.705800	0.702800	0.979900
H71	H7	0.628900	0.681600	0.985400
C171	C17	0.811200	0.715000	0.043700
C181	C18	0.803700	0.695600	0.115400
H81	H8	0.727900	0.674000	0.121800
C191	C19	0.905200	0.707700	0.175600
H91	H9	0.898300	0.694300	0.222400
C201	C20	0.021600	0.740900	0.166700
C211	C21	0.031200	0.760300	0.098300
H101	H10	0.107300	0.782300	0.093100
C221	C22	0.927100	0.747800	0.033900
C231	C23	0.936200	0.767400	0.961800
H111	H11	0.011900	0.789000	0.955300
C241	C24	0.833700	0.754400	0.902100
H121	H12	0.840800	0.767100	0.855100
Zn21	Zn2	0.651570	0.150820	0.713940
O91	O9	0.643200	0.029000	0.616300
O101	O10	0.761300	0.115770	0.650200
O111	O11	0.869400	0.230400	0.205200
O121	O12	0.770000	0.289110	0.277800
O131	O13	0.772500	0.059100	0.839900
O141	O14	0.575300	0.100800	0.782560
O151	O15	0.383800	0.224470	0.718500
O161	O16	0.501300	0.184660	0.640600
C251	C25	0.736500	0.065700	0.613200
C261	C26	0.899400	0.100000	0.536500
H131	H13	0.877500	0.141300	0.544400
C271	C27	0.833300	0.050200	0.565000
C281	C28	0.865200	0.989700	0.553200
H141	H14	0.819400	0.957400	0.570500
C291	C29	0.967600	0.975200	0.514500
C301	C30	0.995200	0.087100	0.497500
H151	H15	0.036800	0.120000	0.478400
C311	C31	0.865800	0.254500	0.265900
C321	C32	0.649500	0.068100	0.833300
C331	C33	0.636300	0.037600	0.961400
H161	H16	0.723100	0.053100	0.978000
C341	C34	0.577200	0.039000	0.887300
C351	C35	0.446800	0.014700	0.861200
H171	H17	0.407400	0.016200	0.810800
C361	C36	0.376800	0.988500	0.909500
H181	H18	0.291800	0.971400	0.891700
C371	C37	0.565100	0.012200	0.014000
C381	C38	0.397600	0.209700	0.655800
C391	C39	0.283100	0.221900	0.589300
C401	C40	0.294200	0.202800	0.520100
H191	H19	0.371100	0.181600	0.514600
C411	C41	0.188800	0.215000	0.456300
C421	C42	0.196300	0.195600	0.384600
H201	H20	0.272100	0.174000	0.378200
C431	C43	0.094800	0.207700	0.324400
H211	H21	0.101700	0.194300	0.277600
C441	C44	0.978400	0.240900	0.333300
C451	C45	0.968800	0.260300	0.401700
H221	H22	0.892700	0.282300	0.406900
C461	C46	0.072900	0.247800	0.466100
C471	C47	0.063800	0.267400	0.538200
H231	H23	0.988100	0.289000	0.544700
C481	C48	0.166300	0.254400	0.597900
H241	H24	0.159200	0.267100	0.644900
Zn31	Zn3	0.651570	0.349180	0.213940
O171	O17	0.643200	0.471000	0.116300
O181	O18	0.761300	0.384230	0.150200
O191	O19	0.869400	0.269600	0.705200
O201	O20	0.770000	0.210890	0.777800
O211	O21	0.772500	0.440900	0.339900
O221	O22	0.575300	0.399200	0.282560
O231	O23	0.383800	0.275530	0.218500
O241	O24	0.501300	0.315340	0.140600
C491	C49	0.736500	0.434300	0.113200
C501	C50	0.899400	0.400000	0.036500
H251	H25	0.877500	0.358700	0.044400
C511	C51	0.833300	0.449800	0.065000
C521	C52	0.865200	0.510300	0.053200
H261	H26	0.819400	0.542600	0.070500
C531	C53	0.967600	0.524800	0.014500
C541	C54	0.995200	0.412900	0.997500
H271	H27	0.036800	0.380000	0.978400
C551	C55	0.865800	0.245500	0.765900
C561	C56	0.649500	0.431900	0.333300
C571	C57	0.636300	0.462400	0.461400
H281	H28	0.723100	0.446900	0.478000
C581	C58	0.577200	0.461000	0.387300
C591	C59	0.446800	0.485300	0.361200
H291	H29	0.407400	0.483800	0.310800
C601	C60	0.376800	0.511500	0.409500
H301	H30	0.291800	0.528600	0.391700
C611	C61	0.565100	0.487800	0.514000
C621	C62	0.397600	0.290300	0.155800
C631	C63	0.283100	0.278100	0.089300
C641	C64	0.294200	0.297200	0.020100
H311	H31	0.371100	0.318400	0.014600
C651	C65	0.188800	0.285000	0.956300
C661	C66	0.196300	0.304400	0.884600
H321	H32	0.272100	0.326000	0.878200
C671	C67	0.094800	0.292300	0.824400
H331	H33	0.101700	0.305700	0.777600
C681	C68	0.978400	0.259100	0.833300
C691	C69	0.968800	0.239700	0.901700
H341	H34	0.892700	0.217700	0.906900
C701	C70	0.072900	0.252200	0.966100
C711	C71	0.063800	0.232600	0.038200
H351	H35	0.988100	0.211000	0.044700
C721	C72	0.166300	0.245600	0.097900
H361	H36	0.159200	0.232900	0.144900
Zn41	Zn4	0.348430	0.849180	0.286060
O251	O25	0.356800	0.971000	0.383700
O261	O26	0.238700	0.884230	0.349800
O271	O27	0.130600	0.769600	0.794800
O281	O28	0.230000	0.710890	0.722200
O291	O29	0.227500	0.940900	0.160100
O301	O30	0.424700	0.899200	0.217440
O311	O31	0.616200	0.775530	0.281500
O321	O32	0.498700	0.815340	0.359400
C731	C73	0.263500	0.934300	0.386800
C741	C74	0.100600	0.900000	0.463500
H371	H37	0.122500	0.858700	0.455600
C751	C75	0.166700	0.949800	0.435000
C761	C76	0.134800	0.010300	0.446800
H381	H38	0.180600	0.042600	0.429500
C771	C77	0.032400	0.024800	0.485500
C781	C78	0.004800	0.912900	0.502500
H391	H39	0.963200	0.880000	0.521600
C791	C79	0.134200	0.745500	0.734100
C801	C80	0.350500	0.931900	0.166700
C811	C81	0.363700	0.962400	0.038600
H401	H40	0.276900	0.946900	0.022000
C821	C82	0.422800	0.961000	0.112700
C831	C83	0.553200	0.985300	0.138800
H411	H41	0.592600	0.983800	0.189200
C841	C84	0.623200	0.011500	0.090500
H421	H42	0.708200	0.028600	0.108300
C851	C85	0.434900	0.987800	0.986000
C861	C86	0.602400	0.790300	0.344200
C871	C87	0.716900	0.778100	0.410700
C881	C88	0.705800	0.797200	0.479900
H431	H43	0.628900	0.818400	0.485400
C891	C89	0.811200	0.785000	0.543700
C901	C90	0.803700	0.804400	0.615400
H441	H44	0.727900	0.826000	0.621800
C911	C91	0.905200	0.792300	0.675600
H451	H45	0.898300	0.805700	0.722400
C921	C92	0.021600	0.759100	0.666700
C931	C93	0.031200	0.739700	0.598300
H461	H46	0.107300	0.717700	0.593100
C941	C94	0.927100	0.752200	0.533900
C951	C95	0.936200	0.732600	0.461800
H471	H47	0.011900	0.711000	0.455300
C961	C96	0.833700	0.745600	0.402100
H481	H48	0.840800	0.732900	0.355100
