data_ESIDOB_clean_PM
_symmetry_space_group_name_H-M	'P1'
_cell_length_a	7.277600
_cell_length_b	22.060000
_cell_length_c	15.023400
_cell_angle_alpha	90.000000
_cell_angle_beta	98.687000
_cell_angle_gamma	90.000000
_symmetry_Int_Tables_number 1

loop_
_symmetry_equiv_pos_as_xyz
'x,y,z'

loop_
_atom_site_label
_atom_site_type_symbol
_atom_site_fract_x
_atom_site_fract_y
_atom_site_fract_z
C11	C1	0.293200	0.475200	0.168700
C21	C2	0.347300	0.457000	0.265200
C31	C3	0.521500	0.473100	0.310800
H11	H1	0.602100	0.495900	0.281800
C41	C4	0.226200	0.422800	0.309300
H21	H2	0.107600	0.413100	0.280600
C51	C5	0.575200	0.455200	0.399700
C61	C6	0.456700	0.420900	0.443500
H31	H3	0.490700	0.409500	0.503300
C71	C7	0.286400	0.403800	0.395900
C81	C8	0.350900	0.278500	0.437800
H41	H4	0.452100	0.300500	0.424200
C91	C9	0.192100	0.307800	0.445300
C101	C10	0.367100	0.217200	0.449700
H51	H5	0.478100	0.198000	0.443200
C111	C11	0.043100	0.273400	0.464800
C121	C12	0.762700	0.473700	0.444900
C131	C13	0.219900	0.183500	0.471400
C141	C14	0.233400	0.116200	0.485100
C151	C15	0.052300	0.212400	0.476500
H61	H6	0.949000	0.190500	0.487700
N11	N1	0.859700	0.302100	0.461000
O11	O1	0.231400	0.471100	0.945900
H71	H7	0.170200	0.453600	0.891300
O21	O2	0.130800	0.469200	0.134100
O31	O3	0.421000	0.496300	0.132000
O41	O4	0.162300	0.369500	0.439200
O51	O5	0.806600	0.456400	0.526400
H81	H8	0.914700	0.465900	0.544700
O61	O6	0.864600	0.503800	0.403100
O71	O7	0.380400	0.090400	0.475000
O81	O8	0.092600	0.091800	0.510400
O91	O9	0.781000	0.292800	0.527200
O101	O10	0.798000	0.334400	0.401200
C161	C16	0.206800	0.975200	0.331300
C171	C17	0.152700	0.957000	0.234800
C181	C18	0.978500	0.973100	0.189200
H91	H9	0.897900	0.995900	0.218200
C191	C19	0.273800	0.922800	0.190700
H101	H10	0.392400	0.913100	0.219400
C201	C20	0.924800	0.955200	0.100300
C211	C21	0.043300	0.920900	0.056500
H111	H11	0.009300	0.909500	0.996700
C221	C22	0.213600	0.903800	0.104100
C231	C23	0.149100	0.778500	0.062200
H121	H12	0.047900	0.800500	0.075800
C241	C24	0.307900	0.807800	0.054700
C251	C25	0.132900	0.717200	0.050300
H131	H13	0.021900	0.698000	0.056800
C261	C26	0.456900	0.773400	0.035200
C271	C27	0.737300	0.973700	0.055100
C281	C28	0.280100	0.683500	0.028600
C291	C29	0.266600	0.616200	0.014900
C301	C30	0.447700	0.712400	0.023500
H141	H14	0.551000	0.690500	0.012300
N21	N2	0.640300	0.802100	0.039000
O111	O11	0.268600	0.971100	0.554100
H151	H15	0.329800	0.953600	0.608700
O121	O12	0.369200	0.969200	0.365900
O131	O13	0.079000	0.996300	0.368000
O141	O14	0.337700	0.869500	0.060800
O151	O15	0.693400	0.956400	0.973600
H161	H16	0.585300	0.965900	0.955300
O161	O16	0.635400	0.003800	0.096900
O171	O17	0.119600	0.590400	0.025000
O181	O18	0.407400	0.591800	0.989600
O191	O19	0.719000	0.792800	0.972800
O201	O20	0.702000	0.834400	0.098800
C311	C31	0.706800	0.524800	0.831300
C321	C32	0.652700	0.543000	0.734800
C331	C33	0.478500	0.526900	0.689200
H171	H17	0.397900	0.504100	0.718200
C341	C34	0.773800	0.577200	0.690700
H181	H18	0.892400	0.586900	0.719400
C351	C35	0.424800	0.544800	0.600300
C361	C36	0.543300	0.579100	0.556500
H191	H19	0.509300	0.590500	0.496700
C371	C37	0.713600	0.596200	0.604100
C381	C38	0.649100	0.721500	0.562200
H201	H20	0.547900	0.699500	0.575800
C391	C39	0.807900	0.692200	0.554700
C401	C40	0.632900	0.782800	0.550300
H211	H21	0.521900	0.802000	0.556800
C411	C41	0.956900	0.726600	0.535200
C421	C42	0.237300	0.526300	0.555100
C431	C43	0.780100	0.816500	0.528600
C441	C44	0.766600	0.883800	0.514900
C451	C45	0.947700	0.787600	0.523500
H221	H22	0.051000	0.809500	0.512300
N31	N3	0.140300	0.697900	0.539000
O211	O21	0.768600	0.528900	0.054100
H231	H23	0.829800	0.546400	0.108700
O221	O22	0.869200	0.530800	0.865900
O231	O23	0.579000	0.503700	0.868000
O241	O24	0.837700	0.630500	0.560800
O251	O25	0.193400	0.543600	0.473600
H241	H24	0.085300	0.534100	0.455300
O261	O26	0.135400	0.496200	0.596900
O271	O27	0.619600	0.909600	0.525000
O281	O28	0.907400	0.908200	0.489600
O291	O29	0.219000	0.707200	0.472800
O301	O30	0.202000	0.665600	0.598800
C461	C46	0.793200	0.024800	0.668700
C471	C47	0.847300	0.043000	0.765200
C481	C48	0.021500	0.026900	0.810800
H251	H25	0.102100	0.004100	0.781800
C491	C49	0.726200	0.077200	0.809300
H261	H26	0.607600	0.086900	0.780600
C501	C50	0.075200	0.044800	0.899700
C511	C51	0.956700	0.079100	0.943500
H271	H27	0.990700	0.090500	0.003300
C521	C52	0.786400	0.096200	0.895900
C531	C53	0.850900	0.221500	0.937800
H281	H28	0.952100	0.199500	0.924200
C541	C54	0.692100	0.192200	0.945300
C551	C55	0.867100	0.282800	0.949700
H291	H29	0.978100	0.302000	0.943200
C561	C56	0.543100	0.226600	0.964800
C571	C57	0.262700	0.026300	0.944900
C581	C58	0.719900	0.316500	0.971400
C591	C59	0.733400	0.383800	0.985100
C601	C60	0.552300	0.287600	0.976500
H301	H30	0.449000	0.309500	0.987700
N41	N4	0.359700	0.197900	0.961000
O311	O31	0.731400	0.028900	0.445900
H311	H31	0.670200	0.046400	0.391300
O321	O32	0.630800	0.030800	0.634100
O331	O33	0.921000	0.003700	0.632000
O341	O34	0.662300	0.130500	0.939200
O351	O35	0.306600	0.043600	0.026400
H321	H32	0.414700	0.034100	0.044700
O361	O36	0.364600	0.996200	0.903100
O371	O37	0.880400	0.409600	0.975000
O381	O38	0.592600	0.408200	0.010400
O391	O39	0.281000	0.207200	0.027200
O401	O40	0.298000	0.165600	0.901200
In11	In1	0.000000	0.500000	0.000000
In21	In2	0.500000	0.000000	0.500000
In31	In3	0.500000	0.500000	0.000000
In41	In4	0.000000	0.000000	0.500000
