data_ESIGES_clean_PM
_symmetry_space_group_name_H-M	'P1'
_cell_length_a	27.581000
_cell_length_b	9.111400
_cell_length_c	9.979100
_cell_angle_alpha	90.000000
_cell_angle_beta	92.213000
_cell_angle_gamma	90.000000
_symmetry_Int_Tables_number 1

loop_
_symmetry_equiv_pos_as_xyz
'x,y,z'

loop_
_atom_site_label
_atom_site_type_symbol
_atom_site_fract_x
_atom_site_fract_y
_atom_site_fract_z
Zn11	Zn1	0.950520	0.177810	0.403780
Zn21	Zn2	0.548400	0.178150	0.411930
P11	P1	0.973440	0.080330	0.695380
P21	P2	0.523390	0.077460	0.698920
O11	O1	0.967430	0.203100	0.593800
O21	O2	0.978270	0.143100	0.838700
O31	O3	0.016290	0.984800	0.671500
O41	O4	0.926340	0.980900	0.687400
O51	O5	0.532790	0.197400	0.597600
O61	O6	0.475790	0.998100	0.673400
O71	O7	0.523220	0.137900	0.840900
O81	O8	0.564820	0.959600	0.688900
O91	O9	0.881700	0.132500	0.380400
O101	O10	0.618080	0.165700	0.384000
O111	O11	0.856890	0.305400	0.236100
O121	O12	0.643490	0.040800	0.565900
C11	C1	0.849670	0.204400	0.315800
C21	C2	0.798060	0.164500	0.346600
C31	C3	0.760020	0.232000	0.272100
C41	C4	0.712430	0.208800	0.305300
C51	C5	0.702020	0.119100	0.414100
C61	C6	0.739580	0.045600	0.482200
C71	C7	0.787420	0.070000	0.449800
C81	C8	0.650420	0.105600	0.459800
H11	H1	0.766200	0.310400	0.184600
H21	H2	0.671100	0.257600	0.280000
H31	H3	0.901300	0.034900	0.701200
H41	H4	0.730300	0.983600	0.562400
H51	H5	0.820600	0.024000	0.517400
H61	H6	0.588700	0.997600	0.647200
Zn31	Zn3	0.049480	0.677810	0.096220
Zn41	Zn4	0.451600	0.678150	0.088070
P31	P3	0.026560	0.580330	0.804620
P41	P4	0.476610	0.577460	0.801080
O131	O13	0.032570	0.703100	0.906200
O141	O14	0.021730	0.643100	0.661300
O151	O15	0.983710	0.484800	0.828500
O161	O16	0.073660	0.480900	0.812600
O171	O17	0.467210	0.697400	0.902400
O181	O18	0.524210	0.498100	0.826600
O191	O19	0.476780	0.637900	0.659100
O201	O20	0.435180	0.459600	0.811100
O211	O21	0.118300	0.632500	0.119600
O221	O22	0.381920	0.665700	0.116000
O231	O23	0.143110	0.805400	0.263900
O241	O24	0.356510	0.540800	0.934100
C91	C9	0.150330	0.704400	0.184200
C101	C10	0.201940	0.664500	0.153400
C111	C11	0.239980	0.732000	0.227900
C121	C12	0.287570	0.708800	0.194700
C131	C13	0.297980	0.619100	0.085900
C141	C14	0.260420	0.545600	0.017800
C151	C15	0.212580	0.570000	0.050200
C161	C16	0.349580	0.605600	0.040200
H71	H7	0.233800	0.810400	0.315400
H81	H8	0.328900	0.757600	0.220000
H91	H9	0.098700	0.534900	0.798800
H101	H10	0.269700	0.483600	0.937600
H111	H11	0.179400	0.524000	0.982600
H121	H12	0.411300	0.497600	0.852800
Zn51	Zn5	0.049480	0.822190	0.596220
Zn61	Zn6	0.451600	0.821850	0.588070
P51	P5	0.026560	0.919670	0.304620
P61	P6	0.476610	0.922540	0.301080
O251	O25	0.032570	0.796900	0.406200
O261	O26	0.021730	0.856900	0.161300
O271	O27	0.983710	0.015200	0.328500
O281	O28	0.073660	0.019100	0.312600
O291	O29	0.467210	0.802600	0.402400
O301	O30	0.524210	0.001900	0.326600
O311	O31	0.476780	0.862100	0.159100
O321	O32	0.435180	0.040400	0.311100
O331	O33	0.118300	0.867500	0.619600
O341	O34	0.381920	0.834300	0.616000
O351	O35	0.143110	0.694600	0.763900
O361	O36	0.356510	0.959200	0.434100
C171	C17	0.150330	0.795600	0.684200
C181	C18	0.201940	0.835500	0.653400
C191	C19	0.239980	0.768000	0.727900
C201	C20	0.287570	0.791200	0.694700
C211	C21	0.297980	0.880900	0.585900
C221	C22	0.260420	0.954400	0.517800
C231	C23	0.212580	0.930000	0.550200
C241	C24	0.349580	0.894400	0.540200
H131	H13	0.233800	0.689600	0.815400
H141	H14	0.328900	0.742400	0.720000
H151	H15	0.098700	0.965100	0.298800
H161	H16	0.269700	0.016400	0.437600
H171	H17	0.179400	0.976000	0.482600
H181	H18	0.411300	0.002400	0.352800
Zn71	Zn7	0.950520	0.322190	0.903780
Zn81	Zn8	0.548400	0.321850	0.911930
P71	P7	0.973440	0.419670	0.195380
P81	P8	0.523390	0.422540	0.198920
O371	O37	0.967430	0.296900	0.093800
O381	O38	0.978270	0.356900	0.338700
O391	O39	0.016290	0.515200	0.171500
O401	O40	0.926340	0.519100	0.187400
O411	O41	0.532790	0.302600	0.097600
O421	O42	0.475790	0.501900	0.173400
O431	O43	0.523220	0.362100	0.340900
O441	O44	0.564820	0.540400	0.188900
O451	O45	0.881700	0.367500	0.880400
O461	O46	0.618080	0.334300	0.884000
O471	O47	0.856890	0.194600	0.736100
O481	O48	0.643490	0.459200	0.065900
C251	C25	0.849670	0.295600	0.815800
C261	C26	0.798060	0.335500	0.846600
C271	C27	0.760020	0.268000	0.772100
C281	C28	0.712430	0.291200	0.805300
C291	C29	0.702020	0.380900	0.914100
C301	C30	0.739580	0.454400	0.982200
C311	C31	0.787420	0.430000	0.949800
C321	C32	0.650420	0.394400	0.959800
H191	H19	0.766200	0.189600	0.684600
H201	H20	0.671100	0.242400	0.780000
H211	H21	0.901300	0.465100	0.201200
H221	H22	0.730300	0.516400	0.062400
H231	H23	0.820600	0.476000	0.017400
H241	H24	0.588700	0.502400	0.147200
