data_ESIGES02_clean_PM
_symmetry_space_group_name_H-M	'P1'
_cell_length_a	27.621300
_cell_length_b	9.118900
_cell_length_c	9.995400
_cell_angle_alpha	90.000000
_cell_angle_beta	92.211000
_cell_angle_gamma	90.000000
_symmetry_Int_Tables_number 1

loop_
_symmetry_equiv_pos_as_xyz
'x,y,z'

loop_
_atom_site_label
_atom_site_type_symbol
_atom_site_fract_x
_atom_site_fract_y
_atom_site_fract_z
Zn11	Zn1	0.049540	0.322000	0.095950
Zn21	Zn2	0.451650	0.321690	0.087880
P11	P1	0.026630	0.419460	0.804610
P21	P2	0.476640	0.422960	0.801320
O11	O1	0.033380	0.297100	0.905100
O21	O2	0.021710	0.357200	0.662100
O31	O3	0.983620	0.514800	0.828200
O41	O4	0.073940	0.518900	0.813200
O51	O5	0.467380	0.302900	0.901200
O61	O6	0.524750	0.501000	0.826300
O71	O7	0.435510	0.541400	0.811300
O81	O8	0.476570	0.362600	0.659300
O91	O9	0.118210	0.366800	0.119600
O101	O10	0.143550	0.194400	0.264300
O111	O11	0.356550	0.459900	0.934200
O121	O12	0.381970	0.334000	0.115500
C11	C1	0.202190	0.334800	0.154500
C21	C2	0.240070	0.266200	0.226800
C31	C3	0.212770	0.429400	0.051300
C41	C4	0.287890	0.290600	0.193200
C51	C5	0.260600	0.452700	0.018100
C61	C6	0.298270	0.380700	0.086900
C71	C7	0.349740	0.394400	0.039400
C81	C8	0.150370	0.295300	0.184000
H11	H1	0.268800	0.521900	0.937400
H21	H2	0.189500	0.489600	0.004200
H31	H3	0.233600	0.211700	0.298900
H41	H4	0.314800	0.233200	0.240500
H51	H5	0.099000	0.450900	0.823900
H61	H6	0.420300	0.531300	0.877400
Zn31	Zn3	0.950460	0.822000	0.404050
Zn41	Zn4	0.548350	0.821690	0.412120
P31	P3	0.973370	0.919460	0.695390
P41	P4	0.523360	0.922960	0.698680
O131	O13	0.966620	0.797100	0.594900
O141	O14	0.978290	0.857200	0.837900
O151	O15	0.016380	0.014800	0.671800
O161	O16	0.926060	0.018900	0.686800
O171	O17	0.532620	0.802900	0.598800
O181	O18	0.475250	0.001000	0.673700
O191	O19	0.564490	0.041400	0.688700
O201	O20	0.523430	0.862600	0.840700
O211	O21	0.881790	0.866800	0.380400
O221	O22	0.856450	0.694400	0.235700
O231	O23	0.643450	0.959900	0.565800
O241	O24	0.618030	0.834000	0.384500
C91	C9	0.797810	0.834800	0.345500
C101	C10	0.759930	0.766200	0.273200
C111	C11	0.787230	0.929400	0.448700
C121	C12	0.712110	0.790600	0.306800
C131	C13	0.739400	0.952700	0.481900
C141	C14	0.701730	0.880700	0.413100
C151	C15	0.650260	0.894400	0.460600
C161	C16	0.849630	0.795300	0.316000
H71	H7	0.731200	0.021900	0.562600
H81	H8	0.810500	0.989600	0.495800
H91	H9	0.766400	0.711700	0.201100
H101	H10	0.685200	0.733200	0.259500
H111	H11	0.901000	0.950900	0.676100
H121	H12	0.579700	0.031300	0.622600
Zn51	Zn5	0.950460	0.678000	0.904050
Zn61	Zn6	0.548350	0.678310	0.912120
P51	P5	0.973370	0.580540	0.195390
P61	P6	0.523360	0.577040	0.198680
O251	O25	0.966620	0.702900	0.094900
O261	O26	0.978290	0.642800	0.337900
O271	O27	0.016380	0.485200	0.171800
O281	O28	0.926060	0.481100	0.186800
O291	O29	0.532620	0.697100	0.098800
O301	O30	0.475250	0.499000	0.173700
O311	O31	0.564490	0.458600	0.188700
O321	O32	0.523430	0.637400	0.340700
O331	O33	0.881790	0.633200	0.880400
O341	O34	0.856450	0.805600	0.735700
O351	O35	0.643450	0.540100	0.065800
O361	O36	0.618030	0.666000	0.884500
C171	C17	0.797810	0.665200	0.845500
C181	C18	0.759930	0.733800	0.773200
C191	C19	0.787230	0.570600	0.948700
C201	C20	0.712110	0.709400	0.806800
C211	C21	0.739400	0.547300	0.981900
C221	C22	0.701730	0.619300	0.913100
C231	C23	0.650260	0.605600	0.960600
C241	C24	0.849630	0.704700	0.816000
H131	H13	0.731200	0.478100	0.062600
H141	H14	0.810500	0.510400	0.995800
H151	H15	0.766400	0.788300	0.701100
H161	H16	0.685200	0.766800	0.759500
H171	H17	0.901000	0.549100	0.176100
H181	H18	0.579700	0.468700	0.122600
Zn71	Zn7	0.049540	0.178000	0.595950
Zn81	Zn8	0.451650	0.178310	0.587880
P71	P7	0.026630	0.080540	0.304610
P81	P8	0.476640	0.077040	0.301320
O371	O37	0.033380	0.202900	0.405100
O381	O38	0.021710	0.142800	0.162100
O391	O39	0.983620	0.985200	0.328200
O401	O40	0.073940	0.981100	0.313200
O411	O41	0.467380	0.197100	0.401200
O421	O42	0.524750	0.999000	0.326300
O431	O43	0.435510	0.958600	0.311300
O441	O44	0.476570	0.137400	0.159300
O451	O45	0.118210	0.133200	0.619600
O461	O46	0.143550	0.305600	0.764300
O471	O47	0.356550	0.040100	0.434200
O481	O48	0.381970	0.166000	0.615500
C251	C25	0.202190	0.165200	0.654500
C261	C26	0.240070	0.233800	0.726800
C271	C27	0.212770	0.070600	0.551300
C281	C28	0.287890	0.209400	0.693200
C291	C29	0.260600	0.047300	0.518100
C301	C30	0.298270	0.119300	0.586900
C311	C31	0.349740	0.105600	0.539400
C321	C32	0.150370	0.204700	0.684000
H191	H19	0.268800	0.978100	0.437400
H201	H20	0.189500	0.010400	0.504200
H211	H21	0.233600	0.288300	0.798900
H221	H22	0.314800	0.266800	0.740500
H231	H23	0.099000	0.049100	0.323900
H241	H24	0.420300	0.968700	0.377400
