data_ESUMOU_clean_PM
_symmetry_space_group_name_H-M	'P1'
_cell_length_a	6.964300
_cell_length_b	9.972400
_cell_length_c	11.195100
_cell_angle_alpha	90.000000
_cell_angle_beta	90.000000
_cell_angle_gamma	90.000000
_symmetry_Int_Tables_number 1

loop_
_symmetry_equiv_pos_as_xyz
'x,y,z'

loop_
_atom_site_label
_atom_site_type_symbol
_atom_site_fract_x
_atom_site_fract_y
_atom_site_fract_z
Mn11	Mn1	0.125700	0.202690	0.210810
Mn21	Mn2	0.374300	0.797310	0.710810
Mn31	Mn3	0.874300	0.702690	0.289190
Mn41	Mn4	0.625700	0.297310	0.789190
H11	H1	0.459000	0.900000	0.199000
H21	H2	0.348000	0.909000	0.074000
H31	H3	0.619000	0.126000	0.077000
H41	H4	0.472000	0.088000	0.989000
H51	H5	0.041000	0.100000	0.699000
H61	H6	0.152000	0.091000	0.574000
H71	H7	0.881000	0.874000	0.577000
H81	H8	0.028000	0.912000	0.489000
H91	H9	0.541000	0.400000	0.301000
H101	H10	0.652000	0.409000	0.426000
H111	H11	0.381000	0.626000	0.423000
H121	H12	0.528000	0.588000	0.511000
H131	H13	0.959000	0.600000	0.801000
H141	H14	0.848000	0.591000	0.926000
H151	H15	0.119000	0.374000	0.923000
H161	H16	0.972000	0.412000	0.011000
C11	C1	0.171100	0.903500	0.220800
C21	C2	0.355200	0.939300	0.155600
C31	C3	0.493700	0.134500	0.064700
C41	C4	0.448300	0.282000	0.053200
C51	C5	0.328900	0.096500	0.720800
C61	C6	0.144800	0.060700	0.655600
C71	C7	0.006300	0.865500	0.564700
C81	C8	0.051700	0.718000	0.553200
C91	C9	0.828900	0.403500	0.279200
C101	C10	0.644800	0.439300	0.344400
C111	C11	0.506300	0.634500	0.435300
C121	C12	0.551700	0.782000	0.446800
C131	C13	0.671100	0.596500	0.779200
C141	C14	0.855200	0.560700	0.844400
C151	C15	0.993700	0.365500	0.935300
C161	C16	0.948300	0.218000	0.946800
O11	O1	0.063300	0.992300	0.258300
O21	O2	0.337100	0.335600	0.126600
O31	O3	0.380900	0.080800	0.159020
O41	O4	0.142100	0.778800	0.231700
O51	O5	0.528100	0.345000	0.969500
O61	O6	0.436700	0.007700	0.758300
O71	O7	0.162900	0.664400	0.626600
O81	O8	0.119100	0.919200	0.659020
O91	O9	0.357900	0.221200	0.731700
O101	O10	0.971900	0.655000	0.469500
O111	O11	0.936700	0.492300	0.241700
O121	O12	0.662900	0.835600	0.373400
O131	O13	0.619100	0.580800	0.340980
O141	O14	0.857900	0.278800	0.268300
O151	O15	0.471900	0.845000	0.530500
O161	O16	0.563300	0.507700	0.741700
O171	O17	0.837100	0.164400	0.873400
O181	O18	0.880900	0.419200	0.840980
O191	O19	0.642100	0.721200	0.768300
O201	O20	0.028100	0.155000	0.030500
