data_ESURER04_clean_PM
_symmetry_space_group_name_H-M	'P1'
_cell_length_a	17.518000
_cell_length_b	13.309000
_cell_length_c	11.181000
_cell_angle_alpha	90.000000
_cell_angle_beta	95.873000
_cell_angle_gamma	90.000000
_symmetry_Int_Tables_number 1

loop_
_symmetry_equiv_pos_as_xyz
'x,y,z'

loop_
_atom_site_label
_atom_site_type_symbol
_atom_site_fract_x
_atom_site_fract_y
_atom_site_fract_z
Co11	Co1	0.919290	0.941880	0.998510
C11	C1	0.633900	0.718800	0.170200
C21	C2	0.697200	0.790800	0.219300
C31	C3	0.749800	0.828300	0.147300
H11	H1	0.746500	0.812400	0.065900
C41	C4	0.808400	0.891200	0.199600
C51	C5	0.811000	0.913500	0.325200
C61	C6	0.757600	0.877000	0.398500
H21	H2	0.759600	0.893400	0.479600
C71	C7	0.701700	0.815100	0.343200
H31	H3	0.665400	0.788100	0.389100
N11	N1	0.873000	0.974100	0.353100
N21	N2	0.907300	0.986000	0.251000
N31	N3	0.870000	0.938800	0.160200
O11	O1	0.582300	0.701900	0.236100
O21	O2	0.636900	0.683000	0.063400
O31	O3	0.978100	0.076400	0.064500
H41	H4	0.951000	0.130000	0.061000
Co21	Co2	0.419290	0.441880	0.998510
C81	C8	0.133900	0.218800	0.170200
C91	C9	0.197200	0.290800	0.219300
C101	C10	0.249800	0.328300	0.147300
H51	H5	0.246500	0.312400	0.065900
C111	C11	0.308400	0.391200	0.199600
C121	C12	0.311000	0.413500	0.325200
C131	C13	0.257600	0.377000	0.398500
H61	H6	0.259600	0.393400	0.479600
C141	C14	0.201700	0.315100	0.343200
H71	H7	0.165400	0.288100	0.389100
N41	N4	0.373000	0.474100	0.353100
N51	N5	0.407300	0.486000	0.251000
N61	N6	0.370000	0.438800	0.160200
O41	O4	0.082300	0.201900	0.236100
O51	O5	0.136900	0.183000	0.063400
O61	O6	0.478100	0.576400	0.064500
H81	H8	0.451000	0.630000	0.061000
Co31	Co3	0.080710	0.941880	0.501490
C151	C15	0.366100	0.718800	0.329800
C161	C16	0.302800	0.790800	0.280700
C171	C17	0.250200	0.828300	0.352700
H91	H9	0.253500	0.812400	0.434100
C181	C18	0.191600	0.891200	0.300400
C191	C19	0.189000	0.913500	0.174800
C201	C20	0.242400	0.877000	0.101500
H101	H10	0.240400	0.893400	0.020400
C211	C21	0.298300	0.815100	0.156800
H111	H11	0.334600	0.788100	0.110900
N71	N7	0.127000	0.974100	0.146900
N81	N8	0.092700	0.986000	0.249000
N91	N9	0.130000	0.938800	0.339800
O71	O7	0.417700	0.701900	0.263900
O81	O8	0.363100	0.683000	0.436600
O91	O9	0.021900	0.076400	0.435500
H121	H12	0.049000	0.130000	0.439000
Co41	Co4	0.580710	0.441880	0.501490
C221	C22	0.866100	0.218800	0.329800
C231	C23	0.802800	0.290800	0.280700
C241	C24	0.750200	0.328300	0.352700
H131	H13	0.753500	0.312400	0.434100
C251	C25	0.691600	0.391200	0.300400
C261	C26	0.689000	0.413500	0.174800
C271	C27	0.742400	0.377000	0.101500
H141	H14	0.740400	0.393400	0.020400
C281	C28	0.798300	0.315100	0.156800
H151	H15	0.834600	0.288100	0.110900
N101	N10	0.627000	0.474100	0.146900
N111	N11	0.592700	0.486000	0.249000
N121	N12	0.630000	0.438800	0.339800
O101	O10	0.917700	0.201900	0.263900
O111	O11	0.863100	0.183000	0.436600
O121	O12	0.521900	0.576400	0.435500
H161	H16	0.549000	0.630000	0.439000
Co51	Co5	0.080710	0.058120	0.001490
C291	C29	0.366100	0.281200	0.829800
C301	C30	0.302800	0.209200	0.780700
C311	C31	0.250200	0.171700	0.852700
H171	H17	0.253500	0.187600	0.934100
C321	C32	0.191600	0.108800	0.800400
C331	C33	0.189000	0.086500	0.674800
C341	C34	0.242400	0.123000	0.601500
H181	H18	0.240400	0.106600	0.520400
C351	C35	0.298300	0.184900	0.656800
H191	H19	0.334600	0.211900	0.610900
N131	N13	0.127000	0.025900	0.646900
N141	N14	0.092700	0.014000	0.749000
N151	N15	0.130000	0.061200	0.839800
O131	O13	0.417700	0.298100	0.763900
O141	O14	0.363100	0.317000	0.936600
O151	O15	0.021900	0.923600	0.935500
H201	H20	0.049000	0.870000	0.939000
Co61	Co6	0.580710	0.558120	0.001490
C361	C36	0.866100	0.781200	0.829800
C371	C37	0.802800	0.709200	0.780700
C381	C38	0.750200	0.671700	0.852700
H211	H21	0.753500	0.687600	0.934100
C391	C39	0.691600	0.608800	0.800400
C401	C40	0.689000	0.586500	0.674800
C411	C41	0.742400	0.623000	0.601500
H221	H22	0.740400	0.606600	0.520400
C421	C42	0.798300	0.684900	0.656800
H231	H23	0.834600	0.711900	0.610900
N161	N16	0.627000	0.525900	0.646900
N171	N17	0.592700	0.514000	0.749000
N181	N18	0.630000	0.561200	0.839800
O161	O16	0.917700	0.798100	0.763900
O171	O17	0.863100	0.817000	0.936600
O181	O18	0.521900	0.423600	0.935500
H241	H24	0.549000	0.370000	0.939000
Co71	Co7	0.919290	0.058120	0.498510
C431	C43	0.633900	0.281200	0.670200
C441	C44	0.697200	0.209200	0.719300
C451	C45	0.749800	0.171700	0.647300
H251	H25	0.746500	0.187600	0.565900
C461	C46	0.808400	0.108800	0.699600
C471	C47	0.811000	0.086500	0.825200
C481	C48	0.757600	0.123000	0.898500
H261	H26	0.759600	0.106600	0.979600
C491	C49	0.701700	0.184900	0.843200
H271	H27	0.665400	0.211900	0.889100
N191	N19	0.873000	0.025900	0.853100
N201	N20	0.907300	0.014000	0.751000
N211	N21	0.870000	0.061200	0.660200
O191	O19	0.582300	0.298100	0.736100
O201	O20	0.636900	0.317000	0.563400
O211	O21	0.978100	0.923600	0.564500
H281	H28	0.951000	0.870000	0.561000
Co81	Co8	0.419290	0.558120	0.498510
C501	C50	0.133900	0.781200	0.670200
C511	C51	0.197200	0.709200	0.719300
C521	C52	0.249800	0.671700	0.647300
H291	H29	0.246500	0.687600	0.565900
C531	C53	0.308400	0.608800	0.699600
C541	C54	0.311000	0.586500	0.825200
C551	C55	0.257600	0.623000	0.898500
H301	H30	0.259600	0.606600	0.979600
C561	C56	0.201700	0.684900	0.843200
H311	H31	0.165400	0.711900	0.889100
N221	N22	0.373000	0.525900	0.853100
N231	N23	0.407300	0.514000	0.751000
N241	N24	0.370000	0.561200	0.660200
O221	O22	0.082300	0.798100	0.736100
O231	O23	0.136900	0.817000	0.563400
O241	O24	0.478100	0.423600	0.564500
H321	H32	0.451000	0.370000	0.561000
Co91	Co9	0.000000	0.091340	0.250000
Co101	Co10	0.500000	0.591340	0.250000
Co111	Co11	0.000000	0.908660	0.750000
Co121	Co12	0.500000	0.408660	0.750000
