data_ESUVAR02_clean_PM
_symmetry_space_group_name_H-M	'P1'
_cell_length_a	10.254100
_cell_length_b	10.865700
_cell_length_c	10.986000
_cell_angle_alpha	83.309000
_cell_angle_beta	91.740000
_cell_angle_gamma	61.657000
_symmetry_Int_Tables_number 1

loop_
_symmetry_equiv_pos_as_xyz
'x,y,z'

loop_
_atom_site_label
_atom_site_type_symbol
_atom_site_fract_x
_atom_site_fract_y
_atom_site_fract_z
Co11	Co1	0.098200	0.883100	0.256790
Co21	Co2	0.953500	0.876700	0.997920
Co31	Co3	0.834000	0.042600	0.467980
C11	C1	0.679000	0.938700	0.283500
C21	C2	0.689000	0.917100	0.160200
C31	C3	0.603000	0.869400	0.102200
H11	H1	0.613400	0.852600	0.021000
C41	C4	0.503000	0.847800	0.169100
H21	H2	0.439700	0.820300	0.132500
C51	C5	0.496000	0.867600	0.293500
C61	C6	0.581000	0.913700	0.351800
H31	H3	0.572700	0.927700	0.433800
C71	C7	0.395000	0.833000	0.364500
C81	C8	0.102900	0.269600	0.216800
C91	C9	0.117000	0.234800	0.344300
C101	C10	0.118000	0.326000	0.424200
H41	H4	0.126900	0.302500	0.509300
C111	C11	0.104000	0.453200	0.369000
H51	H5	0.104700	0.517000	0.418600
C121	C12	0.091000	0.488700	0.240900
C131	C13	0.089800	0.397400	0.162500
H61	H6	0.080800	0.420900	0.077400
C141	C14	0.077000	0.627600	0.189900
N11	N1	0.780000	0.978400	0.315800
N21	N2	0.848000	0.984700	0.215700
N31	N3	0.796000	0.946800	0.121900
N41	N4	0.105700	0.159400	0.168200
N51	N5	0.120400	0.065300	0.264200
N61	N6	0.127700	0.105300	0.373300
O11	O1	0.111200	0.908000	0.074800
H71	H7	0.214400	0.870200	0.058800
O21	O2	0.054000	0.890800	0.430800
H81	H8	0.119800	0.796300	0.475000
O31	O3	0.374000	0.862600	0.475500
O41	O4	0.326000	0.775000	0.314400
O51	O5	0.037000	0.669600	0.073800
O61	O6	0.086000	0.698800	0.265400
Co41	Co4	0.901800	0.116900	0.743210
Co51	Co5	0.046500	0.123300	0.002080
Co61	Co6	0.166000	0.957400	0.532020
C151	C15	0.321000	0.061300	0.716500
C161	C16	0.311000	0.082900	0.839800
C171	C17	0.397000	0.130600	0.897800
H91	H9	0.386600	0.147400	0.979000
C181	C18	0.497000	0.152200	0.830900
H101	H10	0.560300	0.179700	0.867500
C191	C19	0.504000	0.132400	0.706500
C201	C20	0.419000	0.086300	0.648200
H111	H11	0.427300	0.072300	0.566200
C211	C21	0.605000	0.167000	0.635500
C221	C22	0.897100	0.730400	0.783200
C231	C23	0.883000	0.765200	0.655700
C241	C24	0.882000	0.674000	0.575800
H121	H12	0.873100	0.697500	0.490700
C251	C25	0.896000	0.546800	0.631000
H131	H13	0.895300	0.483000	0.581400
C261	C26	0.909000	0.511300	0.759100
C271	C27	0.910200	0.602600	0.837500
H141	H14	0.919200	0.579100	0.922600
C281	C28	0.923000	0.372400	0.810100
N71	N7	0.220000	0.021600	0.684200
N81	N8	0.152000	0.015300	0.784300
N91	N9	0.204000	0.053200	0.878100
N101	N10	0.894300	0.840600	0.831800
N111	N11	0.879600	0.934700	0.735800
N121	N12	0.872300	0.894700	0.626700
O71	O7	0.888800	0.092000	0.925200
H151	H15	0.785600	0.129800	0.941200
O81	O8	0.946000	0.109200	0.569200
H161	H16	0.880200	0.203700	0.525000
O91	O9	0.626000	0.137400	0.524500
O101	O10	0.674000	0.225000	0.685600
O111	O11	0.963000	0.330400	0.926200
O121	O12	0.914000	0.301200	0.734600
