data_ETEJOD01_clean_PM
_symmetry_space_group_name_H-M	'P1'
_cell_length_a	10.419500
_cell_length_b	11.174300
_cell_length_c	12.569000
_cell_angle_alpha	102.198000
_cell_angle_beta	108.537000
_cell_angle_gamma	98.944000
_symmetry_Int_Tables_number 1

loop_
_symmetry_equiv_pos_as_xyz
'x,y,z'

loop_
_atom_site_label
_atom_site_type_symbol
_atom_site_fract_x
_atom_site_fract_y
_atom_site_fract_z
Nd11	Nd1	0.398290	0.955600	0.319270
Nd21	Nd2	0.601710	0.044400	0.680730
H11	H1	0.568700	0.373600	0.706900
H21	H2	0.239100	0.102200	0.747400
H31	H3	0.494300	0.357700	0.335100
H41	H4	0.101400	0.938600	0.365100
H51	H5	0.431300	0.626400	0.293100
H61	H6	0.760900	0.897800	0.252600
H71	H7	0.505700	0.642300	0.664900
H81	H8	0.898600	0.061400	0.634900
C11	C1	0.545600	0.251400	0.506100
C21	C2	0.524900	0.381700	0.505700
C31	C3	0.496300	0.414800	0.401600
C41	C4	0.529200	0.468500	0.604900
C51	C5	0.138800	0.517300	0.011000
C61	C6	0.956500	0.593100	0.063600
C71	C7	0.095800	0.611000	0.074400
C81	C8	0.200100	0.730800	0.153400
C91	C9	0.297400	0.033800	0.572900
C101	C10	0.144300	0.015700	0.536200
C111	C11	0.082400	0.052100	0.618400
C121	C12	0.060500	0.963600	0.419200
C131	C13	0.454400	0.748600	0.493900
C141	C14	0.475100	0.618300	0.494300
C151	C15	0.503700	0.585200	0.598400
C161	C16	0.470800	0.531500	0.395100
C171	C17	0.861200	0.482700	0.989000
C181	C18	0.043500	0.406900	0.936400
C191	C19	0.904200	0.389000	0.925600
C201	C20	0.799900	0.269200	0.846600
C211	C21	0.702600	0.966200	0.427100
C221	C22	0.855700	0.984300	0.463800
C231	C23	0.917600	0.947900	0.381600
C241	C24	0.939500	0.036400	0.580800
O11	O1	0.522300	0.174000	0.409700
O21	O2	0.584500	0.228800	0.604300
O31	O3	0.556500	0.445000	0.712000
O41	O4	0.321200	0.752700	0.153700
O51	O5	0.352800	0.009100	0.497300
O61	O6	0.371000	0.071900	0.681000
O71	O7	0.157000	0.102800	0.734400
O81	O8	0.160700	0.809200	0.217300
O91	O9	0.899100	0.675900	0.117800
O101	O10	0.477700	0.826000	0.590300
O111	O11	0.415500	0.771200	0.395700
O121	O12	0.443500	0.555000	0.288000
O131	O13	0.678800	0.247300	0.846300
O141	O14	0.647200	0.990900	0.502700
O151	O15	0.629000	0.928100	0.319000
O161	O16	0.843000	0.897200	0.265600
O171	O17	0.839300	0.190800	0.782700
O181	O18	0.100900	0.324100	0.882200
