data_ETEJIX01_clean_PM
_symmetry_space_group_name_H-M	'P1'
_cell_length_a	10.434000
_cell_length_b	11.163000
_cell_length_c	12.422000
_cell_angle_alpha	102.676000
_cell_angle_beta	106.313000
_cell_angle_gamma	99.415000
_symmetry_Int_Tables_number 1

loop_
_symmetry_equiv_pos_as_xyz
'x,y,z'

loop_
_atom_site_label
_atom_site_type_symbol
_atom_site_fract_x
_atom_site_fract_y
_atom_site_fract_z
La11	La1	0.403660	0.456940	0.816350
La21	La2	0.596340	0.543060	0.183650
H11	H1	0.110000	0.445800	0.867300
H21	H2	0.488900	0.853200	0.831800
H31	H3	0.890000	0.554200	0.132700
H41	H4	0.511100	0.146800	0.168200
C11	C1	0.140700	0.011500	0.514900
C21	C2	0.074300	0.549400	0.118700
C31	C3	0.957000	0.099500	0.557200
C41	C4	0.065200	0.468200	0.920900
C51	C5	0.095300	0.111400	0.572300
C61	C6	0.528700	0.883100	0.006500
C71	C7	0.294700	0.538600	0.078000
C81	C8	0.143200	0.518800	0.039500
C91	C9	0.198000	0.230100	0.645600
C101	C10	0.555900	0.756400	0.008200
C111	C11	0.493500	0.912500	0.899300
C121	C12	0.534200	0.972500	0.107700
C131	C13	0.859300	0.988500	0.485100
C141	C14	0.925700	0.450600	0.881300
C151	C15	0.043000	0.900500	0.442800
C161	C16	0.934800	0.531800	0.079100
C171	C17	0.904700	0.888600	0.427700
C181	C18	0.471300	0.116900	0.993500
C191	C19	0.705300	0.461400	0.922000
C201	C20	0.856800	0.481200	0.960500
C211	C21	0.802000	0.769900	0.354400
C221	C22	0.444100	0.243600	0.991800
C231	C23	0.506500	0.087500	0.100700
C241	C24	0.465800	0.027500	0.892300
O11	O1	0.142600	0.597800	0.236500
O21	O2	0.538800	0.677100	0.912400
O31	O3	0.596400	0.733500	0.107600
O41	O4	0.321900	0.246000	0.648200
O51	O5	0.160400	0.315800	0.708000
O61	O6	0.568700	0.952700	0.216200
O71	O7	0.355700	0.518700	0.002300
O81	O8	0.362000	0.576300	0.185700
O91	O9	0.899100	0.190600	0.603500
O101	O10	0.857400	0.402200	0.763500
O111	O11	0.461200	0.322900	0.087600
O121	O12	0.403600	0.266500	0.892400
O131	O13	0.678100	0.754000	0.351800
O141	O14	0.839600	0.684200	0.292000
O151	O15	0.431300	0.047300	0.783800
O161	O16	0.644300	0.481300	0.997700
O171	O17	0.638000	0.423700	0.814300
O181	O18	0.100900	0.809400	0.396500
