data_ETEKEU_clean_PM
_symmetry_space_group_name_H-M	'P1'
_cell_length_a	10.550700
_cell_length_b	10.926500
_cell_length_c	12.897800
_cell_angle_alpha	103.184000
_cell_angle_beta	111.147000
_cell_angle_gamma	96.566000
_symmetry_Int_Tables_number 1

loop_
_symmetry_equiv_pos_as_xyz
'x,y,z'

loop_
_atom_site_label
_atom_site_type_symbol
_atom_site_fract_x
_atom_site_fract_y
_atom_site_fract_z
Er11	Er1	0.893540	0.453470	0.317330
Er21	Er2	0.106460	0.546530	0.682670
H11	H1	0.053200	0.870000	0.701600
H21	H2	0.763400	0.596000	0.737200
H31	H3	0.816000	0.088400	0.049400
H41	H4	0.000900	0.852000	0.341300
H51	H5	0.577100	0.444800	0.352600
H61	H6	0.440200	0.160800	0.112700
H71	H7	0.946800	0.130000	0.298400
H81	H8	0.236600	0.404000	0.262800
H91	H9	0.184000	0.911600	0.950600
H101	H10	0.999100	0.148000	0.658700
H111	H11	0.422900	0.555200	0.647400
H121	H12	0.559800	0.839200	0.887300
C11	C1	0.021000	0.967800	0.603100
C21	C2	0.020900	0.877100	0.506400
C31	C3	0.000300	0.911700	0.405300
C41	C4	0.036800	0.743300	0.507600
C51	C5	0.595400	0.547000	0.615800
C61	C6	0.642200	0.513900	0.527300
C71	C7	0.545700	0.467000	0.411800
C81	C8	0.793200	0.527800	0.551600
C91	C9	0.636000	0.013200	0.005900
C101	C10	0.600700	0.110300	0.075300
C111	C11	0.464200	0.095900	0.067600
C121	C12	0.704600	0.230200	0.154300
C131	C13	0.979000	0.032200	0.396900
C141	C14	0.979100	0.122900	0.493600
C151	C15	0.999700	0.088300	0.594700
C161	C16	0.963200	0.256700	0.492400
C171	C17	0.404600	0.453000	0.384200
C181	C18	0.357800	0.486100	0.472700
C191	C19	0.454300	0.533000	0.588200
C201	C20	0.206800	0.472200	0.448400
C211	C21	0.364000	0.986800	0.994100
C221	C22	0.399300	0.889700	0.924700
C231	C23	0.535800	0.904100	0.932400
C241	C24	0.295400	0.769800	0.845700
O11	O1	0.014900	0.662800	0.413400
O21	O2	0.071700	0.719900	0.605100
O31	O3	0.041100	0.943500	0.706000
O41	O4	0.831800	0.503100	0.469900
O51	O5	0.879200	0.564800	0.657200
O61	O6	0.682800	0.593900	0.730300
O71	O7	0.826300	0.249700	0.155200
O81	O8	0.671800	0.312000	0.219900
O91	O9	0.765200	0.019100	0.005800
O101	O10	0.985100	0.337200	0.586600
O111	O11	0.928300	0.280100	0.394900
O121	O12	0.958900	0.056500	0.294000
O131	O13	0.168200	0.496900	0.530100
O141	O14	0.120800	0.435200	0.342800
O151	O15	0.317200	0.406100	0.269700
O161	O16	0.173700	0.750300	0.844800
O171	O17	0.328200	0.688000	0.780100
O181	O18	0.234800	0.980900	0.994200
