data_ETEPID_clean_PM
_symmetry_space_group_name_H-M	'P1'
_cell_length_a	27.994000
_cell_length_b	27.994000
_cell_length_c	19.391000
_cell_angle_alpha	90.000000
_cell_angle_beta	90.000000
_cell_angle_gamma	90.000000
_symmetry_Int_Tables_number 1

loop_
_symmetry_equiv_pos_as_xyz
'x,y,z'

loop_
_atom_site_label
_atom_site_type_symbol
_atom_site_fract_x
_atom_site_fract_y
_atom_site_fract_z
O11	O1	0.990700	0.970100	0.994100
Rb11	Rb1	0.938290	0.034980	0.887240
C11	C1	0.057190	0.087780	0.808600
C21	C2	0.090310	0.160730	0.780600
H11	H1	0.071000	0.190200	0.775800
C31	C3	0.087330	0.130780	0.716300
H21	H2	0.066300	0.145400	0.681100
C41	C4	0.167300	0.155210	0.732800
C51	C5	0.048920	0.050640	0.696400
H31	H3	0.031300	0.066900	0.659600
H41	H4	0.026100	0.031300	0.722700
C61	C6	0.148800	0.112650	0.624400
H51	H5	0.124300	0.123900	0.592100
H61	H6	0.179300	0.127100	0.610900
C71	C7	0.088100	0.971560	0.680000
C81	C8	0.111180	0.032200	0.606400
H71	H7	0.090100	0.046100	0.570600
C91	C9	0.133610	0.984500	0.581300
H81	H8	0.120600	0.974700	0.536000
C101	C10	0.193690	0.041200	0.598300
C111	C11	0.128340	0.901300	0.631300
H91	H9	0.120800	0.890200	0.584600
H101	H10	0.106900	0.884800	0.663400
C121	C12	0.218610	0.965400	0.539900
H111	H11	0.202600	0.950600	0.500300
H121	H12	0.244200	0.985800	0.522100
C131	C13	0.188010	0.865510	0.707000
C141	C14	0.214800	0.884010	0.596300
H131	H13	0.203800	0.867200	0.554300
C151	C15	0.253910	0.855660	0.636200
H141	H14	0.261600	0.825300	0.612500
C161	C16	0.285380	0.929490	0.602700
C171	C17	0.251700	0.813800	0.749500
H151	H15	0.265200	0.786800	0.724000
H161	H16	0.224900	0.801600	0.776900
C181	C18	0.341710	0.874700	0.657600
H171	H17	0.365300	0.895400	0.635300
H181	H18	0.347900	0.841900	0.642400
C191	C19	0.281000	0.833800	0.865300
C201	C20	0.337600	0.837400	0.774100
H191	H19	0.350500	0.807300	0.754900
C211	C21	0.361600	0.850600	0.842100
H201	H20	0.389600	0.830100	0.851800
C221	C22	0.371800	0.913100	0.764900
C231	C23	0.333700	0.840400	0.966200
H211	H21	0.364100	0.823700	0.973100
H221	H22	0.308400	0.821600	0.988400
C241	C24	0.409120	0.925800	0.877800
H231	H23	0.434400	0.903700	0.892000
H241	H24	0.424100	0.952100	0.852300
C251	C25	0.298900	0.908700	0.041300
C261	C26	0.376500	0.920900	0.999700
H251	H25	0.405100	0.902800	0.014300
C271	C27	0.364600	0.957300	0.054000
H261	H26	0.385800	0.955500	0.094900
C281	C28	0.383980	0.990900	0.946200
C291	C29	0.290300	0.969600	0.126200
H271	H27	0.264200	0.949300	0.142500
H281	H28	0.312900	0.973500	0.164400
C301	C30	0.374500	0.052400	0.041000
H291	H29	0.393600	0.052000	0.083400
H301	H30	0.391500	0.072000	0.007100
C311	C31	0.222000	0.025500	0.094700
C321	C32	0.296300	0.064300	0.111500
H311	H31	0.313800	0.066300	0.155800
C331	C33	0.259300	0.103100	0.109900
H321	H32	0.255200	0.119300	0.154900
C341	C34	0.320700	0.117500	0.028900
C351	C35	0.169100	0.097600	0.090900
H331	H33	0.144600	0.073300	0.099500
H341	H34	0.168600	0.119600	0.130200
C361	C36	0.257300	0.180400	0.041000
H351	H35	0.281800	0.200700	0.019700
H361	H36	0.248300	0.195000	0.085000
C371	C37	0.116100	0.112600	0.989800
C381	C38	0.167400	0.174800	0.016900
H371	H37	0.160000	0.195300	0.057000
C391	C39	0.137000	0.186300	0.956600
H381	H38	0.119300	0.216500	0.963500
C401	C40	0.217800	0.193000	0.930400
C411	C41	0.062270	0.145300	0.905000
H391	H39	0.048200	0.177300	0.904800
H401	H40	0.039100	0.123500	0.925900
C421	C42	0.160100	0.209600	0.834300
H411	H41	0.136300	0.235100	0.838800
H421	H42	0.189100	0.223500	0.814100
N11	N1	0.071150	0.130380	0.833600
N21	N2	0.069080	0.085190	0.740400
N31	N3	0.141710	0.172490	0.788700
N41	N4	0.136530	0.128680	0.693700
N51	N5	0.084700	0.018910	0.665300
N61	N6	0.119720	0.951800	0.635300
N71	N7	0.152630	0.063140	0.619100
N81	N8	0.183950	0.995280	0.577100
N91	N9	0.177380	0.888680	0.647500
N101	N10	0.233840	0.847150	0.701700
N111	N11	0.239000	0.929140	0.580700
N121	N12	0.295060	0.888530	0.635000
N131	N13	0.287780	0.832040	0.796100
N141	N14	0.323900	0.844100	0.893200
N151	N15	0.348140	0.877300	0.730900
N161	N16	0.375210	0.900800	0.832400
N171	N17	0.336100	0.889500	0.999300
N181	N18	0.314600	0.945300	0.069400
N191	N19	0.386310	0.944200	0.937000
N201	N20	0.370900	0.001900	0.013800
N211	N21	0.271100	0.016300	0.107900
N221	N22	0.217400	0.072700	0.090400
N231	N23	0.329800	0.074000	0.055400
N241	N24	0.277200	0.135800	0.054000
N251	N25	0.154910	0.124300	0.029700
N261	N26	0.104530	0.145900	0.946000
N271	N27	0.215500	0.179400	0.996100
N281	N28	0.171270	0.190400	0.902500
O21	O2	0.035480	0.056450	0.841000
O31	O3	0.065930	0.950730	0.726430
O41	O4	0.162350	0.862630	0.758200
O51	O5	0.245390	0.826200	0.898000
O61	O6	0.261230	0.886000	0.055800
O71	O7	0.191500	0.998000	0.094400
O81	O8	0.097320	0.072100	0.994700
O91	O9	0.208840	0.163620	0.720900
O101	O10	0.234410	0.059820	0.597000
O111	O11	0.314210	0.962460	0.592600
O121	O12	0.386270	0.949780	0.737000
O131	O13	0.391640	0.025500	0.903000
O141	O14	0.344680	0.139200	0.986400
O151	O15	0.253190	0.202190	0.899000
O161	O16	0.490700	0.470100	0.494100
Rb21	Rb2	0.438290	0.534980	0.387240
C431	C43	0.557190	0.587780	0.308600
C441	C44	0.590310	0.660730	0.280600
H431	H43	0.571000	0.690200	0.275800
C451	C45	0.587330	0.630780	0.216300
H441	H44	0.566300	0.645400	0.181100
C461	C46	0.667300	0.655210	0.232800
C471	C47	0.548920	0.550640	0.196400
H451	H45	0.531300	0.566900	0.159600
H461	H46	0.526100	0.531300	0.222700
C481	C48	0.648800	0.612650	0.124400
H471	H47	0.624300	0.623900	0.092100
H481	H48	0.679300	0.627100	0.110900
C491	C49	0.588100	0.471560	0.180000
C501	C50	0.611180	0.532200	0.106400
H491	H49	0.590100	0.546100	0.070600
C511	C51	0.633610	0.484500	0.081300
H501	H50	0.620600	0.474700	0.036000
C521	C52	0.693690	0.541200	0.098300
C531	C53	0.628340	0.401300	0.131300
H511	H51	0.620800	0.390200	0.084600
H521	H52	0.606900	0.384800	0.163400
C541	C54	0.718610	0.465400	0.039900
H531	H53	0.702600	0.450600	0.000300
H541	H54	0.744200	0.485800	0.022100
C551	C55	0.688010	0.365510	0.207000
C561	C56	0.714800	0.384010	0.096300
H551	H55	0.703800	0.367200	0.054300
C571	C57	0.753910	0.355660	0.136200
H561	H56	0.761600	0.325300	0.112500
C581	C58	0.785380	0.429490	0.102700
C591	C59	0.751700	0.313800	0.249500
H571	H57	0.765200	0.286800	0.224000
H581	H58	0.724900	0.301600	0.276900
C601	C60	0.841710	0.374700	0.157600
H591	H59	0.865300	0.395400	0.135300
H601	H60	0.847900	0.341900	0.142400
C611	C61	0.781000	0.333800	0.365300
C621	C62	0.837600	0.337400	0.274100
H611	H61	0.850500	0.307300	0.254900
C631	C63	0.861600	0.350600	0.342100
H621	H62	0.889600	0.330100	0.351800
C641	C64	0.871800	0.413100	0.264900
C651	C65	0.833700	0.340400	0.466200
H631	H63	0.864100	0.323700	0.473100
H641	H64	0.808400	0.321600	0.488400
C661	C66	0.909120	0.425800	0.377800
H651	H65	0.934400	0.403700	0.392000
H661	H66	0.924100	0.452100	0.352300
C671	C67	0.798900	0.408700	0.541300
C681	C68	0.876500	0.420900	0.499700
H671	H67	0.905100	0.402800	0.514300
C691	C69	0.864600	0.457300	0.554000
H681	H68	0.885800	0.455500	0.594900
C701	C70	0.883980	0.490900	0.446200
C711	C71	0.790300	0.469600	0.626200
H691	H69	0.764200	0.449300	0.642500
H701	H70	0.812900	0.473500	0.664400
C721	C72	0.874500	0.552400	0.541000
H711	H71	0.893600	0.552000	0.583400
H721	H72	0.891500	0.572000	0.507100
C731	C73	0.722000	0.525500	0.594700
C741	C74	0.796300	0.564300	0.611500
H731	H73	0.813800	0.566300	0.655800
C751	C75	0.759300	0.603100	0.609900
H741	H74	0.755200	0.619300	0.654900
C761	C76	0.820700	0.617500	0.528900
C771	C77	0.669100	0.597600	0.590900
H751	H75	0.644600	0.573300	0.599500
H761	H76	0.668600	0.619600	0.630200
C781	C78	0.757300	0.680400	0.541000
H771	H77	0.781800	0.700700	0.519700
H781	H78	0.748300	0.695000	0.585000
C791	C79	0.616100	0.612600	0.489800
C801	C80	0.667400	0.674800	0.516900
H791	H79	0.660000	0.695300	0.557000
C811	C81	0.637000	0.686300	0.456600
H801	H80	0.619300	0.716500	0.463500
C821	C82	0.717800	0.693000	0.430400
C831	C83	0.562270	0.645300	0.405000
H811	H81	0.548200	0.677300	0.404800
H821	H82	0.539100	0.623500	0.425900
C841	C84	0.660100	0.709600	0.334300
H831	H83	0.636300	0.735100	0.338800
H841	H84	0.689100	0.723500	0.314100
N291	N29	0.571150	0.630380	0.333600
N301	N30	0.569080	0.585190	0.240400
N311	N31	0.641710	0.672490	0.288700
N321	N32	0.636530	0.628680	0.193700
N331	N33	0.584700	0.518910	0.165300
N341	N34	0.619720	0.451800	0.135300
N351	N35	0.652630	0.563140	0.119100
N361	N36	0.683950	0.495280	0.077100
N371	N37	0.677380	0.388680	0.147500
N381	N38	0.733840	0.347150	0.201700
N391	N39	0.739000	0.429140	0.080700
N401	N40	0.795060	0.388530	0.135000
N411	N41	0.787780	0.332040	0.296100
N421	N42	0.823900	0.344100	0.393200
N431	N43	0.848140	0.377300	0.230900
N441	N44	0.875210	0.400800	0.332400
N451	N45	0.836100	0.389500	0.499300
N461	N46	0.814600	0.445300	0.569400
N471	N47	0.886310	0.444200	0.437000
N481	N48	0.870900	0.501900	0.513800
N491	N49	0.771100	0.516300	0.607900
N501	N50	0.717400	0.572700	0.590400
N511	N51	0.829800	0.574000	0.555400
N521	N52	0.777200	0.635800	0.554000
N531	N53	0.654910	0.624300	0.529700
N541	N54	0.604530	0.645900	0.446000
N551	N55	0.715500	0.679400	0.496100
N561	N56	0.671270	0.690400	0.402500
O171	O17	0.535480	0.556450	0.341000
O181	O18	0.565930	0.450730	0.226430
O191	O19	0.662350	0.362630	0.258200
O201	O20	0.745390	0.326200	0.398000
O211	O21	0.761230	0.386000	0.555800
O221	O22	0.691500	0.498000	0.594400
O231	O23	0.597320	0.572100	0.494700
O241	O24	0.708840	0.663620	0.220900
O251	O25	0.734410	0.559820	0.097000
O261	O26	0.814210	0.462460	0.092600
O271	O27	0.886270	0.449780	0.237000
O281	O28	0.891640	0.525500	0.403000
O291	O29	0.844680	0.639200	0.486400
O301	O30	0.753190	0.702190	0.399000
O311	O31	0.509300	0.529900	0.494100
Rb31	Rb3	0.561710	0.465020	0.387240
C851	C85	0.442810	0.412220	0.308600
C861	C86	0.409690	0.339270	0.280600
H851	H85	0.429000	0.309800	0.275800
C871	C87	0.412670	0.369220	0.216300
H861	H86	0.433700	0.354600	0.181100
C881	C88	0.332700	0.344790	0.232800
C891	C89	0.451080	0.449360	0.196400
H871	H87	0.468700	0.433100	0.159600
H881	H88	0.473900	0.468700	0.222700
C901	C90	0.351200	0.387350	0.124400
H891	H89	0.375700	0.376100	0.092100
H901	H90	0.320700	0.372900	0.110900
C911	C91	0.411900	0.528440	0.180000
C921	C92	0.388820	0.467800	0.106400
H911	H91	0.409900	0.453900	0.070600
C931	C93	0.366390	0.515500	0.081300
H921	H92	0.379400	0.525300	0.036000
C941	C94	0.306310	0.458800	0.098300
C951	C95	0.371660	0.598700	0.131300
H931	H93	0.379200	0.609800	0.084600
H941	H94	0.393100	0.615200	0.163400
C961	C96	0.281390	0.534600	0.039900
H951	H95	0.297400	0.549400	0.000300
H961	H96	0.255800	0.514200	0.022100
C971	C97	0.311990	0.634490	0.207000
C981	C98	0.285200	0.615990	0.096300
H971	H97	0.296200	0.632800	0.054300
C991	C99	0.246090	0.644340	0.136200
H981	H98	0.238400	0.674700	0.112500
C1001	C100	0.214620	0.570510	0.102700
C1011	C101	0.248300	0.686200	0.249500
H991	H99	0.234800	0.713200	0.224000
H1001	H100	0.275100	0.698400	0.276900
C1021	C102	0.158290	0.625300	0.157600
H1011	H101	0.134700	0.604600	0.135300
H1021	H102	0.152100	0.658100	0.142400
C1031	C103	0.219000	0.666200	0.365300
C1041	C104	0.162400	0.662600	0.274100
H1031	H103	0.149500	0.692700	0.254900
C1051	C105	0.138400	0.649400	0.342100
H1041	H104	0.110400	0.669900	0.351800
C1061	C106	0.128200	0.586900	0.264900
C1071	C107	0.166300	0.659600	0.466200
H1051	H105	0.135900	0.676300	0.473100
H1061	H106	0.191600	0.678400	0.488400
C1081	C108	0.090880	0.574200	0.377800
H1071	H107	0.065600	0.596300	0.392000
H1081	H108	0.075900	0.547900	0.352300
C1091	C109	0.201100	0.591300	0.541300
C1101	C110	0.123500	0.579100	0.499700
H1091	H109	0.094900	0.597200	0.514300
C1111	C111	0.135400	0.542700	0.554000
H1101	H110	0.114200	0.544500	0.594900
C1121	C112	0.116020	0.509100	0.446200
C1131	C113	0.209700	0.530400	0.626200
H1111	H111	0.235800	0.550700	0.642500
H1121	H112	0.187100	0.526500	0.664400
C1141	C114	0.125500	0.447600	0.541000
H1131	H113	0.106400	0.448000	0.583400
H1141	H114	0.108500	0.428000	0.507100
C1151	C115	0.278000	0.474500	0.594700
C1161	C116	0.203700	0.435700	0.611500
H1151	H115	0.186200	0.433700	0.655800
C1171	C117	0.240700	0.396900	0.609900
H1161	H116	0.244800	0.380700	0.654900
C1181	C118	0.179300	0.382500	0.528900
C1191	C119	0.330900	0.402400	0.590900
H1171	H117	0.355400	0.426700	0.599500
H1181	H118	0.331400	0.380400	0.630200
C1201	C120	0.242700	0.319600	0.541000
H1191	H119	0.218200	0.299300	0.519700
H1201	H120	0.251700	0.305000	0.585000
C1211	C121	0.383900	0.387400	0.489800
C1221	C122	0.332600	0.325200	0.516900
H1211	H121	0.340000	0.304700	0.557000
C1231	C123	0.363000	0.313700	0.456600
H1221	H122	0.380700	0.283500	0.463500
C1241	C124	0.282200	0.307000	0.430400
C1251	C125	0.437730	0.354700	0.405000
H1231	H123	0.451800	0.322700	0.404800
H1241	H124	0.460900	0.376500	0.425900
C1261	C126	0.339900	0.290400	0.334300
H1251	H125	0.363700	0.264900	0.338800
H1261	H126	0.310900	0.276500	0.314100
N571	N57	0.428850	0.369620	0.333600
N581	N58	0.430920	0.414810	0.240400
N591	N59	0.358290	0.327510	0.288700
N601	N60	0.363470	0.371320	0.193700
N611	N61	0.415300	0.481090	0.165300
N621	N62	0.380280	0.548200	0.135300
N631	N63	0.347370	0.436860	0.119100
N641	N64	0.316050	0.504720	0.077100
N651	N65	0.322620	0.611320	0.147500
N661	N66	0.266160	0.652850	0.201700
N671	N67	0.261000	0.570860	0.080700
N681	N68	0.204940	0.611470	0.135000
N691	N69	0.212220	0.667960	0.296100
N701	N70	0.176100	0.655900	0.393200
N711	N71	0.151860	0.622700	0.230900
N721	N72	0.124790	0.599200	0.332400
N731	N73	0.163900	0.610500	0.499300
N741	N74	0.185400	0.554700	0.569400
N751	N75	0.113690	0.555800	0.437000
N761	N76	0.129100	0.498100	0.513800
N771	N77	0.228900	0.483700	0.607900
N781	N78	0.282600	0.427300	0.590400
N791	N79	0.170200	0.426000	0.555400
N801	N80	0.222800	0.364200	0.554000
N811	N81	0.345090	0.375700	0.529700
N821	N82	0.395470	0.354100	0.446000
N831	N83	0.284500	0.320600	0.496100
N841	N84	0.328730	0.309600	0.402500
O321	O32	0.464520	0.443550	0.341000
O331	O33	0.434070	0.549270	0.226430
O341	O34	0.337650	0.637370	0.258200
O351	O35	0.254610	0.673800	0.398000
O361	O36	0.238770	0.614000	0.555800
O371	O37	0.308500	0.502000	0.594400
O381	O38	0.402680	0.427900	0.494700
O391	O39	0.291160	0.336380	0.220900
O401	O40	0.265590	0.440180	0.097000
O411	O41	0.185790	0.537540	0.092600
O421	O42	0.113730	0.550220	0.237000
O431	O43	0.108360	0.474500	0.403000
O441	O44	0.155320	0.360800	0.486400
O451	O45	0.246810	0.297810	0.399000
O461	O46	0.009300	0.029900	0.994100
Rb41	Rb4	0.061710	0.965020	0.887240
C1271	C127	0.942810	0.912220	0.808600
C1281	C128	0.909690	0.839270	0.780600
H1271	H127	0.929000	0.809800	0.775800
C1291	C129	0.912670	0.869220	0.716300
H1281	H128	0.933700	0.854600	0.681100
C1301	C130	0.832700	0.844790	0.732800
C1311	C131	0.951080	0.949360	0.696400
H1291	H129	0.968700	0.933100	0.659600
H1301	H130	0.973900	0.968700	0.722700
C1321	C132	0.851200	0.887350	0.624400
H1311	H131	0.875700	0.876100	0.592100
H1321	H132	0.820700	0.872900	0.610900
C1331	C133	0.911900	0.028440	0.680000
C1341	C134	0.888820	0.967800	0.606400
H1331	H133	0.909900	0.953900	0.570600
C1351	C135	0.866390	0.015500	0.581300
H1341	H134	0.879400	0.025300	0.536000
C1361	C136	0.806310	0.958800	0.598300
C1371	C137	0.871660	0.098700	0.631300
H1351	H135	0.879200	0.109800	0.584600
H1361	H136	0.893100	0.115200	0.663400
C1381	C138	0.781390	0.034600	0.539900
H1371	H137	0.797400	0.049400	0.500300
H1381	H138	0.755800	0.014200	0.522100
C1391	C139	0.811990	0.134490	0.707000
C1401	C140	0.785200	0.115990	0.596300
H1391	H139	0.796200	0.132800	0.554300
C1411	C141	0.746090	0.144340	0.636200
H1401	H140	0.738400	0.174700	0.612500
C1421	C142	0.714620	0.070510	0.602700
C1431	C143	0.748300	0.186200	0.749500
H1411	H141	0.734800	0.213200	0.724000
H1421	H142	0.775100	0.198400	0.776900
C1441	C144	0.658290	0.125300	0.657600
H1431	H143	0.634700	0.104600	0.635300
H1441	H144	0.652100	0.158100	0.642400
C1451	C145	0.719000	0.166200	0.865300
C1461	C146	0.662400	0.162600	0.774100
H1451	H145	0.649500	0.192700	0.754900
C1471	C147	0.638400	0.149400	0.842100
H1461	H146	0.610400	0.169900	0.851800
C1481	C148	0.628200	0.086900	0.764900
C1491	C149	0.666300	0.159600	0.966200
H1471	H147	0.635900	0.176300	0.973100
H1481	H148	0.691600	0.178400	0.988400
C1501	C150	0.590880	0.074200	0.877800
H1491	H149	0.565600	0.096300	0.892000
H1501	H150	0.575900	0.047900	0.852300
C1511	C151	0.701100	0.091300	0.041300
C1521	C152	0.623500	0.079100	0.999700
H1511	H151	0.594900	0.097200	0.014300
C1531	C153	0.635400	0.042700	0.054000
H1521	H152	0.614200	0.044500	0.094900
C1541	C154	0.616020	0.009100	0.946200
C1551	C155	0.709700	0.030400	0.126200
H1531	H153	0.735800	0.050700	0.142500
H1541	H154	0.687100	0.026500	0.164400
C1561	C156	0.625500	0.947600	0.041000
H1551	H155	0.606400	0.948000	0.083400
H1561	H156	0.608500	0.928000	0.007100
C1571	C157	0.778000	0.974500	0.094700
C1581	C158	0.703700	0.935700	0.111500
H1571	H157	0.686200	0.933700	0.155800
C1591	C159	0.740700	0.896900	0.109900
H1581	H158	0.744800	0.880700	0.154900
C1601	C160	0.679300	0.882500	0.028900
C1611	C161	0.830900	0.902400	0.090900
H1591	H159	0.855400	0.926700	0.099500
H1601	H160	0.831400	0.880400	0.130200
C1621	C162	0.742700	0.819600	0.041000
H1611	H161	0.718200	0.799300	0.019700
H1621	H162	0.751700	0.805000	0.085000
C1631	C163	0.883900	0.887400	0.989800
C1641	C164	0.832600	0.825200	0.016900
H1631	H163	0.840000	0.804700	0.057000
C1651	C165	0.863000	0.813700	0.956600
H1641	H164	0.880700	0.783500	0.963500
C1661	C166	0.782200	0.807000	0.930400
C1671	C167	0.937730	0.854700	0.905000
H1651	H165	0.951800	0.822700	0.904800
H1661	H166	0.960900	0.876500	0.925900
C1681	C168	0.839900	0.790400	0.834300
H1671	H167	0.863700	0.764900	0.838800
H1681	H168	0.810900	0.776500	0.814100
N851	N85	0.928850	0.869620	0.833600
N861	N86	0.930920	0.914810	0.740400
N871	N87	0.858290	0.827510	0.788700
N881	N88	0.863470	0.871320	0.693700
N891	N89	0.915300	0.981090	0.665300
N901	N90	0.880280	0.048200	0.635300
N911	N91	0.847370	0.936860	0.619100
N921	N92	0.816050	0.004720	0.577100
N931	N93	0.822620	0.111320	0.647500
N941	N94	0.766160	0.152850	0.701700
N951	N95	0.761000	0.070860	0.580700
N961	N96	0.704940	0.111470	0.635000
N971	N97	0.712220	0.167960	0.796100
N981	N98	0.676100	0.155900	0.893200
N991	N99	0.651860	0.122700	0.730900
N1001	N100	0.624790	0.099200	0.832400
N1011	N101	0.663900	0.110500	0.999300
N1021	N102	0.685400	0.054700	0.069400
N1031	N103	0.613690	0.055800	0.937000
N1041	N104	0.629100	0.998100	0.013800
N1051	N105	0.728900	0.983700	0.107900
N1061	N106	0.782600	0.927300	0.090400
N1071	N107	0.670200	0.926000	0.055400
N1081	N108	0.722800	0.864200	0.054000
N1091	N109	0.845090	0.875700	0.029700
N1101	N110	0.895470	0.854100	0.946000
N1111	N111	0.784500	0.820600	0.996100
N1121	N112	0.828730	0.809600	0.902500
O471	O47	0.964520	0.943550	0.841000
O481	O48	0.934070	0.049270	0.726430
O491	O49	0.837650	0.137370	0.758200
O501	O50	0.754610	0.173800	0.898000
O511	O51	0.738770	0.114000	0.055800
O521	O52	0.808500	0.002000	0.094400
O531	O53	0.902680	0.927900	0.994700
O541	O54	0.791160	0.836380	0.720900
O551	O55	0.765590	0.940180	0.597000
O561	O56	0.685790	0.037540	0.592600
O571	O57	0.613730	0.050220	0.737000
O581	O58	0.608360	0.974500	0.903000
O591	O59	0.655320	0.860800	0.986400
O601	O60	0.746810	0.797810	0.899000
O611	O61	0.029900	0.490700	0.244100
Rb51	Rb5	0.965020	0.438290	0.137240
C1691	C169	0.912220	0.557190	0.058600
C1701	C170	0.839270	0.590310	0.030600
H1691	H169	0.809800	0.571000	0.025800
C1711	C171	0.869220	0.587330	0.966300
H1701	H170	0.854600	0.566300	0.931100
C1721	C172	0.844790	0.667300	0.982800
C1731	C173	0.949360	0.548920	0.946400
H1711	H171	0.933100	0.531300	0.909600
H1721	H172	0.968700	0.526100	0.972700
C1741	C174	0.887350	0.648800	0.874400
H1731	H173	0.876100	0.624300	0.842100
H1741	H174	0.872900	0.679300	0.860900
C1751	C175	0.028440	0.588100	0.930000
C1761	C176	0.967800	0.611180	0.856400
H1751	H175	0.953900	0.590100	0.820600
C1771	C177	0.015500	0.633610	0.831300
H1761	H176	0.025300	0.620600	0.786000
C1781	C178	0.958800	0.693690	0.848300
C1791	C179	0.098700	0.628340	0.881300
H1771	H177	0.109800	0.620800	0.834600
H1781	H178	0.115200	0.606900	0.913400
C1801	C180	0.034600	0.718610	0.789900
H1791	H179	0.049400	0.702600	0.750300
H1801	H180	0.014200	0.744200	0.772100
C1811	C181	0.134490	0.688010	0.957000
C1821	C182	0.115990	0.714800	0.846300
H1811	H181	0.132800	0.703800	0.804300
C1831	C183	0.144340	0.753910	0.886200
H1821	H182	0.174700	0.761600	0.862500
C1841	C184	0.070510	0.785380	0.852700
C1851	C185	0.186200	0.751700	0.999500
H1831	H183	0.213200	0.765200	0.974000
H1841	H184	0.198400	0.724900	0.026900
C1861	C186	0.125300	0.841710	0.907600
H1851	H185	0.104600	0.865300	0.885300
H1861	H186	0.158100	0.847900	0.892400
C1871	C187	0.166200	0.781000	0.115300
C1881	C188	0.162600	0.837600	0.024100
H1871	H187	0.192700	0.850500	0.004900
C1891	C189	0.149400	0.861600	0.092100
H1881	H188	0.169900	0.889600	0.101800
C1901	C190	0.086900	0.871800	0.014900
C1911	C191	0.159600	0.833700	0.216200
H1891	H189	0.176300	0.864100	0.223100
H1901	H190	0.178400	0.808400	0.238400
C1921	C192	0.074200	0.909120	0.127800
H1911	H191	0.096300	0.934400	0.142000
H1921	H192	0.047900	0.924100	0.102300
C1931	C193	0.091300	0.798900	0.291300
C1941	C194	0.079100	0.876500	0.249700
H1931	H193	0.097200	0.905100	0.264300
C1951	C195	0.042700	0.864600	0.304000
H1941	H194	0.044500	0.885800	0.344900
C1961	C196	0.009100	0.883980	0.196200
C1971	C197	0.030400	0.790300	0.376200
H1951	H195	0.050700	0.764200	0.392500
H1961	H196	0.026500	0.812900	0.414400
C1981	C198	0.947600	0.874500	0.291000
H1971	H197	0.948000	0.893600	0.333400
H1981	H198	0.928000	0.891500	0.257100
C1991	C199	0.974500	0.722000	0.344700
C2001	C200	0.935700	0.796300	0.361500
H1991	H199	0.933700	0.813800	0.405800
C2011	C201	0.896900	0.759300	0.359900
H2001	H200	0.880700	0.755200	0.404900
C2021	C202	0.882500	0.820700	0.278900
C2031	C203	0.902400	0.669100	0.340900
H2011	H201	0.926700	0.644600	0.349500
H2021	H202	0.880400	0.668600	0.380200
C2041	C204	0.819600	0.757300	0.291000
H2031	H203	0.799300	0.781800	0.269700
H2041	H204	0.805000	0.748300	0.335000
C2051	C205	0.887400	0.616100	0.239800
C2061	C206	0.825200	0.667400	0.266900
H2051	H205	0.804700	0.660000	0.307000
C2071	C207	0.813700	0.637000	0.206600
H2061	H206	0.783500	0.619300	0.213500
C2081	C208	0.807000	0.717800	0.180400
C2091	C209	0.854700	0.562270	0.155000
H2071	H207	0.822700	0.548200	0.154800
H2081	H208	0.876500	0.539100	0.175900
C2101	C210	0.790400	0.660100	0.084300
H2091	H209	0.764900	0.636300	0.088800
H2101	H210	0.776500	0.689100	0.064100
N1131	N113	0.869620	0.571150	0.083600
N1141	N114	0.914810	0.569080	0.990400
N1151	N115	0.827510	0.641710	0.038700
N1161	N116	0.871320	0.636530	0.943700
N1171	N117	0.981090	0.584700	0.915300
N1181	N118	0.048200	0.619720	0.885300
N1191	N119	0.936860	0.652630	0.869100
N1201	N120	0.004720	0.683950	0.827100
N1211	N121	0.111320	0.677380	0.897500
N1221	N122	0.152850	0.733840	0.951700
N1231	N123	0.070860	0.739000	0.830700
N1241	N124	0.111470	0.795060	0.885000
N1251	N125	0.167960	0.787780	0.046100
N1261	N126	0.155900	0.823900	0.143200
N1271	N127	0.122700	0.848140	0.980900
N1281	N128	0.099200	0.875210	0.082400
N1291	N129	0.110500	0.836100	0.249300
N1301	N130	0.054700	0.814600	0.319400
N1311	N131	0.055800	0.886310	0.187000
N1321	N132	0.998100	0.870900	0.263800
N1331	N133	0.983700	0.771100	0.357900
N1341	N134	0.927300	0.717400	0.340400
N1351	N135	0.926000	0.829800	0.305400
N1361	N136	0.864200	0.777200	0.304000
N1371	N137	0.875700	0.654910	0.279700
N1381	N138	0.854100	0.604530	0.196000
N1391	N139	0.820600	0.715500	0.246100
N1401	N140	0.809600	0.671270	0.152500
O621	O62	0.943550	0.535480	0.091000
O631	O63	0.049270	0.565930	0.976430
O641	O64	0.137370	0.662350	0.008200
O651	O65	0.173800	0.745390	0.148000
O661	O66	0.114000	0.761230	0.305800
O671	O67	0.002000	0.691500	0.344400
O681	O68	0.927900	0.597320	0.244700
O691	O69	0.836380	0.708840	0.970900
O701	O70	0.940180	0.734410	0.847000
O711	O71	0.037540	0.814210	0.842600
O721	O72	0.050220	0.886270	0.987000
O731	O73	0.974500	0.891640	0.153000
O741	O74	0.860800	0.844680	0.236400
O751	O75	0.797810	0.753190	0.149000
O761	O76	0.529900	0.990700	0.744100
Rb61	Rb6	0.465020	0.938290	0.637240
C2111	C211	0.412220	0.057190	0.558600
C2121	C212	0.339270	0.090310	0.530600
H2111	H211	0.309800	0.071000	0.525800
C2131	C213	0.369220	0.087330	0.466300
H2121	H212	0.354600	0.066300	0.431100
C2141	C214	0.344790	0.167300	0.482800
C2151	C215	0.449360	0.048920	0.446400
H2131	H213	0.433100	0.031300	0.409600
H2141	H214	0.468700	0.026100	0.472700
C2161	C216	0.387350	0.148800	0.374400
H2151	H215	0.376100	0.124300	0.342100
H2161	H216	0.372900	0.179300	0.360900
C2171	C217	0.528440	0.088100	0.430000
C2181	C218	0.467800	0.111180	0.356400
H2171	H217	0.453900	0.090100	0.320600
C2191	C219	0.515500	0.133610	0.331300
H2181	H218	0.525300	0.120600	0.286000
C2201	C220	0.458800	0.193690	0.348300
C2211	C221	0.598700	0.128340	0.381300
H2191	H219	0.609800	0.120800	0.334600
H2201	H220	0.615200	0.106900	0.413400
C2221	C222	0.534600	0.218610	0.289900
H2211	H221	0.549400	0.202600	0.250300
H2221	H222	0.514200	0.244200	0.272100
C2231	C223	0.634490	0.188010	0.457000
C2241	C224	0.615990	0.214800	0.346300
H2231	H223	0.632800	0.203800	0.304300
C2251	C225	0.644340	0.253910	0.386200
H2241	H224	0.674700	0.261600	0.362500
C2261	C226	0.570510	0.285380	0.352700
C2271	C227	0.686200	0.251700	0.499500
H2251	H225	0.713200	0.265200	0.474000
H2261	H226	0.698400	0.224900	0.526900
C2281	C228	0.625300	0.341710	0.407600
H2271	H227	0.604600	0.365300	0.385300
H2281	H228	0.658100	0.347900	0.392400
C2291	C229	0.666200	0.281000	0.615300
C2301	C230	0.662600	0.337600	0.524100
H2291	H229	0.692700	0.350500	0.504900
C2311	C231	0.649400	0.361600	0.592100
H2301	H230	0.669900	0.389600	0.601800
C2321	C232	0.586900	0.371800	0.514900
C2331	C233	0.659600	0.333700	0.716200
H2311	H231	0.676300	0.364100	0.723100
H2321	H232	0.678400	0.308400	0.738400
C2341	C234	0.574200	0.409120	0.627800
H2331	H233	0.596300	0.434400	0.642000
H2341	H234	0.547900	0.424100	0.602300
C2351	C235	0.591300	0.298900	0.791300
C2361	C236	0.579100	0.376500	0.749700
H2351	H235	0.597200	0.405100	0.764300
C2371	C237	0.542700	0.364600	0.804000
H2361	H236	0.544500	0.385800	0.844900
C2381	C238	0.509100	0.383980	0.696200
C2391	C239	0.530400	0.290300	0.876200
H2371	H237	0.550700	0.264200	0.892500
H2381	H238	0.526500	0.312900	0.914400
C2401	C240	0.447600	0.374500	0.791000
H2391	H239	0.448000	0.393600	0.833400
H2401	H240	0.428000	0.391500	0.757100
C2411	C241	0.474500	0.222000	0.844700
C2421	C242	0.435700	0.296300	0.861500
H2411	H241	0.433700	0.313800	0.905800
C2431	C243	0.396900	0.259300	0.859900
H2421	H242	0.380700	0.255200	0.904900
C2441	C244	0.382500	0.320700	0.778900
C2451	C245	0.402400	0.169100	0.840900
H2431	H243	0.426700	0.144600	0.849500
H2441	H244	0.380400	0.168600	0.880200
C2461	C246	0.319600	0.257300	0.791000
H2451	H245	0.299300	0.281800	0.769700
H2461	H246	0.305000	0.248300	0.835000
C2471	C247	0.387400	0.116100	0.739800
C2481	C248	0.325200	0.167400	0.766900
H2471	H247	0.304700	0.160000	0.807000
C2491	C249	0.313700	0.137000	0.706600
H2481	H248	0.283500	0.119300	0.713500
C2501	C250	0.307000	0.217800	0.680400
C2511	C251	0.354700	0.062270	0.655000
H2491	H249	0.322700	0.048200	0.654800
H2501	H250	0.376500	0.039100	0.675900
C2521	C252	0.290400	0.160100	0.584300
H2511	H251	0.264900	0.136300	0.588800
H2521	H252	0.276500	0.189100	0.564100
N1411	N141	0.369620	0.071150	0.583600
N1421	N142	0.414810	0.069080	0.490400
N1431	N143	0.327510	0.141710	0.538700
N1441	N144	0.371320	0.136530	0.443700
N1451	N145	0.481090	0.084700	0.415300
N1461	N146	0.548200	0.119720	0.385300
N1471	N147	0.436860	0.152630	0.369100
N1481	N148	0.504720	0.183950	0.327100
N1491	N149	0.611320	0.177380	0.397500
N1501	N150	0.652850	0.233840	0.451700
N1511	N151	0.570860	0.239000	0.330700
N1521	N152	0.611470	0.295060	0.385000
N1531	N153	0.667960	0.287780	0.546100
N1541	N154	0.655900	0.323900	0.643200
N1551	N155	0.622700	0.348140	0.480900
N1561	N156	0.599200	0.375210	0.582400
N1571	N157	0.610500	0.336100	0.749300
N1581	N158	0.554700	0.314600	0.819400
N1591	N159	0.555800	0.386310	0.687000
N1601	N160	0.498100	0.370900	0.763800
N1611	N161	0.483700	0.271100	0.857900
N1621	N162	0.427300	0.217400	0.840400
N1631	N163	0.426000	0.329800	0.805400
N1641	N164	0.364200	0.277200	0.804000
N1651	N165	0.375700	0.154910	0.779700
N1661	N166	0.354100	0.104530	0.696000
N1671	N167	0.320600	0.215500	0.746100
N1681	N168	0.309600	0.171270	0.652500
O771	O77	0.443550	0.035480	0.591000
O781	O78	0.549270	0.065930	0.476430
O791	O79	0.637370	0.162350	0.508200
O801	O80	0.673800	0.245390	0.648000
O811	O81	0.614000	0.261230	0.805800
O821	O82	0.502000	0.191500	0.844400
O831	O83	0.427900	0.097320	0.744700
O841	O84	0.336380	0.208840	0.470900
O851	O85	0.440180	0.234410	0.347000
O861	O86	0.537540	0.314210	0.342600
O871	O87	0.550220	0.386270	0.487000
O881	O88	0.474500	0.391640	0.653000
O891	O89	0.360800	0.344680	0.736400
O901	O90	0.297810	0.253190	0.649000
O911	O91	0.470100	0.009300	0.744100
Rb71	Rb7	0.534980	0.061710	0.637240
C2531	C253	0.587780	0.942810	0.558600
C2541	C254	0.660730	0.909690	0.530600
H2531	H253	0.690200	0.929000	0.525800
C2551	C255	0.630780	0.912670	0.466300
H2541	H254	0.645400	0.933700	0.431100
C2561	C256	0.655210	0.832700	0.482800
C2571	C257	0.550640	0.951080	0.446400
H2551	H255	0.566900	0.968700	0.409600
H2561	H256	0.531300	0.973900	0.472700
C2581	C258	0.612650	0.851200	0.374400
H2571	H257	0.623900	0.875700	0.342100
H2581	H258	0.627100	0.820700	0.360900
C2591	C259	0.471560	0.911900	0.430000
C2601	C260	0.532200	0.888820	0.356400
H2591	H259	0.546100	0.909900	0.320600
C2611	C261	0.484500	0.866390	0.331300
H2601	H260	0.474700	0.879400	0.286000
C2621	C262	0.541200	0.806310	0.348300
C2631	C263	0.401300	0.871660	0.381300
H2611	H261	0.390200	0.879200	0.334600
H2621	H262	0.384800	0.893100	0.413400
C2641	C264	0.465400	0.781390	0.289900
H2631	H263	0.450600	0.797400	0.250300
H2641	H264	0.485800	0.755800	0.272100
C2651	C265	0.365510	0.811990	0.457000
C2661	C266	0.384010	0.785200	0.346300
H2651	H265	0.367200	0.796200	0.304300
C2671	C267	0.355660	0.746090	0.386200
H2661	H266	0.325300	0.738400	0.362500
C2681	C268	0.429490	0.714620	0.352700
C2691	C269	0.313800	0.748300	0.499500
H2671	H267	0.286800	0.734800	0.474000
H2681	H268	0.301600	0.775100	0.526900
C2701	C270	0.374700	0.658290	0.407600
H2691	H269	0.395400	0.634700	0.385300
H2701	H270	0.341900	0.652100	0.392400
C2711	C271	0.333800	0.719000	0.615300
C2721	C272	0.337400	0.662400	0.524100
H2711	H271	0.307300	0.649500	0.504900
C2731	C273	0.350600	0.638400	0.592100
H2721	H272	0.330100	0.610400	0.601800
C2741	C274	0.413100	0.628200	0.514900
C2751	C275	0.340400	0.666300	0.716200
H2731	H273	0.323700	0.635900	0.723100
H2741	H274	0.321600	0.691600	0.738400
C2761	C276	0.425800	0.590880	0.627800
H2751	H275	0.403700	0.565600	0.642000
H2761	H276	0.452100	0.575900	0.602300
C2771	C277	0.408700	0.701100	0.791300
C2781	C278	0.420900	0.623500	0.749700
H2771	H277	0.402800	0.594900	0.764300
C2791	C279	0.457300	0.635400	0.804000
H2781	H278	0.455500	0.614200	0.844900
C2801	C280	0.490900	0.616020	0.696200
C2811	C281	0.469600	0.709700	0.876200
H2791	H279	0.449300	0.735800	0.892500
H2801	H280	0.473500	0.687100	0.914400
C2821	C282	0.552400	0.625500	0.791000
H2811	H281	0.552000	0.606400	0.833400
H2821	H282	0.572000	0.608500	0.757100
C2831	C283	0.525500	0.778000	0.844700
C2841	C284	0.564300	0.703700	0.861500
H2831	H283	0.566300	0.686200	0.905800
C2851	C285	0.603100	0.740700	0.859900
H2841	H284	0.619300	0.744800	0.904900
C2861	C286	0.617500	0.679300	0.778900
C2871	C287	0.597600	0.830900	0.840900
H2851	H285	0.573300	0.855400	0.849500
H2861	H286	0.619600	0.831400	0.880200
C2881	C288	0.680400	0.742700	0.791000
H2871	H287	0.700700	0.718200	0.769700
H2881	H288	0.695000	0.751700	0.835000
C2891	C289	0.612600	0.883900	0.739800
C2901	C290	0.674800	0.832600	0.766900
H2891	H289	0.695300	0.840000	0.807000
C2911	C291	0.686300	0.863000	0.706600
H2901	H290	0.716500	0.880700	0.713500
C2921	C292	0.693000	0.782200	0.680400
C2931	C293	0.645300	0.937730	0.655000
H2911	H291	0.677300	0.951800	0.654800
H2921	H292	0.623500	0.960900	0.675900
C2941	C294	0.709600	0.839900	0.584300
H2931	H293	0.735100	0.863700	0.588800
H2941	H294	0.723500	0.810900	0.564100
N1691	N169	0.630380	0.928850	0.583600
N1701	N170	0.585190	0.930920	0.490400
N1711	N171	0.672490	0.858290	0.538700
N1721	N172	0.628680	0.863470	0.443700
N1731	N173	0.518910	0.915300	0.415300
N1741	N174	0.451800	0.880280	0.385300
N1751	N175	0.563140	0.847370	0.369100
N1761	N176	0.495280	0.816050	0.327100
N1771	N177	0.388680	0.822620	0.397500
N1781	N178	0.347150	0.766160	0.451700
N1791	N179	0.429140	0.761000	0.330700
N1801	N180	0.388530	0.704940	0.385000
N1811	N181	0.332040	0.712220	0.546100
N1821	N182	0.344100	0.676100	0.643200
N1831	N183	0.377300	0.651860	0.480900
N1841	N184	0.400800	0.624790	0.582400
N1851	N185	0.389500	0.663900	0.749300
N1861	N186	0.445300	0.685400	0.819400
N1871	N187	0.444200	0.613690	0.687000
N1881	N188	0.501900	0.629100	0.763800
N1891	N189	0.516300	0.728900	0.857900
N1901	N190	0.572700	0.782600	0.840400
N1911	N191	0.574000	0.670200	0.805400
N1921	N192	0.635800	0.722800	0.804000
N1931	N193	0.624300	0.845090	0.779700
N1941	N194	0.645900	0.895470	0.696000
N1951	N195	0.679400	0.784500	0.746100
N1961	N196	0.690400	0.828730	0.652500
O921	O92	0.556450	0.964520	0.591000
O931	O93	0.450730	0.934070	0.476430
O941	O94	0.362630	0.837650	0.508200
O951	O95	0.326200	0.754610	0.648000
O961	O96	0.386000	0.738770	0.805800
O971	O97	0.498000	0.808500	0.844400
O981	O98	0.572100	0.902680	0.744700
O991	O99	0.663620	0.791160	0.470900
O1001	O100	0.559820	0.765590	0.347000
O1011	O101	0.462460	0.685790	0.342600
O1021	O102	0.449780	0.613730	0.487000
O1031	O103	0.525500	0.608360	0.653000
O1041	O104	0.639200	0.655320	0.736400
O1051	O105	0.702190	0.746810	0.649000
O1061	O106	0.970100	0.509300	0.244100
Rb81	Rb8	0.034980	0.561710	0.137240
C2951	C295	0.087780	0.442810	0.058600
C2961	C296	0.160730	0.409690	0.030600
H2951	H295	0.190200	0.429000	0.025800
C2971	C297	0.130780	0.412670	0.966300
H2961	H296	0.145400	0.433700	0.931100
C2981	C298	0.155210	0.332700	0.982800
C2991	C299	0.050640	0.451080	0.946400
H2971	H297	0.066900	0.468700	0.909600
H2981	H298	0.031300	0.473900	0.972700
C3001	C300	0.112650	0.351200	0.874400
H2991	H299	0.123900	0.375700	0.842100
H3001	H300	0.127100	0.320700	0.860900
C3011	C301	0.971560	0.411900	0.930000
C3021	C302	0.032200	0.388820	0.856400
H3011	H301	0.046100	0.409900	0.820600
C3031	C303	0.984500	0.366390	0.831300
H3021	H302	0.974700	0.379400	0.786000
C3041	C304	0.041200	0.306310	0.848300
C3051	C305	0.901300	0.371660	0.881300
H3031	H303	0.890200	0.379200	0.834600
H3041	H304	0.884800	0.393100	0.913400
C3061	C306	0.965400	0.281390	0.789900
H3051	H305	0.950600	0.297400	0.750300
H3061	H306	0.985800	0.255800	0.772100
C3071	C307	0.865510	0.311990	0.957000
C3081	C308	0.884010	0.285200	0.846300
H3071	H307	0.867200	0.296200	0.804300
C3091	C309	0.855660	0.246090	0.886200
H3081	H308	0.825300	0.238400	0.862500
C3101	C310	0.929490	0.214620	0.852700
C3111	C311	0.813800	0.248300	0.999500
H3091	H309	0.786800	0.234800	0.974000
H3101	H310	0.801600	0.275100	0.026900
C3121	C312	0.874700	0.158290	0.907600
H3111	H311	0.895400	0.134700	0.885300
H3121	H312	0.841900	0.152100	0.892400
C3131	C313	0.833800	0.219000	0.115300
C3141	C314	0.837400	0.162400	0.024100
H3131	H313	0.807300	0.149500	0.004900
C3151	C315	0.850600	0.138400	0.092100
H3141	H314	0.830100	0.110400	0.101800
C3161	C316	0.913100	0.128200	0.014900
C3171	C317	0.840400	0.166300	0.216200
H3151	H315	0.823700	0.135900	0.223100
H3161	H316	0.821600	0.191600	0.238400
C3181	C318	0.925800	0.090880	0.127800
H3171	H317	0.903700	0.065600	0.142000
H3181	H318	0.952100	0.075900	0.102300
C3191	C319	0.908700	0.201100	0.291300
C3201	C320	0.920900	0.123500	0.249700
H3191	H319	0.902800	0.094900	0.264300
C3211	C321	0.957300	0.135400	0.304000
H3201	H320	0.955500	0.114200	0.344900
C3221	C322	0.990900	0.116020	0.196200
C3231	C323	0.969600	0.209700	0.376200
H3211	H321	0.949300	0.235800	0.392500
H3221	H322	0.973500	0.187100	0.414400
C3241	C324	0.052400	0.125500	0.291000
H3231	H323	0.052000	0.106400	0.333400
H3241	H324	0.072000	0.108500	0.257100
C3251	C325	0.025500	0.278000	0.344700
C3261	C326	0.064300	0.203700	0.361500
H3251	H325	0.066300	0.186200	0.405800
C3271	C327	0.103100	0.240700	0.359900
H3261	H326	0.119300	0.244800	0.404900
C3281	C328	0.117500	0.179300	0.278900
C3291	C329	0.097600	0.330900	0.340900
H3271	H327	0.073300	0.355400	0.349500
H3281	H328	0.119600	0.331400	0.380200
C3301	C330	0.180400	0.242700	0.291000
H3291	H329	0.200700	0.218200	0.269700
H3301	H330	0.195000	0.251700	0.335000
C3311	C331	0.112600	0.383900	0.239800
C3321	C332	0.174800	0.332600	0.266900
H3311	H331	0.195300	0.340000	0.307000
C3331	C333	0.186300	0.363000	0.206600
H3321	H332	0.216500	0.380700	0.213500
C3341	C334	0.193000	0.282200	0.180400
C3351	C335	0.145300	0.437730	0.155000
H3331	H333	0.177300	0.451800	0.154800
H3341	H334	0.123500	0.460900	0.175900
C3361	C336	0.209600	0.339900	0.084300
H3351	H335	0.235100	0.363700	0.088800
H3361	H336	0.223500	0.310900	0.064100
N1971	N197	0.130380	0.428850	0.083600
N1981	N198	0.085190	0.430920	0.990400
N1991	N199	0.172490	0.358290	0.038700
N2001	N200	0.128680	0.363470	0.943700
N2011	N201	0.018910	0.415300	0.915300
N2021	N202	0.951800	0.380280	0.885300
N2031	N203	0.063140	0.347370	0.869100
N2041	N204	0.995280	0.316050	0.827100
N2051	N205	0.888680	0.322620	0.897500
N2061	N206	0.847150	0.266160	0.951700
N2071	N207	0.929140	0.261000	0.830700
N2081	N208	0.888530	0.204940	0.885000
N2091	N209	0.832040	0.212220	0.046100
N2101	N210	0.844100	0.176100	0.143200
N2111	N211	0.877300	0.151860	0.980900
N2121	N212	0.900800	0.124790	0.082400
N2131	N213	0.889500	0.163900	0.249300
N2141	N214	0.945300	0.185400	0.319400
N2151	N215	0.944200	0.113690	0.187000
N2161	N216	0.001900	0.129100	0.263800
N2171	N217	0.016300	0.228900	0.357900
N2181	N218	0.072700	0.282600	0.340400
N2191	N219	0.074000	0.170200	0.305400
N2201	N220	0.135800	0.222800	0.304000
N2211	N221	0.124300	0.345090	0.279700
N2221	N222	0.145900	0.395470	0.196000
N2231	N223	0.179400	0.284500	0.246100
N2241	N224	0.190400	0.328730	0.152500
O1071	O107	0.056450	0.464520	0.091000
O1081	O108	0.950730	0.434070	0.976430
O1091	O109	0.862630	0.337650	0.008200
O1101	O110	0.826200	0.254610	0.148000
O1111	O111	0.886000	0.238770	0.305800
O1121	O112	0.998000	0.308500	0.344400
O1131	O113	0.072100	0.402680	0.244700
O1141	O114	0.163620	0.291160	0.970900
O1151	O115	0.059820	0.265590	0.847000
O1161	O116	0.962460	0.185790	0.842600
O1171	O117	0.949780	0.113730	0.987000
O1181	O118	0.025500	0.108360	0.153000
O1191	O119	0.139200	0.155320	0.236400
O1201	O120	0.202190	0.246810	0.149000
