data_ETESIG_clean_PM
_symmetry_space_group_name_H-M	'P1'
_cell_length_a	11.166000
_cell_length_b	17.710000
_cell_length_c	19.669000
_cell_angle_alpha	90.000000
_cell_angle_beta	97.070000
_cell_angle_gamma	90.000000
_symmetry_Int_Tables_number 1

loop_
_symmetry_equiv_pos_as_xyz
'x,y,z'

loop_
_atom_site_label
_atom_site_type_symbol
_atom_site_fract_x
_atom_site_fract_y
_atom_site_fract_z
Cd11	Cd1	0.606050	0.612370	0.558700
Cd21	Cd2	0.564410	0.559270	0.377360
Cd31	Cd3	0.393950	0.112370	0.941300
Cd41	Cd4	0.435590	0.059270	0.122640
Cd51	Cd5	0.393950	0.387630	0.441300
Cd61	Cd6	0.435590	0.440730	0.622640
Cd71	Cd7	0.606050	0.887630	0.058700
Cd81	Cd8	0.564410	0.940730	0.877360
H11	H1	0.356500	0.733800	0.434200
H21	H2	0.167300	0.755200	0.379200
H31	H3	0.141000	0.828000	0.278400
H41	H4	0.302100	0.874400	0.231800
H51	H5	0.756300	0.916600	0.252900
H61	H6	0.938800	0.900900	0.313300
H71	H7	0.962200	0.832400	0.416300
H81	H8	0.798900	0.775400	0.452700
H91	H9	0.862800	0.586900	0.501900
H101	H10	0.059000	0.627500	0.513500
H111	H11	0.990200	0.754300	0.670200
H121	H12	0.795400	0.709100	0.657500
H131	H13	0.227800	0.690700	0.579700
H141	H14	0.206900	0.731300	0.648200
H151	H15	0.155700	0.796500	0.517100
H161	H16	0.129700	0.837000	0.584700
H171	H17	0.365500	0.798400	0.555200
H181	H18	0.314000	0.880800	0.550200
H191	H19	0.307800	0.932900	0.787700
H201	H20	0.223900	0.909800	0.676200
H211	H21	0.518100	0.789500	0.649900
H221	H22	0.592600	0.818900	0.760500
H231	H23	0.643500	0.233800	0.065800
H241	H24	0.832700	0.255200	0.120800
H251	H25	0.859000	0.328000	0.221600
H261	H26	0.697900	0.374400	0.268200
H271	H27	0.243700	0.416600	0.247100
H281	H28	0.061200	0.400900	0.186700
H291	H29	0.037800	0.332400	0.083700
H301	H30	0.201100	0.275400	0.047300
H311	H31	0.137200	0.086900	0.998100
H321	H32	0.941000	0.127500	0.986500
H331	H33	0.009800	0.254300	0.829800
H341	H34	0.204600	0.209100	0.842500
H351	H35	0.772200	0.190700	0.920300
H361	H36	0.793100	0.231300	0.851800
H371	H37	0.844300	0.296500	0.982900
H381	H38	0.870300	0.337000	0.915300
H391	H39	0.634500	0.298400	0.944800
H401	H40	0.686000	0.380800	0.949800
H411	H41	0.692200	0.432900	0.712300
H421	H42	0.776100	0.409800	0.823800
H431	H43	0.481900	0.289500	0.850100
H441	H44	0.407400	0.318900	0.739500
H451	H45	0.643500	0.266200	0.565800
H461	H46	0.832700	0.244800	0.620800
H471	H47	0.859000	0.172000	0.721600
H481	H48	0.697900	0.125600	0.768200
H491	H49	0.243700	0.083400	0.747100
H501	H50	0.061200	0.099100	0.686700
H511	H51	0.037800	0.167600	0.583700
H521	H52	0.201100	0.224600	0.547300
H531	H53	0.137200	0.413100	0.498100
H541	H54	0.941000	0.372500	0.486500
H551	H55	0.009800	0.245700	0.329800
H561	H56	0.204600	0.290900	0.342500
H571	H57	0.772200	0.309300	0.420300
H581	H58	0.793100	0.268700	0.351800
H591	H59	0.844300	0.203500	0.482900
H601	H60	0.870300	0.163000	0.415300
H611	H61	0.634500	0.201600	0.444800
H621	H62	0.686000	0.119200	0.449800
H631	H63	0.692200	0.067100	0.212300
H641	H64	0.776100	0.090200	0.323800
H651	H65	0.481900	0.210500	0.350100
H661	H66	0.407400	0.181100	0.239500
H671	H67	0.356500	0.766200	0.934200
H681	H68	0.167300	0.744800	0.879200
H691	H69	0.141000	0.672000	0.778400
H701	H70	0.302100	0.625600	0.731800
H711	H71	0.756300	0.583400	0.752900
H721	H72	0.938800	0.599100	0.813300
H731	H73	0.962200	0.667600	0.916300
H741	H74	0.798900	0.724600	0.952700
H751	H75	0.862800	0.913100	0.001900
H761	H76	0.059000	0.872500	0.013500
H771	H77	0.990200	0.745700	0.170200
H781	H78	0.795400	0.790900	0.157500
H791	H79	0.227800	0.809300	0.079700
H801	H80	0.206900	0.768700	0.148200
H811	H81	0.155700	0.703500	0.017100
H821	H82	0.129700	0.663000	0.084700
H831	H83	0.365500	0.701600	0.055200
H841	H84	0.314000	0.619200	0.050200
H851	H85	0.307800	0.567100	0.287700
H861	H86	0.223900	0.590200	0.176200
H871	H87	0.518100	0.710500	0.149900
H881	H88	0.592600	0.681100	0.260500
C11	C1	0.585000	0.730200	0.463100
C21	C2	0.566700	0.782400	0.402800
C31	C3	0.450800	0.795600	0.369700
C41	C4	0.346800	0.763300	0.394900
C51	C5	0.234200	0.775400	0.361800
C61	C6	0.218500	0.819100	0.300200
C71	C7	0.314800	0.848000	0.272900
C81	C8	0.435200	0.838600	0.306000
C91	C9	0.538400	0.866200	0.279000
C101	C10	0.653900	0.857100	0.314900
C111	C11	0.762300	0.888700	0.293300
C121	C12	0.871600	0.879400	0.329300
C131	C13	0.886400	0.837500	0.391300
C141	C14	0.788300	0.805100	0.413400
C151	C15	0.668600	0.814700	0.378500
C161	C16	0.524600	0.899500	0.206700
C171	C17	0.888500	0.620300	0.537200
C181	C18	0.007200	0.645200	0.543400
C191	C19	0.048100	0.695700	0.593300
C201	C20	0.966400	0.719500	0.635800
C211	C21	0.848400	0.691900	0.628000
C221	C22	0.176600	0.726300	0.600000
C231	C23	0.183100	0.801700	0.565600
C241	C24	0.312900	0.833500	0.575100
C251	C25	0.351500	0.904800	0.759300
C261	C26	0.299600	0.890700	0.692400
C271	C27	0.363600	0.847500	0.650800
C281	C28	0.473800	0.819600	0.676400
C291	C29	0.517300	0.837900	0.743200
C301	C30	0.415000	0.230200	0.036900
C311	C31	0.433300	0.282400	0.097200
C321	C32	0.549200	0.295600	0.130300
C331	C33	0.653200	0.263300	0.105100
C341	C34	0.765800	0.275400	0.138200
C351	C35	0.781500	0.319100	0.199800
C361	C36	0.685200	0.348000	0.227100
C371	C37	0.564800	0.338600	0.194000
C381	C38	0.461600	0.366200	0.221000
C391	C39	0.346100	0.357100	0.185100
C401	C40	0.237700	0.388700	0.206700
C411	C41	0.128400	0.379400	0.170700
C421	C42	0.113600	0.337500	0.108700
C431	C43	0.211700	0.305100	0.086600
C441	C44	0.331400	0.314700	0.121500
C451	C45	0.475400	0.399500	0.293300
C461	C46	0.111500	0.120300	0.962800
C471	C47	0.992800	0.145200	0.956600
C481	C48	0.951900	0.195700	0.906700
C491	C49	0.033600	0.219500	0.864200
C501	C50	0.151600	0.191900	0.872000
C511	C51	0.823400	0.226300	0.900000
C521	C52	0.816900	0.301700	0.934400
C531	C53	0.687100	0.333500	0.924900
C541	C54	0.648500	0.404800	0.740700
C551	C55	0.700400	0.390700	0.807600
C561	C56	0.636400	0.347500	0.849200
C571	C57	0.526200	0.319600	0.823600
C581	C58	0.482700	0.337900	0.756800
C591	C59	0.415000	0.269800	0.536900
C601	C60	0.433300	0.217600	0.597200
C611	C61	0.549200	0.204400	0.630300
C621	C62	0.653200	0.236700	0.605100
C631	C63	0.765800	0.224600	0.638200
C641	C64	0.781500	0.180900	0.699800
C651	C65	0.685200	0.152000	0.727100
C661	C66	0.564800	0.161400	0.694000
C671	C67	0.461600	0.133800	0.721000
C681	C68	0.346100	0.142900	0.685100
C691	C69	0.237700	0.111300	0.706700
C701	C70	0.128400	0.120600	0.670700
C711	C71	0.113600	0.162500	0.608700
C721	C72	0.211700	0.194900	0.586600
C731	C73	0.331400	0.185300	0.621500
C741	C74	0.475400	0.100500	0.793300
C751	C75	0.111500	0.379700	0.462800
C761	C76	0.992800	0.354800	0.456600
C771	C77	0.951900	0.304300	0.406700
C781	C78	0.033600	0.280500	0.364200
C791	C79	0.151600	0.308100	0.372000
C801	C80	0.823400	0.273700	0.400000
C811	C81	0.816900	0.198300	0.434400
C821	C82	0.687100	0.166500	0.424900
C831	C83	0.648500	0.095200	0.240700
C841	C84	0.700400	0.109300	0.307600
C851	C85	0.636400	0.152500	0.349200
C861	C86	0.526200	0.180400	0.323600
C871	C87	0.482700	0.162100	0.256800
C881	C88	0.585000	0.769800	0.963100
C891	C89	0.566700	0.717600	0.902800
C901	C90	0.450800	0.704400	0.869700
C911	C91	0.346800	0.736700	0.894900
C921	C92	0.234200	0.724600	0.861800
C931	C93	0.218500	0.680900	0.800200
C941	C94	0.314800	0.652000	0.772900
C951	C95	0.435200	0.661400	0.806000
C961	C96	0.538400	0.633800	0.779000
C971	C97	0.653900	0.642900	0.814900
C981	C98	0.762300	0.611300	0.793300
C991	C99	0.871600	0.620600	0.829300
C1001	C100	0.886400	0.662500	0.891300
C1011	C101	0.788300	0.694900	0.913400
C1021	C102	0.668600	0.685300	0.878500
C1031	C103	0.524600	0.600500	0.706700
C1041	C104	0.888500	0.879700	0.037200
C1051	C105	0.007200	0.854800	0.043400
C1061	C106	0.048100	0.804300	0.093300
C1071	C107	0.966400	0.780500	0.135800
C1081	C108	0.848400	0.808100	0.128000
C1091	C109	0.176600	0.773700	0.100000
C1101	C110	0.183100	0.698300	0.065600
C1111	C111	0.312900	0.666500	0.075100
C1121	C112	0.351500	0.595200	0.259300
C1131	C113	0.299600	0.609300	0.192400
C1141	C114	0.363600	0.652500	0.150800
C1151	C115	0.473800	0.680400	0.176400
C1161	C116	0.517300	0.662100	0.243200
S11	S1	0.331050	0.555270	0.483320
S21	S2	0.668950	0.055270	0.016680
S31	S3	0.668950	0.444730	0.516680
S41	S4	0.331050	0.944730	0.983320
N11	N1	0.808800	0.641600	0.579300
N21	N2	0.460600	0.880100	0.784500
N31	N3	0.191200	0.141600	0.920700
N41	N4	0.539400	0.380100	0.715500
N51	N5	0.191200	0.358400	0.420700
N61	N6	0.539400	0.119900	0.215500
N71	N7	0.808800	0.858400	0.079300
N81	N8	0.460600	0.619900	0.284500
O11	O1	0.606100	0.661000	0.449400
O21	O2	0.580500	0.752800	0.522900
O31	O3	0.457000	0.955800	0.193900
O41	O4	0.585700	0.866400	0.166500
O51	O5	0.405300	0.616000	0.519900
O61	O6	0.399900	0.520800	0.429200
O71	O7	0.216800	0.583700	0.451500
O81	O8	0.312900	0.492600	0.531600
O91	O9	0.393900	0.161000	0.050600
O101	O10	0.419500	0.252800	0.977100
O111	O11	0.543000	0.455800	0.306100
O121	O12	0.414300	0.366400	0.333500
O131	O13	0.594700	0.116000	0.980100
O141	O14	0.600100	0.020800	0.070800
O151	O15	0.783200	0.083700	0.048500
O161	O16	0.687100	0.992600	0.968400
O171	O17	0.393900	0.339000	0.550600
O181	O18	0.419500	0.247200	0.477100
O191	O19	0.543000	0.044200	0.806100
O201	O20	0.414300	0.133600	0.833500
O211	O21	0.594700	0.384000	0.480100
O221	O22	0.600100	0.479200	0.570800
O231	O23	0.783200	0.416300	0.548500
O241	O24	0.687100	0.507400	0.468400
O251	O25	0.606100	0.839000	0.949400
O261	O26	0.580500	0.747200	0.022900
O271	O27	0.457000	0.544200	0.693900
O281	O28	0.585700	0.633600	0.666500
O291	O29	0.405300	0.884000	0.019900
O301	O30	0.399900	0.979200	0.929200
O311	O31	0.216800	0.916300	0.951500
O321	O32	0.312900	0.007400	0.031600
