data_ETIXEM_clean_PM
_symmetry_space_group_name_H-M	'P1'
_cell_length_a	15.639000
_cell_length_b	21.426000
_cell_length_c	15.998100
_cell_angle_alpha	90.000000
_cell_angle_beta	94.588700
_cell_angle_gamma	90.000000
_symmetry_Int_Tables_number 1

loop_
_symmetry_equiv_pos_as_xyz
'x,y,z'

loop_
_atom_site_label
_atom_site_type_symbol
_atom_site_fract_x
_atom_site_fract_y
_atom_site_fract_z
Zn11	Zn1	0.807100	0.763320	0.946160
Zn21	Zn2	0.325640	0.256570	0.432240
O11	O1	0.722820	0.713380	0.871960
O21	O2	0.636030	0.694170	0.973520
O31	O3	0.380870	0.326790	0.500540
O41	O4	0.268030	0.341620	0.576030
O51	O5	0.242940	0.192220	0.382020
O61	O6	0.161370	0.182140	0.490290
O71	O7	0.868710	0.810490	0.042200
O81	O8	0.758770	0.825130	0.121020
N11	N1	0.898710	0.775270	0.865200
N21	N2	0.582130	0.748950	0.150040
C11	C1	0.972600	0.803660	0.888320
H11	H1	0.981000	0.819700	0.943700
C21	C2	0.037460	0.810920	0.835650
H21	H2	0.089300	0.831500	0.854300
C31	C3	0.025200	0.787590	0.755030
C41	C4	0.947910	0.759290	0.730360
H31	H3	0.937100	0.743900	0.674800
C51	C5	0.886660	0.753610	0.787280
H41	H4	0.834000	0.733500	0.770200
C61	C6	0.091190	0.788750	0.697890
C71	C7	0.142070	0.785140	0.646560
C81	C8	0.200580	0.779620	0.580750
C91	C9	0.232240	0.712870	0.569000
C101	C10	0.213800	0.661750	0.616900
H51	H5	0.174700	0.665400	0.659100
C111	C11	0.252800	0.605000	0.602800
H61	H6	0.241300	0.569900	0.636400
C121	C12	0.308600	0.599100	0.540000
H71	H7	0.335300	0.560100	0.530900
C131	C13	0.325500	0.650340	0.490300
H81	H8	0.362500	0.646200	0.446400
C141	C14	0.287890	0.707190	0.505300
C151	C15	0.304290	0.769060	0.461010
C161	C16	0.215460	0.795460	0.431300
C171	C17	0.160390	0.800740	0.494950
C181	C18	0.078870	0.824350	0.479100
H91	H9	0.040900	0.826600	0.522500
C191	C19	0.053000	0.844960	0.398600
H101	H10	0.997600	0.862700	0.387000
C201	C20	0.107600	0.839700	0.335500
H111	H11	0.089200	0.853300	0.280500
C211	C21	0.189500	0.814770	0.351300
H121	H12	0.226800	0.811200	0.307500
C221	C22	0.283310	0.818430	0.596520
C231	C23	0.305200	0.855410	0.665500
H131	H13	0.267200	0.859700	0.708500
C241	C24	0.383000	0.886070	0.671100
H141	H14	0.398300	0.912200	0.717900
C251	C25	0.438600	0.879140	0.609300
H151	H15	0.492300	0.900100	0.614100
C261	C26	0.416800	0.841580	0.539600
H161	H16	0.455600	0.836300	0.497500
C271	C27	0.338640	0.812420	0.532850
C281	C28	0.361350	0.763420	0.393700
C291	C29	0.406230	0.759320	0.337100
C301	C30	0.464010	0.754930	0.271430
C311	C31	0.538410	0.720210	0.284280
H171	H17	0.550200	0.697400	0.334800
C321	C32	0.595500	0.719080	0.222650
H181	H18	0.646900	0.695700	0.232700
C331	C33	0.508360	0.781470	0.137490
H191	H19	0.497300	0.802800	0.085700
C341	C34	0.447750	0.785560	0.196050
H201	H20	0.396500	0.808800	0.184500
C351	C35	0.661460	0.685360	0.901920
C361	C36	0.615070	0.637520	0.846680
C371	C37	0.635630	0.628900	0.764630
H211	H21	0.680500	0.652700	0.743800
C381	C38	0.591370	0.585930	0.712850
H221	H22	0.606500	0.580500	0.657000
C391	C39	0.525010	0.550550	0.741680
C401	C40	0.505830	0.559010	0.824580
H231	H23	0.461300	0.535000	0.845800
C411	C41	0.550030	0.601470	0.876320
H241	H24	0.536000	0.606100	0.932700
C421	C42	0.475740	0.504440	0.687970
C431	C43	0.511680	0.474460	0.621760
H251	H25	0.567400	0.486000	0.607700
C441	C44	0.467230	0.428240	0.576410
H261	H26	0.492700	0.408400	0.531500
C451	C45	0.385410	0.410460	0.595860
C461	C46	0.347920	0.442100	0.658870
H271	H27	0.291300	0.431700	0.671300
C471	C47	0.391850	0.488740	0.704010
H281	H28	0.364700	0.510400	0.746400
C481	C48	0.340710	0.355690	0.553610
C491	C49	0.183680	0.167130	0.419470
C501	C50	0.135340	0.115260	0.374420
C511	C51	0.074370	0.081770	0.413420
H291	H29	0.065100	0.090300	0.470300
C521	C52	0.026580	0.035870	0.370300
H301	H30	0.985700	0.012700	0.398300
C531	C53	0.037780	0.023340	0.286500
C541	C54	0.099940	0.056710	0.247680
H311	H31	0.109000	0.048500	0.190700
C551	C55	0.148680	0.101730	0.291290
H321	H32	0.191600	0.123600	0.264300
C561	C56	0.984810	0.975870	0.238900
C571	C57	0.901300	0.963000	0.257400
H331	H33	0.877400	0.985500	0.301100
C581	C58	0.852200	0.918300	0.213600
H341	H34	0.795300	0.910300	0.227700
C591	C59	0.885010	0.885110	0.149660
C601	C60	0.968430	0.897550	0.130180
H351	H35	0.992100	0.875100	0.086300
C611	C61	0.017150	0.942240	0.174230
H361	H36	0.074000	0.950100	0.160000
C621	C62	0.832680	0.836790	0.100660
Zn31	Zn3	0.192900	0.263320	0.553840
Zn41	Zn4	0.674360	0.756570	0.067760
O91	O9	0.277180	0.213380	0.628040
O101	O10	0.363970	0.194170	0.526480
O111	O11	0.619130	0.826790	0.999460
O121	O12	0.731970	0.841620	0.923970
O131	O13	0.757060	0.692220	0.117980
O141	O14	0.838630	0.682140	0.009710
O151	O15	0.131290	0.310490	0.457800
O161	O16	0.241230	0.325130	0.378980
N31	N3	0.101290	0.275270	0.634800
N41	N4	0.417870	0.248950	0.349960
C631	C63	0.027400	0.303660	0.611680
H371	H37	0.019000	0.319700	0.556300
C641	C64	0.962540	0.310920	0.664350
H381	H38	0.910700	0.331500	0.645700
C651	C65	0.974800	0.287590	0.744970
C661	C66	0.052090	0.259290	0.769640
H391	H39	0.062900	0.243900	0.825200
C671	C67	0.113340	0.253610	0.712720
H401	H40	0.166000	0.233500	0.729800
C681	C68	0.908810	0.288750	0.802110
C691	C69	0.857930	0.285140	0.853440
C701	C70	0.799420	0.279620	0.919250
C711	C71	0.767760	0.212870	0.931000
C721	C72	0.786200	0.161750	0.883100
H411	H41	0.825300	0.165400	0.840900
C731	C73	0.747200	0.105000	0.897200
H421	H42	0.758700	0.069900	0.863600
C741	C74	0.691400	0.099100	0.960000
H431	H43	0.664700	0.060100	0.969100
C751	C75	0.674500	0.150340	0.009700
H441	H44	0.637500	0.146200	0.053600
C761	C76	0.712110	0.207190	0.994700
C771	C77	0.695710	0.269060	0.038990
C781	C78	0.784540	0.295460	0.068700
C791	C79	0.839610	0.300740	0.005050
C801	C80	0.921130	0.324350	0.020900
H451	H45	0.959100	0.326600	0.977500
C811	C81	0.947000	0.344960	0.101400
H461	H46	0.002400	0.362700	0.113000
C821	C82	0.892400	0.339700	0.164500
H471	H47	0.910800	0.353300	0.219500
C831	C83	0.810500	0.314770	0.148700
H481	H48	0.773200	0.311200	0.192500
C841	C84	0.716690	0.318430	0.903480
C851	C85	0.694800	0.355410	0.834500
H491	H49	0.732800	0.359700	0.791500
C861	C86	0.617000	0.386070	0.828900
H501	H50	0.601700	0.412200	0.782100
C871	C87	0.561400	0.379140	0.890700
H511	H51	0.507700	0.400100	0.885900
C881	C88	0.583200	0.341580	0.960400
H521	H52	0.544400	0.336300	0.002500
C891	C89	0.661360	0.312420	0.967150
C901	C90	0.638650	0.263420	0.106300
C911	C91	0.593770	0.259320	0.162900
C921	C92	0.535990	0.254930	0.228570
C931	C93	0.461590	0.220210	0.215720
H531	H53	0.449800	0.197400	0.165200
C941	C94	0.404500	0.219080	0.277350
H541	H54	0.353100	0.195700	0.267300
C951	C95	0.491640	0.281470	0.362510
H551	H55	0.502700	0.302800	0.414300
C961	C96	0.552250	0.285560	0.303950
H561	H56	0.603500	0.308800	0.315500
C971	C97	0.338540	0.185360	0.598080
C981	C98	0.384930	0.137520	0.653320
C991	C99	0.364370	0.128900	0.735370
H571	H57	0.319500	0.152700	0.756200
C1001	C100	0.408630	0.085930	0.787150
H581	H58	0.393500	0.080500	0.843000
C1011	C101	0.474990	0.050550	0.758320
C1021	C102	0.494170	0.059010	0.675420
H591	H59	0.538700	0.035000	0.654200
C1031	C103	0.449970	0.101470	0.623680
H601	H60	0.464000	0.106100	0.567300
C1041	C104	0.524260	0.004440	0.812030
C1051	C105	0.488320	0.974460	0.878240
H611	H61	0.432600	0.986000	0.892300
C1061	C106	0.532770	0.928240	0.923590
H621	H62	0.507300	0.908400	0.968500
C1071	C107	0.614590	0.910460	0.904140
C1081	C108	0.652080	0.942100	0.841130
H631	H63	0.708700	0.931700	0.828700
C1091	C109	0.608150	0.988740	0.795990
H641	H64	0.635300	0.010400	0.753600
C1101	C110	0.659290	0.855690	0.946390
C1111	C111	0.816320	0.667130	0.080530
C1121	C112	0.864660	0.615260	0.125580
C1131	C113	0.925630	0.581770	0.086580
H651	H65	0.934900	0.590300	0.029700
C1141	C114	0.973420	0.535870	0.129700
H661	H66	0.014300	0.512700	0.101700
C1151	C115	0.962220	0.523340	0.213500
C1161	C116	0.900060	0.556710	0.252320
H671	H67	0.891000	0.548500	0.309300
C1171	C117	0.851320	0.601730	0.208710
H681	H68	0.808400	0.623600	0.235700
C1181	C118	0.015190	0.475870	0.261100
C1191	C119	0.098700	0.463000	0.242600
H691	H69	0.122600	0.485500	0.198900
C1201	C120	0.147800	0.418300	0.286400
H701	H70	0.204700	0.410300	0.272300
C1211	C121	0.114990	0.385110	0.350340
C1221	C122	0.031570	0.397550	0.369820
H711	H71	0.007900	0.375100	0.413700
C1231	C123	0.982850	0.442240	0.325770
H721	H72	0.926000	0.450100	0.340000
C1241	C124	0.167320	0.336790	0.399340
Zn51	Zn5	0.192900	0.236680	0.053840
Zn61	Zn6	0.674360	0.743430	0.567760
O171	O17	0.277180	0.286620	0.128040
O181	O18	0.363970	0.305830	0.026480
O191	O19	0.619130	0.673210	0.499460
O201	O20	0.731970	0.658380	0.423970
O211	O21	0.757060	0.807780	0.617980
O221	O22	0.838630	0.817860	0.509710
O231	O23	0.131290	0.189510	0.957800
O241	O24	0.241230	0.174870	0.878980
N51	N5	0.101290	0.224730	0.134800
N61	N6	0.417870	0.251050	0.849960
C1251	C125	0.027400	0.196340	0.111680
H731	H73	0.019000	0.180300	0.056300
C1261	C126	0.962540	0.189080	0.164350
H741	H74	0.910700	0.168500	0.145700
C1271	C127	0.974800	0.212410	0.244970
C1281	C128	0.052090	0.240710	0.269640
H751	H75	0.062900	0.256100	0.325200
C1291	C129	0.113340	0.246390	0.212720
H761	H76	0.166000	0.266500	0.229800
C1301	C130	0.908810	0.211250	0.302110
C1311	C131	0.857930	0.214860	0.353440
C1321	C132	0.799420	0.220380	0.419250
C1331	C133	0.767760	0.287130	0.431000
C1341	C134	0.786200	0.338250	0.383100
H771	H77	0.825300	0.334600	0.340900
C1351	C135	0.747200	0.395000	0.397200
H781	H78	0.758700	0.430100	0.363600
C1361	C136	0.691400	0.400900	0.460000
H791	H79	0.664700	0.439900	0.469100
C1371	C137	0.674500	0.349660	0.509700
H801	H80	0.637500	0.353800	0.553600
C1381	C138	0.712110	0.292810	0.494700
C1391	C139	0.695710	0.230940	0.538990
C1401	C140	0.784540	0.204540	0.568700
C1411	C141	0.839610	0.199260	0.505050
C1421	C142	0.921130	0.175650	0.520900
H811	H81	0.959100	0.173400	0.477500
C1431	C143	0.947000	0.155040	0.601400
H821	H82	0.002400	0.137300	0.613000
C1441	C144	0.892400	0.160300	0.664500
H831	H83	0.910800	0.146700	0.719500
C1451	C145	0.810500	0.185230	0.648700
H841	H84	0.773200	0.188800	0.692500
C1461	C146	0.716690	0.181570	0.403480
C1471	C147	0.694800	0.144590	0.334500
H851	H85	0.732800	0.140300	0.291500
C1481	C148	0.617000	0.113930	0.328900
H861	H86	0.601700	0.087800	0.282100
C1491	C149	0.561400	0.120860	0.390700
H871	H87	0.507700	0.099900	0.385900
C1501	C150	0.583200	0.158420	0.460400
H881	H88	0.544400	0.163700	0.502500
C1511	C151	0.661360	0.187580	0.467150
C1521	C152	0.638650	0.236580	0.606300
C1531	C153	0.593770	0.240680	0.662900
C1541	C154	0.535990	0.245070	0.728570
C1551	C155	0.461590	0.279790	0.715720
H891	H89	0.449800	0.302600	0.665200
C1561	C156	0.404500	0.280920	0.777350
H901	H90	0.353100	0.304300	0.767300
C1571	C157	0.491640	0.218530	0.862510
H911	H91	0.502700	0.197200	0.914300
C1581	C158	0.552250	0.214440	0.803950
H921	H92	0.603500	0.191200	0.815500
C1591	C159	0.338540	0.314640	0.098080
C1601	C160	0.384930	0.362480	0.153320
C1611	C161	0.364370	0.371100	0.235370
H931	H93	0.319500	0.347300	0.256200
C1621	C162	0.408630	0.414070	0.287150
H941	H94	0.393500	0.419500	0.343000
C1631	C163	0.474990	0.449450	0.258320
C1641	C164	0.494170	0.440990	0.175420
H951	H95	0.538700	0.465000	0.154200
C1651	C165	0.449970	0.398530	0.123680
H961	H96	0.464000	0.393900	0.067300
C1661	C166	0.524260	0.495560	0.312030
C1671	C167	0.488320	0.525540	0.378240
H971	H97	0.432600	0.514000	0.392300
C1681	C168	0.532770	0.571760	0.423590
H981	H98	0.507300	0.591600	0.468500
C1691	C169	0.614590	0.589540	0.404140
C1701	C170	0.652080	0.557900	0.341130
H991	H99	0.708700	0.568300	0.328700
C1711	C171	0.608150	0.511260	0.295990
H1001	H100	0.635300	0.489600	0.253600
C1721	C172	0.659290	0.644310	0.446390
C1731	C173	0.816320	0.832870	0.580530
C1741	C174	0.864660	0.884740	0.625580
C1751	C175	0.925630	0.918230	0.586580
H1011	H101	0.934900	0.909700	0.529700
C1761	C176	0.973420	0.964130	0.629700
H1021	H102	0.014300	0.987300	0.601700
C1771	C177	0.962220	0.976660	0.713500
C1781	C178	0.900060	0.943290	0.752320
H1031	H103	0.891000	0.951500	0.809300
C1791	C179	0.851320	0.898270	0.708710
H1041	H104	0.808400	0.876400	0.735700
C1801	C180	0.015190	0.024130	0.761100
C1811	C181	0.098700	0.037000	0.742600
H1051	H105	0.122600	0.014500	0.698900
C1821	C182	0.147800	0.081700	0.786400
H1061	H106	0.204700	0.089700	0.772300
C1831	C183	0.114990	0.114890	0.850340
C1841	C184	0.031570	0.102450	0.869820
H1071	H107	0.007900	0.124900	0.913700
C1851	C185	0.982850	0.057760	0.825770
H1081	H108	0.926000	0.049900	0.840000
C1861	C186	0.167320	0.163210	0.899340
Zn71	Zn7	0.807100	0.736680	0.446160
Zn81	Zn8	0.325640	0.243430	0.932240
O251	O25	0.722820	0.786620	0.371960
O261	O26	0.636030	0.805830	0.473520
O271	O27	0.380870	0.173210	0.000540
O281	O28	0.268030	0.158380	0.076030
O291	O29	0.242940	0.307780	0.882020
O301	O30	0.161370	0.317860	0.990290
O311	O31	0.868710	0.689510	0.542200
O321	O32	0.758770	0.674870	0.621020
N71	N7	0.898710	0.724730	0.365200
N81	N8	0.582130	0.751050	0.650040
C1871	C187	0.972600	0.696340	0.388320
H1091	H109	0.981000	0.680300	0.443700
C1881	C188	0.037460	0.689080	0.335650
H1101	H110	0.089300	0.668500	0.354300
C1891	C189	0.025200	0.712410	0.255030
C1901	C190	0.947910	0.740710	0.230360
H1111	H111	0.937100	0.756100	0.174800
C1911	C191	0.886660	0.746390	0.287280
H1121	H112	0.834000	0.766500	0.270200
C1921	C192	0.091190	0.711250	0.197890
C1931	C193	0.142070	0.714860	0.146560
C1941	C194	0.200580	0.720380	0.080750
C1951	C195	0.232240	0.787130	0.069000
C1961	C196	0.213800	0.838250	0.116900
H1131	H113	0.174700	0.834600	0.159100
C1971	C197	0.252800	0.895000	0.102800
H1141	H114	0.241300	0.930100	0.136400
C1981	C198	0.308600	0.900900	0.040000
H1151	H115	0.335300	0.939900	0.030900
C1991	C199	0.325500	0.849660	0.990300
H1161	H116	0.362500	0.853800	0.946400
C2001	C200	0.287890	0.792810	0.005300
C2011	C201	0.304290	0.730940	0.961010
C2021	C202	0.215460	0.704540	0.931300
C2031	C203	0.160390	0.699260	0.994950
C2041	C204	0.078870	0.675650	0.979100
H1171	H117	0.040900	0.673400	0.022500
C2051	C205	0.053000	0.655040	0.898600
H1181	H118	0.997600	0.637300	0.887000
C2061	C206	0.107600	0.660300	0.835500
H1191	H119	0.089200	0.646700	0.780500
C2071	C207	0.189500	0.685230	0.851300
H1201	H120	0.226800	0.688800	0.807500
C2081	C208	0.283310	0.681570	0.096520
C2091	C209	0.305200	0.644590	0.165500
H1211	H121	0.267200	0.640300	0.208500
C2101	C210	0.383000	0.613930	0.171100
H1221	H122	0.398300	0.587800	0.217900
C2111	C211	0.438600	0.620860	0.109300
H1231	H123	0.492300	0.599900	0.114100
C2121	C212	0.416800	0.658420	0.039600
H1241	H124	0.455600	0.663700	0.997500
C2131	C213	0.338640	0.687580	0.032850
C2141	C214	0.361350	0.736580	0.893700
C2151	C215	0.406230	0.740680	0.837100
C2161	C216	0.464010	0.745070	0.771430
C2171	C217	0.538410	0.779790	0.784280
H1251	H125	0.550200	0.802600	0.834800
C2181	C218	0.595500	0.780920	0.722650
H1261	H126	0.646900	0.804300	0.732700
C2191	C219	0.508360	0.718530	0.637490
H1271	H127	0.497300	0.697200	0.585700
C2201	C220	0.447750	0.714440	0.696050
H1281	H128	0.396500	0.691200	0.684500
C2211	C221	0.661460	0.814640	0.401920
C2221	C222	0.615070	0.862480	0.346680
C2231	C223	0.635630	0.871100	0.264630
H1291	H129	0.680500	0.847300	0.243800
C2241	C224	0.591370	0.914070	0.212850
H1301	H130	0.606500	0.919500	0.157000
C2251	C225	0.525010	0.949450	0.241680
C2261	C226	0.505830	0.940990	0.324580
H1311	H131	0.461300	0.965000	0.345800
C2271	C227	0.550030	0.898530	0.376320
H1321	H132	0.536000	0.893900	0.432700
C2281	C228	0.475740	0.995560	0.187970
C2291	C229	0.511680	0.025540	0.121760
H1331	H133	0.567400	0.014000	0.107700
C2301	C230	0.467230	0.071760	0.076410
H1341	H134	0.492700	0.091600	0.031500
C2311	C231	0.385410	0.089540	0.095860
C2321	C232	0.347920	0.057900	0.158870
H1351	H135	0.291300	0.068300	0.171300
C2331	C233	0.391850	0.011260	0.204010
H1361	H136	0.364700	0.989600	0.246400
C2341	C234	0.340710	0.144310	0.053610
C2351	C235	0.183680	0.332870	0.919470
C2361	C236	0.135340	0.384740	0.874420
C2371	C237	0.074370	0.418230	0.913420
H1371	H137	0.065100	0.409700	0.970300
C2381	C238	0.026580	0.464130	0.870300
H1381	H138	0.985700	0.487300	0.898300
C2391	C239	0.037780	0.476660	0.786500
C2401	C240	0.099940	0.443290	0.747680
H1391	H139	0.109000	0.451500	0.690700
C2411	C241	0.148680	0.398270	0.791290
H1401	H140	0.191600	0.376400	0.764300
C2421	C242	0.984810	0.524130	0.738900
C2431	C243	0.901300	0.537000	0.757400
H1411	H141	0.877400	0.514500	0.801100
C2441	C244	0.852200	0.581700	0.713600
H1421	H142	0.795300	0.589700	0.727700
C2451	C245	0.885010	0.614890	0.649660
C2461	C246	0.968430	0.602450	0.630180
H1431	H143	0.992100	0.624900	0.586300
C2471	C247	0.017150	0.557760	0.674230
H1441	H144	0.074000	0.549900	0.660000
C2481	C248	0.832680	0.663210	0.600660
