data_ETUWOG_clean_PM
_symmetry_space_group_name_H-M	'P1'
_cell_length_a	9.845600
_cell_length_b	12.075300
_cell_length_c	13.003900
_cell_angle_alpha	91.842000
_cell_angle_beta	100.925000
_cell_angle_gamma	101.745000
_symmetry_Int_Tables_number 1

loop_
_symmetry_equiv_pos_as_xyz
'x,y,z'

loop_
_atom_site_label
_atom_site_type_symbol
_atom_site_fract_x
_atom_site_fract_y
_atom_site_fract_z
Co11	Co1	0.462440	0.284290	0.321590
Co21	Co2	0.840190	0.784640	0.821370
Co31	Co3	0.537560	0.715710	0.678410
Co41	Co4	0.159810	0.215360	0.178630
Co51	Co5	0.500000	0.500000	0.500000
Co61	Co6	0.000000	0.000000	0.000000
H11	H1	0.237200	0.649200	0.328100
H21	H2	0.128300	0.773800	0.221000
H31	H3	0.084300	0.553900	0.968500
H41	H4	0.202000	0.438500	0.073900
H51	H5	0.367700	0.273400	0.724200
H61	H6	0.240100	0.151400	0.827200
H71	H7	0.067600	0.927900	0.577800
H81	H8	0.174300	0.059900	0.469800
H91	H9	0.819700	0.595800	0.435600
H101	H10	0.955200	0.305200	0.520500
H111	H11	0.428200	0.807300	0.009900
H121	H12	0.680100	0.073800	0.912900
H131	H13	0.762800	0.350800	0.671900
H141	H14	0.871700	0.226200	0.779000
H151	H15	0.915700	0.446100	0.031500
H161	H16	0.798000	0.561500	0.926100
H171	H17	0.632300	0.726600	0.275800
H181	H18	0.759900	0.848600	0.172800
H191	H19	0.932400	0.072100	0.422200
H201	H20	0.825700	0.940100	0.530200
H211	H21	0.180300	0.404200	0.564400
H221	H22	0.044800	0.694800	0.479500
H231	H23	0.571800	0.192700	0.990100
H241	H24	0.319900	0.926200	0.087100
C11	C1	0.234500	0.533800	0.209000
C21	C2	0.209300	0.632000	0.254400
C31	C3	0.142600	0.705400	0.191000
C41	C4	0.097900	0.676600	0.083900
C51	C5	0.118200	0.575300	0.041200
C61	C6	0.187100	0.506600	0.104200
C71	C7	0.305000	0.455100	0.275300
C81	C8	0.026900	0.749700	0.018900
C91	C9	0.279700	0.173300	0.583100
C101	C10	0.303800	0.205400	0.693700
C111	C11	0.228400	0.131200	0.754300
C121	C12	0.138400	0.030600	0.712800
C131	C13	0.123000	0.999600	0.607300
C141	C14	0.192200	0.077700	0.543400
C151	C15	0.355300	0.251700	0.518600
C161	C16	0.062700	0.955800	0.779700
C171	C17	0.714100	0.370300	0.428900
C181	C18	0.894000	0.558200	0.460800
C191	C19	0.863600	0.438800	0.468600
C201	C20	0.975900	0.384300	0.511800
C211	C21	0.686600	0.867900	0.933200
C221	C22	0.460300	0.886800	0.008100
C231	C23	0.578200	0.926000	0.962600
C241	C24	0.609100	0.043400	0.950700
C251	C25	0.765500	0.466200	0.791000
C261	C26	0.790700	0.368000	0.745600
C271	C27	0.857400	0.294600	0.809000
C281	C28	0.902100	0.323400	0.916100
C291	C29	0.881800	0.424700	0.958800
C301	C30	0.812900	0.493400	0.895800
C311	C31	0.695000	0.544900	0.724700
C321	C32	0.973100	0.250300	0.981100
C331	C33	0.720300	0.826700	0.416900
C341	C34	0.696200	0.794600	0.306300
C351	C35	0.771600	0.868800	0.245700
C361	C36	0.861600	0.969400	0.287200
C371	C37	0.877000	0.000400	0.392700
C381	C38	0.807800	0.922300	0.456600
C391	C39	0.644700	0.748300	0.481400
C401	C40	0.937300	0.044200	0.220300
C411	C41	0.285900	0.629700	0.571100
C421	C42	0.106000	0.441800	0.539200
C431	C43	0.136400	0.561200	0.531400
C441	C44	0.024100	0.615700	0.488200
C451	C45	0.313400	0.132100	0.066800
C461	C46	0.539700	0.113200	0.991900
C471	C47	0.421800	0.074000	0.037400
C481	C48	0.390900	0.956600	0.049300
O11	O1	0.316900	0.372200	0.246300
O21	O2	0.341200	0.487100	0.381700
O31	O3	0.030000	0.851000	0.058500
O41	O4	0.967400	0.715900	0.925200
O51	O5	0.351900	0.216300	0.411400
O61	O6	0.427200	0.350500	0.557600
O71	O7	0.097200	0.979900	0.878300
O81	O8	0.963400	0.875600	0.735800
O91	O9	0.616800	0.418200	0.399000
O101	O10	0.695200	0.264100	0.428700
O111	O11	0.792100	0.920400	0.903200
O121	O12	0.653000	0.762200	0.933600
O131	O13	0.683100	0.627800	0.753700
O141	O14	0.658800	0.512900	0.618300
O151	O15	0.970000	0.149000	0.941500
O161	O16	0.032600	0.284100	0.074800
O171	O17	0.648100	0.783700	0.588600
O181	O18	0.572800	0.649500	0.442400
O191	O19	0.902800	0.020100	0.121700
O201	O20	0.036600	0.124400	0.264200
O211	O21	0.383200	0.581800	0.601000
O221	O22	0.304800	0.735900	0.571300
O231	O23	0.207900	0.079600	0.096800
O241	O24	0.347000	0.237800	0.066400
