data_ETUWEW_clean_PM
_symmetry_space_group_name_H-M	'P1'
_cell_length_a	9.671100
_cell_length_b	11.784900
_cell_length_c	14.386300
_cell_angle_alpha	90.000000
_cell_angle_beta	122.276000
_cell_angle_gamma	90.000000
_symmetry_Int_Tables_number 1

loop_
_symmetry_equiv_pos_as_xyz
'x,y,z'

loop_
_atom_site_label
_atom_site_type_symbol
_atom_site_fract_x
_atom_site_fract_y
_atom_site_fract_z
Sm11	Sm1	0.616800	0.983580	0.330360
O11	O1	0.703600	0.783200	0.343500
O21	O2	0.615600	0.604500	0.301400
O31	O3	0.306300	0.679900	0.173200
O41	O4	0.397800	0.857600	0.204700
O51	O5	0.517200	0.881700	0.434300
O61	O6	0.467000	0.891900	0.567600
O71	O7	0.891200	0.984700	0.357200
O81	O8	0.158500	0.012400	0.477200
C11	C1	0.595800	0.709500	0.294900
C21	C2	0.417200	0.753600	0.217300
C31	C3	0.495000	0.934800	0.500400
C41	C4	0.016800	0.999900	0.454100
Sm21	Sm2	0.383200	0.483580	0.169640
O91	O9	0.296400	0.283200	0.156500
O101	O10	0.384400	0.104500	0.198600
O111	O11	0.693700	0.179900	0.326800
O121	O12	0.602200	0.357600	0.295300
O131	O13	0.482800	0.381700	0.065700
O141	O14	0.533000	0.391900	0.932400
O151	O15	0.108800	0.484700	0.142800
O161	O16	0.841500	0.512400	0.022800
C51	C5	0.404200	0.209500	0.205100
C61	C6	0.582800	0.253600	0.282700
C71	C7	0.505000	0.434800	0.999600
C81	C8	0.983200	0.499900	0.045900
Sm31	Sm3	0.383200	0.016420	0.669640
O171	O17	0.296400	0.216800	0.656500
O181	O18	0.384400	0.395500	0.698600
O191	O19	0.693700	0.320100	0.826800
O201	O20	0.602200	0.142400	0.795300
O211	O21	0.482800	0.118300	0.565700
O221	O22	0.533000	0.108100	0.432400
O231	O23	0.108800	0.015300	0.642800
O241	O24	0.841500	0.987600	0.522800
C91	C9	0.404200	0.290500	0.705100
C101	C10	0.582800	0.246400	0.782700
C111	C11	0.505000	0.065200	0.499600
C121	C12	0.983200	0.000100	0.545900
Sm41	Sm4	0.616800	0.516420	0.830360
O251	O25	0.703600	0.716800	0.843500
O261	O26	0.615600	0.895500	0.801400
O271	O27	0.306300	0.820100	0.673200
O281	O28	0.397800	0.642400	0.704700
O291	O29	0.517200	0.618300	0.934300
O301	O30	0.467000	0.608100	0.067600
O311	O31	0.891200	0.515300	0.857200
O321	O32	0.158500	0.487600	0.977200
C131	C13	0.595800	0.790500	0.794900
C141	C14	0.417200	0.746400	0.717300
C151	C15	0.495000	0.565200	0.000400
C161	C16	0.016800	0.500100	0.954100
