data_ETUWIA_clean_PM
_symmetry_space_group_name_H-M	'P1'
_cell_length_a	9.600800
_cell_length_b	11.542200
_cell_length_c	14.288600
_cell_angle_alpha	90.000000
_cell_angle_beta	122.460000
_cell_angle_gamma	90.000000
_symmetry_Int_Tables_number 1

loop_
_symmetry_equiv_pos_as_xyz
'x,y,z'

loop_
_atom_site_label
_atom_site_type_symbol
_atom_site_fract_x
_atom_site_fract_y
_atom_site_fract_z
Y11	Y1	0.617700	0.988460	0.332570
O11	O1	0.704900	0.789900	0.342860
O21	O2	0.616700	0.607330	0.295000
O31	O3	0.305400	0.683340	0.170130
O41	O4	0.395900	0.865350	0.207430
O51	O5	0.519800	0.882680	0.431900
O61	O6	0.461300	0.887620	0.563300
O71	O7	0.889200	0.991230	0.356400
O81	O8	0.161100	0.010360	0.478480
C11	C1	0.596000	0.714800	0.291900
C21	C2	0.416300	0.758700	0.216600
C31	C3	0.494700	0.933500	0.498400
C41	C4	0.015100	0.000500	0.452400
Y21	Y2	0.382300	0.488460	0.167430
O91	O9	0.295100	0.289900	0.157140
O101	O10	0.383300	0.107330	0.205000
O111	O11	0.694600	0.183340	0.329870
O121	O12	0.604100	0.365350	0.292570
O131	O13	0.480200	0.382680	0.068100
O141	O14	0.538700	0.387620	0.936700
O151	O15	0.110800	0.491230	0.143600
O161	O16	0.838900	0.510360	0.021520
C51	C5	0.404000	0.214800	0.208100
C61	C6	0.583700	0.258700	0.283400
C71	C7	0.505300	0.433500	0.001600
C81	C8	0.984900	0.500500	0.047600
Y31	Y3	0.382300	0.011540	0.667430
O171	O17	0.295100	0.210100	0.657140
O181	O18	0.383300	0.392670	0.705000
O191	O19	0.694600	0.316660	0.829870
O201	O20	0.604100	0.134650	0.792570
O211	O21	0.480200	0.117320	0.568100
O221	O22	0.538700	0.112380	0.436700
O231	O23	0.110800	0.008770	0.643600
O241	O24	0.838900	0.989640	0.521520
C91	C9	0.404000	0.285200	0.708100
C101	C10	0.583700	0.241300	0.783400
C111	C11	0.505300	0.066500	0.501600
C121	C12	0.984900	0.999500	0.547600
Y41	Y4	0.617700	0.511540	0.832570
O251	O25	0.704900	0.710100	0.842860
O261	O26	0.616700	0.892670	0.795000
O271	O27	0.305400	0.816660	0.670130
O281	O28	0.395900	0.634650	0.707430
O291	O29	0.519800	0.617320	0.931900
O301	O30	0.461300	0.612380	0.063300
O311	O31	0.889200	0.508770	0.856400
O321	O32	0.161100	0.489640	0.978480
C131	C13	0.596000	0.785200	0.791900
C141	C14	0.416300	0.741300	0.716600
C151	C15	0.494700	0.566500	0.998400
C161	C16	0.015100	0.499500	0.952400
