data_EVADIQ_clean_PM
_symmetry_space_group_name_H-M	'P1'
_cell_length_a	13.660500
_cell_length_b	15.010300
_cell_length_c	18.534500
_cell_angle_alpha	69.051000
_cell_angle_beta	71.145000
_cell_angle_gamma	65.014000
_symmetry_Int_Tables_number 1

loop_
_symmetry_equiv_pos_as_xyz
'x,y,z'

loop_
_atom_site_label
_atom_site_type_symbol
_atom_site_fract_x
_atom_site_fract_y
_atom_site_fract_z
Dy11	Dy1	0.847860	0.497090	0.137640
Dy21	Dy2	0.629990	0.503840	0.369860
O11	O1	0.406600	0.613600	0.514400
O21	O2	0.517300	0.659600	0.401800
O31	O3	0.647400	0.365800	0.324700
O41	O4	0.011400	0.372400	0.103100
O51	O5	0.922800	0.429500	0.249200
O61	O6	0.771000	0.379200	0.212600
O71	O7	0.091100	0.397200	0.976500
O81	O8	0.822800	0.637900	0.177000
O91	O9	0.670100	0.605600	0.120500
O101	O10	0.587500	0.582800	0.246000
O111	O11	0.733200	0.608800	0.301200
O121	O12	0.814300	0.391300	0.366100
N11	N1	0.429400	0.884500	0.057600
N21	N2	0.187300	0.064200	0.146300
N31	N3	0.812100	0.095500	0.198400
N41	N4	0.704700	0.887200	0.318800
N51	N5	0.323600	0.960800	0.368200
N61	N6	0.064600	0.129600	0.447800
C11	C1	0.075700	0.342300	0.044200
C21	C2	0.594100	0.632700	0.176100
C31	C3	0.351500	0.924500	0.115200
C41	C4	0.503100	0.790800	0.077700
H11	H1	0.555200	0.762300	0.037800
C51	C5	0.504800	0.734500	0.155700
C61	C6	0.422500	0.775400	0.216000
H21	H2	0.419800	0.738600	0.268500
C71	C7	0.345900	0.871200	0.195400
H31	H3	0.291200	0.900300	0.234000
C81	C8	0.275600	0.030400	0.091000
C91	C9	0.124000	0.162800	0.128000
H41	H4	0.062300	0.186600	0.165500
C101	C10	0.144500	0.229900	0.057800
C111	C11	0.232500	0.193600	0.000400
H51	H5	0.246900	0.237100	0.951100
C121	C12	0.299600	0.091600	0.016900
H61	H6	0.358900	0.065500	0.979000
C131	C13	0.714000	0.334000	0.267500
C141	C14	0.755000	0.039700	0.260100
C151	C15	0.797600	0.191700	0.201200
H71	H7	0.834200	0.230900	0.159600
C161	C16	0.729600	0.230100	0.264700
C171	C17	0.677200	0.169100	0.327600
H81	H8	0.633800	0.193200	0.371600
C181	C18	0.688500	0.074400	0.325900
H91	H9	0.652600	0.034800	0.367600
C191	C19	0.762800	0.941700	0.256200
C201	C20	0.710200	0.796200	0.312900
H101	H10	0.672600	0.757900	0.354400
C211	C21	0.770500	0.760200	0.246400
C221	C22	0.828400	0.818300	0.184400
H111	H11	0.869100	0.795400	0.139500
C231	C23	0.825300	0.908800	0.189600
H121	H12	0.864400	0.946700	0.149100
C241	C24	0.775800	0.660600	0.241200
C251	C25	0.903900	0.375100	0.318200
C261	C26	0.152100	0.093400	0.392800
C271	C27	0.990600	0.222000	0.422800
H131	H13	0.930600	0.249000	0.460000
C281	C28	0.998800	0.279200	0.344400
C291	C29	0.090200	0.243000	0.289300
H141	H14	0.100100	0.280700	0.237000
C301	C30	0.166800	0.148200	0.314700
H151	H15	0.229000	0.121200	0.278800
C311	C31	0.228200	0.988200	0.418500
C321	C32	0.388100	0.863600	0.384000
H161	H16	0.455700	0.844600	0.349700
C331	C33	0.361800	0.789500	0.447500
C341	C34	0.265200	0.820000	0.501800
H171	H17	0.246500	0.773700	0.548000
C351	C35	0.197700	0.920800	0.485900
H181	H18	0.131700	0.942800	0.520800
C361	C36	0.435300	0.678300	0.456000
Dy31	Dy3	0.152140	0.502910	0.862360
Dy41	Dy4	0.370010	0.496160	0.630140
O131	O13	0.593400	0.386400	0.485600
O141	O14	0.482700	0.340400	0.598200
O151	O15	0.352600	0.634200	0.675300
O161	O16	0.988600	0.627600	0.896900
O171	O17	0.077200	0.570500	0.750800
O181	O18	0.229000	0.620800	0.787400
O191	O19	0.908900	0.602800	0.023500
O201	O20	0.177200	0.362100	0.823000
O211	O21	0.329900	0.394400	0.879500
O221	O22	0.412500	0.417200	0.754000
O231	O23	0.266800	0.391200	0.698800
O241	O24	0.185700	0.608700	0.633900
N71	N7	0.570600	0.115500	0.942400
N81	N8	0.812700	0.935800	0.853700
N91	N9	0.187900	0.904500	0.801600
N101	N10	0.295300	0.112800	0.681200
N111	N11	0.676400	0.039200	0.631800
N121	N12	0.935400	0.870400	0.552200
C371	C37	0.924300	0.657700	0.955800
C381	C38	0.405900	0.367300	0.823900
C391	C39	0.648500	0.075500	0.884800
C401	C40	0.496900	0.209200	0.922300
H191	H19	0.444800	0.237700	0.962200
C411	C41	0.495200	0.265500	0.844300
C421	C42	0.577500	0.224600	0.784000
H201	H20	0.580200	0.261400	0.731500
C431	C43	0.654100	0.128800	0.804600
H211	H21	0.708800	0.099700	0.766000
C441	C44	0.724400	0.969600	0.909000
C451	C45	0.876000	0.837200	0.872000
H221	H22	0.937700	0.813400	0.834500
C461	C46	0.855500	0.770100	0.942200
C471	C47	0.767500	0.806400	0.999600
H231	H23	0.753100	0.762900	0.048900
C481	C48	0.700400	0.908400	0.983100
H241	H24	0.641100	0.934500	0.021000
C491	C49	0.286000	0.666000	0.732500
C501	C50	0.245000	0.960300	0.739900
C511	C51	0.202400	0.808300	0.798800
H251	H25	0.165800	0.769100	0.840400
C521	C52	0.270400	0.769900	0.735300
C531	C53	0.322800	0.830900	0.672400
H261	H26	0.366200	0.806800	0.628400
C541	C54	0.311500	0.925600	0.674100
H271	H27	0.347400	0.965200	0.632400
C551	C55	0.237200	0.058300	0.743800
C561	C56	0.289800	0.203800	0.687100
H281	H28	0.327400	0.242100	0.645600
C571	C57	0.229500	0.239800	0.753600
C581	C58	0.171600	0.181700	0.815600
H291	H29	0.130900	0.204600	0.860500
C591	C59	0.174700	0.091200	0.810400
H301	H30	0.135600	0.053300	0.850900
C601	C60	0.224200	0.339400	0.758800
C611	C61	0.096100	0.624900	0.681800
C621	C62	0.847900	0.906600	0.607200
C631	C63	0.009400	0.778000	0.577200
H311	H31	0.069400	0.751000	0.540000
C641	C64	0.001200	0.720800	0.655600
C651	C65	0.909800	0.757000	0.710700
H321	H32	0.899900	0.719300	0.763000
C661	C66	0.833200	0.851800	0.685300
H331	H33	0.771000	0.878800	0.721200
C671	C67	0.771800	0.011800	0.581500
C681	C68	0.611900	0.136400	0.616000
H341	H34	0.544300	0.155400	0.650300
C691	C69	0.638200	0.210500	0.552500
C701	C70	0.734800	0.180000	0.498200
H351	H35	0.753500	0.226300	0.452000
C711	C71	0.802300	0.079200	0.514100
H361	H36	0.868300	0.057200	0.479200
C721	C72	0.564700	0.321700	0.544000
