data_EVAKIV_clean_PM
_symmetry_space_group_name_H-M	'P1'
_cell_length_a	23.703500
_cell_length_b	23.703500
_cell_length_c	23.703500
_cell_angle_alpha	90.000000
_cell_angle_beta	90.000000
_cell_angle_gamma	90.000000
_symmetry_Int_Tables_number 1

loop_
_symmetry_equiv_pos_as_xyz
'x,y,z'

loop_
_atom_site_label
_atom_site_type_symbol
_atom_site_fract_x
_atom_site_fract_y
_atom_site_fract_z
N11	N1	0.800300	0.463500	0.058800
N21	N2	0.788900	0.406300	0.068700
C11	C1	0.817400	0.380300	0.108300
C21	C2	0.839100	0.490400	0.086800
C31	C3	0.850300	0.550900	0.074400
H11	H1	0.816100	0.568900	0.062300
H21	H2	0.877400	0.554000	0.044500
C41	C4	0.803900	0.319200	0.121200
H31	H3	0.794900	0.299900	0.086800
H41	H4	0.771000	0.318100	0.144900
N31	N3	0.300300	0.963500	0.558800
N41	N4	0.288900	0.906300	0.568700
C51	C5	0.317400	0.880300	0.608300
C61	C6	0.339100	0.990400	0.586800
C71	C7	0.350300	0.050900	0.574400
H51	H5	0.316100	0.068900	0.562300
H61	H6	0.377400	0.054000	0.544500
C81	C8	0.303900	0.819200	0.621200
H71	H7	0.294900	0.799900	0.586800
H81	H8	0.271000	0.818100	0.644900
N51	N5	0.199700	0.536500	0.058800
N61	N6	0.211100	0.593700	0.068700
C91	C9	0.182600	0.619700	0.108300
C101	C10	0.160900	0.509600	0.086800
C111	C11	0.149700	0.449100	0.074400
H91	H9	0.183900	0.431100	0.062300
H101	H10	0.122600	0.446000	0.044500
C121	C12	0.196100	0.680800	0.121200
H111	H11	0.205100	0.700100	0.086800
H121	H12	0.229000	0.681900	0.144900
N71	N7	0.699700	0.036500	0.558800
N81	N8	0.711100	0.093700	0.568700
C131	C13	0.682600	0.119700	0.608300
C141	C14	0.660900	0.009600	0.586800
C151	C15	0.649700	0.949100	0.574400
H131	H13	0.683900	0.931100	0.562300
H141	H14	0.622600	0.946000	0.544500
C161	C16	0.696100	0.180800	0.621200
H151	H15	0.705100	0.200100	0.586800
H161	H16	0.729000	0.181900	0.644900
N91	N9	0.199700	0.463500	0.941200
N101	N10	0.211100	0.406300	0.931300
C171	C17	0.182600	0.380300	0.891700
C181	C18	0.160900	0.490400	0.913200
C191	C19	0.149700	0.550900	0.925600
H171	H17	0.183900	0.568900	0.937700
H181	H18	0.122600	0.554000	0.955500
C201	C20	0.196100	0.319200	0.878800
H191	H19	0.205100	0.299900	0.913200
H201	H20	0.229000	0.318100	0.855100
N111	N11	0.699700	0.963500	0.441200
N121	N12	0.711100	0.906300	0.431300
C211	C21	0.682600	0.880300	0.391700
C221	C22	0.660900	0.990400	0.413200
C231	C23	0.649700	0.050900	0.425600
H211	H21	0.683900	0.068900	0.437700
H221	H22	0.622600	0.054000	0.455500
C241	C24	0.696100	0.819200	0.378800
H231	H23	0.705100	0.799900	0.413200
H241	H24	0.729000	0.818100	0.355100
N131	N13	0.800300	0.536500	0.941200
N141	N14	0.788900	0.593700	0.931300
C251	C25	0.817400	0.619700	0.891700
C261	C26	0.839100	0.509600	0.913200
C271	C27	0.850300	0.449100	0.925600
H251	H25	0.816100	0.431100	0.937700
H261	H26	0.877400	0.446000	0.955500
C281	C28	0.803900	0.680800	0.878800
H271	H27	0.794900	0.700100	0.913200
H281	H28	0.771000	0.681900	0.855100
N151	N15	0.300300	0.036500	0.441200
N161	N16	0.288900	0.093700	0.431300
C291	C29	0.317400	0.119700	0.391700
C301	C30	0.339100	0.009600	0.413200
C311	C31	0.350300	0.949100	0.425600
H291	H29	0.316100	0.931100	0.437700
H301	H30	0.377400	0.946000	0.455500
C321	C32	0.303900	0.180800	0.378800
H311	H31	0.294900	0.200100	0.413200
H321	H32	0.271000	0.181900	0.355100
N171	N17	0.058800	0.800300	0.463500
N181	N18	0.068700	0.788900	0.406300
C331	C33	0.108300	0.817400	0.380300
C341	C34	0.086800	0.839100	0.490400
C351	C35	0.074400	0.850300	0.550900
H331	H33	0.062300	0.816100	0.568900
H341	H34	0.044500	0.877400	0.554000
C361	C36	0.121200	0.803900	0.319200
H351	H35	0.086800	0.794900	0.299900
H361	H36	0.144900	0.771000	0.318100
N191	N19	0.558800	0.300300	0.963500
N201	N20	0.568700	0.288900	0.906300
C371	C37	0.608300	0.317400	0.880300
C381	C38	0.586800	0.339100	0.990400
C391	C39	0.574400	0.350300	0.050900
H371	H37	0.562300	0.316100	0.068900
H381	H38	0.544500	0.377400	0.054000
C401	C40	0.621200	0.303900	0.819200
H391	H39	0.586800	0.294900	0.799900
H401	H40	0.644900	0.271000	0.818100
N211	N21	0.058800	0.199700	0.536500
N221	N22	0.068700	0.211100	0.593700
C411	C41	0.108300	0.182600	0.619700
C421	C42	0.086800	0.160900	0.509600
C431	C43	0.074400	0.149700	0.449100
H411	H41	0.062300	0.183900	0.431100
H421	H42	0.044500	0.122600	0.446000
C441	C44	0.121200	0.196100	0.680800
H431	H43	0.086800	0.205100	0.700100
H441	H44	0.144900	0.229000	0.681900
N231	N23	0.558800	0.699700	0.036500
N241	N24	0.568700	0.711100	0.093700
C451	C45	0.608300	0.682600	0.119700
C461	C46	0.586800	0.660900	0.009600
C471	C47	0.574400	0.649700	0.949100
H451	H45	0.562300	0.683900	0.931100
H461	H46	0.544500	0.622600	0.946000
C481	C48	0.621200	0.696100	0.180800
H471	H47	0.586800	0.705100	0.200100
H481	H48	0.644900	0.729000	0.181900
N251	N25	0.941200	0.199700	0.463500
N261	N26	0.931300	0.211100	0.406300
C491	C49	0.891700	0.182600	0.380300
C501	C50	0.913200	0.160900	0.490400
C511	C51	0.925600	0.149700	0.550900
H491	H49	0.937700	0.183900	0.568900
H501	H50	0.955500	0.122600	0.554000
C521	C52	0.878800	0.196100	0.319200
H511	H51	0.913200	0.205100	0.299900
H521	H52	0.855100	0.229000	0.318100
N271	N27	0.441200	0.699700	0.963500
N281	N28	0.431300	0.711100	0.906300
C531	C53	0.391700	0.682600	0.880300
C541	C54	0.413200	0.660900	0.990400
C551	C55	0.425600	0.649700	0.050900
H531	H53	0.437700	0.683900	0.068900
H541	H54	0.455500	0.622600	0.054000
C561	C56	0.378800	0.696100	0.819200
H551	H55	0.413200	0.705100	0.799900
H561	H56	0.355100	0.729000	0.818100
N291	N29	0.941200	0.800300	0.536500
N301	N30	0.931300	0.788900	0.593700
C571	C57	0.891700	0.817400	0.619700
C581	C58	0.913200	0.839100	0.509600
C591	C59	0.925600	0.850300	0.449100
H571	H57	0.937700	0.816100	0.431100
H581	H58	0.955500	0.877400	0.446000
C601	C60	0.878800	0.803900	0.680800
H591	H59	0.913200	0.794900	0.700100
H601	H60	0.855100	0.771000	0.681900
N311	N31	0.441200	0.300300	0.036500
N321	N32	0.431300	0.288900	0.093700
C611	C61	0.391700	0.317400	0.119700
C621	C62	0.413200	0.339100	0.009600
C631	C63	0.425600	0.350300	0.949100
H611	H61	0.437700	0.316100	0.931100
H621	H62	0.455500	0.377400	0.946000
C641	C64	0.378800	0.303900	0.180800
H631	H63	0.413200	0.294900	0.200100
H641	H64	0.355100	0.271000	0.181900
N331	N33	0.463500	0.058800	0.800300
N341	N34	0.406300	0.068700	0.788900
C651	C65	0.380300	0.108300	0.817400
C661	C66	0.490400	0.086800	0.839100
C671	C67	0.550900	0.074400	0.850300
H651	H65	0.568900	0.062300	0.816100
H661	H66	0.554000	0.044500	0.877400
C681	C68	0.319200	0.121200	0.803900
H671	H67	0.299900	0.086800	0.794900
H681	H68	0.318100	0.144900	0.771000
N351	N35	0.963500	0.558800	0.300300
N361	N36	0.906300	0.568700	0.288900
C691	C69	0.880300	0.608300	0.317400
C701	C70	0.990400	0.586800	0.339100
C711	C71	0.050900	0.574400	0.350300
H691	H69	0.068900	0.562300	0.316100
H701	H70	0.054000	0.544500	0.377400
C721	C72	0.819200	0.621200	0.303900
H711	H71	0.799900	0.586800	0.294900
H721	H72	0.818100	0.644900	0.271000
N371	N37	0.536500	0.058800	0.199700
N381	N38	0.593700	0.068700	0.211100
C731	C73	0.619700	0.108300	0.182600
C741	C74	0.509600	0.086800	0.160900
C751	C75	0.449100	0.074400	0.149700
H731	H73	0.431100	0.062300	0.183900
H741	H74	0.446000	0.044500	0.122600
C761	C76	0.680800	0.121200	0.196100
H751	H75	0.700100	0.086800	0.205100
H761	H76	0.681900	0.144900	0.229000
N391	N39	0.036500	0.558800	0.699700
N401	N40	0.093700	0.568700	0.711100
C771	C77	0.119700	0.608300	0.682600
C781	C78	0.009600	0.586800	0.660900
C791	C79	0.949100	0.574400	0.649700
H771	H77	0.931100	0.562300	0.683900
H781	H78	0.946000	0.544500	0.622600
C801	C80	0.180800	0.621200	0.696100
H791	H79	0.200100	0.586800	0.705100
H801	H80	0.181900	0.644900	0.729000
N411	N41	0.463500	0.941200	0.199700
N421	N42	0.406300	0.931300	0.211100
C811	C81	0.380300	0.891700	0.182600
C821	C82	0.490400	0.913200	0.160900
C831	C83	0.550900	0.925600	0.149700
H811	H81	0.568900	0.937700	0.183900
H821	H82	0.554000	0.955500	0.122600
C841	C84	0.319200	0.878800	0.196100
H831	H83	0.299900	0.913200	0.205100
H841	H84	0.318100	0.855100	0.229000
N431	N43	0.963500	0.441200	0.699700
N441	N44	0.906300	0.431300	0.711100
C851	C85	0.880300	0.391700	0.682600
C861	C86	0.990400	0.413200	0.660900
C871	C87	0.050900	0.425600	0.649700
H851	H85	0.068900	0.437700	0.683900
H861	H86	0.054000	0.455500	0.622600
C881	C88	0.819200	0.378800	0.696100
H871	H87	0.799900	0.413200	0.705100
H881	H88	0.818100	0.355100	0.729000
N451	N45	0.536500	0.941200	0.800300
N461	N46	0.593700	0.931300	0.788900
C891	C89	0.619700	0.891700	0.817400
C901	C90	0.509600	0.913200	0.839100
C911	C91	0.449100	0.925600	0.850300
H891	H89	0.431100	0.937700	0.816100
H901	H90	0.446000	0.955500	0.877400
C921	C92	0.680800	0.878800	0.803900
H911	H91	0.700100	0.913200	0.794900
H921	H92	0.681900	0.855100	0.771000
N471	N47	0.036500	0.441200	0.300300
N481	N48	0.093700	0.431300	0.288900
C931	C93	0.119700	0.391700	0.317400
C941	C94	0.009600	0.413200	0.339100
C951	C95	0.949100	0.425600	0.350300
H931	H93	0.931100	0.437700	0.316100
H941	H94	0.946000	0.455500	0.377400
C961	C96	0.180800	0.378800	0.303900
H951	H95	0.200100	0.413200	0.294900
H961	H96	0.181900	0.355100	0.271000
N491	N49	0.463500	0.800300	0.058800
N501	N50	0.406300	0.788900	0.068700
C971	C97	0.380300	0.817400	0.108300
C981	C98	0.490400	0.839100	0.086800
C991	C99	0.550900	0.850300	0.074400
H971	H97	0.568900	0.816100	0.062300
H981	H98	0.554000	0.877400	0.044500
C1001	C100	0.319200	0.803900	0.121200
H991	H99	0.299900	0.794900	0.086800
H1001	H100	0.318100	0.771000	0.144900
N511	N51	0.963500	0.300300	0.558800
N521	N52	0.906300	0.288900	0.568700
C1011	C101	0.880300	0.317400	0.608300
C1021	C102	0.990400	0.339100	0.586800
C1031	C103	0.050900	0.350300	0.574400
H1011	H101	0.068900	0.316100	0.562300
H1021	H102	0.054000	0.377400	0.544500
C1041	C104	0.819200	0.303900	0.621200
H1031	H103	0.799900	0.294900	0.586800
H1041	H104	0.818100	0.271000	0.644900
N531	N53	0.536500	0.199700	0.058800
N541	N54	0.593700	0.211100	0.068700
C1051	C105	0.619700	0.182600	0.108300
C1061	C106	0.509600	0.160900	0.086800
C1071	C107	0.449100	0.149700	0.074400
H1051	H105	0.431100	0.183900	0.062300
H1061	H106	0.446000	0.122600	0.044500
C1081	C108	0.680800	0.196100	0.121200
H1071	H107	0.700100	0.205100	0.086800
H1081	H108	0.681900	0.229000	0.144900
N551	N55	0.036500	0.699700	0.558800
N561	N56	0.093700	0.711100	0.568700
C1091	C109	0.119700	0.682600	0.608300
C1101	C110	0.009600	0.660900	0.586800
C1111	C111	0.949100	0.649700	0.574400
H1091	H109	0.931100	0.683900	0.562300
H1101	H110	0.946000	0.622600	0.544500
C1121	C112	0.180800	0.696100	0.621200
H1111	H111	0.200100	0.705100	0.586800
H1121	H112	0.181900	0.729000	0.644900
N571	N57	0.463500	0.199700	0.941200
N581	N58	0.406300	0.211100	0.931300
C1131	C113	0.380300	0.182600	0.891700
C1141	C114	0.490400	0.160900	0.913200
C1151	C115	0.550900	0.149700	0.925600
H1131	H113	0.568900	0.183900	0.937700
H1141	H114	0.554000	0.122600	0.955500
C1161	C116	0.319200	0.196100	0.878800
H1151	H115	0.299900	0.205100	0.913200
H1161	H116	0.318100	0.229000	0.855100
N591	N59	0.963500	0.699700	0.441200
N601	N60	0.906300	0.711100	0.431300
C1171	C117	0.880300	0.682600	0.391700
C1181	C118	0.990400	0.660900	0.413200
C1191	C119	0.050900	0.649700	0.425600
H1171	H117	0.068900	0.683900	0.437700
H1181	H118	0.054000	0.622600	0.455500
C1201	C120	0.819200	0.696100	0.378800
H1191	H119	0.799900	0.705100	0.413200
H1201	H120	0.818100	0.729000	0.355100
N611	N61	0.536500	0.800300	0.941200
N621	N62	0.593700	0.788900	0.931300
C1211	C121	0.619700	0.817400	0.891700
C1221	C122	0.509600	0.839100	0.913200
C1231	C123	0.449100	0.850300	0.925600
H1211	H121	0.431100	0.816100	0.937700
H1221	H122	0.446000	0.877400	0.955500
C1241	C124	0.680800	0.803900	0.878800
H1231	H123	0.700100	0.794900	0.913200
H1241	H124	0.681900	0.771000	0.855100
N631	N63	0.036500	0.300300	0.441200
N641	N64	0.093700	0.288900	0.431300
C1251	C125	0.119700	0.317400	0.391700
C1261	C126	0.009600	0.339100	0.413200
C1271	C127	0.949100	0.350300	0.425600
H1251	H125	0.931100	0.316100	0.437700
H1261	H126	0.946000	0.377400	0.455500
C1281	C128	0.180800	0.303900	0.378800
H1271	H127	0.200100	0.294900	0.413200
H1281	H128	0.181900	0.271000	0.355100
N651	N65	0.800300	0.058800	0.463500
N661	N66	0.788900	0.068700	0.406300
C1291	C129	0.817400	0.108300	0.380300
C1301	C130	0.839100	0.086800	0.490400
C1311	C131	0.850300	0.074400	0.550900
H1291	H129	0.816100	0.062300	0.568900
H1301	H130	0.877400	0.044500	0.554000
C1321	C132	0.803900	0.121200	0.319200
H1311	H131	0.794900	0.086800	0.299900
H1321	H132	0.771000	0.144900	0.318100
N671	N67	0.300300	0.558800	0.963500
N681	N68	0.288900	0.568700	0.906300
C1331	C133	0.317400	0.608300	0.880300
C1341	C134	0.339100	0.586800	0.990400
C1351	C135	0.350300	0.574400	0.050900
H1331	H133	0.316100	0.562300	0.068900
H1341	H134	0.377400	0.544500	0.054000
C1361	C136	0.303900	0.621200	0.819200
H1351	H135	0.294900	0.586800	0.799900
H1361	H136	0.271000	0.644900	0.818100
N691	N69	0.199700	0.058800	0.536500
N701	N70	0.211100	0.068700	0.593700
C1371	C137	0.182600	0.108300	0.619700
C1381	C138	0.160900	0.086800	0.509600
C1391	C139	0.149700	0.074400	0.449100
H1371	H137	0.183900	0.062300	0.431100
H1381	H138	0.122600	0.044500	0.446000
C1401	C140	0.196100	0.121200	0.680800
H1391	H139	0.205100	0.086800	0.700100
H1401	H140	0.229000	0.144900	0.681900
N711	N71	0.699700	0.558800	0.036500
N721	N72	0.711100	0.568700	0.093700
C1411	C141	0.682600	0.608300	0.119700
C1421	C142	0.660900	0.586800	0.009600
C1431	C143	0.649700	0.574400	0.949100
H1411	H141	0.683900	0.562300	0.931100
H1421	H142	0.622600	0.544500	0.946000
C1441	C144	0.696100	0.621200	0.180800
H1431	H143	0.705100	0.586800	0.200100
H1441	H144	0.729000	0.644900	0.181900
N731	N73	0.199700	0.941200	0.463500
N741	N74	0.211100	0.931300	0.406300
C1451	C145	0.182600	0.891700	0.380300
C1461	C146	0.160900	0.913200	0.490400
C1471	C147	0.149700	0.925600	0.550900
H1451	H145	0.183900	0.937700	0.568900
H1461	H146	0.122600	0.955500	0.554000
C1481	C148	0.196100	0.878800	0.319200
H1471	H147	0.205100	0.913200	0.299900
H1481	H148	0.229000	0.855100	0.318100
N751	N75	0.699700	0.441200	0.963500
N761	N76	0.711100	0.431300	0.906300
C1491	C149	0.682600	0.391700	0.880300
C1501	C150	0.660900	0.413200	0.990400
C1511	C151	0.649700	0.425600	0.050900
H1491	H149	0.683900	0.437700	0.068900
H1501	H150	0.622600	0.455500	0.054000
C1521	C152	0.696100	0.378800	0.819200
H1511	H151	0.705100	0.413200	0.799900
H1521	H152	0.729000	0.355100	0.818100
N771	N77	0.800300	0.941200	0.536500
N781	N78	0.788900	0.931300	0.593700
C1531	C153	0.817400	0.891700	0.619700
C1541	C154	0.839100	0.913200	0.509600
C1551	C155	0.850300	0.925600	0.449100
H1531	H153	0.816100	0.937700	0.431100
H1541	H154	0.877400	0.955500	0.446000
C1561	C156	0.803900	0.878800	0.680800
H1551	H155	0.794900	0.913200	0.700100
H1561	H156	0.771000	0.855100	0.681900
N791	N79	0.300300	0.441200	0.036500
N801	N80	0.288900	0.431300	0.093700
C1571	C157	0.317400	0.391700	0.119700
C1581	C158	0.339100	0.413200	0.009600
C1591	C159	0.350300	0.425600	0.949100
H1571	H157	0.316100	0.437700	0.931100
H1581	H158	0.377400	0.455500	0.946000
C1601	C160	0.303900	0.378800	0.180800
H1591	H159	0.294900	0.413200	0.200100
H1601	H160	0.271000	0.355100	0.181900
N811	N81	0.058800	0.463500	0.800300
N821	N82	0.068700	0.406300	0.788900
C1611	C161	0.108300	0.380300	0.817400
C1621	C162	0.086800	0.490400	0.839100
C1631	C163	0.074400	0.550900	0.850300
H1611	H161	0.062300	0.568900	0.816100
H1621	H162	0.044500	0.554000	0.877400
C1641	C164	0.121200	0.319200	0.803900
H1631	H163	0.086800	0.299900	0.794900
H1641	H164	0.144900	0.318100	0.771000
N831	N83	0.558800	0.963500	0.300300
N841	N84	0.568700	0.906300	0.288900
C1651	C165	0.608300	0.880300	0.317400
C1661	C166	0.586800	0.990400	0.339100
C1671	C167	0.574400	0.050900	0.350300
H1651	H165	0.562300	0.068900	0.316100
H1661	H166	0.544500	0.054000	0.377400
C1681	C168	0.621200	0.819200	0.303900
H1671	H167	0.586800	0.799900	0.294900
H1681	H168	0.644900	0.818100	0.271000
N851	N85	0.058800	0.536500	0.199700
N861	N86	0.068700	0.593700	0.211100
C1691	C169	0.108300	0.619700	0.182600
C1701	C170	0.086800	0.509600	0.160900
C1711	C171	0.074400	0.449100	0.149700
H1691	H169	0.062300	0.431100	0.183900
H1701	H170	0.044500	0.446000	0.122600
C1721	C172	0.121200	0.680800	0.196100
H1711	H171	0.086800	0.700100	0.205100
H1721	H172	0.144900	0.681900	0.229000
N871	N87	0.558800	0.036500	0.699700
N881	N88	0.568700	0.093700	0.711100
C1731	C173	0.608300	0.119700	0.682600
C1741	C174	0.586800	0.009600	0.660900
C1751	C175	0.574400	0.949100	0.649700
H1731	H173	0.562300	0.931100	0.683900
H1741	H174	0.544500	0.946000	0.622600
C1761	C176	0.621200	0.180800	0.696100
H1751	H175	0.586800	0.200100	0.705100
H1761	H176	0.644900	0.181900	0.729000
N891	N89	0.941200	0.463500	0.199700
N901	N90	0.931300	0.406300	0.211100
C1771	C177	0.891700	0.380300	0.182600
C1781	C178	0.913200	0.490400	0.160900
C1791	C179	0.925600	0.550900	0.149700
H1771	H177	0.937700	0.568900	0.183900
H1781	H178	0.955500	0.554000	0.122600
C1801	C180	0.878800	0.319200	0.196100
H1791	H179	0.913200	0.299900	0.205100
H1801	H180	0.855100	0.318100	0.229000
N911	N91	0.441200	0.963500	0.699700
N921	N92	0.431300	0.906300	0.711100
C1811	C181	0.391700	0.880300	0.682600
C1821	C182	0.413200	0.990400	0.660900
C1831	C183	0.425600	0.050900	0.649700
H1811	H181	0.437700	0.068900	0.683900
H1821	H182	0.455500	0.054000	0.622600
C1841	C184	0.378800	0.819200	0.696100
H1831	H183	0.413200	0.799900	0.705100
H1841	H184	0.355100	0.818100	0.729000
N931	N93	0.941200	0.536500	0.800300
N941	N94	0.931300	0.593700	0.788900
C1851	C185	0.891700	0.619700	0.817400
C1861	C186	0.913200	0.509600	0.839100
C1871	C187	0.925600	0.449100	0.850300
H1851	H185	0.937700	0.431100	0.816100
H1861	H186	0.955500	0.446000	0.877400
C1881	C188	0.878800	0.680800	0.803900
H1871	H187	0.913200	0.700100	0.794900
H1881	H188	0.855100	0.681900	0.771000
N951	N95	0.441200	0.036500	0.300300
N961	N96	0.431300	0.093700	0.288900
C1891	C189	0.391700	0.119700	0.317400
C1901	C190	0.413200	0.009600	0.339100
C1911	C191	0.425600	0.949100	0.350300
H1891	H189	0.437700	0.931100	0.316100
H1901	H190	0.455500	0.946000	0.377400
C1921	C192	0.378800	0.180800	0.303900
H1911	H191	0.413200	0.200100	0.294900
H1921	H192	0.355100	0.181900	0.271000
Cu11	Cu1	0.750000	0.500000	0.000000
Cu21	Cu2	0.250000	0.000000	0.500000
Cu31	Cu3	0.250000	0.500000	0.000000
Cu41	Cu4	0.000000	0.750000	0.500000
Cu51	Cu5	0.500000	0.250000	0.000000
Cu61	Cu6	0.000000	0.250000	0.500000
Cu71	Cu7	0.500000	0.000000	0.750000
Cu81	Cu8	0.000000	0.500000	0.250000
Cu91	Cu9	0.500000	0.000000	0.250000
Cu101	Cu10	0.500000	0.750000	0.000000
Cu111	Cu11	0.750000	0.000000	0.500000
Cu121	Cu12	0.000000	0.500000	0.750000
C1931	C193	0.859400	0.407100	0.140600
C1941	C194	0.871000	0.462900	0.129000
C1951	C195	0.873600	0.581000	0.126400
H1931	H193	0.845000	0.580800	0.155000
H1941	H194	0.882350	0.619500	0.117650
C1961	C196	0.850300	0.288200	0.149700
H1951	H195	0.878150	0.278600	0.121850
H1961	H196	0.835600	0.253500	0.164400
C1971	C197	0.359400	0.907100	0.640600
C1981	C198	0.371000	0.962900	0.629000
C1991	C199	0.373600	0.081000	0.626400
H1971	H197	0.345000	0.080800	0.655000
H1981	H198	0.382350	0.119500	0.617650
C2001	C200	0.350300	0.788200	0.649700
H1991	H199	0.378150	0.778600	0.621850
H2001	H200	0.335600	0.753500	0.664400
C2011	C201	0.140600	0.592900	0.140600
C2021	C202	0.129000	0.537100	0.129000
C2031	C203	0.126400	0.419000	0.126400
H2011	H201	0.155000	0.419200	0.155000
H2021	H202	0.117650	0.380500	0.117650
C2041	C204	0.149700	0.711800	0.149700
H2031	H203	0.121850	0.721400	0.121850
H2041	H204	0.164400	0.746500	0.164400
C2051	C205	0.640600	0.092900	0.640600
C2061	C206	0.629000	0.037100	0.629000
C2071	C207	0.626400	0.919000	0.626400
H2051	H205	0.655000	0.919200	0.655000
H2061	H206	0.617650	0.880500	0.617650
C2081	C208	0.649700	0.211800	0.649700
H2071	H207	0.621850	0.221400	0.621850
H2081	H208	0.664400	0.246500	0.664400
C2091	C209	0.140600	0.407100	0.859400
C2101	C210	0.129000	0.462900	0.871000
C2111	C211	0.126400	0.581000	0.873600
H2091	H209	0.155000	0.580800	0.845000
H2101	H210	0.117650	0.619500	0.882350
C2121	C212	0.149700	0.288200	0.850300
H2111	H211	0.121850	0.278600	0.878150
H2121	H212	0.164400	0.253500	0.835600
C2131	C213	0.640600	0.907100	0.359400
C2141	C214	0.629000	0.962900	0.371000
C2151	C215	0.626400	0.081000	0.373600
H2131	H213	0.655000	0.080800	0.345000
H2141	H214	0.617650	0.119500	0.382350
C2161	C216	0.649700	0.788200	0.350300
H2151	H215	0.621850	0.778600	0.378150
H2161	H216	0.664400	0.753500	0.335600
C2171	C217	0.859400	0.592900	0.859400
C2181	C218	0.871000	0.537100	0.871000
C2191	C219	0.873600	0.419000	0.873600
H2171	H217	0.845000	0.419200	0.845000
H2181	H218	0.882350	0.380500	0.882350
C2201	C220	0.850300	0.711800	0.850300
H2191	H219	0.878150	0.721400	0.878150
H2201	H220	0.835600	0.746500	0.835600
C2211	C221	0.359400	0.092900	0.359400
C2221	C222	0.371000	0.037100	0.371000
C2231	C223	0.373600	0.919000	0.373600
H2211	H221	0.345000	0.919200	0.345000
H2221	H222	0.382350	0.880500	0.382350
C2241	C224	0.350300	0.211800	0.350300
H2231	H223	0.378150	0.221400	0.378150
H2241	H224	0.335600	0.246500	0.335600
C2251	C225	0.140600	0.859400	0.407100
C2261	C226	0.129000	0.871000	0.462900
C2271	C227	0.126400	0.873600	0.581000
H2251	H225	0.155000	0.845000	0.580800
H2261	H226	0.117650	0.882350	0.619500
C2281	C228	0.149700	0.850300	0.288200
H2271	H227	0.121850	0.878150	0.278600
H2281	H228	0.164400	0.835600	0.253500
C2291	C229	0.640600	0.359400	0.907100
C2301	C230	0.629000	0.371000	0.962900
C2311	C231	0.626400	0.373600	0.081000
H2291	H229	0.655000	0.345000	0.080800
H2301	H230	0.617650	0.382350	0.119500
C2321	C232	0.649700	0.350300	0.788200
H2311	H231	0.621850	0.378150	0.778600
H2321	H232	0.664400	0.335600	0.753500
C2331	C233	0.140600	0.140600	0.592900
C2341	C234	0.129000	0.129000	0.537100
C2351	C235	0.126400	0.126400	0.419000
H2331	H233	0.155000	0.155000	0.419200
H2341	H234	0.117650	0.117650	0.380500
C2361	C236	0.149700	0.149700	0.711800
H2351	H235	0.121850	0.121850	0.721400
H2361	H236	0.164400	0.164400	0.746500
C2371	C237	0.640600	0.640600	0.092900
C2381	C238	0.629000	0.629000	0.037100
C2391	C239	0.626400	0.626400	0.919000
H2371	H237	0.655000	0.655000	0.919200
H2381	H238	0.617650	0.617650	0.880500
C2401	C240	0.649700	0.649700	0.211800
H2391	H239	0.621850	0.621850	0.221400
H2401	H240	0.664400	0.664400	0.246500
C2411	C241	0.859400	0.140600	0.407100
C2421	C242	0.871000	0.129000	0.462900
C2431	C243	0.873600	0.126400	0.581000
H2411	H241	0.845000	0.155000	0.580800
H2421	H242	0.882350	0.117650	0.619500
C2441	C244	0.850300	0.149700	0.288200
H2431	H243	0.878150	0.121850	0.278600
H2441	H244	0.835600	0.164400	0.253500
C2451	C245	0.359400	0.640600	0.907100
C2461	C246	0.371000	0.629000	0.962900
C2471	C247	0.373600	0.626400	0.081000
H2451	H245	0.345000	0.655000	0.080800
H2461	H246	0.382350	0.617650	0.119500
C2481	C248	0.350300	0.649700	0.788200
H2471	H247	0.378150	0.621850	0.778600
H2481	H248	0.335600	0.664400	0.753500
C2491	C249	0.859400	0.859400	0.592900
C2501	C250	0.871000	0.871000	0.537100
C2511	C251	0.873600	0.873600	0.419000
H2491	H249	0.845000	0.845000	0.419200
H2501	H250	0.882350	0.882350	0.380500
C2521	C252	0.850300	0.850300	0.711800
H2511	H251	0.878150	0.878150	0.721400
H2521	H252	0.835600	0.835600	0.746500
C2531	C253	0.359400	0.359400	0.092900
C2541	C254	0.371000	0.371000	0.037100
C2551	C255	0.373600	0.373600	0.919000
H2531	H253	0.345000	0.345000	0.919200
H2541	H254	0.382350	0.382350	0.880500
C2561	C256	0.350300	0.350300	0.211800
H2551	H255	0.378150	0.378150	0.221400
H2561	H256	0.335600	0.335600	0.246500
C2571	C257	0.407100	0.140600	0.859400
C2581	C258	0.462900	0.129000	0.871000
C2591	C259	0.581000	0.126400	0.873600
H2571	H257	0.580800	0.155000	0.845000
H2581	H258	0.619500	0.117650	0.882350
C2601	C260	0.288200	0.149700	0.850300
H2591	H259	0.278600	0.121850	0.878150
H2601	H260	0.253500	0.164400	0.835600
C2611	C261	0.907100	0.640600	0.359400
C2621	C262	0.962900	0.629000	0.371000
C2631	C263	0.081000	0.626400	0.373600
H2611	H261	0.080800	0.655000	0.345000
H2621	H262	0.119500	0.617650	0.382350
C2641	C264	0.788200	0.649700	0.350300
H2631	H263	0.778600	0.621850	0.378150
H2641	H264	0.753500	0.664400	0.335600
C2651	C265	0.592900	0.140600	0.140600
C2661	C266	0.537100	0.129000	0.129000
C2671	C267	0.419000	0.126400	0.126400
H2651	H265	0.419200	0.155000	0.155000
H2661	H266	0.380500	0.117650	0.117650
C2681	C268	0.711800	0.149700	0.149700
H2671	H267	0.721400	0.121850	0.121850
H2681	H268	0.746500	0.164400	0.164400
C2691	C269	0.092900	0.640600	0.640600
C2701	C270	0.037100	0.629000	0.629000
C2711	C271	0.919000	0.626400	0.626400
H2691	H269	0.919200	0.655000	0.655000
H2701	H270	0.880500	0.617650	0.617650
C2721	C272	0.211800	0.649700	0.649700
H2711	H271	0.221400	0.621850	0.621850
H2721	H272	0.246500	0.664400	0.664400
C2731	C273	0.407100	0.859400	0.140600
C2741	C274	0.462900	0.871000	0.129000
C2751	C275	0.581000	0.873600	0.126400
H2731	H273	0.580800	0.845000	0.155000
H2741	H274	0.619500	0.882350	0.117650
C2761	C276	0.288200	0.850300	0.149700
H2751	H275	0.278600	0.878150	0.121850
H2761	H276	0.253500	0.835600	0.164400
C2771	C277	0.907100	0.359400	0.640600
C2781	C278	0.962900	0.371000	0.629000
C2791	C279	0.081000	0.373600	0.626400
H2771	H277	0.080800	0.345000	0.655000
H2781	H278	0.119500	0.382350	0.617650
C2801	C280	0.788200	0.350300	0.649700
H2791	H279	0.778600	0.378150	0.621850
H2801	H280	0.753500	0.335600	0.664400
C2811	C281	0.592900	0.859400	0.859400
C2821	C282	0.537100	0.871000	0.871000
C2831	C283	0.419000	0.873600	0.873600
H2811	H281	0.419200	0.845000	0.845000
H2821	H282	0.380500	0.882350	0.882350
C2841	C284	0.711800	0.850300	0.850300
H2831	H283	0.721400	0.878150	0.878150
H2841	H284	0.746500	0.835600	0.835600
C2851	C285	0.092900	0.359400	0.359400
C2861	C286	0.037100	0.371000	0.371000
C2871	C287	0.919000	0.373600	0.373600
H2851	H285	0.919200	0.345000	0.345000
H2861	H286	0.880500	0.382350	0.382350
C2881	C288	0.211800	0.350300	0.350300
H2871	H287	0.221400	0.378150	0.378150
H2881	H288	0.246500	0.335600	0.335600
