data_EVEGER_clean_PM
_symmetry_space_group_name_H-M	'P1'
_cell_length_a	15.440000
_cell_length_b	15.440000
_cell_length_c	16.254000
_cell_angle_alpha	90.000000
_cell_angle_beta	90.000000
_cell_angle_gamma	120.000000
_symmetry_Int_Tables_number 1

loop_
_symmetry_equiv_pos_as_xyz
'x,y,z'

loop_
_atom_site_label
_atom_site_type_symbol
_atom_site_fract_x
_atom_site_fract_y
_atom_site_fract_z
Yb11	Yb1	0.666670	0.333340	0.750000
Yb21	Yb2	0.333330	0.666660	0.750000
Yb31	Yb3	0.333330	0.666660	0.250000
Yb41	Yb4	0.666670	0.333340	0.250000
Mn11	Mn1	0.500000	0.000000	0.000000
Mn21	Mn2	0.500000	0.500000	0.000000
Mn31	Mn3	0.000000	0.500000	0.000000
Mn41	Mn4	0.500000	0.000000	0.500000
Mn51	Mn5	0.000000	0.500000	0.500000
Mn61	Mn6	0.500000	0.500000	0.500000
H11	H1	0.291500	0.059500	0.843700
H21	H2	0.768000	0.708500	0.843700
H31	H3	0.940500	0.232000	0.843700
H41	H4	0.708500	0.940500	0.843700
H51	H5	0.232000	0.291500	0.843700
H61	H6	0.059500	0.768000	0.843700
H71	H7	0.232000	0.940500	0.656300
H81	H8	0.059500	0.291500	0.656300
H91	H9	0.708500	0.768000	0.656300
H101	H10	0.768000	0.059500	0.656300
H111	H11	0.940500	0.708500	0.656300
H121	H12	0.291500	0.232000	0.656300
H131	H13	0.708500	0.940500	0.156300
H141	H14	0.232000	0.291500	0.156300
H151	H15	0.059500	0.768000	0.156300
H161	H16	0.291500	0.059500	0.156300
H171	H17	0.768000	0.708500	0.156300
H181	H18	0.940500	0.232000	0.156300
H191	H19	0.768000	0.059500	0.343700
H201	H20	0.940500	0.708500	0.343700
H211	H21	0.291500	0.232000	0.343700
H221	H22	0.232000	0.940500	0.343700
H231	H23	0.059500	0.291500	0.343700
H241	H24	0.708500	0.768000	0.343700
H251	H25	0.202800	0.101400	0.750000
H261	H26	0.898600	0.797200	0.750000
H271	H27	0.898600	0.101400	0.750000
H281	H28	0.797200	0.898600	0.750000
H291	H29	0.101400	0.202800	0.750000
H301	H30	0.101400	0.898600	0.750000
H311	H31	0.797200	0.898600	0.250000
H321	H32	0.101400	0.202800	0.250000
H331	H33	0.101400	0.898600	0.250000
H341	H34	0.202800	0.101400	0.250000
H351	H35	0.898600	0.797200	0.250000
H361	H36	0.898600	0.101400	0.250000
C11	C1	0.325200	0.110600	0.805700
C21	C2	0.428700	0.163100	0.802800
C31	C3	0.495800	0.142600	0.860400
C41	C4	0.785400	0.674800	0.805700
C51	C5	0.734400	0.571300	0.802800
C61	C6	0.646800	0.504200	0.860400
C71	C7	0.889400	0.214600	0.805700
C81	C8	0.836900	0.265600	0.802800
C91	C9	0.857400	0.353200	0.860400
C101	C10	0.674800	0.889400	0.805700
C111	C11	0.571300	0.836900	0.802800
C121	C12	0.504200	0.857400	0.860400
C131	C13	0.214600	0.325200	0.805700
C141	C14	0.265600	0.428700	0.802800
C151	C15	0.353200	0.495800	0.860400
C161	C16	0.110600	0.785400	0.805700
C171	C17	0.163100	0.734400	0.802800
C181	C18	0.142600	0.646800	0.860400
C191	C19	0.214600	0.889400	0.694300
C201	C20	0.265600	0.836900	0.697200
C211	C21	0.353200	0.857400	0.639600
C221	C22	0.110600	0.325200	0.694300
C231	C23	0.163100	0.428700	0.697200
C241	C24	0.142600	0.495800	0.639600
C251	C25	0.674800	0.785400	0.694300
C261	C26	0.571300	0.734400	0.697200
C271	C27	0.504200	0.646800	0.639600
C281	C28	0.785400	0.110600	0.694300
C291	C29	0.734400	0.163100	0.697200
C301	C30	0.646800	0.142600	0.639600
C311	C31	0.889400	0.674800	0.694300
C321	C32	0.836900	0.571300	0.697200
C331	C33	0.857400	0.504200	0.639600
C341	C34	0.325200	0.214600	0.694300
C351	C35	0.428700	0.265600	0.697200
C361	C36	0.495800	0.353200	0.639600
C371	C37	0.674800	0.889400	0.194300
C381	C38	0.571300	0.836900	0.197200
C391	C39	0.504200	0.857400	0.139600
C401	C40	0.214600	0.325200	0.194300
C411	C41	0.265600	0.428700	0.197200
C421	C42	0.353200	0.495800	0.139600
C431	C43	0.110600	0.785400	0.194300
C441	C44	0.163100	0.734400	0.197200
C451	C45	0.142600	0.646800	0.139600
C461	C46	0.325200	0.110600	0.194300
C471	C47	0.428700	0.163100	0.197200
C481	C48	0.495800	0.142600	0.139600
C491	C49	0.785400	0.674800	0.194300
C501	C50	0.734400	0.571300	0.197200
C511	C51	0.646800	0.504200	0.139600
C521	C52	0.889400	0.214600	0.194300
C531	C53	0.836900	0.265600	0.197200
C541	C54	0.857400	0.353200	0.139600
C551	C55	0.785400	0.110600	0.305700
C561	C56	0.734400	0.163100	0.302800
C571	C57	0.646800	0.142600	0.360400
C581	C58	0.889400	0.674800	0.305700
C591	C59	0.836900	0.571300	0.302800
C601	C60	0.857400	0.504200	0.360400
C611	C61	0.325200	0.214600	0.305700
C621	C62	0.428700	0.265600	0.302800
C631	C63	0.495800	0.353200	0.360400
C641	C64	0.214600	0.889400	0.305700
C651	C65	0.265600	0.836900	0.302800
C661	C66	0.353200	0.857400	0.360400
C671	C67	0.110600	0.325200	0.305700
C681	C68	0.163100	0.428700	0.302800
C691	C69	0.142600	0.495800	0.360400
C701	C70	0.674800	0.785400	0.305700
C711	C71	0.571300	0.734400	0.302800
C721	C72	0.504200	0.646800	0.360400
C731	C73	0.272300	0.136150	0.750000
C741	C74	0.863850	0.727700	0.750000
C751	C75	0.863850	0.136150	0.750000
C761	C76	0.727700	0.863850	0.750000
C771	C77	0.136150	0.272300	0.750000
C781	C78	0.136150	0.863850	0.750000
C791	C79	0.727700	0.863850	0.250000
C801	C80	0.136150	0.272300	0.250000
C811	C81	0.136150	0.863850	0.250000
C821	C82	0.272300	0.136150	0.250000
C831	C83	0.863850	0.727700	0.250000
C841	C84	0.863850	0.136150	0.250000
N11	N1	0.481000	0.240500	0.750000
N21	N2	0.759500	0.519000	0.750000
N31	N3	0.759500	0.240500	0.750000
N41	N4	0.519000	0.759500	0.750000
N51	N5	0.240500	0.481000	0.750000
N61	N6	0.240500	0.759500	0.750000
N71	N7	0.519000	0.759500	0.250000
N81	N8	0.240500	0.481000	0.250000
N91	N9	0.240500	0.759500	0.250000
N101	N10	0.481000	0.240500	0.250000
N111	N11	0.759500	0.519000	0.250000
N121	N12	0.759500	0.240500	0.250000
O11	O1	0.591300	0.201700	0.854100
O21	O2	0.451000	0.067500	0.907300
O31	O3	0.610400	0.408700	0.854100
O41	O4	0.616500	0.549000	0.907300
O51	O5	0.798300	0.389600	0.854100
O61	O6	0.932500	0.383500	0.907300
O71	O7	0.408700	0.798300	0.854100
O81	O8	0.549000	0.932500	0.907300
O91	O9	0.389600	0.591300	0.854100
O101	O10	0.383500	0.451000	0.907300
O111	O11	0.201700	0.610400	0.854100
O121	O12	0.067500	0.616500	0.907300
O131	O13	0.389600	0.798300	0.645900
O141	O14	0.383500	0.932500	0.592700
O151	O15	0.201700	0.591300	0.645900
O161	O16	0.067500	0.451000	0.592700
O171	O17	0.408700	0.610400	0.645900
O181	O18	0.549000	0.616500	0.592700
O191	O19	0.610400	0.201700	0.645900
O201	O20	0.616500	0.067500	0.592700
O211	O21	0.798300	0.408700	0.645900
O221	O22	0.932500	0.549000	0.592700
O231	O23	0.591300	0.389600	0.645900
O241	O24	0.451000	0.383500	0.592700
O251	O25	0.408700	0.798300	0.145900
O261	O26	0.549000	0.932500	0.092700
O271	O27	0.389600	0.591300	0.145900
O281	O28	0.383500	0.451000	0.092700
O291	O29	0.201700	0.610400	0.145900
O301	O30	0.067500	0.616500	0.092700
O311	O31	0.591300	0.201700	0.145900
O321	O32	0.451000	0.067500	0.092700
O331	O33	0.610400	0.408700	0.145900
O341	O34	0.616500	0.549000	0.092700
O351	O35	0.798300	0.389600	0.145900
O361	O36	0.932500	0.383500	0.092700
O371	O37	0.610400	0.201700	0.354100
O381	O38	0.616500	0.067500	0.407300
O391	O39	0.798300	0.408700	0.354100
O401	O40	0.932500	0.549000	0.407300
O411	O41	0.591300	0.389600	0.354100
O421	O42	0.451000	0.383500	0.407300
O431	O43	0.389600	0.798300	0.354100
O441	O44	0.383500	0.932500	0.407300
O451	O45	0.201700	0.591300	0.354100
O461	O46	0.067500	0.451000	0.407300
O471	O47	0.408700	0.610400	0.354100
O481	O48	0.549000	0.616500	0.407300
