data_EVEGOB_clean_PM
_symmetry_space_group_name_H-M	'P1'
_cell_length_a	15.670200
_cell_length_b	15.670200
_cell_length_c	15.670200
_cell_angle_alpha	90.000000
_cell_angle_beta	90.000000
_cell_angle_gamma	90.000000
_symmetry_Int_Tables_number 1

loop_
_symmetry_equiv_pos_as_xyz
'x,y,z'

loop_
_atom_site_label
_atom_site_type_symbol
_atom_site_fract_x
_atom_site_fract_y
_atom_site_fract_z
N11	N1	0.412200	0.821000	0.194500
C11	C1	0.391500	0.902000	0.217600
N21	N2	0.087800	0.679000	0.194500
C21	C2	0.108500	0.598000	0.217600
N31	N3	0.087800	0.821000	0.305500
C31	C3	0.108500	0.902000	0.282400
N41	N4	0.412200	0.679000	0.305500
C41	C4	0.391500	0.598000	0.282400
N51	N5	0.194500	0.412200	0.821000
C51	C5	0.217600	0.391500	0.902000
N61	N6	0.194500	0.087800	0.679000
C61	C6	0.217600	0.108500	0.598000
N71	N7	0.305500	0.087800	0.821000
C71	C7	0.282400	0.108500	0.902000
N81	N8	0.305500	0.412200	0.679000
C81	C8	0.282400	0.391500	0.598000
N91	N9	0.821000	0.194500	0.412200
C91	C9	0.902000	0.217600	0.391500
N101	N10	0.679000	0.194500	0.087800
C101	C10	0.598000	0.217600	0.108500
N111	N11	0.821000	0.305500	0.087800
C111	C11	0.902000	0.282400	0.108500
N121	N12	0.679000	0.305500	0.412200
C121	C12	0.598000	0.282400	0.391500
N131	N13	0.321000	0.912200	0.805500
C131	C13	0.402000	0.891500	0.782400
N141	N14	0.179000	0.587800	0.805500
C141	C14	0.098000	0.608500	0.782400
N151	N15	0.321000	0.587800	0.694500
C151	C15	0.402000	0.608500	0.717600
N161	N16	0.179000	0.912200	0.694500
C161	C16	0.098000	0.891500	0.717600
N171	N17	0.912200	0.694500	0.179000
C171	C17	0.891500	0.717600	0.098000
N181	N18	0.587800	0.694500	0.321000
C181	C18	0.608500	0.717600	0.402000
N191	N19	0.587800	0.805500	0.179000
C191	C19	0.608500	0.782400	0.098000
N201	N20	0.912200	0.805500	0.321000
C201	C20	0.891500	0.782400	0.402000
N211	N21	0.694500	0.321000	0.587800
C211	C21	0.717600	0.402000	0.608500
N221	N22	0.694500	0.179000	0.912200
C221	C22	0.717600	0.098000	0.891500
N231	N23	0.805500	0.321000	0.912200
C231	C23	0.782400	0.402000	0.891500
N241	N24	0.805500	0.179000	0.587800
C241	C24	0.782400	0.098000	0.608500
N251	N25	0.587800	0.179000	0.805500
C251	C25	0.608500	0.098000	0.782400
N261	N26	0.912200	0.321000	0.805500
C261	C26	0.891500	0.402000	0.782400
N271	N27	0.912200	0.179000	0.694500
C271	C27	0.891500	0.098000	0.717600
N281	N28	0.587800	0.321000	0.694500
C281	C28	0.608500	0.402000	0.717600
N291	N29	0.805500	0.587800	0.179000
C291	C29	0.782400	0.608500	0.098000
N301	N30	0.805500	0.912200	0.321000
C301	C30	0.782400	0.891500	0.402000
N311	N31	0.694500	0.912200	0.179000
C311	C31	0.717600	0.891500	0.098000
N321	N32	0.694500	0.587800	0.321000
C321	C32	0.717600	0.608500	0.402000
N331	N33	0.179000	0.805500	0.587800
C331	C33	0.098000	0.782400	0.608500
N341	N34	0.321000	0.805500	0.912200
C341	C34	0.402000	0.782400	0.891500
N351	N35	0.179000	0.694500	0.912200
C351	C35	0.098000	0.717600	0.891500
N361	N36	0.321000	0.694500	0.587800
C361	C36	0.402000	0.717600	0.608500
N371	N37	0.679000	0.087800	0.194500
C371	C37	0.598000	0.108500	0.217600
N381	N38	0.821000	0.412200	0.194500
C381	C38	0.902000	0.391500	0.217600
N391	N39	0.679000	0.412200	0.305500
C391	C39	0.598000	0.391500	0.282400
N401	N40	0.821000	0.087800	0.305500
C401	C40	0.902000	0.108500	0.282400
N411	N41	0.087800	0.305500	0.821000
C411	C41	0.108500	0.282400	0.902000
N421	N42	0.412200	0.305500	0.679000
C421	C42	0.391500	0.282400	0.598000
N431	N43	0.412200	0.194500	0.821000
C431	C43	0.391500	0.217600	0.902000
N441	N44	0.087800	0.194500	0.679000
C441	C44	0.108500	0.217600	0.598000
N451	N45	0.305500	0.679000	0.412200
C451	C45	0.282400	0.598000	0.391500
N461	N46	0.305500	0.821000	0.087800
C461	C46	0.282400	0.902000	0.108500
N471	N47	0.194500	0.679000	0.087800
C471	C47	0.217600	0.598000	0.108500
N481	N48	0.194500	0.821000	0.412200
C481	C48	0.217600	0.902000	0.391500
Cu11	Cu1	0.500000	0.750000	0.250000
Cu21	Cu2	0.000000	0.750000	0.250000
Cu31	Cu3	0.250000	0.500000	0.750000
Cu41	Cu4	0.250000	0.000000	0.750000
Cu51	Cu5	0.750000	0.250000	0.500000
Cu61	Cu6	0.750000	0.250000	0.000000
Cu71	Cu7	0.500000	0.250000	0.750000
Cu81	Cu8	0.000000	0.250000	0.750000
Cu91	Cu9	0.750000	0.500000	0.250000
Cu101	Cu10	0.750000	0.000000	0.250000
Cu111	Cu11	0.250000	0.750000	0.500000
Cu121	Cu12	0.250000	0.750000	0.000000
C491	C49	0.373900	0.778300	0.126100
C501	C50	0.327000	0.947100	0.173000
O11	O1	0.395200	0.707900	0.104800
C511	C51	0.126100	0.721700	0.126100
C521	C52	0.173000	0.552900	0.173000
O21	O2	0.104800	0.792100	0.104800
C531	C53	0.126100	0.778300	0.373900
C541	C54	0.173000	0.947100	0.327000
O31	O3	0.104800	0.707900	0.395200
C551	C55	0.373900	0.721700	0.373900
C561	C56	0.327000	0.552900	0.327000
O41	O4	0.395200	0.792100	0.395200
C571	C57	0.126100	0.373900	0.778300
C581	C58	0.173000	0.327000	0.947100
O51	O5	0.104800	0.395200	0.707900
C591	C59	0.126100	0.126100	0.721700
C601	C60	0.173000	0.173000	0.552900
O61	O6	0.104800	0.104800	0.792100
C611	C61	0.373900	0.126100	0.778300
C621	C62	0.327000	0.173000	0.947100
O71	O7	0.395200	0.104800	0.707900
C631	C63	0.373900	0.373900	0.721700
C641	C64	0.327000	0.327000	0.552900
O81	O8	0.395200	0.395200	0.792100
C651	C65	0.778300	0.126100	0.373900
C661	C66	0.947100	0.173000	0.327000
O91	O9	0.707900	0.104800	0.395200
C671	C67	0.721700	0.126100	0.126100
C681	C68	0.552900	0.173000	0.173000
O101	O10	0.792100	0.104800	0.104800
C691	C69	0.778300	0.373900	0.126100
C701	C70	0.947100	0.327000	0.173000
O111	O11	0.707900	0.395200	0.104800
C711	C71	0.721700	0.373900	0.373900
C721	C72	0.552900	0.327000	0.327000
O121	O12	0.792100	0.395200	0.395200
C731	C73	0.278300	0.873900	0.873900
C741	C74	0.447100	0.827000	0.827000
O131	O13	0.207900	0.895200	0.895200
C751	C75	0.221700	0.626100	0.873900
C761	C76	0.052900	0.673000	0.827000
O141	O14	0.292100	0.604800	0.895200
C771	C77	0.278300	0.626100	0.626100
C781	C78	0.447100	0.673000	0.673000
O151	O15	0.207900	0.604800	0.604800
C791	C79	0.221700	0.873900	0.626100
C801	C80	0.052900	0.827000	0.673000
O161	O16	0.292100	0.895200	0.604800
C811	C81	0.873900	0.626100	0.221700
C821	C82	0.827000	0.673000	0.052900
O171	O17	0.895200	0.604800	0.292100
C831	C83	0.626100	0.626100	0.278300
C841	C84	0.673000	0.673000	0.447100
O181	O18	0.604800	0.604800	0.207900
C851	C85	0.626100	0.873900	0.221700
C861	C86	0.673000	0.827000	0.052900
O191	O19	0.604800	0.895200	0.292100
C871	C87	0.873900	0.873900	0.278300
C881	C88	0.827000	0.827000	0.447100
O201	O20	0.895200	0.895200	0.207900
C891	C89	0.626100	0.278300	0.626100
C901	C90	0.673000	0.447100	0.673000
O211	O21	0.604800	0.207900	0.604800
C911	C91	0.626100	0.221700	0.873900
C921	C92	0.673000	0.052900	0.827000
O221	O22	0.604800	0.292100	0.895200
C931	C93	0.873900	0.278300	0.873900
C941	C94	0.827000	0.447100	0.827000
O231	O23	0.895200	0.207900	0.895200
C951	C95	0.873900	0.221700	0.626100
C961	C96	0.827000	0.052900	0.673000
O241	O24	0.895200	0.292100	0.604800
