data_EVIMUT_clean_PM
_symmetry_space_group_name_H-M	'P1'
_cell_length_a	12.721000
_cell_length_b	12.855000
_cell_length_c	17.454000
_cell_angle_alpha	106.426000
_cell_angle_beta	102.724000
_cell_angle_gamma	99.862000
_symmetry_Int_Tables_number 1

loop_
_symmetry_equiv_pos_as_xyz
'x,y,z'

loop_
_atom_site_label
_atom_site_type_symbol
_atom_site_fract_x
_atom_site_fract_y
_atom_site_fract_z
C11	C1	0.386400	0.489700	0.106500
C21	C2	0.895300	0.794300	0.566100
H11	H1	0.896000	0.737100	0.593100
H21	H2	0.843800	0.761500	0.509800
H31	H3	0.871200	0.856500	0.598600
C31	C3	0.095400	0.881400	0.647000
H41	H4	0.073900	0.942500	0.683100
H51	H5	0.169900	0.909100	0.642800
H61	H6	0.095900	0.820800	0.670700
C41	C4	0.460000	0.492000	0.188400
H71	H7	0.416500	0.494200	0.228500
H81	H8	0.522600	0.558600	0.210300
H91	H9	0.488400	0.424600	0.179400
C51	C5	0.047100	0.742600	0.503700
H101	H10	0.043300	0.679500	0.524900
H111	H11	0.123400	0.769700	0.502600
H121	H12	0.996600	0.717900	0.447200
C61	C6	0.012600	0.837600	0.560900
C71	C7	0.289400	0.386300	0.071100
H131	H13	0.317800	0.319000	0.063300
H141	H14	0.243900	0.384600	0.017300
H151	H15	0.243800	0.388700	0.109800
C81	C8	0.341100	0.595600	0.120000
H161	H16	0.296100	0.597000	0.159000
H171	H17	0.294900	0.594300	0.066600
H181	H18	0.403400	0.662400	0.142900
N11	N1	0.018800	0.932900	0.526600
N21	N2	0.453100	0.484700	0.045100
Na11	Na1	0.152590	0.318540	0.778700
Na21	Na2	0.254760	0.019600	0.506340
P11	P1	0.410970	0.454320	0.940060
P21	P2	0.028710	0.070910	0.573870
S11	S1	0.364260	0.291590	0.875260
S21	S2	0.923150	0.101550	0.640600
Cl11	Cl1	0.306250	0.539380	0.901780
Cl21	Cl2	0.183880	0.160490	0.632810
C91	C9	0.763500	0.156400	0.074000
H191	H19	0.743900	0.163900	0.018600
H201	H20	0.734500	0.208600	0.111600
H211	H21	0.844600	0.173500	0.095700
C101	C10	0.712400	0.035700	0.067700
C111	C11	0.762300	0.953700	0.012200
H221	H22	0.843600	0.975600	0.034000
H231	H23	0.734200	0.877700	0.012000
H241	H24	0.740700	0.955500	0.955200
C121	C12	0.735700	0.026400	0.153800
H251	H25	0.700300	0.076200	0.187600
H261	H26	0.705600	0.949000	0.149700
H271	H27	0.816200	0.048100	0.180000
N31	N3	0.588800	0.003500	0.029700
Na31	Na3	0.533770	0.251300	0.990400
P31	P3	0.514290	0.964290	0.927860
S31	S3	0.488060	0.802070	0.866460
Cl31	Cl3	0.563500	0.062530	0.866740
C131	C13	0.415600	0.826100	0.365000
C141	C14	0.350600	0.728600	0.383700
H281	H28	0.400400	0.709500	0.426100
H291	H29	0.289300	0.750800	0.404300
H301	H30	0.320600	0.663500	0.332600
C151	C15	0.516000	0.795300	0.337600
H311	H31	0.490000	0.730600	0.286100
H321	H32	0.558500	0.859000	0.327900
H331	H33	0.563700	0.776500	0.381400
C161	C16	0.340200	0.852800	0.296600
H341	H34	0.278500	0.876900	0.315500
H351	H35	0.382900	0.913000	0.283200
H361	H36	0.310600	0.785800	0.246800
N41	N4	0.452300	0.925700	0.442400
P41	P4	0.501660	0.064270	0.456370
S41	S4	0.384210	0.143560	0.432770
Cl41	Cl4	0.623260	0.096010	0.405170
Na41	Na4	0.526860	0.842300	0.717200
C171	C17	0.613600	0.510300	0.893500
C181	C18	0.104700	0.205700	0.433900
H371	H37	0.104000	0.262900	0.406900
H381	H38	0.156200	0.238500	0.490200
H391	H39	0.128800	0.143500	0.401400
C191	C19	0.904600	0.118600	0.353000
H401	H40	0.926100	0.057500	0.316900
H411	H41	0.830100	0.090900	0.357200
H421	H42	0.904100	0.179200	0.329300
C201	C20	0.540000	0.508000	0.811600
H431	H43	0.583500	0.505800	0.771500
H441	H44	0.477400	0.441400	0.789700
H451	H45	0.511600	0.575400	0.820600
C211	C21	0.952900	0.257400	0.496300
H461	H46	0.956700	0.320500	0.475100
H471	H47	0.876600	0.230300	0.497400
H481	H48	0.003400	0.282100	0.552800
C221	C22	0.987400	0.162400	0.439100
C231	C23	0.710600	0.613700	0.928900
H491	H49	0.682200	0.681000	0.936700
H501	H50	0.756100	0.615400	0.982700
H511	H51	0.756200	0.611300	0.890200
C241	C24	0.658900	0.404400	0.880000
H521	H52	0.703900	0.403000	0.841000
H531	H53	0.705100	0.405700	0.933400
H541	H54	0.596600	0.337600	0.857100
N51	N5	0.981200	0.067100	0.473400
N61	N6	0.546900	0.515300	0.954900
Na51	Na5	0.847410	0.681460	0.221300
Na61	Na6	0.745240	0.980400	0.493660
P51	P5	0.589030	0.545680	0.059940
P61	P6	0.971290	0.929090	0.426130
S51	S5	0.635740	0.708410	0.124740
S61	S6	0.076850	0.898450	0.359400
Cl51	Cl5	0.693750	0.460620	0.098220
Cl61	Cl6	0.816120	0.839510	0.367190
C251	C25	0.236500	0.843600	0.926000
H551	H55	0.256100	0.836100	0.981400
H561	H56	0.265500	0.791400	0.888400
H571	H57	0.155400	0.826500	0.904300
C261	C26	0.287600	0.964300	0.932300
C271	C27	0.237700	0.046300	0.987800
H581	H58	0.156400	0.024400	0.966000
H591	H59	0.265800	0.122300	0.988000
H601	H60	0.259300	0.044500	0.044800
C281	C28	0.264300	0.973600	0.846200
H611	H61	0.299700	0.923800	0.812400
H621	H62	0.294400	0.051000	0.850300
H631	H63	0.183800	0.951900	0.820000
N71	N7	0.411200	0.996500	0.970300
Na71	Na7	0.466230	0.748700	0.009600
P71	P7	0.485710	0.035710	0.072140
S71	S7	0.511940	0.197930	0.133540
Cl71	Cl7	0.436500	0.937470	0.133260
C291	C29	0.584400	0.173900	0.635000
C301	C30	0.649400	0.271400	0.616300
H641	H64	0.599600	0.290500	0.573900
H651	H65	0.710700	0.249200	0.595700
H661	H66	0.679400	0.336500	0.667400
C311	C31	0.484000	0.204700	0.662400
H671	H67	0.510000	0.269400	0.713900
H681	H68	0.441500	0.141000	0.672100
H691	H69	0.436300	0.223500	0.618600
C321	C32	0.659800	0.147200	0.703400
H701	H70	0.721500	0.123100	0.684500
H711	H71	0.617100	0.087000	0.716800
H721	H72	0.689400	0.214200	0.753200
N81	N8	0.547700	0.074300	0.557600
P81	P8	0.498340	0.935730	0.543630
S81	S8	0.615790	0.856440	0.567230
Cl81	Cl8	0.376740	0.903990	0.594830
Na81	Na8	0.473140	0.157700	0.282800
