data_EVUBAY_clean_PM
_symmetry_space_group_name_H-M	'P1'
_cell_length_a	9.332200
_cell_length_b	10.795000
_cell_length_c	21.618100
_cell_angle_alpha	91.584000
_cell_angle_beta	90.000000
_cell_angle_gamma	90.000000
_symmetry_Int_Tables_number 1

loop_
_symmetry_equiv_pos_as_xyz
'x,y,z'

loop_
_atom_site_label
_atom_site_type_symbol
_atom_site_fract_x
_atom_site_fract_y
_atom_site_fract_z
Zn11	Zn1	0.633720	0.253930	0.750070
Zn21	Zn2	0.109620	0.925850	0.812130
Zn31	Zn3	0.395280	0.068060	0.689540
Zn41	Zn4	0.133720	0.246070	0.249930
Zn51	Zn5	0.609620	0.574150	0.187870
Zn61	Zn6	0.895280	0.431940	0.310460
Zn71	Zn7	0.366280	0.746070	0.249930
Zn81	Zn8	0.890380	0.074150	0.187870
Zn91	Zn9	0.604720	0.931940	0.310460
Zn101	Zn10	0.866280	0.753930	0.750070
Zn111	Zn11	0.390380	0.425850	0.812130
Zn121	Zn12	0.104720	0.568060	0.689540
P11	P1	0.363860	0.136690	0.826930
P21	P2	0.358230	0.358040	0.673000
P31	P3	0.863860	0.363310	0.173070
P41	P4	0.858230	0.141960	0.327000
P51	P5	0.636140	0.863310	0.173070
P61	P6	0.641770	0.641960	0.327000
P71	P7	0.136140	0.636690	0.826930
P81	P8	0.141770	0.858040	0.673000
H11	H1	0.460600	0.973500	0.879200
H21	H2	0.544600	0.095400	0.895900
H31	H3	0.471800	0.226700	0.983500
H41	H4	0.351500	0.243700	0.076700
H51	H5	0.115400	0.945400	0.029800
H61	H6	0.241500	0.924100	0.938100
H71	H7	0.455400	0.521200	0.621800
H81	H8	0.540400	0.399600	0.605500
H91	H9	0.475600	0.271700	0.516300
H101	H10	0.357500	0.255100	0.422100
H111	H11	0.116600	0.549500	0.468900
H121	H12	0.238600	0.570800	0.561900
H131	H13	0.960600	0.526500	0.120800
H141	H14	0.044600	0.404600	0.104100
H151	H15	0.971800	0.273300	0.016500
H161	H16	0.851500	0.256300	0.923300
H171	H17	0.615400	0.554600	0.970200
H181	H18	0.741500	0.575900	0.061900
H191	H19	0.955400	0.978800	0.378200
H201	H20	0.040400	0.100400	0.394500
H211	H21	0.975600	0.228300	0.483700
H221	H22	0.857500	0.244900	0.577900
H231	H23	0.616600	0.950500	0.531100
H241	H24	0.738600	0.929200	0.438100
H251	H25	0.539400	0.026500	0.120800
H261	H26	0.455400	0.904600	0.104100
H271	H27	0.528200	0.773300	0.016500
H281	H28	0.648500	0.756300	0.923300
H291	H29	0.884600	0.054600	0.970200
H301	H30	0.758500	0.075900	0.061900
H311	H31	0.544600	0.478800	0.378200
H321	H32	0.459600	0.600400	0.394500
H331	H33	0.524400	0.728300	0.483700
H341	H34	0.642500	0.744900	0.577900
H351	H35	0.883400	0.450500	0.531100
H361	H36	0.761400	0.429200	0.438100
H371	H37	0.039400	0.473500	0.879200
H381	H38	0.955400	0.595400	0.895900
H391	H39	0.028200	0.726700	0.983500
H401	H40	0.148500	0.743700	0.076700
H411	H41	0.384600	0.445400	0.029800
H421	H42	0.258500	0.424100	0.938100
H431	H43	0.044600	0.021200	0.621800
H441	H44	0.959600	0.899600	0.605500
H451	H45	0.024400	0.771700	0.516300
H461	H46	0.142500	0.755100	0.422100
H471	H47	0.383400	0.049500	0.468900
H481	H48	0.261400	0.070800	0.561900
C11	C1	0.449500	0.060700	0.890140
C21	C2	0.368800	0.072300	0.950750
C31	C3	0.401200	0.169500	0.992930
C41	C4	0.328200	0.180200	0.048550
C51	C5	0.220900	0.097100	0.062610
C61	C6	0.187800	0.001400	0.020790
C71	C7	0.263000	0.989300	0.965590
C81	C8	0.141200	0.109700	0.122440
C91	C9	0.445000	0.434000	0.610590
C101	C10	0.367700	0.423100	0.549420
C111	C11	0.403900	0.328100	0.506850
C121	C12	0.332800	0.317900	0.450430
C131	C13	0.225100	0.400800	0.436100
C141	C14	0.189500	0.494200	0.478140
C151	C15	0.261800	0.506200	0.534320
C161	C16	0.147500	0.389600	0.375260
C171	C17	0.949500	0.439300	0.109860
C181	C18	0.868800	0.427700	0.049250
C191	C19	0.901200	0.330500	0.007070
C201	C20	0.828200	0.319800	0.951450
C211	C21	0.720900	0.402900	0.937390
C221	C22	0.687800	0.498600	0.979210
C231	C23	0.763000	0.510700	0.034410
C241	C24	0.641200	0.390300	0.877560
C251	C25	0.945000	0.066000	0.389410
C261	C26	0.867700	0.076900	0.450580
C271	C27	0.903900	0.171900	0.493150
C281	C28	0.832800	0.182100	0.549570
C291	C29	0.725100	0.099200	0.563900
C301	C30	0.689500	0.005800	0.521860
C311	C31	0.761800	0.993800	0.465680
C321	C32	0.647500	0.110400	0.624740
C331	C33	0.550500	0.939300	0.109860
C341	C34	0.631200	0.927700	0.049250
C351	C35	0.598800	0.830500	0.007070
C361	C36	0.671800	0.819800	0.951450
C371	C37	0.779100	0.902900	0.937390
C381	C38	0.812200	0.998600	0.979210
C391	C39	0.737000	0.010700	0.034410
C401	C40	0.858800	0.890300	0.877560
C411	C41	0.555000	0.566000	0.389410
C421	C42	0.632300	0.576900	0.450580
C431	C43	0.596100	0.671900	0.493150
C441	C44	0.667200	0.682100	0.549570
C451	C45	0.774900	0.599200	0.563900
C461	C46	0.810500	0.505800	0.521860
C471	C47	0.738200	0.493800	0.465680
C481	C48	0.852500	0.610400	0.624740
C491	C49	0.050500	0.560700	0.890140
C501	C50	0.131200	0.572300	0.950750
C511	C51	0.098800	0.669500	0.992930
C521	C52	0.171800	0.680200	0.048550
C531	C53	0.279100	0.597100	0.062610
C541	C54	0.312200	0.501400	0.020790
C551	C55	0.237000	0.489300	0.965590
C561	C56	0.358800	0.609700	0.122440
C571	C57	0.055000	0.934000	0.610590
C581	C58	0.132300	0.923100	0.549420
C591	C59	0.096100	0.828100	0.506850
C601	C60	0.167200	0.817900	0.450430
C611	C61	0.274900	0.900800	0.436100
C621	C62	0.310500	0.994200	0.478140
C631	C63	0.238200	0.006200	0.534320
C641	C64	0.352500	0.889600	0.375260
O11	O1	0.470900	0.124500	0.771720
O21	O2	0.226600	0.069400	0.808730
O31	O3	0.331800	0.269700	0.845670
O41	O4	0.161200	0.204700	0.155870
O51	O5	0.056000	0.021600	0.136140
O61	O6	0.214800	0.420000	0.688020
O71	O7	0.461500	0.374800	0.728720
O81	O8	0.333700	0.222800	0.655300
O91	O9	0.064400	0.478100	0.361380
O101	O10	0.168900	0.295200	0.341600
O111	O11	0.970900	0.375500	0.228280
O121	O12	0.726600	0.430600	0.191270
O131	O13	0.831800	0.230300	0.154330
O141	O14	0.661200	0.295300	0.844130
O151	O15	0.556000	0.478400	0.863860
O161	O16	0.714800	0.080000	0.311980
O171	O17	0.961500	0.125200	0.271280
O181	O18	0.833700	0.277200	0.344700
O191	O19	0.564400	0.021900	0.638620
O201	O20	0.668900	0.204800	0.658400
O211	O21	0.529100	0.875500	0.228280
O221	O22	0.773400	0.930600	0.191270
O231	O23	0.668200	0.730300	0.154330
O241	O24	0.838800	0.795300	0.844130
O251	O25	0.944000	0.978400	0.863860
O261	O26	0.785200	0.580000	0.311980
O271	O27	0.538500	0.625200	0.271280
O281	O28	0.666300	0.777200	0.344700
O291	O29	0.935600	0.521900	0.638620
O301	O30	0.831100	0.704800	0.658400
O311	O31	0.029100	0.624500	0.771720
O321	O32	0.273400	0.569400	0.808730
O331	O33	0.168200	0.769700	0.845670
O341	O34	0.338800	0.704700	0.155870
O351	O35	0.444000	0.521600	0.136140
O361	O36	0.285200	0.920000	0.688020
O371	O37	0.038500	0.874800	0.728720
O381	O38	0.166300	0.722800	0.655300
O391	O39	0.435600	0.978100	0.361380
O401	O40	0.331100	0.795200	0.341600
