data_EVUNOY_clean_PM
_symmetry_space_group_name_H-M	'P1'
_cell_length_a	13.237000
_cell_length_b	14.698000
_cell_length_c	14.870000
_cell_angle_alpha	90.000000
_cell_angle_beta	90.000000
_cell_angle_gamma	90.000000
_symmetry_Int_Tables_number 1

loop_
_symmetry_equiv_pos_as_xyz
'x,y,z'

loop_
_atom_site_label
_atom_site_type_symbol
_atom_site_fract_x
_atom_site_fract_y
_atom_site_fract_z
Cd11	Cd1	0.238310	0.063210	0.610100
Cd21	Cd2	0.261690	0.563210	0.889900
Cd31	Cd3	0.761690	0.436790	0.610100
Cd41	Cd4	0.738310	0.936790	0.889900
Cd51	Cd5	0.761690	0.936790	0.389900
Cd61	Cd6	0.738310	0.436790	0.110100
Cd71	Cd7	0.238310	0.563210	0.389900
Cd81	Cd8	0.261690	0.063210	0.110100
Cd91	Cd9	0.000000	0.750000	0.648850
Cd101	Cd10	0.500000	0.250000	0.851150
Cd111	Cd11	0.000000	0.250000	0.351150
Cd121	Cd12	0.500000	0.750000	0.148850
H11	H1	0.456000	0.000900	0.333300
H21	H2	0.328000	0.861400	0.519100
H31	H3	0.420800	0.849400	0.377200
H41	H4	0.353500	0.175900	0.476900
H51	H5	0.353900	0.163600	0.372200
H61	H6	0.456200	0.166500	0.425200
H71	H7	0.044000	0.500900	0.166700
H81	H8	0.172000	0.361400	0.980900
H91	H9	0.079200	0.349400	0.122800
H101	H10	0.146500	0.675900	0.023100
H111	H11	0.146100	0.663600	0.127800
H121	H12	0.043800	0.666500	0.074800
H131	H13	0.544000	0.499100	0.333300
H141	H14	0.672000	0.638600	0.519100
H151	H15	0.579200	0.650600	0.377200
H161	H16	0.646500	0.324100	0.476900
H171	H17	0.646100	0.336400	0.372200
H181	H18	0.543800	0.333500	0.425200
H191	H19	0.956000	0.999100	0.166700
H201	H20	0.828000	0.138600	0.980900
H211	H21	0.920800	0.150600	0.122800
H221	H22	0.853500	0.824100	0.023100
H231	H23	0.853900	0.836400	0.127800
H241	H24	0.956200	0.833500	0.074800
H251	H25	0.544000	0.999100	0.666700
H261	H26	0.672000	0.138600	0.480900
H271	H27	0.579200	0.150600	0.622800
H281	H28	0.646500	0.824100	0.523100
H291	H29	0.646100	0.836400	0.627800
H301	H30	0.543800	0.833500	0.574800
H311	H31	0.956000	0.499100	0.833300
H321	H32	0.828000	0.638600	0.019100
H331	H33	0.920800	0.650600	0.877200
H341	H34	0.853500	0.324100	0.976900
H351	H35	0.853900	0.336400	0.872200
H361	H36	0.956200	0.333500	0.925200
H371	H37	0.456000	0.500900	0.666700
H381	H38	0.328000	0.361400	0.480900
H391	H39	0.420800	0.349400	0.622800
H401	H40	0.353500	0.675900	0.523100
H411	H41	0.353900	0.663600	0.627800
H421	H42	0.456200	0.666500	0.574800
H431	H43	0.044000	0.000900	0.833300
H441	H44	0.172000	0.861400	0.019100
H451	H45	0.079200	0.849400	0.877200
H461	H46	0.146500	0.175900	0.976900
H471	H47	0.146100	0.163600	0.872200
H481	H48	0.043800	0.166500	0.925200
C11	C1	0.150400	0.940700	0.647100
C21	C2	0.162200	0.641800	0.799900
C31	C3	0.145600	0.650700	0.482400
C41	C4	0.383000	0.046400	0.438700
C51	C5	0.351400	0.909600	0.484300
C61	C6	0.402800	0.902800	0.406700
C71	C7	0.387000	0.147000	0.427200
C81	C8	0.349600	0.440700	0.852900
C91	C9	0.337800	0.141800	0.700100
C101	C10	0.354400	0.150700	0.017600
C111	C11	0.117000	0.546400	0.061300
C121	C12	0.148600	0.409600	0.015700
C131	C13	0.097200	0.402800	0.093300
C141	C14	0.113000	0.647000	0.072800
C151	C15	0.849600	0.559300	0.647100
C161	C16	0.837800	0.858200	0.799900
C171	C17	0.854400	0.849300	0.482400
C181	C18	0.617000	0.453600	0.438700
C191	C19	0.648600	0.590400	0.484300
C201	C20	0.597200	0.597200	0.406700
C211	C21	0.613000	0.353000	0.427200
C221	C22	0.650400	0.059300	0.852900
C231	C23	0.662200	0.358200	0.700100
C241	C24	0.645600	0.349300	0.017600
C251	C25	0.883000	0.953600	0.061300
C261	C26	0.851400	0.090400	0.015700
C271	C27	0.902800	0.097200	0.093300
C281	C28	0.887000	0.853000	0.072800
C291	C29	0.849600	0.059300	0.352900
C301	C30	0.837800	0.358200	0.200100
C311	C31	0.854400	0.349300	0.517600
C321	C32	0.617000	0.953600	0.561300
C331	C33	0.648600	0.090400	0.515700
C341	C34	0.597200	0.097200	0.593300
C351	C35	0.613000	0.853000	0.572800
C361	C36	0.650400	0.559300	0.147100
C371	C37	0.662200	0.858200	0.299900
C381	C38	0.645600	0.849300	0.982400
C391	C39	0.883000	0.453600	0.938700
C401	C40	0.851400	0.590400	0.984300
C411	C41	0.902800	0.597200	0.906700
C421	C42	0.887000	0.353000	0.927200
C431	C43	0.150400	0.440700	0.352900
C441	C44	0.162200	0.141800	0.200100
C451	C45	0.145600	0.150700	0.517600
C461	C46	0.383000	0.546400	0.561300
C471	C47	0.351400	0.409600	0.515700
C481	C48	0.402800	0.402800	0.593300
C491	C49	0.387000	0.647000	0.572800
C501	C50	0.349600	0.940700	0.147100
C511	C51	0.337800	0.641800	0.299900
C521	C52	0.354400	0.650700	0.982400
C531	C53	0.117000	0.046400	0.938700
C541	C54	0.148600	0.909600	0.984300
C551	C55	0.097200	0.902800	0.906700
C561	C56	0.113000	0.147000	0.927200
N11	N1	0.102900	0.878700	0.655100
N21	N2	0.105300	0.680400	0.757200
N31	N3	0.101500	0.687400	0.535500
N41	N4	0.422500	0.986600	0.380800
N51	N5	0.339600	0.000200	0.503200
N61	N6	0.397100	0.378700	0.844900
N71	N7	0.394700	0.180400	0.742800
N81	N8	0.398500	0.187400	0.964500
N91	N9	0.077500	0.486600	0.119200
N101	N10	0.160400	0.500200	0.996800
N111	N11	0.897100	0.621300	0.655100
N121	N12	0.894700	0.819600	0.757200
N131	N13	0.898500	0.812600	0.535500
N141	N14	0.577500	0.513400	0.380800
N151	N15	0.660400	0.499800	0.503200
N161	N16	0.602900	0.121300	0.844900
N171	N17	0.605300	0.319600	0.742800
N181	N18	0.601500	0.312600	0.964500
N191	N19	0.922500	0.013400	0.119200
N201	N20	0.839600	0.999800	0.996800
N211	N21	0.897100	0.121300	0.344900
N221	N22	0.894700	0.319600	0.242800
N231	N23	0.898500	0.312600	0.464500
N241	N24	0.577500	0.013400	0.619200
N251	N25	0.660400	0.999800	0.496800
N261	N26	0.602900	0.621300	0.155100
N271	N27	0.605300	0.819600	0.257200
N281	N28	0.601500	0.812600	0.035500
N291	N29	0.922500	0.513400	0.880800
N301	N30	0.839600	0.499800	0.003200
N311	N31	0.102900	0.378700	0.344900
N321	N32	0.105300	0.180400	0.242800
N331	N33	0.101500	0.187400	0.464500
N341	N34	0.422500	0.486600	0.619200
N351	N35	0.339600	0.500200	0.496800
N361	N36	0.397100	0.878700	0.155100
N371	N37	0.394700	0.680400	0.257200
N381	N38	0.398500	0.687400	0.035500
N391	N39	0.077500	0.986600	0.880800
N401	N40	0.160400	0.000200	0.003200
