data_EWESAC_clean_PM
_symmetry_space_group_name_H-M	'P1'
_cell_length_a	15.112300
_cell_length_b	19.906900
_cell_length_c	31.259100
_cell_angle_alpha	90.000000
_cell_angle_beta	90.000000
_cell_angle_gamma	90.000000
_symmetry_Int_Tables_number 1

loop_
_symmetry_equiv_pos_as_xyz
'x,y,z'

loop_
_atom_site_label
_atom_site_type_symbol
_atom_site_fract_x
_atom_site_fract_y
_atom_site_fract_z
Zn11	Zn1	0.109110	0.195560	0.141870
N11	N1	0.099400	0.193300	0.212840
C11	C1	0.133500	0.241200	0.237280
H11	H1	0.161000	0.277300	0.223800
C21	C2	0.130700	0.240900	0.281540
H21	H2	0.155900	0.275900	0.297100
C31	C3	0.090200	0.188400	0.302250
C41	C4	0.055900	0.137700	0.277170
H31	H3	0.029000	0.100800	0.289900
C51	C5	0.061600	0.141600	0.233210
H41	H4	0.038000	0.106700	0.217000
C61	C6	0.081000	0.182400	0.350200
O11	O1	0.048600	0.132600	0.366380
N21	N2	0.110500	0.235500	0.372560
N31	N3	0.108300	0.232600	0.416700
C71	C7	0.122000	0.287900	0.435760
H51	H5	0.132600	0.326700	0.420000
C81	C8	0.121200	0.290900	0.482360
C91	C9	0.115700	0.350500	0.504300
H61	H6	0.113700	0.390700	0.489200
C101	C10	0.113100	0.351500	0.548800
H71	H7	0.106400	0.392600	0.562500
N41	N4	0.119700	0.297600	0.571860
C111	C11	0.127500	0.239700	0.550800
H81	H8	0.132300	0.200400	0.566800
C121	C12	0.128700	0.234600	0.506900
H91	H9	0.134700	0.192700	0.494000
C131	C13	0.363300	0.908300	0.140420
C141	C14	0.271600	0.914400	0.138700
H101	H10	0.236600	0.876000	0.137100
C151	C15	0.232200	0.976800	0.139300
H111	H11	0.170900	0.980500	0.137900
C161	C16	0.284200	0.033900	0.141940
C171	C17	0.375300	0.028200	0.141840
H121	H12	0.410300	0.066600	0.142400
C181	C18	0.414600	0.965100	0.140930
H131	H13	0.475900	0.961400	0.140700
C191	C19	0.240500	0.101900	0.144580
O21	O2	0.156700	0.102360	0.141230
O31	O3	0.285400	0.153300	0.149830
C201	C20	0.402800	0.839500	0.141460
O41	O4	0.483100	0.834200	0.136770
O51	O5	0.350100	0.790430	0.146640
H141	H14	0.129000	0.275000	0.364200
Zn21	Zn2	0.609110	0.695560	0.641870
N51	N5	0.599400	0.693300	0.712840
C211	C21	0.633500	0.741200	0.737280
H151	H15	0.661000	0.777300	0.723800
C221	C22	0.630700	0.740900	0.781540
H161	H16	0.655900	0.775900	0.797100
C231	C23	0.590200	0.688400	0.802250
C241	C24	0.555900	0.637700	0.777170
H171	H17	0.529000	0.600800	0.789900
C251	C25	0.561600	0.641600	0.733210
H181	H18	0.538000	0.606700	0.717000
C261	C26	0.581000	0.682400	0.850200
O61	O6	0.548600	0.632600	0.866380
N61	N6	0.610500	0.735500	0.872560
N71	N7	0.608300	0.732600	0.916700
C271	C27	0.622000	0.787900	0.935760
H191	H19	0.632600	0.826700	0.920000
C281	C28	0.621200	0.790900	0.982360
C291	C29	0.615700	0.850500	0.004300
H201	H20	0.613700	0.890700	0.989200
C301	C30	0.613100	0.851500	0.048800
H211	H21	0.606400	0.892600	0.062500
N81	N8	0.619700	0.797600	0.071860
C311	C31	0.627500	0.739700	0.050800
H221	H22	0.632300	0.700400	0.066800
C321	C32	0.628700	0.734600	0.006900
H231	H23	0.634700	0.692700	0.994000
C331	C33	0.863300	0.408300	0.640420
C341	C34	0.771600	0.414400	0.638700
H241	H24	0.736600	0.376000	0.637100
C351	C35	0.732200	0.476800	0.639300
H251	H25	0.670900	0.480500	0.637900
C361	C36	0.784200	0.533900	0.641940
C371	C37	0.875300	0.528200	0.641840
H261	H26	0.910300	0.566600	0.642400
C381	C38	0.914600	0.465100	0.640930
H271	H27	0.975900	0.461400	0.640700
C391	C39	0.740500	0.601900	0.644580
O71	O7	0.656700	0.602360	0.641230
O81	O8	0.785400	0.653300	0.649830
C401	C40	0.902800	0.339500	0.641460
O91	O9	0.983100	0.334200	0.636770
O101	O10	0.850100	0.290430	0.646640
H281	H28	0.629000	0.775000	0.864200
Zn31	Zn3	0.390890	0.804440	0.641870
N91	N9	0.400600	0.806700	0.712840
C411	C41	0.366500	0.758800	0.737280
H291	H29	0.339000	0.722700	0.723800
C421	C42	0.369300	0.759100	0.781540
H301	H30	0.344100	0.724100	0.797100
C431	C43	0.409800	0.811600	0.802250
C441	C44	0.444100	0.862300	0.777170
H311	H31	0.471000	0.899200	0.789900
C451	C45	0.438400	0.858400	0.733210
H321	H32	0.462000	0.893300	0.717000
C461	C46	0.419000	0.817600	0.850200
O111	O11	0.451400	0.867400	0.866380
N101	N10	0.389500	0.764500	0.872560
N111	N11	0.391700	0.767400	0.916700
C471	C47	0.378000	0.712100	0.935760
H331	H33	0.367400	0.673300	0.920000
C481	C48	0.378800	0.709100	0.982360
C491	C49	0.384300	0.649500	0.004300
H341	H34	0.386300	0.609300	0.989200
C501	C50	0.386900	0.648500	0.048800
H351	H35	0.393600	0.607400	0.062500
N121	N12	0.380300	0.702400	0.071860
C511	C51	0.372500	0.760300	0.050800
H361	H36	0.367700	0.799600	0.066800
C521	C52	0.371300	0.765400	0.006900
H371	H37	0.365300	0.807300	0.994000
C531	C53	0.136700	0.091700	0.640420
C541	C54	0.228400	0.085600	0.638700
H381	H38	0.263400	0.124000	0.637100
C551	C55	0.267800	0.023200	0.639300
H391	H39	0.329100	0.019500	0.637900
C561	C56	0.215800	0.966100	0.641940
C571	C57	0.124700	0.971800	0.641840
H401	H40	0.089700	0.933400	0.642400
C581	C58	0.085400	0.034900	0.640930
H411	H41	0.024100	0.038600	0.640700
C591	C59	0.259500	0.898100	0.644580
O121	O12	0.343300	0.897640	0.641230
O131	O13	0.214600	0.846700	0.649830
C601	C60	0.097200	0.160500	0.641460
O141	O14	0.016900	0.165800	0.636770
O151	O15	0.149900	0.209570	0.646640
H421	H42	0.371000	0.725000	0.864200
Zn41	Zn4	0.890890	0.304440	0.141870
N131	N13	0.900600	0.306700	0.212840
C611	C61	0.866500	0.258800	0.237280
H431	H43	0.839000	0.222700	0.223800
C621	C62	0.869300	0.259100	0.281540
H441	H44	0.844100	0.224100	0.297100
C631	C63	0.909800	0.311600	0.302250
C641	C64	0.944100	0.362300	0.277170
H451	H45	0.971000	0.399200	0.289900
C651	C65	0.938400	0.358400	0.233210
H461	H46	0.962000	0.393300	0.217000
C661	C66	0.919000	0.317600	0.350200
O161	O16	0.951400	0.367400	0.366380
N141	N14	0.889500	0.264500	0.372560
N151	N15	0.891700	0.267400	0.416700
C671	C67	0.878000	0.212100	0.435760
H471	H47	0.867400	0.173300	0.420000
C681	C68	0.878800	0.209100	0.482360
C691	C69	0.884300	0.149500	0.504300
H481	H48	0.886300	0.109300	0.489200
C701	C70	0.886900	0.148500	0.548800
H491	H49	0.893600	0.107400	0.562500
N161	N16	0.880300	0.202400	0.571860
C711	C71	0.872500	0.260300	0.550800
H501	H50	0.867700	0.299600	0.566800
C721	C72	0.871300	0.265400	0.506900
H511	H51	0.865300	0.307300	0.494000
C731	C73	0.636700	0.591700	0.140420
C741	C74	0.728400	0.585600	0.138700
H521	H52	0.763400	0.624000	0.137100
C751	C75	0.767800	0.523200	0.139300
H531	H53	0.829100	0.519500	0.137900
C761	C76	0.715800	0.466100	0.141940
C771	C77	0.624700	0.471800	0.141840
H541	H54	0.589700	0.433400	0.142400
C781	C78	0.585400	0.534900	0.140930
H551	H55	0.524100	0.538600	0.140700
C791	C79	0.759500	0.398100	0.144580
O171	O17	0.843300	0.397640	0.141230
O181	O18	0.714600	0.346700	0.149830
C801	C80	0.597200	0.660500	0.141460
O191	O19	0.516900	0.665800	0.136770
O201	O20	0.649900	0.709570	0.146640
H561	H56	0.871000	0.225000	0.364200
Zn51	Zn5	0.109110	0.304440	0.641870
N171	N17	0.099400	0.306700	0.712840
C811	C81	0.133500	0.258800	0.737280
H571	H57	0.161000	0.222700	0.723800
C821	C82	0.130700	0.259100	0.781540
H581	H58	0.155900	0.224100	0.797100
C831	C83	0.090200	0.311600	0.802250
C841	C84	0.055900	0.362300	0.777170
H591	H59	0.029000	0.399200	0.789900
C851	C85	0.061600	0.358400	0.733210
H601	H60	0.038000	0.393300	0.717000
C861	C86	0.081000	0.317600	0.850200
O211	O21	0.048600	0.367400	0.866380
N181	N18	0.110500	0.264500	0.872560
N191	N19	0.108300	0.267400	0.916700
C871	C87	0.122000	0.212100	0.935760
H611	H61	0.132600	0.173300	0.920000
C881	C88	0.121200	0.209100	0.982360
C891	C89	0.115700	0.149500	0.004300
H621	H62	0.113700	0.109300	0.989200
C901	C90	0.113100	0.148500	0.048800
H631	H63	0.106400	0.107400	0.062500
N201	N20	0.119700	0.202400	0.071860
C911	C91	0.127500	0.260300	0.050800
H641	H64	0.132300	0.299600	0.066800
C921	C92	0.128700	0.265400	0.006900
H651	H65	0.134700	0.307300	0.994000
C931	C93	0.363300	0.591700	0.640420
C941	C94	0.271600	0.585600	0.638700
H661	H66	0.236600	0.624000	0.637100
C951	C95	0.232200	0.523200	0.639300
H671	H67	0.170900	0.519500	0.637900
C961	C96	0.284200	0.466100	0.641940
C971	C97	0.375300	0.471800	0.641840
H681	H68	0.410300	0.433400	0.642400
C981	C98	0.414600	0.534900	0.640930
H691	H69	0.475900	0.538600	0.640700
C991	C99	0.240500	0.398100	0.644580
O221	O22	0.156700	0.397640	0.641230
O231	O23	0.285400	0.346700	0.649830
C1001	C100	0.402800	0.660500	0.641460
O241	O24	0.483100	0.665800	0.636770
O251	O25	0.350100	0.709570	0.646640
H701	H70	0.129000	0.225000	0.864200
Zn61	Zn6	0.609110	0.804440	0.141870
N211	N21	0.599400	0.806700	0.212840
C1011	C101	0.633500	0.758800	0.237280
H711	H71	0.661000	0.722700	0.223800
C1021	C102	0.630700	0.759100	0.281540
H721	H72	0.655900	0.724100	0.297100
C1031	C103	0.590200	0.811600	0.302250
C1041	C104	0.555900	0.862300	0.277170
H731	H73	0.529000	0.899200	0.289900
C1051	C105	0.561600	0.858400	0.233210
H741	H74	0.538000	0.893300	0.217000
C1061	C106	0.581000	0.817600	0.350200
O261	O26	0.548600	0.867400	0.366380
N221	N22	0.610500	0.764500	0.372560
N231	N23	0.608300	0.767400	0.416700
C1071	C107	0.622000	0.712100	0.435760
H751	H75	0.632600	0.673300	0.420000
C1081	C108	0.621200	0.709100	0.482360
C1091	C109	0.615700	0.649500	0.504300
H761	H76	0.613700	0.609300	0.489200
C1101	C110	0.613100	0.648500	0.548800
H771	H77	0.606400	0.607400	0.562500
N241	N24	0.619700	0.702400	0.571860
C1111	C111	0.627500	0.760300	0.550800
H781	H78	0.632300	0.799600	0.566800
C1121	C112	0.628700	0.765400	0.506900
H791	H79	0.634700	0.807300	0.494000
C1131	C113	0.863300	0.091700	0.140420
C1141	C114	0.771600	0.085600	0.138700
H801	H80	0.736600	0.124000	0.137100
C1151	C115	0.732200	0.023200	0.139300
H811	H81	0.670900	0.019500	0.137900
C1161	C116	0.784200	0.966100	0.141940
C1171	C117	0.875300	0.971800	0.141840
H821	H82	0.910300	0.933400	0.142400
C1181	C118	0.914600	0.034900	0.140930
H831	H83	0.975900	0.038600	0.140700
C1191	C119	0.740500	0.898100	0.144580
O271	O27	0.656700	0.897640	0.141230
O281	O28	0.785400	0.846700	0.149830
C1201	C120	0.902800	0.160500	0.141460
O291	O29	0.983100	0.165800	0.136770
O301	O30	0.850100	0.209570	0.146640
H841	H84	0.629000	0.725000	0.364200
Zn71	Zn7	0.390890	0.695560	0.141870
N251	N25	0.400600	0.693300	0.212840
C1211	C121	0.366500	0.741200	0.237280
H851	H85	0.339000	0.777300	0.223800
C1221	C122	0.369300	0.740900	0.281540
H861	H86	0.344100	0.775900	0.297100
C1231	C123	0.409800	0.688400	0.302250
C1241	C124	0.444100	0.637700	0.277170
H871	H87	0.471000	0.600800	0.289900
C1251	C125	0.438400	0.641600	0.233210
H881	H88	0.462000	0.606700	0.217000
C1261	C126	0.419000	0.682400	0.350200
O311	O31	0.451400	0.632600	0.366380
N261	N26	0.389500	0.735500	0.372560
N271	N27	0.391700	0.732600	0.416700
C1271	C127	0.378000	0.787900	0.435760
H891	H89	0.367400	0.826700	0.420000
C1281	C128	0.378800	0.790900	0.482360
C1291	C129	0.384300	0.850500	0.504300
H901	H90	0.386300	0.890700	0.489200
C1301	C130	0.386900	0.851500	0.548800
H911	H91	0.393600	0.892600	0.562500
N281	N28	0.380300	0.797600	0.571860
C1311	C131	0.372500	0.739700	0.550800
H921	H92	0.367700	0.700400	0.566800
C1321	C132	0.371300	0.734600	0.506900
H931	H93	0.365300	0.692700	0.494000
C1331	C133	0.136700	0.408300	0.140420
C1341	C134	0.228400	0.414400	0.138700
H941	H94	0.263400	0.376000	0.137100
C1351	C135	0.267800	0.476800	0.139300
H951	H95	0.329100	0.480500	0.137900
C1361	C136	0.215800	0.533900	0.141940
C1371	C137	0.124700	0.528200	0.141840
H961	H96	0.089700	0.566600	0.142400
C1381	C138	0.085400	0.465100	0.140930
H971	H97	0.024100	0.461400	0.140700
C1391	C139	0.259500	0.601900	0.144580
O321	O32	0.343300	0.602360	0.141230
O331	O33	0.214600	0.653300	0.149830
C1401	C140	0.097200	0.339500	0.141460
O341	O34	0.016900	0.334200	0.136770
O351	O35	0.149900	0.290430	0.146640
H981	H98	0.371000	0.775000	0.364200
Zn81	Zn8	0.890890	0.195560	0.641870
N291	N29	0.900600	0.193300	0.712840
C1411	C141	0.866500	0.241200	0.737280
H991	H99	0.839000	0.277300	0.723800
C1421	C142	0.869300	0.240900	0.781540
H1001	H100	0.844100	0.275900	0.797100
C1431	C143	0.909800	0.188400	0.802250
C1441	C144	0.944100	0.137700	0.777170
H1011	H101	0.971000	0.100800	0.789900
C1451	C145	0.938400	0.141600	0.733210
H1021	H102	0.962000	0.106700	0.717000
C1461	C146	0.919000	0.182400	0.850200
O361	O36	0.951400	0.132600	0.866380
N301	N30	0.889500	0.235500	0.872560
N311	N31	0.891700	0.232600	0.916700
C1471	C147	0.878000	0.287900	0.935760
H1031	H103	0.867400	0.326700	0.920000
C1481	C148	0.878800	0.290900	0.982360
C1491	C149	0.884300	0.350500	0.004300
H1041	H104	0.886300	0.390700	0.989200
C1501	C150	0.886900	0.351500	0.048800
H1051	H105	0.893600	0.392600	0.062500
N321	N32	0.880300	0.297600	0.071860
C1511	C151	0.872500	0.239700	0.050800
H1061	H106	0.867700	0.200400	0.066800
C1521	C152	0.871300	0.234600	0.006900
H1071	H107	0.865300	0.192700	0.994000
C1531	C153	0.636700	0.908300	0.640420
C1541	C154	0.728400	0.914400	0.638700
H1081	H108	0.763400	0.876000	0.637100
C1551	C155	0.767800	0.976800	0.639300
H1091	H109	0.829100	0.980500	0.637900
C1561	C156	0.715800	0.033900	0.641940
C1571	C157	0.624700	0.028200	0.641840
H1101	H110	0.589700	0.066600	0.642400
C1581	C158	0.585400	0.965100	0.640930
H1111	H111	0.524100	0.961400	0.640700
C1591	C159	0.759500	0.101900	0.644580
O371	O37	0.843300	0.102360	0.641230
O381	O38	0.714600	0.153300	0.649830
C1601	C160	0.597200	0.839500	0.641460
O391	O39	0.516900	0.834200	0.636770
O401	O40	0.649900	0.790430	0.646640
H1121	H112	0.871000	0.275000	0.864200
Zn91	Zn9	0.890890	0.695560	0.358130
N331	N33	0.900600	0.693300	0.287160
C1611	C161	0.866500	0.741200	0.262720
H1131	H113	0.839000	0.777300	0.276200
C1621	C162	0.869300	0.740900	0.218460
H1141	H114	0.844100	0.775900	0.202900
C1631	C163	0.909800	0.688400	0.197750
C1641	C164	0.944100	0.637700	0.222830
H1151	H115	0.971000	0.600800	0.210100
C1651	C165	0.938400	0.641600	0.266790
H1161	H116	0.962000	0.606700	0.283000
C1661	C166	0.919000	0.682400	0.149800
O411	O41	0.951400	0.632600	0.133620
N341	N34	0.889500	0.735500	0.127440
N351	N35	0.891700	0.732600	0.083300
C1671	C167	0.878000	0.787900	0.064240
H1171	H117	0.867400	0.826700	0.080000
C1681	C168	0.878800	0.790900	0.017640
C1691	C169	0.884300	0.850500	0.995700
H1181	H118	0.886300	0.890700	0.010800
C1701	C170	0.886900	0.851500	0.951200
H1191	H119	0.893600	0.892600	0.937500
N361	N36	0.880300	0.797600	0.928140
C1711	C171	0.872500	0.739700	0.949200
H1201	H120	0.867700	0.700400	0.933200
C1721	C172	0.871300	0.734600	0.993100
H1211	H121	0.865300	0.692700	0.006000
C1731	C173	0.636700	0.408300	0.359580
C1741	C174	0.728400	0.414400	0.361300
H1221	H122	0.763400	0.376000	0.362900
C1751	C175	0.767800	0.476800	0.360700
H1231	H123	0.829100	0.480500	0.362100
C1761	C176	0.715800	0.533900	0.358060
C1771	C177	0.624700	0.528200	0.358160
H1241	H124	0.589700	0.566600	0.357600
C1781	C178	0.585400	0.465100	0.359070
H1251	H125	0.524100	0.461400	0.359300
C1791	C179	0.759500	0.601900	0.355420
O421	O42	0.843300	0.602360	0.358770
O431	O43	0.714600	0.653300	0.350170
C1801	C180	0.597200	0.339500	0.358540
O441	O44	0.516900	0.334200	0.363230
O451	O45	0.649900	0.290430	0.353360
H1261	H126	0.871000	0.775000	0.135800
Zn101	Zn10	0.390890	0.195560	0.858130
N371	N37	0.400600	0.193300	0.787160
C1811	C181	0.366500	0.241200	0.762720
H1271	H127	0.339000	0.277300	0.776200
C1821	C182	0.369300	0.240900	0.718460
H1281	H128	0.344100	0.275900	0.702900
C1831	C183	0.409800	0.188400	0.697750
C1841	C184	0.444100	0.137700	0.722830
H1291	H129	0.471000	0.100800	0.710100
C1851	C185	0.438400	0.141600	0.766790
H1301	H130	0.462000	0.106700	0.783000
C1861	C186	0.419000	0.182400	0.649800
O461	O46	0.451400	0.132600	0.633620
N381	N38	0.389500	0.235500	0.627440
N391	N39	0.391700	0.232600	0.583300
C1871	C187	0.378000	0.287900	0.564240
H1311	H131	0.367400	0.326700	0.580000
C1881	C188	0.378800	0.290900	0.517640
C1891	C189	0.384300	0.350500	0.495700
H1321	H132	0.386300	0.390700	0.510800
C1901	C190	0.386900	0.351500	0.451200
H1331	H133	0.393600	0.392600	0.437500
N401	N40	0.380300	0.297600	0.428140
C1911	C191	0.372500	0.239700	0.449200
H1341	H134	0.367700	0.200400	0.433200
C1921	C192	0.371300	0.234600	0.493100
H1351	H135	0.365300	0.192700	0.506000
C1931	C193	0.136700	0.908300	0.859580
C1941	C194	0.228400	0.914400	0.861300
H1361	H136	0.263400	0.876000	0.862900
C1951	C195	0.267800	0.976800	0.860700
H1371	H137	0.329100	0.980500	0.862100
C1961	C196	0.215800	0.033900	0.858060
C1971	C197	0.124700	0.028200	0.858160
H1381	H138	0.089700	0.066600	0.857600
C1981	C198	0.085400	0.965100	0.859070
H1391	H139	0.024100	0.961400	0.859300
C1991	C199	0.259500	0.101900	0.855420
O471	O47	0.343300	0.102360	0.858770
O481	O48	0.214600	0.153300	0.850170
C2001	C200	0.097200	0.839500	0.858540
O491	O49	0.016900	0.834200	0.863230
O501	O50	0.149900	0.790430	0.853360
H1401	H140	0.371000	0.275000	0.635800
Zn111	Zn11	0.609110	0.304440	0.858130
N411	N41	0.599400	0.306700	0.787160
C2011	C201	0.633500	0.258800	0.762720
H1411	H141	0.661000	0.222700	0.776200
C2021	C202	0.630700	0.259100	0.718460
H1421	H142	0.655900	0.224100	0.702900
C2031	C203	0.590200	0.311600	0.697750
C2041	C204	0.555900	0.362300	0.722830
H1431	H143	0.529000	0.399200	0.710100
C2051	C205	0.561600	0.358400	0.766790
H1441	H144	0.538000	0.393300	0.783000
C2061	C206	0.581000	0.317600	0.649800
O511	O51	0.548600	0.367400	0.633620
N421	N42	0.610500	0.264500	0.627440
N431	N43	0.608300	0.267400	0.583300
C2071	C207	0.622000	0.212100	0.564240
H1451	H145	0.632600	0.173300	0.580000
C2081	C208	0.621200	0.209100	0.517640
C2091	C209	0.615700	0.149500	0.495700
H1461	H146	0.613700	0.109300	0.510800
C2101	C210	0.613100	0.148500	0.451200
H1471	H147	0.606400	0.107400	0.437500
N441	N44	0.619700	0.202400	0.428140
C2111	C211	0.627500	0.260300	0.449200
H1481	H148	0.632300	0.299600	0.433200
C2121	C212	0.628700	0.265400	0.493100
H1491	H149	0.634700	0.307300	0.506000
C2131	C213	0.863300	0.591700	0.859580
C2141	C214	0.771600	0.585600	0.861300
H1501	H150	0.736600	0.624000	0.862900
C2151	C215	0.732200	0.523200	0.860700
H1511	H151	0.670900	0.519500	0.862100
C2161	C216	0.784200	0.466100	0.858060
C2171	C217	0.875300	0.471800	0.858160
H1521	H152	0.910300	0.433400	0.857600
C2181	C218	0.914600	0.534900	0.859070
H1531	H153	0.975900	0.538600	0.859300
C2191	C219	0.740500	0.398100	0.855420
O521	O52	0.656700	0.397640	0.858770
O531	O53	0.785400	0.346700	0.850170
C2201	C220	0.902800	0.660500	0.858540
O541	O54	0.983100	0.665800	0.863230
O551	O55	0.850100	0.709570	0.853360
H1541	H154	0.629000	0.225000	0.635800
Zn121	Zn12	0.109110	0.804440	0.358130
N451	N45	0.099400	0.806700	0.287160
C2211	C221	0.133500	0.758800	0.262720
H1551	H155	0.161000	0.722700	0.276200
C2221	C222	0.130700	0.759100	0.218460
H1561	H156	0.155900	0.724100	0.202900
C2231	C223	0.090200	0.811600	0.197750
C2241	C224	0.055900	0.862300	0.222830
H1571	H157	0.029000	0.899200	0.210100
C2251	C225	0.061600	0.858400	0.266790
H1581	H158	0.038000	0.893300	0.283000
C2261	C226	0.081000	0.817600	0.149800
O561	O56	0.048600	0.867400	0.133620
N461	N46	0.110500	0.764500	0.127440
N471	N47	0.108300	0.767400	0.083300
C2271	C227	0.122000	0.712100	0.064240
H1591	H159	0.132600	0.673300	0.080000
C2281	C228	0.121200	0.709100	0.017640
C2291	C229	0.115700	0.649500	0.995700
H1601	H160	0.113700	0.609300	0.010800
C2301	C230	0.113100	0.648500	0.951200
H1611	H161	0.106400	0.607400	0.937500
N481	N48	0.119700	0.702400	0.928140
C2311	C231	0.127500	0.760300	0.949200
H1621	H162	0.132300	0.799600	0.933200
C2321	C232	0.128700	0.765400	0.993100
H1631	H163	0.134700	0.807300	0.006000
C2331	C233	0.363300	0.091700	0.359580
C2341	C234	0.271600	0.085600	0.361300
H1641	H164	0.236600	0.124000	0.362900
C2351	C235	0.232200	0.023200	0.360700
H1651	H165	0.170900	0.019500	0.362100
C2361	C236	0.284200	0.966100	0.358060
C2371	C237	0.375300	0.971800	0.358160
H1661	H166	0.410300	0.933400	0.357600
C2381	C238	0.414600	0.034900	0.359070
H1671	H167	0.475900	0.038600	0.359300
C2391	C239	0.240500	0.898100	0.355420
O571	O57	0.156700	0.897640	0.358770
O581	O58	0.285400	0.846700	0.350170
C2401	C240	0.402800	0.160500	0.358540
O591	O59	0.483100	0.165800	0.363230
O601	O60	0.350100	0.209570	0.353360
H1681	H168	0.129000	0.725000	0.135800
Zn131	Zn13	0.890890	0.804440	0.858130
N491	N49	0.900600	0.806700	0.787160
C2411	C241	0.866500	0.758800	0.762720
H1691	H169	0.839000	0.722700	0.776200
C2421	C242	0.869300	0.759100	0.718460
H1701	H170	0.844100	0.724100	0.702900
C2431	C243	0.909800	0.811600	0.697750
C2441	C244	0.944100	0.862300	0.722830
H1711	H171	0.971000	0.899200	0.710100
C2451	C245	0.938400	0.858400	0.766790
H1721	H172	0.962000	0.893300	0.783000
C2461	C246	0.919000	0.817600	0.649800
O611	O61	0.951400	0.867400	0.633620
N501	N50	0.889500	0.764500	0.627440
N511	N51	0.891700	0.767400	0.583300
C2471	C247	0.878000	0.712100	0.564240
H1731	H173	0.867400	0.673300	0.580000
C2481	C248	0.878800	0.709100	0.517640
C2491	C249	0.884300	0.649500	0.495700
H1741	H174	0.886300	0.609300	0.510800
C2501	C250	0.886900	0.648500	0.451200
H1751	H175	0.893600	0.607400	0.437500
N521	N52	0.880300	0.702400	0.428140
C2511	C251	0.872500	0.760300	0.449200
H1761	H176	0.867700	0.799600	0.433200
C2521	C252	0.871300	0.765400	0.493100
H1771	H177	0.865300	0.807300	0.506000
C2531	C253	0.636700	0.091700	0.859580
C2541	C254	0.728400	0.085600	0.861300
H1781	H178	0.763400	0.124000	0.862900
C2551	C255	0.767800	0.023200	0.860700
H1791	H179	0.829100	0.019500	0.862100
C2561	C256	0.715800	0.966100	0.858060
C2571	C257	0.624700	0.971800	0.858160
H1801	H180	0.589700	0.933400	0.857600
C2581	C258	0.585400	0.034900	0.859070
H1811	H181	0.524100	0.038600	0.859300
C2591	C259	0.759500	0.898100	0.855420
O621	O62	0.843300	0.897640	0.858770
O631	O63	0.714600	0.846700	0.850170
C2601	C260	0.597200	0.160500	0.858540
O641	O64	0.516900	0.165800	0.863230
O651	O65	0.649900	0.209570	0.853360
H1821	H182	0.871000	0.725000	0.635800
Zn141	Zn14	0.390890	0.304440	0.358130
N531	N53	0.400600	0.306700	0.287160
C2611	C261	0.366500	0.258800	0.262720
H1831	H183	0.339000	0.222700	0.276200
C2621	C262	0.369300	0.259100	0.218460
H1841	H184	0.344100	0.224100	0.202900
C2631	C263	0.409800	0.311600	0.197750
C2641	C264	0.444100	0.362300	0.222830
H1851	H185	0.471000	0.399200	0.210100
C2651	C265	0.438400	0.358400	0.266790
H1861	H186	0.462000	0.393300	0.283000
C2661	C266	0.419000	0.317600	0.149800
O661	O66	0.451400	0.367400	0.133620
N541	N54	0.389500	0.264500	0.127440
N551	N55	0.391700	0.267400	0.083300
C2671	C267	0.378000	0.212100	0.064240
H1871	H187	0.367400	0.173300	0.080000
C2681	C268	0.378800	0.209100	0.017640
C2691	C269	0.384300	0.149500	0.995700
H1881	H188	0.386300	0.109300	0.010800
C2701	C270	0.386900	0.148500	0.951200
H1891	H189	0.393600	0.107400	0.937500
N561	N56	0.380300	0.202400	0.928140
C2711	C271	0.372500	0.260300	0.949200
H1901	H190	0.367700	0.299600	0.933200
C2721	C272	0.371300	0.265400	0.993100
H1911	H191	0.365300	0.307300	0.006000
C2731	C273	0.136700	0.591700	0.359580
C2741	C274	0.228400	0.585600	0.361300
H1921	H192	0.263400	0.624000	0.362900
C2751	C275	0.267800	0.523200	0.360700
H1931	H193	0.329100	0.519500	0.362100
C2761	C276	0.215800	0.466100	0.358060
C2771	C277	0.124700	0.471800	0.358160
H1941	H194	0.089700	0.433400	0.357600
C2781	C278	0.085400	0.534900	0.359070
H1951	H195	0.024100	0.538600	0.359300
C2791	C279	0.259500	0.398100	0.355420
O671	O67	0.343300	0.397640	0.358770
O681	O68	0.214600	0.346700	0.350170
C2801	C280	0.097200	0.660500	0.358540
O691	O69	0.016900	0.665800	0.363230
O701	O70	0.149900	0.709570	0.353360
H1961	H196	0.371000	0.225000	0.135800
Zn151	Zn15	0.609110	0.195560	0.358130
N571	N57	0.599400	0.193300	0.287160
C2811	C281	0.633500	0.241200	0.262720
H1971	H197	0.661000	0.277300	0.276200
C2821	C282	0.630700	0.240900	0.218460
H1981	H198	0.655900	0.275900	0.202900
C2831	C283	0.590200	0.188400	0.197750
C2841	C284	0.555900	0.137700	0.222830
H1991	H199	0.529000	0.100800	0.210100
C2851	C285	0.561600	0.141600	0.266790
H2001	H200	0.538000	0.106700	0.283000
C2861	C286	0.581000	0.182400	0.149800
O711	O71	0.548600	0.132600	0.133620
N581	N58	0.610500	0.235500	0.127440
N591	N59	0.608300	0.232600	0.083300
C2871	C287	0.622000	0.287900	0.064240
H2011	H201	0.632600	0.326700	0.080000
C2881	C288	0.621200	0.290900	0.017640
C2891	C289	0.615700	0.350500	0.995700
H2021	H202	0.613700	0.390700	0.010800
C2901	C290	0.613100	0.351500	0.951200
H2031	H203	0.606400	0.392600	0.937500
N601	N60	0.619700	0.297600	0.928140
C2911	C291	0.627500	0.239700	0.949200
H2041	H204	0.632300	0.200400	0.933200
C2921	C292	0.628700	0.234600	0.993100
H2051	H205	0.634700	0.192700	0.006000
C2931	C293	0.863300	0.908300	0.359580
C2941	C294	0.771600	0.914400	0.361300
H2061	H206	0.736600	0.876000	0.362900
C2951	C295	0.732200	0.976800	0.360700
H2071	H207	0.670900	0.980500	0.362100
C2961	C296	0.784200	0.033900	0.358060
C2971	C297	0.875300	0.028200	0.358160
H2081	H208	0.910300	0.066600	0.357600
C2981	C298	0.914600	0.965100	0.359070
H2091	H209	0.975900	0.961400	0.359300
C2991	C299	0.740500	0.101900	0.355420
O721	O72	0.656700	0.102360	0.358770
O731	O73	0.785400	0.153300	0.350170
C3001	C300	0.902800	0.839500	0.358540
O741	O74	0.983100	0.834200	0.363230
O751	O75	0.850100	0.790430	0.353360
H2101	H210	0.629000	0.275000	0.135800
Zn161	Zn16	0.109110	0.695560	0.858130
N611	N61	0.099400	0.693300	0.787160
C3011	C301	0.133500	0.741200	0.762720
H2111	H211	0.161000	0.777300	0.776200
C3021	C302	0.130700	0.740900	0.718460
H2121	H212	0.155900	0.775900	0.702900
C3031	C303	0.090200	0.688400	0.697750
C3041	C304	0.055900	0.637700	0.722830
H2131	H213	0.029000	0.600800	0.710100
C3051	C305	0.061600	0.641600	0.766790
H2141	H214	0.038000	0.606700	0.783000
C3061	C306	0.081000	0.682400	0.649800
O761	O76	0.048600	0.632600	0.633620
N621	N62	0.110500	0.735500	0.627440
N631	N63	0.108300	0.732600	0.583300
C3071	C307	0.122000	0.787900	0.564240
H2151	H215	0.132600	0.826700	0.580000
C3081	C308	0.121200	0.790900	0.517640
C3091	C309	0.115700	0.850500	0.495700
H2161	H216	0.113700	0.890700	0.510800
C3101	C310	0.113100	0.851500	0.451200
H2171	H217	0.106400	0.892600	0.437500
N641	N64	0.119700	0.797600	0.428140
C3111	C311	0.127500	0.739700	0.449200
H2181	H218	0.132300	0.700400	0.433200
C3121	C312	0.128700	0.734600	0.493100
H2191	H219	0.134700	0.692700	0.506000
C3131	C313	0.363300	0.408300	0.859580
C3141	C314	0.271600	0.414400	0.861300
H2201	H220	0.236600	0.376000	0.862900
C3151	C315	0.232200	0.476800	0.860700
H2211	H221	0.170900	0.480500	0.862100
C3161	C316	0.284200	0.533900	0.858060
C3171	C317	0.375300	0.528200	0.858160
H2221	H222	0.410300	0.566600	0.857600
C3181	C318	0.414600	0.465100	0.859070
H2231	H223	0.475900	0.461400	0.859300
C3191	C319	0.240500	0.601900	0.855420
O771	O77	0.156700	0.602360	0.858770
O781	O78	0.285400	0.653300	0.850170
C3201	C320	0.402800	0.339500	0.858540
O791	O79	0.483100	0.334200	0.863230
O801	O80	0.350100	0.290430	0.853360
H2241	H224	0.129000	0.775000	0.635800
