data_EWEWUZ_charged_PM
_symmetry_space_group_name_H-M	'P1'
_cell_length_a	8.050600
_cell_length_b	18.686800
_cell_length_c	18.825900
_cell_angle_alpha	119.178000
_cell_angle_beta	102.346000
_cell_angle_gamma	90.000000
_symmetry_Int_Tables_number 1

loop_
_symmetry_equiv_pos_as_xyz
'x,y,z'

loop_
_atom_site_label
_atom_site_type_symbol
_atom_site_fract_x
_atom_site_fract_y
_atom_site_fract_z
Fe11	Fe1	0.952100	0.188200	0.786800
Fe21	Fe2	0.565700	0.379300	0.011600
Fe31	Fe3	0.834700	0.688200	0.786800
Fe41	Fe4	0.445900	0.879300	0.011600
Ag11	Ag1	0.204200	0.169400	0.168600
Ag21	Ag2	0.437200	0.394500	0.630400
Ag31	Ag3	0.964400	0.669400	0.168600
Ag41	Ag4	0.193200	0.894500	0.630400
H11	H1	0.175600	0.381900	0.478600
H21	H2	0.573700	0.262400	0.468600
H31	H3	0.498300	0.200000	0.325800
H41	H4	0.314800	0.295000	0.711000
H51	H5	0.723700	0.454000	0.795600
H61	H6	0.763300	0.466300	0.923400
H71	H7	0.592500	0.915700	0.614600
H81	H8	0.301100	0.086500	0.716600
H91	H9	0.530900	0.185000	0.781200
H101	H10	0.992600	0.263000	0.082600
H111	H11	0.324200	0.110100	0.991400
H121	H12	0.238100	0.107100	0.866200
H131	H13	0.370600	0.651900	0.189200
H141	H14	0.981700	0.474100	0.068800
H151	H15	0.160100	0.381800	0.005600
H161	H16	0.633000	0.223700	0.056400
H171	H17	0.538400	0.246500	0.130200
H181	H18	0.722900	0.293800	0.150400
H191	H19	0.979500	0.329800	0.747400
H201	H20	0.813100	0.314000	0.675200
H211	H21	0.980200	0.271500	0.650800
H221	H22	0.512600	0.366900	0.139200
H231	H23	0.303000	0.881900	0.478600
H241	H24	0.894900	0.762400	0.468600
H251	H25	0.827500	0.700000	0.325800
H261	H26	0.396200	0.795000	0.711000
H271	H27	0.071900	0.954000	0.795600
H281	H28	0.160100	0.966300	0.923400
H291	H29	0.022100	0.415700	0.614600
H301	H30	0.415500	0.586500	0.716600
H311	H31	0.250300	0.685000	0.781200
H321	H32	0.090000	0.763000	0.082600
H331	H33	0.667200	0.610100	0.991400
H341	H34	0.628100	0.607100	0.866200
H351	H35	0.818600	0.151900	0.189200
H361	H36	0.087100	0.974100	0.068800
H371	H37	0.845500	0.881800	0.005600
H381	H38	0.423400	0.723700	0.056400
H391	H39	0.591800	0.746500	0.130200
H401	H40	0.427500	0.793800	0.150400
H411	H41	0.767900	0.829800	0.747400
H421	H42	0.862100	0.814000	0.675200
H431	H43	0.670600	0.771500	0.650800
H441	H44	0.626600	0.866900	0.139200
C11	C1	0.206500	0.311700	0.360600
C21	C2	0.246300	0.344100	0.447800
C31	C3	0.472100	0.274600	0.442200
C41	C4	0.430400	0.239900	0.356800
C51	C5	0.054800	0.330700	0.313600
C61	C6	0.432800	0.338300	0.833600
C71	C7	0.409200	0.331200	0.754400
C81	C8	0.644700	0.422500	0.803400
C91	C9	0.668100	0.430000	0.880200
C101	C10	0.311500	0.290800	0.851000
C111	C11	0.718100	0.031100	0.688200
C121	C12	0.576600	0.971600	0.649200
C131	C13	0.410000	0.070200	0.708000
C141	C14	0.547400	0.129200	0.746800
C151	C15	0.891800	0.014500	0.669600
C161	C16	0.991300	0.229200	0.962600
C171	C17	0.045200	0.230200	0.038400
C181	C18	0.236600	0.141900	0.985200
C191	C19	0.185300	0.139900	0.910600
C201	C20	0.865300	0.283900	0.948600
C211	C21	0.435100	0.539100	0.112200
C221	C22	0.325500	0.595700	0.151000
C231	C23	0.099600	0.492600	0.081200
C241	C24	0.205800	0.437800	0.043600
C251	C25	0.621400	0.561600	0.122800
C261	C26	0.613400	0.269000	0.108800
C271	C27	0.909900	0.289100	0.691800
C281	C28	0.154100	0.811700	0.360600
C291	C29	0.201500	0.844100	0.447800
C301	C30	0.970100	0.774600	0.442200
C311	C31	0.926400	0.739900	0.356800
C321	C32	0.258800	0.830700	0.313600
C331	C33	0.400800	0.838300	0.833600
C341	C34	0.345200	0.831200	0.754400
C351	C35	0.158700	0.922500	0.803400
C361	C36	0.212100	0.930000	0.880200
C371	C37	0.539500	0.790800	0.851000
C381	C38	0.970100	0.531100	0.688200
C391	C39	0.072600	0.471600	0.649200
C401	C40	0.298000	0.570200	0.708000
C411	C41	0.199400	0.629200	0.746800
C421	C42	0.777800	0.514500	0.669600
C431	C43	0.971300	0.729200	0.962600
C441	C44	0.993200	0.730200	0.038400
C451	C45	0.748600	0.641900	0.985200
C461	C46	0.725300	0.639900	0.910600
C471	C47	0.083300	0.783900	0.948600
C481	C48	0.677100	0.039100	0.112200
C491	C49	0.825500	0.095700	0.151000
C501	C50	0.981600	0.992600	0.081200
C511	C51	0.837800	0.937800	0.043600
C521	C52	0.501400	0.061600	0.122800
C531	C53	0.495400	0.769000	0.108800
C541	C54	0.781900	0.789100	0.691800
N11	N1	0.296500	0.259500	0.313600
N21	N2	0.374800	0.325500	0.489600
N31	N3	0.563100	0.387800	0.898200
N41	N4	0.514600	0.372900	0.737200
N51	N5	0.706990	0.111400	0.737980
N61	N6	0.421100	0.989700	0.658200
N71	N7	0.060300	0.184400	0.898600
N81	N8	0.167400	0.187000	0.050800
N91	N9	0.377070	0.459500	0.058140
N101	N10	0.157800	0.572500	0.135600
N111	N11	0.017100	0.759500	0.313600
N121	N12	0.114800	0.825500	0.489600
N131	N13	0.335100	0.887800	0.898200
N141	N14	0.222600	0.872900	0.737200
N151	N15	0.030990	0.611400	0.737980
N161	N16	0.237100	0.489700	0.658200
N171	N17	0.838300	0.684400	0.898600
N181	N18	0.883400	0.687000	0.050800
N191	N19	0.681070	0.959500	0.058140
N201	N20	0.977800	0.072500	0.135600
O11	O1	0.020100	0.403300	0.374200
O21	O2	0.015400	0.294600	0.238800
O31	O3	0.357800	0.292500	0.923600
O41	O4	0.191100	0.238000	0.786200
O51	O5	0.912100	0.936600	0.638200
O61	O6	0.005200	0.075000	0.712400
O71	O7	0.840700	0.277000	0.879400
O81	O8	0.783300	0.317400	0.000600
O91	O9	0.704900	0.501500	0.087800
O101	O10	0.686200	0.632500	0.174400
O111	O11	0.531400	0.331100	0.092800
O121	O12	0.845300	0.217500	0.694600
O131	O13	0.354100	0.903300	0.374200
O141	O14	0.223400	0.794600	0.238800
O151	O15	0.565800	0.792500	0.923600
O161	O16	0.595100	0.738000	0.786200
O171	O17	0.726100	0.436600	0.638200
O181	O18	0.707200	0.575000	0.712400
O191	O19	0.038700	0.777000	0.879400
O201	O20	0.217300	0.817400	0.000600
O211	O21	0.382900	0.001500	0.087800
O221	O22	0.488200	0.132500	0.174400
O231	O23	0.561400	0.831100	0.092800
O241	O24	0.849300	0.717500	0.694600
Cl11	Cl1	0.196700	0.533900	0.895400
O251	O25	0.245600	0.626200	0.906400
O261	O26	0.078800	0.545800	0.937600
O271	O27	0.362200	0.530200	0.945400
O281	O28	0.175800	0.485800	0.817600
Cl21	Cl2	0.494300	0.689300	0.400000
O291	O29	0.494300	0.738200	0.354600
O301	O30	0.562800	0.733400	0.479600
O311	O31	0.599000	0.628000	0.372000
O321	O32	0.308900	0.650200	0.371800
Cl31	Cl3	0.698700	0.033900	0.895400
O331	O33	0.660800	0.126200	0.906400
O341	O34	0.858800	0.045800	0.937600
O351	O35	0.583200	0.030200	0.945400
O361	O36	0.641800	0.985800	0.817600
Cl41	Cl4	0.905700	0.189300	0.400000
O371	O37	0.860300	0.238200	0.354600
O381	O38	0.916800	0.233400	0.479600
O391	O39	0.773000	0.128000	0.372000
O401	O40	0.062900	0.150200	0.371800
