data_EWUCOP_clean_PM
_symmetry_space_group_name_H-M	'P1'
_cell_length_a	10.922000
_cell_length_b	11.402000
_cell_length_c	14.654000
_cell_angle_alpha	90.000000
_cell_angle_beta	109.300000
_cell_angle_gamma	90.000000
_symmetry_Int_Tables_number 1

loop_
_symmetry_equiv_pos_as_xyz
'x,y,z'

loop_
_atom_site_label
_atom_site_type_symbol
_atom_site_fract_x
_atom_site_fract_y
_atom_site_fract_z
Cu11	Cu1	0.406850	0.418430	0.976580
Cu21	Cu2	0.593150	0.918430	0.523420
Cu31	Cu3	0.593150	0.581570	0.023420
Cu41	Cu4	0.406850	0.081570	0.476580
H11	H1	0.878400	0.372900	0.941600
H21	H2	0.880400	0.134000	0.737300
H31	H3	0.541500	0.253400	0.758900
H41	H4	0.093200	0.422100	0.906800
H51	H5	0.121600	0.872900	0.558400
H61	H6	0.119600	0.634000	0.762700
H71	H7	0.458500	0.753400	0.741100
H81	H8	0.906800	0.922100	0.593200
H91	H9	0.121600	0.627100	0.058400
H101	H10	0.119600	0.866000	0.262700
H111	H11	0.458500	0.746600	0.241100
H121	H12	0.906800	0.577900	0.093200
H131	H13	0.878400	0.127100	0.441600
H141	H14	0.880400	0.366000	0.237300
H151	H15	0.541500	0.246600	0.258900
H161	H16	0.093200	0.077900	0.406800
C11	C1	0.625400	0.391700	0.909300
C21	C2	0.699500	0.324700	0.859000
C31	C3	0.832200	0.324400	0.890900
C41	C4	0.897300	0.250800	0.846900
C51	C5	0.834700	0.180000	0.767400
C61	C6	0.699300	0.182500	0.735800
C71	C7	0.631700	0.253500	0.780900
C81	C8	0.626900	0.112200	0.649100
C91	C9	0.117600	0.343900	0.907400
C101	C10	0.374600	0.891700	0.590700
C111	C11	0.300500	0.824700	0.641000
C121	C12	0.167800	0.824400	0.609100
C131	C13	0.102700	0.750800	0.653100
C141	C14	0.165300	0.680000	0.732600
C151	C15	0.300700	0.682500	0.764200
C161	C16	0.368300	0.753500	0.719100
C171	C17	0.373100	0.612200	0.850900
C181	C18	0.882400	0.843900	0.592600
C191	C19	0.374600	0.608300	0.090700
C201	C20	0.300500	0.675300	0.141000
C211	C21	0.167800	0.675600	0.109100
C221	C22	0.102700	0.749200	0.153100
C231	C23	0.165300	0.820000	0.232600
C241	C24	0.300700	0.817500	0.264200
C251	C25	0.368300	0.746500	0.219100
C261	C26	0.373100	0.887800	0.350900
C271	C27	0.882400	0.656100	0.092600
C281	C28	0.625400	0.108300	0.409300
C291	C29	0.699500	0.175300	0.359000
C301	C30	0.832200	0.175600	0.390900
C311	C31	0.897300	0.249200	0.346900
C321	C32	0.834700	0.320000	0.267400
C331	C33	0.699300	0.317500	0.235800
C341	C34	0.631700	0.246500	0.280900
C351	C35	0.626900	0.387800	0.149100
C361	C36	0.117600	0.156100	0.407400
N11	N1	0.037600	0.251900	0.881200
N21	N2	0.109300	0.154100	0.892300
N31	N3	0.229700	0.187600	0.923800
N41	N4	0.239300	0.302600	0.934700
N51	N5	0.962400	0.751900	0.618800
N61	N6	0.890700	0.654100	0.607700
N71	N7	0.770300	0.687600	0.576200
N81	N8	0.760700	0.802600	0.565300
N91	N9	0.962400	0.748100	0.118800
N101	N10	0.890700	0.845900	0.107700
N111	N11	0.770300	0.812400	0.076200
N121	N12	0.760700	0.697400	0.065300
N131	N13	0.037600	0.248100	0.381200
N141	N14	0.109300	0.345900	0.392300
N151	N15	0.229700	0.312400	0.423800
N161	N16	0.239300	0.197400	0.434700
O11	O1	0.517500	0.352900	0.907400
O21	O2	0.677600	0.483700	0.949500
O31	O3	0.516100	0.152500	0.597600
O41	O4	0.678400	0.020200	0.635600
O51	O5	0.482500	0.852900	0.592600
O61	O6	0.322400	0.983700	0.550500
O71	O7	0.483900	0.652500	0.902400
O81	O8	0.321600	0.520200	0.864400
O91	O9	0.482500	0.647100	0.092600
O101	O10	0.322400	0.516300	0.050500
O111	O11	0.483900	0.847500	0.402400
O121	O12	0.321600	0.979800	0.364400
O131	O13	0.517500	0.147100	0.407400
O141	O14	0.677600	0.016300	0.449500
O151	O15	0.516100	0.347500	0.097600
O161	O16	0.678400	0.479800	0.135600
