data_EWUKAK_clean_PM
_symmetry_space_group_name_H-M	'P1'
_cell_length_a	20.328000
_cell_length_b	20.328000
_cell_length_c	17.910000
_cell_angle_alpha	90.000000
_cell_angle_beta	90.000000
_cell_angle_gamma	90.000000
_symmetry_Int_Tables_number 1

loop_
_symmetry_equiv_pos_as_xyz
'x,y,z'

loop_
_atom_site_label
_atom_site_type_symbol
_atom_site_fract_x
_atom_site_fract_y
_atom_site_fract_z
Zn11	Zn1	0.258410	0.117570	0.764010
O11	O1	0.194100	0.172100	0.710100
O21	O2	0.257200	0.033100	0.711900
O31	O3	0.233000	0.130400	0.868600
C11	C1	0.198900	0.178000	0.639200
O41	O4	0.245600	0.157000	0.599700
O51	O5	0.339700	0.051600	0.629600
C21	C2	0.142700	0.212800	0.601700
C31	C3	0.480800	0.209100	0.653300
C41	C4	0.090000	0.233700	0.644000
C51	C5	0.143100	0.224200	0.523900
C61	C6	0.539100	0.230400	0.610200
H11	H1	0.088200	0.224000	0.694700
C71	C7	0.092800	0.257500	0.490400
H21	H2	0.178100	0.208900	0.495300
C81	C8	0.541100	0.218300	0.533300
C91	C9	0.091200	0.267900	0.407700
H31	H3	0.507700	0.194000	0.510800
O61	O6	0.052300	0.307800	0.380400
Zn21	Zn2	0.758410	0.617570	0.264010
O71	O7	0.694100	0.672100	0.210100
O81	O8	0.757200	0.533100	0.211900
O91	O9	0.733000	0.630400	0.368600
C101	C10	0.698900	0.678000	0.139200
O101	O10	0.745600	0.657000	0.099700
O111	O11	0.839700	0.551600	0.129600
C111	C11	0.642700	0.712800	0.101700
C121	C12	0.980800	0.709100	0.153300
C131	C13	0.590000	0.733700	0.144000
C141	C14	0.643100	0.724200	0.023900
C151	C15	0.039100	0.730400	0.110200
H41	H4	0.588200	0.724000	0.194700
C161	C16	0.592800	0.757500	0.990400
H51	H5	0.678100	0.708900	0.995300
C171	C17	0.041100	0.718300	0.033300
C181	C18	0.591200	0.767900	0.907700
H61	H6	0.007700	0.694000	0.010800
O121	O12	0.552300	0.807800	0.880400
Zn31	Zn3	0.741590	0.882430	0.764010
O131	O13	0.805900	0.827900	0.710100
O141	O14	0.742800	0.966900	0.711900
O151	O15	0.767000	0.869600	0.868600
C191	C19	0.801100	0.822000	0.639200
O161	O16	0.754400	0.843000	0.599700
O171	O17	0.660300	0.948400	0.629600
C201	C20	0.857300	0.787200	0.601700
C211	C21	0.519200	0.790900	0.653300
C221	C22	0.910000	0.766300	0.644000
C231	C23	0.856900	0.775800	0.523900
C241	C24	0.460900	0.769600	0.610200
H71	H7	0.911800	0.776000	0.694700
C251	C25	0.907200	0.742500	0.490400
H81	H8	0.821900	0.791100	0.495300
C261	C26	0.458900	0.781700	0.533300
C271	C27	0.908800	0.732100	0.407700
H91	H9	0.492300	0.806000	0.510800
O181	O18	0.947700	0.692200	0.380400
Zn41	Zn4	0.241590	0.382430	0.264010
O191	O19	0.305900	0.327900	0.210100
O201	O20	0.242800	0.466900	0.211900
O211	O21	0.267000	0.369600	0.368600
C281	C28	0.301100	0.322000	0.139200
O221	O22	0.254400	0.343000	0.099700
O231	O23	0.160300	0.448400	0.129600
C291	C29	0.357300	0.287200	0.101700
C301	C30	0.019200	0.290900	0.153300
C311	C31	0.410000	0.266300	0.144000
C321	C32	0.356900	0.275800	0.023900
C331	C33	0.960900	0.269600	0.110200
H101	H10	0.411800	0.276000	0.194700
C341	C34	0.407200	0.242500	0.990400
H111	H11	0.321900	0.291100	0.995300
C351	C35	0.958900	0.281700	0.033300
C361	C36	0.408800	0.232100	0.907700
H121	H12	0.992300	0.306000	0.010800
O241	O24	0.447700	0.192200	0.880400
Zn51	Zn5	0.882430	0.258410	0.764010
O251	O25	0.827900	0.194100	0.710100
O261	O26	0.966900	0.257200	0.711900
O271	O27	0.869600	0.233000	0.868600
C371	C37	0.822000	0.198900	0.639200
O281	O28	0.843000	0.245600	0.599700
O291	O29	0.948400	0.339700	0.629600
C381	C38	0.787200	0.142700	0.601700
C391	C39	0.790900	0.480800	0.653300
C401	C40	0.766300	0.090000	0.644000
C411	C41	0.775800	0.143100	0.523900
C421	C42	0.769600	0.539100	0.610200
H131	H13	0.776000	0.088200	0.694700
C431	C43	0.742500	0.092800	0.490400
H141	H14	0.791100	0.178100	0.495300
C441	C44	0.781700	0.541100	0.533300
C451	C45	0.732100	0.091200	0.407700
H151	H15	0.806000	0.507700	0.510800
O301	O30	0.692200	0.052300	0.380400
Zn61	Zn6	0.382430	0.758410	0.264010
O311	O31	0.327900	0.694100	0.210100
O321	O32	0.466900	0.757200	0.211900
O331	O33	0.369600	0.733000	0.368600
C461	C46	0.322000	0.698900	0.139200
O341	O34	0.343000	0.745600	0.099700
O351	O35	0.448400	0.839700	0.129600
C471	C47	0.287200	0.642700	0.101700
C481	C48	0.290900	0.980800	0.153300
C491	C49	0.266300	0.590000	0.144000
C501	C50	0.275800	0.643100	0.023900
C511	C51	0.269600	0.039100	0.110200
H161	H16	0.276000	0.588200	0.194700
C521	C52	0.242500	0.592800	0.990400
H171	H17	0.291100	0.678100	0.995300
C531	C53	0.281700	0.041100	0.033300
C541	C54	0.232100	0.591200	0.907700
H181	H18	0.306000	0.007700	0.010800
O361	O36	0.192200	0.552300	0.880400
Zn71	Zn7	0.117570	0.741590	0.764010
O371	O37	0.172100	0.805900	0.710100
O381	O38	0.033100	0.742800	0.711900
O391	O39	0.130400	0.767000	0.868600
C551	C55	0.178000	0.801100	0.639200
O401	O40	0.157000	0.754400	0.599700
O411	O41	0.051600	0.660300	0.629600
C561	C56	0.212800	0.857300	0.601700
C571	C57	0.209100	0.519200	0.653300
C581	C58	0.233700	0.910000	0.644000
C591	C59	0.224200	0.856900	0.523900
C601	C60	0.230400	0.460900	0.610200
H191	H19	0.224000	0.911800	0.694700
C611	C61	0.257500	0.907200	0.490400
H201	H20	0.208900	0.821900	0.495300
C621	C62	0.218300	0.458900	0.533300
C631	C63	0.267900	0.908800	0.407700
H211	H21	0.194000	0.492300	0.510800
O421	O42	0.307800	0.947700	0.380400
Zn81	Zn8	0.617570	0.241590	0.264010
O431	O43	0.672100	0.305900	0.210100
O441	O44	0.533100	0.242800	0.211900
O451	O45	0.630400	0.267000	0.368600
C641	C64	0.678000	0.301100	0.139200
O461	O46	0.657000	0.254400	0.099700
O471	O47	0.551600	0.160300	0.129600
C651	C65	0.712800	0.357300	0.101700
C661	C66	0.709100	0.019200	0.153300
C671	C67	0.733700	0.410000	0.144000
C681	C68	0.724200	0.356900	0.023900
C691	C69	0.730400	0.960900	0.110200
H221	H22	0.724000	0.411800	0.194700
C701	C70	0.757500	0.407200	0.990400
H231	H23	0.708900	0.321900	0.995300
C711	C71	0.718300	0.958900	0.033300
C721	C72	0.767900	0.408800	0.907700
H241	H24	0.694000	0.992300	0.010800
O481	O48	0.807800	0.447700	0.880400
Zn91	Zn9	0.258410	0.882430	0.264010
O491	O49	0.194100	0.827900	0.210100
O501	O50	0.257200	0.966900	0.211900
O511	O51	0.233000	0.869600	0.368600
C731	C73	0.198900	0.822000	0.139200
O521	O52	0.245600	0.843000	0.099700
O531	O53	0.339700	0.948400	0.129600
C741	C74	0.142700	0.787200	0.101700
C751	C75	0.480800	0.790900	0.153300
C761	C76	0.090000	0.766300	0.144000
C771	C77	0.143100	0.775800	0.023900
C781	C78	0.539100	0.769600	0.110200
H251	H25	0.088200	0.776000	0.194700
C791	C79	0.092800	0.742500	0.990400
H261	H26	0.178100	0.791100	0.995300
C801	C80	0.541100	0.781700	0.033300
C811	C81	0.091200	0.732100	0.907700
H271	H27	0.507700	0.806000	0.010800
O541	O54	0.052300	0.692200	0.880400
Zn101	Zn10	0.758410	0.382430	0.764010
O551	O55	0.694100	0.327900	0.710100
O561	O56	0.757200	0.466900	0.711900
O571	O57	0.733000	0.369600	0.868600
C821	C82	0.698900	0.322000	0.639200
O581	O58	0.745600	0.343000	0.599700
O591	O59	0.839700	0.448400	0.629600
C831	C83	0.642700	0.287200	0.601700
C841	C84	0.980800	0.290900	0.653300
C851	C85	0.590000	0.266300	0.644000
C861	C86	0.643100	0.275800	0.523900
C871	C87	0.039100	0.269600	0.610200
H281	H28	0.588200	0.276000	0.694700
C881	C88	0.592800	0.242500	0.490400
H291	H29	0.678100	0.291100	0.495300
C891	C89	0.041100	0.281700	0.533300
C901	C90	0.591200	0.232100	0.407700
H301	H30	0.007700	0.306000	0.510800
O601	O60	0.552300	0.192200	0.380400
Zn111	Zn11	0.741590	0.117570	0.264010
O611	O61	0.805900	0.172100	0.210100
O621	O62	0.742800	0.033100	0.211900
O631	O63	0.767000	0.130400	0.368600
C911	C91	0.801100	0.178000	0.139200
O641	O64	0.754400	0.157000	0.099700
O651	O65	0.660300	0.051600	0.129600
C921	C92	0.857300	0.212800	0.101700
C931	C93	0.519200	0.209100	0.153300
C941	C94	0.910000	0.233700	0.144000
C951	C95	0.856900	0.224200	0.023900
C961	C96	0.460900	0.230400	0.110200
H311	H31	0.911800	0.224000	0.194700
C971	C97	0.907200	0.257500	0.990400
H321	H32	0.821900	0.208900	0.995300
C981	C98	0.458900	0.218300	0.033300
C991	C99	0.908800	0.267900	0.907700
H331	H33	0.492300	0.194000	0.010800
O661	O66	0.947700	0.307800	0.880400
Zn121	Zn12	0.241590	0.617570	0.764010
O671	O67	0.305900	0.672100	0.710100
O681	O68	0.242800	0.533100	0.711900
O691	O69	0.267000	0.630400	0.868600
C1001	C100	0.301100	0.678000	0.639200
O701	O70	0.254400	0.657000	0.599700
O711	O71	0.160300	0.551600	0.629600
C1011	C101	0.357300	0.712800	0.601700
C1021	C102	0.019200	0.709100	0.653300
C1031	C103	0.410000	0.733700	0.644000
C1041	C104	0.356900	0.724200	0.523900
C1051	C105	0.960900	0.730400	0.610200
H341	H34	0.411800	0.724000	0.694700
C1061	C106	0.407200	0.757500	0.490400
H351	H35	0.321900	0.708900	0.495300
C1071	C107	0.958900	0.718300	0.533300
C1081	C108	0.408800	0.767900	0.407700
H361	H36	0.992300	0.694000	0.510800
O721	O72	0.447700	0.807800	0.380400
Zn131	Zn13	0.882430	0.741590	0.264010
O731	O73	0.827900	0.805900	0.210100
O741	O74	0.966900	0.742800	0.211900
O751	O75	0.869600	0.767000	0.368600
C1091	C109	0.822000	0.801100	0.139200
O761	O76	0.843000	0.754400	0.099700
O771	O77	0.948400	0.660300	0.129600
C1101	C110	0.787200	0.857300	0.101700
C1111	C111	0.790900	0.519200	0.153300
C1121	C112	0.766300	0.910000	0.144000
C1131	C113	0.775800	0.856900	0.023900
C1141	C114	0.769600	0.460900	0.110200
H371	H37	0.776000	0.911800	0.194700
C1151	C115	0.742500	0.907200	0.990400
H381	H38	0.791100	0.821900	0.995300
C1161	C116	0.781700	0.458900	0.033300
C1171	C117	0.732100	0.908800	0.907700
H391	H39	0.806000	0.492300	0.010800
O781	O78	0.692200	0.947700	0.880400
Zn141	Zn14	0.382430	0.241590	0.764010
O791	O79	0.327900	0.305900	0.710100
O801	O80	0.466900	0.242800	0.711900
O811	O81	0.369600	0.267000	0.868600
C1181	C118	0.322000	0.301100	0.639200
O821	O82	0.343000	0.254400	0.599700
O831	O83	0.448400	0.160300	0.629600
C1191	C119	0.287200	0.357300	0.601700
C1201	C120	0.290900	0.019200	0.653300
C1211	C121	0.266300	0.410000	0.644000
C1221	C122	0.275800	0.356900	0.523900
C1231	C123	0.269600	0.960900	0.610200
H401	H40	0.276000	0.411800	0.694700
C1241	C124	0.242500	0.407200	0.490400
H411	H41	0.291100	0.321900	0.495300
C1251	C125	0.281700	0.958900	0.533300
C1261	C126	0.232100	0.408800	0.407700
H421	H42	0.306000	0.992300	0.510800
O841	O84	0.192200	0.447700	0.380400
Zn151	Zn15	0.117570	0.258410	0.264010
O851	O85	0.172100	0.194100	0.210100
O861	O86	0.033100	0.257200	0.211900
O871	O87	0.130400	0.233000	0.368600
C1271	C127	0.178000	0.198900	0.139200
O881	O88	0.157000	0.245600	0.099700
O891	O89	0.051600	0.339700	0.129600
C1281	C128	0.212800	0.142700	0.101700
C1291	C129	0.209100	0.480800	0.153300
C1301	C130	0.233700	0.090000	0.144000
C1311	C131	0.224200	0.143100	0.023900
C1321	C132	0.230400	0.539100	0.110200
H431	H43	0.224000	0.088200	0.194700
C1331	C133	0.257500	0.092800	0.990400
H441	H44	0.208900	0.178100	0.995300
C1341	C134	0.218300	0.541100	0.033300
C1351	C135	0.267900	0.091200	0.907700
H451	H45	0.194000	0.507700	0.010800
O901	O90	0.307800	0.052300	0.880400
Zn161	Zn16	0.617570	0.758410	0.764010
O911	O91	0.672100	0.694100	0.710100
O921	O92	0.533100	0.757200	0.711900
O931	O93	0.630400	0.733000	0.868600
C1361	C136	0.678000	0.698900	0.639200
O941	O94	0.657000	0.745600	0.599700
O951	O95	0.551600	0.839700	0.629600
C1371	C137	0.712800	0.642700	0.601700
C1381	C138	0.709100	0.980800	0.653300
C1391	C139	0.733700	0.590000	0.644000
C1401	C140	0.724200	0.643100	0.523900
C1411	C141	0.730400	0.039100	0.610200
H461	H46	0.724000	0.588200	0.694700
C1421	C142	0.757500	0.592800	0.490400
H471	H47	0.708900	0.678100	0.495300
C1431	C143	0.718300	0.041100	0.533300
C1441	C144	0.767900	0.591200	0.407700
H481	H48	0.694000	0.007700	0.510800
O961	O96	0.807800	0.552300	0.380400
O971	O97	0.343700	0.156300	0.737000
Co11	Co1	0.347060	0.152940	0.619060
O981	O98	0.656300	0.843700	0.737000
Co21	Co2	0.652940	0.847060	0.619060
O991	O99	0.156300	0.343700	0.237000
Co31	Co3	0.152940	0.347060	0.119060
O1001	O100	0.843700	0.343700	0.737000
Co41	Co4	0.847060	0.347060	0.619060
O1011	O101	0.156300	0.656300	0.737000
Co51	Co5	0.152940	0.652940	0.619060
O1021	O102	0.343700	0.843700	0.237000
Co61	Co6	0.347060	0.847060	0.119060
O1031	O103	0.656300	0.156300	0.237000
Co71	Co7	0.652940	0.152940	0.119060
O1041	O104	0.843700	0.656300	0.237000
Co81	Co8	0.847060	0.652940	0.119060
