data_EWUTEW_clean_PM
_symmetry_space_group_name_H-M	'P1'
_cell_length_a	9.709700
_cell_length_b	20.906000
_cell_length_c	24.739400
_cell_angle_alpha	104.603000
_cell_angle_beta	90.000000
_cell_angle_gamma	103.428000
_symmetry_Int_Tables_number 1

loop_
_symmetry_equiv_pos_as_xyz
'x,y,z'

loop_
_atom_site_label
_atom_site_type_symbol
_atom_site_fract_x
_atom_site_fract_y
_atom_site_fract_z
Cu11	Cu1	0.645510	0.709240	0.461010
Cu21	Cu2	0.037870	0.784680	0.509720
Cu31	Cu3	0.765260	0.738720	0.608710
Cu41	Cu4	0.936270	0.290760	0.038990
Cu51	Cu5	0.253190	0.215320	0.990280
Cu61	Cu6	0.026540	0.261280	0.891290
Cu71	Cu7	0.354490	0.290760	0.538990
Cu81	Cu8	0.962130	0.215320	0.490280
Cu91	Cu9	0.234740	0.261280	0.391290
Cu101	Cu10	0.063730	0.709240	0.961010
Cu111	Cu11	0.746810	0.784680	0.009720
Cu121	Cu12	0.973460	0.738720	0.108710
H11	H1	0.260300	0.820000	0.915600
H21	H2	0.426000	0.830600	0.849200
H31	H3	0.409700	0.632400	0.823700
H41	H4	0.243500	0.627000	0.888700
H51	H5	0.764600	0.831600	0.727000
H61	H6	0.637100	0.830400	0.804600
H71	H7	0.458800	0.636400	0.738200
H81	H8	0.586700	0.643200	0.661400
H91	H9	0.120200	0.896600	0.451600
H101	H10	0.299700	0.989000	0.450600
H111	H11	0.538800	0.924000	0.543100
H121	H12	0.352600	0.835600	0.542700
H131	H13	0.258700	0.714400	0.538800
H141	H14	0.304100	0.607800	0.518300
H151	H15	0.978900	0.545800	0.402900
H161	H16	0.943200	0.653200	0.428400
H171	H17	0.602800	0.594000	0.551000
H181	H18	0.625900	0.485400	0.529600
H191	H19	0.966500	0.443200	0.414200
H201	H20	0.995800	0.664000	0.607100
H211	H21	0.440300	0.180000	0.584400
H221	H22	0.595400	0.169400	0.650800
H231	H23	0.777300	0.367600	0.676300
H241	H24	0.616500	0.373000	0.611300
H251	H25	0.933000	0.168400	0.773000
H261	H26	0.806700	0.169600	0.695400
H271	H27	0.822400	0.363600	0.761800
H281	H28	0.943500	0.356800	0.838600
H291	H29	0.223600	0.103400	0.048400
H301	H30	0.310700	0.011000	0.049400
H311	H31	0.614800	0.076000	0.956900
H321	H32	0.517000	0.164400	0.957300
H331	H33	0.544300	0.285600	0.961200
H341	H34	0.696300	0.392200	0.981700
H351	H35	0.433100	0.454200	0.097100
H361	H36	0.290000	0.346800	0.071600
H371	H37	0.008800	0.406000	0.949000
H381	H38	0.140500	0.514600	0.970400
H391	H39	0.523300	0.556800	0.085800
H401	H40	0.331800	0.336000	0.892900
H411	H41	0.739700	0.180000	0.084400
H421	H42	0.574000	0.169400	0.150800
H431	H43	0.590300	0.367600	0.176300
H441	H44	0.756500	0.373000	0.111300
H451	H45	0.235400	0.168400	0.273000
H461	H46	0.362900	0.169600	0.195400
H471	H47	0.541200	0.363600	0.261800
H481	H48	0.413300	0.356800	0.338600
H491	H49	0.879800	0.103400	0.548400
H501	H50	0.700300	0.011000	0.549400
H511	H51	0.461200	0.076000	0.456900
H521	H52	0.647400	0.164400	0.457300
H531	H53	0.741300	0.285600	0.461200
H541	H54	0.695900	0.392200	0.481700
H551	H55	0.021100	0.454200	0.597100
H561	H56	0.056800	0.346800	0.571600
H571	H57	0.397200	0.406000	0.449000
H581	H58	0.374100	0.514600	0.470400
H591	H59	0.033500	0.556800	0.585800
H601	H60	0.004200	0.336000	0.392900
H611	H61	0.559700	0.820000	0.415600
H621	H62	0.404600	0.830600	0.349200
H631	H63	0.222700	0.632400	0.323700
H641	H64	0.383500	0.627000	0.388700
H651	H65	0.067000	0.831600	0.227000
H661	H66	0.193300	0.830400	0.304600
H671	H67	0.177600	0.636400	0.238200
H681	H68	0.056500	0.643200	0.161400
H691	H69	0.776400	0.896600	0.951600
H701	H70	0.689300	0.989000	0.950600
H711	H71	0.385200	0.924000	0.043100
H721	H72	0.483000	0.835600	0.042700
H731	H73	0.455700	0.714400	0.038800
H741	H74	0.303700	0.607800	0.018300
H751	H75	0.566900	0.545800	0.902900
H761	H76	0.710000	0.653200	0.928400
H771	H77	0.991200	0.594000	0.051000
H781	H78	0.859500	0.485400	0.029600
H791	H79	0.476700	0.443200	0.914200
H801	H80	0.668200	0.664000	0.107100
W11	W1	0.792650	0.820180	0.539070
W21	W2	0.972470	0.179820	0.960930
W31	W3	0.207350	0.179820	0.460930
W41	W4	0.027530	0.820180	0.039070
C11	C1	0.289170	0.781540	0.896300
C21	C2	0.389390	0.788380	0.856000
C31	C3	0.433450	0.731500	0.826400
C41	C4	0.379210	0.671220	0.840800
C51	C5	0.279940	0.668480	0.880600
C61	C6	0.699940	0.791480	0.728200
C71	C7	0.622800	0.791200	0.775300
C81	C8	0.526550	0.734100	0.778900
C91	C9	0.517600	0.677800	0.736500
C101	C10	0.597000	0.682400	0.690600
C111	C11	0.204700	0.903200	0.472200
C121	C12	0.313400	0.959000	0.471000
C131	C13	0.440390	0.969980	0.499600
C141	C14	0.452630	0.921260	0.525100
C151	C15	0.339160	0.867920	0.524600
C161	C16	0.199910	0.679620	0.511800
C171	C17	0.229230	0.615460	0.499400
C181	C18	0.144200	0.563200	0.458200
C191	C19	0.036840	0.578880	0.431400
C201	C20	0.016030	0.643860	0.447100
C211	C21	0.690200	0.586200	0.558800
C221	C22	0.703440	0.520880	0.545500
C231	C23	0.165800	0.493200	0.444100
C241	C24	0.056210	0.437220	0.421200
C251	C25	0.920220	0.627240	0.591400
C261	C26	0.643400	0.556200	0.414500
C271	C27	0.507630	0.218460	0.603700
C281	C28	0.601010	0.211620	0.644000
C291	C29	0.701950	0.268500	0.673600
C301	C30	0.707990	0.328780	0.659200
C311	C31	0.611460	0.331520	0.619400
C321	C32	0.908460	0.208520	0.771800
C331	C33	0.831600	0.208800	0.724700
C341	C34	0.792450	0.265900	0.721100
C351	C35	0.839800	0.322200	0.763500
C361	C36	0.914600	0.317600	0.809400
C371	C37	0.301500	0.096800	0.027800
C381	C38	0.354400	0.041000	0.029000
C391	C39	0.470410	0.030020	0.000400
C401	C40	0.531370	0.078740	0.974900
C411	C41	0.471240	0.132080	0.975400
C421	C42	0.520290	0.320380	0.988200
C431	C43	0.613770	0.384540	0.000600
C441	C44	0.581000	0.436800	0.041800
C451	C45	0.457960	0.421120	0.068600
C461	C46	0.372170	0.356140	0.052900
C471	C47	0.104000	0.413800	0.941200
C481	C48	0.182560	0.479120	0.954500
C491	C49	0.672600	0.506800	0.055900
C501	C50	0.618990	0.562780	0.078800
C511	C51	0.292980	0.372760	0.908600
C521	C52	0.087200	0.443800	0.085500
C531	C53	0.710830	0.218460	0.103700
C541	C54	0.610610	0.211620	0.144000
C551	C55	0.566550	0.268500	0.173600
C561	C56	0.620790	0.328780	0.159200
C571	C57	0.720060	0.331520	0.119400
C581	C58	0.300060	0.208520	0.271800
C591	C59	0.377200	0.208800	0.224700
C601	C60	0.473450	0.265900	0.221100
C611	C61	0.482400	0.322200	0.263500
C621	C62	0.403000	0.317600	0.309400
C631	C63	0.795300	0.096800	0.527800
C641	C64	0.686600	0.041000	0.529000
C651	C65	0.559610	0.030020	0.500400
C661	C66	0.547370	0.078740	0.474900
C671	C67	0.660840	0.132080	0.475400
C681	C68	0.800090	0.320380	0.488200
C691	C69	0.770770	0.384540	0.500600
C701	C70	0.855800	0.436800	0.541800
C711	C71	0.963160	0.421120	0.568600
C721	C72	0.983970	0.356140	0.552900
C731	C73	0.309800	0.413800	0.441200
C741	C74	0.296560	0.479120	0.454500
C751	C75	0.834200	0.506800	0.555900
C761	C76	0.943790	0.562780	0.578800
C771	C77	0.079780	0.372760	0.408600
C781	C78	0.356600	0.443800	0.585500
C791	C79	0.492370	0.781540	0.396300
C801	C80	0.398990	0.788380	0.356000
C811	C81	0.298050	0.731500	0.326400
C821	C82	0.292010	0.671220	0.340800
C831	C83	0.388540	0.668480	0.380600
C841	C84	0.091540	0.791480	0.228200
C851	C85	0.168400	0.791200	0.275300
C861	C86	0.207550	0.734100	0.278900
C871	C87	0.160200	0.677800	0.236500
C881	C88	0.085400	0.682400	0.190600
C891	C89	0.698500	0.903200	0.972200
C901	C90	0.645600	0.959000	0.971000
C911	C91	0.529590	0.969980	0.999600
C921	C92	0.468630	0.921260	0.025100
C931	C93	0.528760	0.867920	0.024600
C941	C94	0.479710	0.679620	0.011800
C951	C95	0.386230	0.615460	0.999400
C961	C96	0.419000	0.563200	0.958200
C971	C97	0.542040	0.578880	0.931400
C981	C98	0.627830	0.643860	0.947100
C991	C99	0.896000	0.586200	0.058800
C1001	C100	0.817440	0.520880	0.045500
C1011	C101	0.327400	0.493200	0.944100
C1021	C102	0.381010	0.437220	0.921200
C1031	C103	0.707020	0.627240	0.091400
C1041	C104	0.912800	0.556200	0.914500
S11	S1	0.854010	0.784420	0.450570
S21	S2	0.965400	0.816720	0.599110
S31	S3	0.589060	0.748620	0.551410
S41	S4	0.659320	0.477640	0.389810
S51	S5	0.069590	0.215580	0.049430
S61	S6	0.148680	0.183280	0.900890
S71	S7	0.840440	0.251380	0.948590
S81	S8	0.181680	0.522360	0.110190
S91	S9	0.145990	0.215580	0.549430
S101	S10	0.034600	0.183280	0.400890
S111	S11	0.410940	0.251380	0.448590
S121	S12	0.340680	0.522360	0.610190
S131	S13	0.930410	0.784420	0.950570
S141	S14	0.851320	0.816720	0.099110
S151	S15	0.159560	0.748620	0.051410
S161	S16	0.818320	0.477640	0.889810
N11	N1	0.633360	0.610920	0.431200
N21	N2	0.510900	0.277400	0.591700
N31	N3	0.686540	0.738480	0.685500
N41	N4	0.213810	0.859020	0.500900
N51	N5	0.093890	0.693980	0.487600
N61	N6	0.794860	0.639920	0.582400
N71	N7	0.022440	0.389080	0.068800
N81	N8	0.233500	0.722600	0.908300
N91	N9	0.948060	0.261520	0.814500
N101	N10	0.354790	0.140980	0.999100
N111	N11	0.399910	0.306020	0.012400
N121	N12	0.154940	0.360080	0.917600
N131	N13	0.366640	0.389080	0.568800
N141	N14	0.489100	0.722600	0.408300
N151	N15	0.313460	0.261520	0.314500
N161	N16	0.786190	0.140980	0.499100
N171	N17	0.906110	0.306020	0.512400
N181	N18	0.205140	0.360080	0.417600
N191	N19	0.977560	0.610920	0.931200
N201	N20	0.766500	0.277400	0.091700
N211	N21	0.051940	0.738480	0.185500
N221	N22	0.645210	0.859020	0.000900
N231	N23	0.600090	0.693980	0.987600
N241	N24	0.845060	0.639920	0.082400
