data_EXALIZ_clean_PM
_symmetry_space_group_name_H-M	'P1'
_cell_length_a	13.002400
_cell_length_b	13.476500
_cell_length_c	19.010700
_cell_angle_alpha	76.294000
_cell_angle_beta	85.284000
_cell_angle_gamma	74.768000
_symmetry_Int_Tables_number 1

loop_
_symmetry_equiv_pos_as_xyz
'x,y,z'

loop_
_atom_site_label
_atom_site_type_symbol
_atom_site_fract_x
_atom_site_fract_y
_atom_site_fract_z
Ni11	Ni1	0.652110	0.766050	0.853850
Mo11	Mo1	0.796230	0.181280	0.887290
Mo21	Mo2	0.768800	0.141090	0.078720
Mo31	Mo3	0.018070	0.024190	0.809720
Mo41	Mo4	0.821820	0.862670	0.105890
Mo51	Mo5	0.828940	0.904550	0.914970
Mo61	Mo6	0.044400	0.722510	0.015850
O11	O1	0.921000	0.997300	0.062600
O21	O2	0.950000	0.910000	0.009200
O31	O3	0.918800	0.104800	0.995200
O41	O4	0.934600	0.018600	0.929700
O51	O5	0.895900	0.143500	0.819400
O61	O6	0.759900	0.046500	0.894100
O71	O7	0.865500	0.083000	0.159900
O81	O8	0.742800	0.009500	0.095400
O91	O9	0.925600	0.937700	0.836200
O101	O10	0.939400	0.779900	0.944600
O111	O11	0.849000	0.245000	0.050600
O121	O12	0.102700	0.120100	0.822100
O131	O13	0.773500	0.885400	0.006500
O141	O14	0.755200	0.852800	0.874000
O151	O15	0.864200	0.273600	0.909900
O161	O16	0.929400	0.750100	0.085600
O171	O17	0.726200	0.172800	0.984500
N11	N1	0.605900	0.948900	0.643100
N21	N2	0.705600	0.950700	0.648100
N31	N3	0.652200	0.852700	0.748800
N41	N4	0.860100	0.520900	0.780100
N51	N5	0.935600	0.534100	0.822200
N61	N6	0.778400	0.650500	0.828300
N71	N7	0.651600	0.692200	0.963100
N81	N8	0.587800	0.634500	0.073800
N91	N9	0.689400	0.613900	0.075500
N101	N10	0.928900	0.227700	0.304300
N111	N11	0.011900	0.261900	0.322900
N121	N12	0.978600	0.124500	0.407400
N131	N13	0.064500	0.090400	0.551500
N141	N14	0.181900	0.147800	0.600800
N151	N15	0.083000	0.208900	0.603900
C11	C1	0.058000	0.280600	0.659200
H11	H1	0.124500	0.292800	0.671400
H21	H2	0.028300	0.244800	0.703200
C21	C2	0.910300	0.147300	0.353800
H31	H3	0.858100	0.112300	0.351800
C31	C3	0.989000	0.375700	0.632700
H41	H4	0.016800	0.409400	0.587000
H51	H5	0.921300	0.363700	0.623400
C41	C4	0.550000	0.969600	0.530300
H61	H6	0.617700	0.980100	0.509200
H71	H7	0.555000	0.894400	0.544600
C51	C5	0.523800	0.013900	0.587800
H81	H8	0.527300	0.087000	0.575300
H91	H9	0.452500	0.010600	0.605900
C61	C6	0.969800	0.449800	0.685300
H101	H10	0.950300	0.522200	0.657700
H111	H11	0.036000	0.439800	0.709200
C71	C7	0.822000	0.393800	0.230400
H121	H12	0.769600	0.401400	0.269400
H131	H13	0.875600	0.429500	0.236000
C81	C8	0.879800	0.610700	0.851100
H141	H14	0.907700	0.635900	0.884900
C91	C9	0.887800	0.434100	0.739900
H151	H15	0.824700	0.431900	0.717100
H161	H16	0.912600	0.367000	0.773700
C101	C10	0.166300	0.078000	0.568100
H171	H17	0.221500	0.023800	0.557100
C111	C11	0.724600	0.650800	0.011200
H181	H18	0.796300	0.647800	0.000700
C121	C12	0.873100	0.279900	0.235600
H191	H19	0.923800	0.272600	0.195600
H201	H20	0.818900	0.244400	0.231000
C131	C13	0.772100	0.590000	0.784800
H211	H21	0.710900	0.596400	0.760200
C141	C14	0.732500	0.891000	0.711700
H221	H22	0.800400	0.875900	0.730100
C151	C15	0.767700	0.445500	0.157900
H231	H23	0.701600	0.424900	0.158100
H241	H24	0.813500	0.420700	0.119400
C161	C16	0.568400	0.894200	0.705400
H251	H25	0.499100	0.887200	0.715600
C171	C17	0.745000	0.561600	0.143600
H261	H26	0.811500	0.581900	0.142000
H271	H27	0.701600	0.585800	0.183200
C181	C18	0.013600	0.172700	0.576600
H281	H28	0.940200	0.201200	0.575500
C191	C19	0.565000	0.689000	0.004800
H291	H29	0.496000	0.720400	0.988400
C201	C20	0.035600	0.196200	0.385000
H301	H30	0.090100	0.198900	0.412700
Ni21	Ni2	0.347890	0.233950	0.146150
Mo71	Mo7	0.203770	0.818720	0.112710
Mo81	Mo8	0.231200	0.858910	0.921280
Mo91	Mo9	0.981930	0.975810	0.190280
Mo101	Mo10	0.178180	0.137330	0.894110
Mo111	Mo11	0.171060	0.095450	0.085030
Mo121	Mo12	0.955600	0.277490	0.984150
O181	O18	0.079000	0.002700	0.937400
O191	O19	0.050000	0.090000	0.990800
O201	O20	0.081200	0.895200	0.004800
O211	O21	0.065400	0.981400	0.070300
O221	O22	0.104100	0.856500	0.180600
O231	O23	0.240100	0.953500	0.105900
O241	O24	0.134500	0.917000	0.840100
O251	O25	0.257200	0.990500	0.904600
O261	O26	0.074400	0.062300	0.163800
O271	O27	0.060600	0.220100	0.055400
O281	O28	0.151000	0.755000	0.949400
O291	O29	0.897300	0.879900	0.177900
O301	O30	0.226500	0.114600	0.993500
O311	O31	0.244800	0.147200	0.126000
O321	O32	0.135800	0.726400	0.090100
O331	O33	0.070600	0.249900	0.914400
O341	O34	0.273800	0.827200	0.015500
N161	N16	0.394100	0.051100	0.356900
N171	N17	0.294400	0.049300	0.351900
N181	N18	0.347800	0.147300	0.251200
N191	N19	0.139900	0.479100	0.219900
N201	N20	0.064400	0.465900	0.177800
N211	N21	0.221600	0.349500	0.171700
N221	N22	0.348400	0.307800	0.036900
N231	N23	0.412200	0.365500	0.926200
N241	N24	0.310600	0.386100	0.924500
N251	N25	0.071100	0.772300	0.695700
N261	N26	0.988100	0.738100	0.677100
N271	N27	0.021400	0.875500	0.592600
N281	N28	0.935500	0.909600	0.448500
N291	N29	0.818100	0.852200	0.399200
N301	N30	0.917000	0.791100	0.396100
C211	C21	0.942000	0.719400	0.340800
H311	H31	0.875500	0.707200	0.328600
H321	H32	0.971700	0.755200	0.296800
C221	C22	0.089700	0.852700	0.646200
H331	H33	0.141900	0.887700	0.648200
C231	C23	0.011000	0.624300	0.367300
H341	H34	0.983200	0.590600	0.413000
H351	H35	0.078700	0.636300	0.376600
C241	C24	0.450000	0.030400	0.469700
H361	H36	0.382300	0.019900	0.490800
H371	H37	0.445000	0.105600	0.455400
C251	C25	0.476200	0.986100	0.412200
H381	H38	0.472700	0.913000	0.424700
H391	H39	0.547500	0.989400	0.394100
C261	C26	0.030200	0.550200	0.314700
H401	H40	0.049700	0.477800	0.342300
H411	H41	0.964000	0.560200	0.290800
C271	C27	0.178000	0.606200	0.769600
H421	H42	0.230400	0.598600	0.730600
H431	H43	0.124400	0.570500	0.764000
C281	C28	0.120200	0.389300	0.148900
H441	H44	0.092300	0.364100	0.115100
C291	C29	0.112200	0.565900	0.260100
H451	H45	0.175300	0.568100	0.282900
H461	H46	0.087400	0.633000	0.226300
C301	C30	0.833700	0.922000	0.431900
H471	H47	0.778500	0.976200	0.442900
C311	C31	0.275400	0.349200	0.988800
H481	H48	0.203700	0.352200	0.999300
C321	C32	0.126900	0.720100	0.764400
H491	H49	0.076200	0.727400	0.804400
H501	H50	0.181100	0.755600	0.769000
C331	C33	0.227900	0.410000	0.215200
H511	H51	0.289100	0.403600	0.239800
C341	C34	0.267500	0.109000	0.288300
H521	H52	0.199600	0.124100	0.269900
C351	C35	0.232300	0.554500	0.842100
H531	H53	0.298400	0.575100	0.841900
H541	H54	0.186500	0.579300	0.880600
C361	C36	0.431600	0.105800	0.294600
H551	H55	0.500900	0.112800	0.284400
C371	C37	0.255000	0.438400	0.856400
H561	H56	0.188500	0.418100	0.858000
H571	H57	0.298400	0.414200	0.816800
C381	C38	0.986400	0.827300	0.423400
H581	H58	0.059800	0.798800	0.424500
C391	C39	0.435000	0.311000	0.995200
H591	H59	0.504000	0.279600	0.011600
C401	C40	0.964400	0.803800	0.615000
H601	H60	0.909900	0.801100	0.587300
Ni31	Ni3	0.000000	0.000000	0.500000
P11	P1	0.000000	0.000000	0.000000
