data_EXAPEA_clean_PM
_symmetry_space_group_name_H-M	'P1'
_cell_length_a	15.437000
_cell_length_b	15.437000
_cell_length_c	7.511200
_cell_angle_alpha	90.000000
_cell_angle_beta	90.000000
_cell_angle_gamma	90.000000
_symmetry_Int_Tables_number 1

loop_
_symmetry_equiv_pos_as_xyz
'x,y,z'

loop_
_atom_site_label
_atom_site_type_symbol
_atom_site_fract_x
_atom_site_fract_y
_atom_site_fract_z
S11	S1	0.417880	0.529510	0.270470
S21	S2	0.596150	0.580870	0.363000
N11	N1	0.333200	0.680500	0.660200
C11	C1	0.475600	0.590600	0.113000
C21	C2	0.556500	0.612700	0.157600
H11	H1	0.590800	0.644500	0.079700
C31	C3	0.503000	0.522500	0.423700
C41	C4	0.419100	0.693600	0.675000
H21	H2	0.446600	0.724700	0.585400
C51	C5	0.468700	0.663900	0.813500
H31	H3	0.527900	0.674800	0.816000
C61	C6	0.429700	0.617200	0.950300
C71	C7	0.342500	0.599600	0.929800
H41	H4	0.313900	0.565800	0.013900
C81	C8	0.297600	0.631600	0.785800
H51	H5	0.239100	0.618200	0.775800
S31	S3	0.082120	0.970490	0.270470
S41	S4	0.903850	0.919130	0.363000
N21	N2	0.166800	0.819500	0.660200
C91	C9	0.024400	0.909400	0.113000
C101	C10	0.943500	0.887300	0.157600
H61	H6	0.909200	0.855500	0.079700
C111	C11	0.997000	0.977500	0.423700
C121	C12	0.080900	0.806400	0.675000
H71	H7	0.053400	0.775300	0.585400
C131	C13	0.031300	0.836100	0.813500
H81	H8	0.972100	0.825200	0.816000
C141	C14	0.070300	0.882800	0.950300
C151	C15	0.157500	0.900400	0.929800
H91	H9	0.186100	0.934200	0.013900
C161	C16	0.202400	0.868400	0.785800
H101	H10	0.260900	0.881800	0.775800
S51	S5	0.970490	0.417880	0.270470
S61	S6	0.919130	0.596150	0.363000
N31	N3	0.819500	0.333200	0.660200
C171	C17	0.909400	0.475600	0.113000
C181	C18	0.887300	0.556500	0.157600
H111	H11	0.855500	0.590800	0.079700
C191	C19	0.977500	0.503000	0.423700
C201	C20	0.806400	0.419100	0.675000
H121	H12	0.775300	0.446600	0.585400
C211	C21	0.836100	0.468700	0.813500
H131	H13	0.825200	0.527900	0.816000
C221	C22	0.882800	0.429700	0.950300
C231	C23	0.900400	0.342500	0.929800
H141	H14	0.934200	0.313900	0.013900
C241	C24	0.868400	0.297600	0.785800
H151	H15	0.881800	0.239100	0.775800
S71	S7	0.529510	0.082120	0.270470
S81	S8	0.580870	0.903850	0.363000
N41	N4	0.680500	0.166800	0.660200
C251	C25	0.590600	0.024400	0.113000
C261	C26	0.612700	0.943500	0.157600
H161	H16	0.644500	0.909200	0.079700
C271	C27	0.522500	0.997000	0.423700
C281	C28	0.693600	0.080900	0.675000
H171	H17	0.724700	0.053400	0.585400
C291	C29	0.663900	0.031300	0.813500
H181	H18	0.674800	0.972100	0.816000
C301	C30	0.617200	0.070300	0.950300
C311	C31	0.599600	0.157500	0.929800
H191	H19	0.565800	0.186100	0.013900
C321	C32	0.631600	0.202400	0.785800
H201	H20	0.618200	0.260900	0.775800
S91	S9	0.582120	0.470490	0.729530
S101	S10	0.403850	0.419130	0.637000
N51	N5	0.666800	0.319500	0.339800
C331	C33	0.524400	0.409400	0.887000
C341	C34	0.443500	0.387300	0.842400
H211	H21	0.409200	0.355500	0.920300
C351	C35	0.497000	0.477500	0.576300
C361	C36	0.580900	0.306400	0.325000
H221	H22	0.553400	0.275300	0.414600
C371	C37	0.531300	0.336100	0.186500
H231	H23	0.472100	0.325200	0.184000
C381	C38	0.570300	0.382800	0.049700
C391	C39	0.657500	0.400400	0.070200
H241	H24	0.686100	0.434200	0.986100
C401	C40	0.702400	0.368400	0.214200
H251	H25	0.760900	0.381800	0.224200
S111	S11	0.917880	0.029510	0.729530
S121	S12	0.096150	0.080870	0.637000
N61	N6	0.833200	0.180500	0.339800
C411	C41	0.975600	0.090600	0.887000
C421	C42	0.056500	0.112700	0.842400
H261	H26	0.090800	0.144500	0.920300
C431	C43	0.003000	0.022500	0.576300
C441	C44	0.919100	0.193600	0.325000
H271	H27	0.946600	0.224700	0.414600
C451	C45	0.968700	0.163900	0.186500
H281	H28	0.027900	0.174800	0.184000
C461	C46	0.929700	0.117200	0.049700
C471	C47	0.842500	0.099600	0.070200
H291	H29	0.813900	0.065800	0.986100
C481	C48	0.797600	0.131600	0.214200
H301	H30	0.739100	0.118200	0.224200
S131	S13	0.029510	0.582120	0.729530
S141	S14	0.080870	0.403850	0.637000
N71	N7	0.180500	0.666800	0.339800
C491	C49	0.090600	0.524400	0.887000
C501	C50	0.112700	0.443500	0.842400
H311	H31	0.144500	0.409200	0.920300
C511	C51	0.022500	0.497000	0.576300
C521	C52	0.193600	0.580900	0.325000
H321	H32	0.224700	0.553400	0.414600
C531	C53	0.163900	0.531300	0.186500
H331	H33	0.174800	0.472100	0.184000
C541	C54	0.117200	0.570300	0.049700
C551	C55	0.099600	0.657500	0.070200
H341	H34	0.065800	0.686100	0.986100
C561	C56	0.131600	0.702400	0.214200
H351	H35	0.118200	0.760900	0.224200
S151	S15	0.470490	0.917880	0.729530
S161	S16	0.419130	0.096150	0.637000
N81	N8	0.319500	0.833200	0.339800
C571	C57	0.409400	0.975600	0.887000
C581	C58	0.387300	0.056500	0.842400
H361	H36	0.355500	0.090800	0.920300
C591	C59	0.477500	0.003000	0.576300
C601	C60	0.306400	0.919100	0.325000
H371	H37	0.275300	0.946600	0.414600
C611	C61	0.336100	0.968700	0.186500
H381	H38	0.325200	0.027900	0.184000
C621	C62	0.382800	0.929700	0.049700
C631	C63	0.400400	0.842500	0.070200
H391	H39	0.434200	0.813900	0.986100
C641	C64	0.368400	0.797600	0.214200
H401	H40	0.381800	0.739100	0.224200
Cu11	Cu1	0.250000	0.750000	0.500000
Cu21	Cu2	0.750000	0.250000	0.500000
