data_EXEQAA_clean_PM
_symmetry_space_group_name_H-M	'P1'
_cell_length_a	12.385000
_cell_length_b	15.352000
_cell_length_c	25.037800
_cell_angle_alpha	107.853000
_cell_angle_beta	104.319000
_cell_angle_gamma	90.000100
_symmetry_Int_Tables_number 1

loop_
_symmetry_equiv_pos_as_xyz
'x,y,z'

loop_
_atom_site_label
_atom_site_type_symbol
_atom_site_fract_x
_atom_site_fract_y
_atom_site_fract_z
Sc11	Sc1	0.479340	0.041690	0.208540
Sc21	Sc2	0.687450	0.999800	0.124860
Sc31	Sc3	0.604120	0.791730	0.458180
Sc41	Sc4	0.229200	0.166850	0.208540
Sc51	Sc5	0.937410	0.125060	0.124860
Sc61	Sc6	0.354060	0.666450	0.458180
Sc71	Sc7	0.270800	0.458310	0.791460
Sc81	Sc8	0.562590	0.500200	0.875140
Sc91	Sc9	0.145940	0.708270	0.541820
Sc101	Sc10	0.020660	0.333150	0.791460
Sc111	Sc11	0.812550	0.374940	0.875140
Sc121	Sc12	0.895880	0.833550	0.541820
H11	H1	0.569000	0.128100	0.158000
H21	H2	0.924300	0.939000	0.255600
H31	H3	0.101200	0.014400	0.293400
H41	H4	0.405000	0.916700	0.333600
H51	H5	0.142100	0.819700	0.374600
H61	H6	0.001600	0.895800	0.411800
H71	H7	0.678400	0.917600	0.333400
H81	H8	0.242400	0.848000	0.077400
H91	H9	0.066100	0.885900	0.039200
H101	H10	0.089000	0.029900	0.158000
H111	H11	0.831300	0.316600	0.255600
H121	H12	0.692200	0.279000	0.293400
H131	H13	0.428600	0.416900	0.333600
H141	H14	0.732500	0.554900	0.374600
H151	H15	0.910200	0.516000	0.411800
H161	H16	0.155000	0.415800	0.333400
H171	H17	0.335000	0.229400	0.077400
H181	H18	0.473100	0.153300	0.039200
H191	H19	0.411000	0.371900	0.842000
H201	H20	0.668700	0.561000	0.744400
H211	H21	0.807800	0.485600	0.706600
H221	H22	0.071400	0.583300	0.666400
H231	H23	0.767500	0.680300	0.625400
H241	H24	0.589800	0.604200	0.588200
H251	H25	0.345000	0.582400	0.666600
H261	H26	0.165000	0.652000	0.922600
H271	H27	0.026900	0.614100	0.960800
H281	H28	0.931000	0.470100	0.842000
H291	H29	0.575700	0.183400	0.744400
H301	H30	0.398800	0.221000	0.706600
H311	H31	0.095000	0.083100	0.666400
H321	H32	0.357900	0.945100	0.625400
H331	H33	0.498400	0.984000	0.588200
H341	H34	0.821600	0.084200	0.666600
H351	H35	0.257600	0.270600	0.922600
H361	H36	0.433900	0.346700	0.960800
H371	H37	0.850600	0.100600	0.201200
H381	H38	0.649400	0.399400	0.798800
H391	H39	0.316100	0.066100	0.132200
H401	H40	0.183900	0.433900	0.867800
H411	H41	0.517200	0.767200	0.534400
H421	H42	0.982800	0.732800	0.465600
H431	H43	0.750000	0.698000	0.500000
H441	H44	0.250000	0.802000	0.500000
H451	H45	0.487600	0.750000	0.000000
H461	H46	0.761400	0.750000	0.000000
H471	H47	0.012400	0.250000	0.000000
H481	H48	0.738600	0.250000	0.000000
C11	C1	0.704600	0.953000	0.240600
C21	C2	0.789300	0.931300	0.287600
C31	C3	0.901800	0.930100	0.287200
C41	C4	0.980800	0.915900	0.333200
C51	C5	0.102100	0.915900	0.333200
C61	C6	0.147200	0.974000	0.309200
C71	C7	0.259800	0.972200	0.308200
C81	C8	0.304200	0.028300	0.278800
C91	C9	0.328200	0.916600	0.333400
C101	C10	0.284400	0.860500	0.358400
C111	C11	0.358900	0.805600	0.388600
C121	C12	0.171600	0.859200	0.358000
C131	C13	0.947400	0.903100	0.379600
C141	C14	0.834200	0.901100	0.379000
C151	C15	0.755000	0.916800	0.333200
C161	C16	0.796800	0.881100	0.426000
C171	C17	0.461000	0.880800	0.093000
C181	C18	0.379000	0.810300	0.045800
C191	C19	0.264900	0.808200	0.045400
C201	C20	0.019600	0.829900	0.023400
C211	C21	0.906800	0.831200	0.024800
C221	C22	0.862400	0.916400	0.055200
C231	C23	0.036000	0.287600	0.240600
C241	C24	0.998300	0.356300	0.287600
C251	C25	0.885400	0.357100	0.287200
C261	C26	0.852400	0.417300	0.333200
C271	C27	0.731100	0.417300	0.333200
C281	C28	0.662000	0.335200	0.309200
C291	C29	0.548400	0.336000	0.308200
C301	C30	0.474600	0.250500	0.278800
C311	C31	0.505200	0.416800	0.333400
C321	C32	0.574000	0.497900	0.358400
C331	C33	0.529700	0.583000	0.388600
C341	C34	0.686400	0.498800	0.358000
C351	C35	0.932200	0.476500	0.379600
C361	C36	0.044800	0.477900	0.379000
C371	C37	0.078200	0.416400	0.333200
C381	C38	0.129200	0.544900	0.426000
C391	C39	0.132000	0.212200	0.093000
C401	C40	0.166800	0.235500	0.045800
C411	C41	0.280500	0.237200	0.045400
C421	C42	0.503800	0.193500	0.023400
C431	C43	0.618000	0.193600	0.024800
C441	C44	0.692800	0.138800	0.055200
C451	C45	0.464000	0.547000	0.759400
C461	C46	0.501700	0.568700	0.712400
C471	C47	0.614600	0.569900	0.712800
C481	C48	0.647600	0.584100	0.666800
C491	C49	0.768900	0.584100	0.666800
C501	C50	0.838000	0.526000	0.690800
C511	C51	0.951600	0.527800	0.691800
C521	C52	0.025400	0.471700	0.721200
C531	C53	0.994800	0.583400	0.666600
C541	C54	0.926000	0.639500	0.641600
C551	C55	0.970300	0.694400	0.611400
C561	C56	0.813600	0.640800	0.642000
C571	C57	0.567800	0.596900	0.620400
C581	C58	0.455200	0.598900	0.621000
C591	C59	0.421800	0.583200	0.666800
C601	C60	0.370800	0.618900	0.574000
C611	C61	0.368000	0.619200	0.907000
C621	C62	0.333200	0.689700	0.954200
C631	C63	0.219500	0.691800	0.954600
C641	C64	0.996200	0.670100	0.976600
C651	C65	0.882000	0.668800	0.975200
C661	C66	0.807200	0.583600	0.944800
C671	C67	0.795400	0.212400	0.759400
C681	C68	0.710700	0.143700	0.712400
C691	C69	0.598200	0.142900	0.712800
C701	C70	0.519200	0.082700	0.666800
C711	C71	0.397900	0.082700	0.666800
C721	C72	0.352800	0.164800	0.690800
C731	C73	0.240200	0.164000	0.691800
C741	C74	0.195800	0.249500	0.721200
C751	C75	0.171800	0.083200	0.666600
C761	C76	0.215600	0.002100	0.641600
C771	C77	0.141100	0.917000	0.611400
C781	C78	0.328400	0.001200	0.642000
C791	C79	0.552600	0.023500	0.620400
C801	C80	0.665800	0.022100	0.621000
C811	C81	0.745000	0.083600	0.666800
C821	C82	0.703200	0.955100	0.574000
C831	C83	0.039000	0.287800	0.907000
C841	C84	0.121000	0.264500	0.954200
C851	C85	0.235100	0.262800	0.954600
C861	C86	0.480400	0.306500	0.976600
C871	C87	0.593200	0.306400	0.975200
C881	C88	0.637600	0.361200	0.944800
C891	C89	0.410900	0.750000	0.000000
C901	C90	0.185900	0.750000	0.000000
C911	C91	0.063700	0.750000	0.000000
C921	C92	0.838100	0.750000	0.000000
C931	C93	0.089100	0.250000	0.000000
C941	C94	0.314100	0.250000	0.000000
C951	C95	0.436300	0.250000	0.000000
C961	C96	0.661900	0.250000	0.000000
O11	O1	0.729130	0.941030	0.192660
O21	O2	0.615170	0.982270	0.251740
O31	O3	0.696290	0.850790	0.415180
O41	O4	0.869980	0.892680	0.474160
O51	O5	0.315520	0.737220	0.396240
O61	O6	0.463300	0.829600	0.404400
O71	O7	0.392280	0.003480	0.262160
O81	O8	0.253110	0.096410	0.270420
O91	O9	0.551940	0.897840	0.081680
O101	O10	0.438080	0.915680	0.141360
O111	O11	0.913600	0.992900	0.062800
O121	O12	0.774000	0.908300	0.071200
O131	O13	0.583680	0.080980	0.167160
O141	O14	0.963530	0.251630	0.192660
O151	O15	0.136570	0.269470	0.251740
O161	O16	0.218890	0.564390	0.415180
O171	O17	0.104180	0.581480	0.474160
O181	O18	0.580720	0.659020	0.396240
O191	O19	0.441100	0.574800	0.404400
O201	O20	0.369880	0.258680	0.262160
O211	O21	0.517310	0.174010	0.270420
O221	O22	0.029740	0.183840	0.081680
O231	O23	0.203280	0.225680	0.141360
O241	O24	0.649200	0.069900	0.062800
O251	O25	0.797200	0.162900	0.071200
O261	O26	0.083480	0.086180	0.167160
O271	O27	0.536470	0.558970	0.807340
O281	O28	0.363430	0.517730	0.748260
O291	O29	0.281110	0.649210	0.584820
O301	O30	0.395820	0.607320	0.525840
O311	O31	0.919280	0.762780	0.603760
O321	O32	0.058900	0.670400	0.595600
O331	O33	0.130120	0.496520	0.737840
O341	O34	0.982690	0.403590	0.729580
O351	O35	0.470260	0.602160	0.918320
O361	O36	0.296720	0.584320	0.858640
O371	O37	0.850800	0.507100	0.937200
O381	O38	0.702800	0.591700	0.928800
O391	O39	0.416520	0.419020	0.832840
O401	O40	0.770870	0.248370	0.807340
O411	O41	0.884830	0.230530	0.748260
O421	O42	0.803710	0.935610	0.584820
O431	O43	0.630020	0.918520	0.525840
O441	O44	0.184480	0.840980	0.603760
O451	O45	0.036700	0.925200	0.595600
O461	O46	0.107720	0.241320	0.737840
O471	O47	0.246890	0.325990	0.729580
O481	O48	0.948060	0.316160	0.918320
O491	O49	0.061920	0.274320	0.858640
O501	O50	0.586400	0.430100	0.937200
O511	O51	0.726000	0.337100	0.928800
O521	O52	0.916320	0.413820	0.832840
O531	O53	0.832490	0.082490	0.164980
O541	O54	0.667510	0.417510	0.835020
O551	O55	0.334200	0.084200	0.168400
O561	O56	0.165800	0.415800	0.831600
O571	O57	0.499100	0.749100	0.498200
O581	O58	0.000900	0.750900	0.501800
O591	O59	0.750000	0.752400	0.500000
O601	O60	0.250000	0.747600	0.500000
