data_EXEXAH_clean_PM
_symmetry_space_group_name_H-M	'P1'
_cell_length_a	7.163500
_cell_length_b	18.607000
_cell_length_c	18.607000
_cell_angle_alpha	90.000000
_cell_angle_beta	90.000000
_cell_angle_gamma	90.000000
_symmetry_Int_Tables_number 1

loop_
_symmetry_equiv_pos_as_xyz
'x,y,z'

loop_
_atom_site_label
_atom_site_type_symbol
_atom_site_fract_x
_atom_site_fract_y
_atom_site_fract_z
Co11	Co1	0.750000	0.250000	0.750000
Co21	Co2	0.250000	0.750000	0.250000
Co31	Co3	0.750000	0.750000	0.250000
Co41	Co4	0.250000	0.250000	0.750000
H11	H1	0.916300	0.391800	0.678400
H21	H2	0.816400	0.462700	0.648400
H31	H3	0.792900	0.440500	0.731000
H41	H4	0.229300	0.476400	0.562300
H51	H5	0.916300	0.108200	0.821600
H61	H6	0.816400	0.037300	0.851600
H71	H7	0.792900	0.059500	0.769000
H81	H8	0.229300	0.023600	0.937700
H91	H9	0.416300	0.821600	0.391800
H101	H10	0.316400	0.851600	0.462700
H111	H11	0.292900	0.769000	0.440500
H121	H12	0.729300	0.937700	0.476400
H131	H13	0.416300	0.678400	0.108200
H141	H14	0.316400	0.648400	0.037300
H151	H15	0.292900	0.731000	0.059500
H161	H16	0.729300	0.562300	0.023600
H171	H17	0.583700	0.608200	0.178400
H181	H18	0.683600	0.537300	0.148400
H191	H19	0.707100	0.559500	0.231000
H201	H20	0.270700	0.523600	0.062300
H211	H21	0.583700	0.891800	0.321600
H221	H22	0.683600	0.962700	0.351600
H231	H23	0.707100	0.940500	0.269000
H241	H24	0.270700	0.976400	0.437700
H251	H25	0.083700	0.178400	0.891800
H261	H26	0.183600	0.148400	0.962700
H271	H27	0.207100	0.231000	0.940500
H281	H28	0.770700	0.062300	0.976400
H291	H29	0.083700	0.321600	0.608200
H301	H30	0.183600	0.351600	0.537300
H311	H31	0.207100	0.269000	0.559500
H321	H32	0.770700	0.437700	0.523600
H331	H33	0.083700	0.608200	0.321600
H341	H34	0.183600	0.537300	0.351600
H351	H35	0.207100	0.559500	0.269000
H361	H36	0.770700	0.523600	0.437700
H371	H37	0.083700	0.891800	0.178400
H381	H38	0.183600	0.962700	0.148400
H391	H39	0.207100	0.940500	0.231000
H401	H40	0.770700	0.976400	0.062300
H411	H41	0.583700	0.178400	0.608200
H421	H42	0.683600	0.148400	0.537300
H431	H43	0.707100	0.231000	0.559500
H441	H44	0.270700	0.062300	0.523600
H451	H45	0.583700	0.321600	0.891800
H461	H46	0.683600	0.351600	0.962700
H471	H47	0.707100	0.269000	0.940500
H481	H48	0.270700	0.437700	0.976400
H491	H49	0.416300	0.391800	0.821600
H501	H50	0.316400	0.462700	0.851600
H511	H51	0.292900	0.440500	0.769000
H521	H52	0.729300	0.476400	0.937700
H531	H53	0.416300	0.108200	0.678400
H541	H54	0.316400	0.037300	0.648400
H551	H55	0.292900	0.059500	0.731000
H561	H56	0.729300	0.023600	0.562300
H571	H57	0.916300	0.821600	0.108200
H581	H58	0.816400	0.851600	0.037300
H591	H59	0.792900	0.769000	0.059500
H601	H60	0.229300	0.937700	0.023600
H611	H61	0.916300	0.678400	0.391800
H621	H62	0.816400	0.648400	0.462700
H631	H63	0.792900	0.731000	0.440500
H641	H64	0.229300	0.562300	0.476400
C11	C1	0.804900	0.422200	0.681800
C21	C2	0.631600	0.377900	0.662600
C31	C3	0.341600	0.485800	0.536800
C41	C4	0.804900	0.077800	0.818200
C51	C5	0.631600	0.122100	0.837400
C61	C6	0.341600	0.014200	0.963200
C71	C7	0.304900	0.818200	0.422200
C81	C8	0.131600	0.837400	0.377900
C91	C9	0.841600	0.963200	0.485800
C101	C10	0.304900	0.681800	0.077800
C111	C11	0.131600	0.662600	0.122100
C121	C12	0.841600	0.536800	0.014200
C131	C13	0.695100	0.577800	0.181800
C141	C14	0.868400	0.622100	0.162600
C151	C15	0.158400	0.514200	0.036800
C161	C16	0.695100	0.922200	0.318200
C171	C17	0.868400	0.877900	0.337400
C181	C18	0.158400	0.985800	0.463200
C191	C19	0.195100	0.181800	0.922200
C201	C20	0.368400	0.162600	0.877900
C211	C21	0.658400	0.036800	0.985800
C221	C22	0.195100	0.318200	0.577800
C231	C23	0.368400	0.337400	0.622100
C241	C24	0.658400	0.463200	0.514200
C251	C25	0.195100	0.577800	0.318200
C261	C26	0.368400	0.622100	0.337400
C271	C27	0.658400	0.514200	0.463200
C281	C28	0.195100	0.922200	0.181800
C291	C29	0.368400	0.877900	0.162600
C301	C30	0.658400	0.985800	0.036800
C311	C31	0.695100	0.181800	0.577800
C321	C32	0.868400	0.162600	0.622100
C331	C33	0.158400	0.036800	0.514200
C341	C34	0.695100	0.318200	0.922200
C351	C35	0.868400	0.337400	0.877900
C361	C36	0.158400	0.463200	0.985800
C371	C37	0.304900	0.422200	0.818200
C381	C38	0.131600	0.377900	0.837400
C391	C39	0.841600	0.485800	0.963200
C401	C40	0.304900	0.077800	0.681800
C411	C41	0.131600	0.122100	0.662600
C421	C42	0.841600	0.014200	0.536800
C431	C43	0.804900	0.818200	0.077800
C441	C44	0.631600	0.837400	0.122100
C451	C45	0.341600	0.963200	0.014200
C461	C46	0.804900	0.681800	0.422200
C471	C47	0.631600	0.662600	0.377900
C481	C48	0.341600	0.536800	0.485800
C491	C49	0.500000	0.390100	0.609900
C501	C50	0.500000	0.446400	0.553600
C511	C51	0.500000	0.109900	0.890100
C521	C52	0.500000	0.053600	0.946400
C531	C53	0.000000	0.890100	0.390100
C541	C54	0.000000	0.946400	0.446400
C551	C55	0.000000	0.609900	0.109900
C561	C56	0.000000	0.553600	0.053600
C571	C57	0.500000	0.609900	0.390100
C581	C58	0.500000	0.553600	0.446400
C591	C59	0.500000	0.890100	0.109900
C601	C60	0.500000	0.946400	0.053600
C611	C61	0.000000	0.109900	0.609900
C621	C62	0.000000	0.053600	0.553600
C631	C63	0.000000	0.390100	0.890100
C641	C64	0.000000	0.446400	0.946400
N11	N1	0.583800	0.322200	0.703600
N21	N2	0.583800	0.177800	0.796400
N31	N3	0.083800	0.796400	0.322200
N41	N4	0.083800	0.703600	0.177800
N51	N5	0.916200	0.677800	0.203600
N61	N6	0.916200	0.822200	0.296400
N71	N7	0.416200	0.203600	0.822200
N81	N8	0.416200	0.296400	0.677800
N91	N9	0.416200	0.677800	0.296400
N101	N10	0.416200	0.822200	0.203600
N111	N11	0.916200	0.203600	0.677800
N121	N12	0.916200	0.296400	0.822200
N131	N13	0.083800	0.322200	0.796400
N141	N14	0.083800	0.177800	0.703600
N151	N15	0.583800	0.796400	0.177800
N161	N16	0.583800	0.703600	0.322200
