data_EXOTOB_clean_PM
_symmetry_space_group_name_H-M	'P1'
_cell_length_a	30.238000
_cell_length_b	30.238000
_cell_length_c	30.238000
_cell_angle_alpha	60.000000
_cell_angle_beta	60.000000
_cell_angle_gamma	60.000000
_symmetry_Int_Tables_number 1

loop_
_symmetry_equiv_pos_as_xyz
'x,y,z'

loop_
_atom_site_label
_atom_site_type_symbol
_atom_site_fract_x
_atom_site_fract_y
_atom_site_fract_z
Ni11	Ni1	0.891100	0.155350	0.394210
Ni21	Ni2	0.155350	0.891100	0.559340
Ni31	Ni3	0.394210	0.559340	0.891100
Ni41	Ni4	0.559340	0.394210	0.155350
Ni51	Ni5	0.891100	0.394210	0.559340
Ni61	Ni6	0.155350	0.559340	0.394210
Ni71	Ni7	0.394210	0.891100	0.155350
Ni81	Ni8	0.559340	0.155350	0.891100
Ni91	Ni9	0.891100	0.559340	0.155350
Ni101	Ni10	0.155350	0.394210	0.891100
Ni111	Ni11	0.394210	0.155350	0.559340
Ni121	Ni12	0.559340	0.891100	0.394210
Ni131	Ni13	0.391100	0.655350	0.059340
Ni141	Ni14	0.655350	0.391100	0.894210
Ni151	Ni15	0.894210	0.059340	0.655350
Ni161	Ni16	0.059340	0.894210	0.391100
Ni171	Ni17	0.391100	0.894210	0.655350
Ni181	Ni18	0.655350	0.059340	0.391100
Ni191	Ni19	0.894210	0.391100	0.059340
Ni201	Ni20	0.059340	0.655350	0.894210
Ni211	Ni21	0.391100	0.059340	0.894210
Ni221	Ni22	0.655350	0.894210	0.059340
Ni231	Ni23	0.894210	0.655350	0.391100
Ni241	Ni24	0.059340	0.391100	0.655350
H11	H1	0.883200	0.960600	0.525200
H21	H2	0.010300	0.090100	0.369500
H31	H3	0.091900	0.088700	0.297700
H41	H4	0.015100	0.230900	0.211300
H51	H5	0.935700	0.224300	0.278700
H61	H6	0.782600	0.161600	0.410800
H71	H7	0.697700	0.163700	0.475700
H81	H8	0.749700	0.157900	0.576500
H91	H9	0.831700	0.153700	0.511300
H101	H10	0.960600	0.883200	0.631000
H111	H11	0.090100	0.010300	0.530100
H121	H12	0.088700	0.091900	0.521700
H131	H13	0.230900	0.015100	0.542700
H141	H14	0.224300	0.935700	0.561300
H151	H15	0.161600	0.782600	0.645000
H161	H16	0.163700	0.697700	0.662900
H171	H17	0.157900	0.749700	0.515900
H181	H18	0.153700	0.831700	0.503300
H191	H19	0.525200	0.631000	0.883200
H201	H20	0.369500	0.530100	0.010300
H211	H21	0.297700	0.521700	0.091900
H221	H22	0.211300	0.542700	0.015100
H231	H23	0.278700	0.561300	0.935700
H241	H24	0.410800	0.645000	0.782600
H251	H25	0.475700	0.662900	0.697700
H261	H26	0.576500	0.515900	0.749700
H271	H27	0.511300	0.503300	0.831700
H281	H28	0.631000	0.525200	0.960600
H291	H29	0.530100	0.369500	0.090100
H301	H30	0.521700	0.297700	0.088700
H311	H31	0.542700	0.211300	0.230900
H321	H32	0.561300	0.278700	0.224300
H331	H33	0.645000	0.410800	0.161600
H341	H34	0.662900	0.475700	0.163700
H351	H35	0.515900	0.576500	0.157900
H361	H36	0.503300	0.511300	0.153700
H371	H37	0.883200	0.525200	0.631000
H381	H38	0.010300	0.369500	0.530100
H391	H39	0.091900	0.297700	0.521700
H401	H40	0.015100	0.211300	0.542700
H411	H41	0.935700	0.278700	0.561300
H421	H42	0.782600	0.410800	0.645000
H431	H43	0.697700	0.475700	0.662900
H441	H44	0.749700	0.576500	0.515900
H451	H45	0.831700	0.511300	0.503300
H461	H46	0.960600	0.631000	0.525200
H471	H47	0.090100	0.530100	0.369500
H481	H48	0.088700	0.521700	0.297700
H491	H49	0.230900	0.542700	0.211300
H501	H50	0.224300	0.561300	0.278700
H511	H51	0.161600	0.645000	0.410800
H521	H52	0.163700	0.662900	0.475700
H531	H53	0.157900	0.515900	0.576500
H541	H54	0.153700	0.503300	0.511300
H551	H55	0.525200	0.883200	0.960600
H561	H56	0.369500	0.010300	0.090100
H571	H57	0.297700	0.091900	0.088700
H581	H58	0.211300	0.015100	0.230900
H591	H59	0.278700	0.935700	0.224300
H601	H60	0.410800	0.782600	0.161600
H611	H61	0.475700	0.697700	0.163700
H621	H62	0.576500	0.749700	0.157900
H631	H63	0.511300	0.831700	0.153700
H641	H64	0.631000	0.960600	0.883200
H651	H65	0.530100	0.090100	0.010300
H661	H66	0.521700	0.088700	0.091900
H671	H67	0.542700	0.230900	0.015100
H681	H68	0.561300	0.224300	0.935700
H691	H69	0.645000	0.161600	0.782600
H701	H70	0.662900	0.163700	0.697700
H711	H71	0.515900	0.157900	0.749700
H721	H72	0.503300	0.153700	0.831700
H731	H73	0.883200	0.631000	0.960600
H741	H74	0.010300	0.530100	0.090100
H751	H75	0.091900	0.521700	0.088700
H761	H76	0.015100	0.542700	0.230900
H771	H77	0.935700	0.561300	0.224300
H781	H78	0.782600	0.645000	0.161600
H791	H79	0.697700	0.662900	0.163700
H801	H80	0.749700	0.515900	0.157900
H811	H81	0.831700	0.503300	0.153700
H821	H82	0.960600	0.525200	0.883200
H831	H83	0.090100	0.369500	0.010300
H841	H84	0.088700	0.297700	0.091900
H851	H85	0.230900	0.211300	0.015100
H861	H86	0.224300	0.278700	0.935700
H871	H87	0.161600	0.410800	0.782600
H881	H88	0.163700	0.475700	0.697700
H891	H89	0.157900	0.576500	0.749700
H901	H90	0.153700	0.511300	0.831700
H911	H91	0.525200	0.960600	0.631000
H921	H92	0.369500	0.090100	0.530100
H931	H93	0.297700	0.088700	0.521700
H941	H94	0.211300	0.230900	0.542700
H951	H95	0.278700	0.224300	0.561300
H961	H96	0.410800	0.161600	0.645000
H971	H97	0.475700	0.163700	0.662900
H981	H98	0.576500	0.157900	0.515900
H991	H99	0.511300	0.153700	0.503300
H1001	H100	0.631000	0.883200	0.525200
H1011	H101	0.530100	0.010300	0.369500
H1021	H102	0.521700	0.091900	0.297700
H1031	H103	0.542700	0.015100	0.211300
H1041	H104	0.561300	0.935700	0.278700
H1051	H105	0.645000	0.782600	0.410800
H1061	H106	0.662900	0.697700	0.475700
H1071	H107	0.515900	0.749700	0.576500
H1081	H108	0.503300	0.831700	0.511300
H1091	H109	0.383200	0.460600	0.131000
H1101	H110	0.510300	0.590100	0.030100
H1111	H111	0.591900	0.588700	0.021700
H1121	H112	0.515100	0.730900	0.042700
H1131	H113	0.435700	0.724300	0.061300
H1141	H114	0.282600	0.661600	0.145000
H1151	H115	0.197700	0.663700	0.162900
H1161	H116	0.249700	0.657900	0.015900
H1171	H117	0.331700	0.653700	0.003300
H1181	H118	0.460600	0.383200	0.025200
H1191	H119	0.590100	0.510300	0.869500
H1201	H120	0.588700	0.591900	0.797700
H1211	H121	0.730900	0.515100	0.711300
H1221	H122	0.724300	0.435700	0.778700
H1231	H123	0.661600	0.282600	0.910800
H1241	H124	0.663700	0.197700	0.975700
H1251	H125	0.657900	0.249700	0.076500
H1261	H126	0.653700	0.331700	0.011300
H1271	H127	0.025200	0.131000	0.460600
H1281	H128	0.869500	0.030100	0.590100
H1291	H129	0.797700	0.021700	0.588700
H1301	H130	0.711300	0.042700	0.730900
H1311	H131	0.778700	0.061300	0.724300
H1321	H132	0.910800	0.145000	0.661600
H1331	H133	0.975700	0.162900	0.663700
H1341	H134	0.076500	0.015900	0.657900
H1351	H135	0.011300	0.003300	0.653700
H1361	H136	0.131000	0.025200	0.383200
H1371	H137	0.030100	0.869500	0.510300
H1381	H138	0.021700	0.797700	0.591900
H1391	H139	0.042700	0.711300	0.515100
H1401	H140	0.061300	0.778700	0.435700
H1411	H141	0.145000	0.910800	0.282600
H1421	H142	0.162900	0.975700	0.197700
H1431	H143	0.015900	0.076500	0.249700
H1441	H144	0.003300	0.011300	0.331700
H1451	H145	0.383200	0.025200	0.460600
H1461	H146	0.510300	0.869500	0.590100
H1471	H147	0.591900	0.797700	0.588700
H1481	H148	0.515100	0.711300	0.730900
H1491	H149	0.435700	0.778700	0.724300
H1501	H150	0.282600	0.910800	0.661600
H1511	H151	0.197700	0.975700	0.663700
H1521	H152	0.249700	0.076500	0.657900
H1531	H153	0.331700	0.011300	0.653700
H1541	H154	0.460600	0.131000	0.383200
H1551	H155	0.590100	0.030100	0.510300
H1561	H156	0.588700	0.021700	0.591900
H1571	H157	0.730900	0.042700	0.515100
H1581	H158	0.724300	0.061300	0.435700
H1591	H159	0.661600	0.145000	0.282600
H1601	H160	0.663700	0.162900	0.197700
H1611	H161	0.657900	0.015900	0.249700
H1621	H162	0.653700	0.003300	0.331700
H1631	H163	0.025200	0.383200	0.131000
H1641	H164	0.869500	0.510300	0.030100
H1651	H165	0.797700	0.591900	0.021700
H1661	H166	0.711300	0.515100	0.042700
H1671	H167	0.778700	0.435700	0.061300
H1681	H168	0.910800	0.282600	0.145000
H1691	H169	0.975700	0.197700	0.162900
H1701	H170	0.076500	0.249700	0.015900
H1711	H171	0.011300	0.331700	0.003300
H1721	H172	0.131000	0.460600	0.025200
H1731	H173	0.030100	0.590100	0.869500
H1741	H174	0.021700	0.588700	0.797700
H1751	H175	0.042700	0.730900	0.711300
H1761	H176	0.061300	0.724300	0.778700
H1771	H177	0.145000	0.661600	0.910800
H1781	H178	0.162900	0.663700	0.975700
H1791	H179	0.015900	0.657900	0.076500
H1801	H180	0.003300	0.653700	0.011300
H1811	H181	0.383200	0.131000	0.025200
H1821	H182	0.510300	0.030100	0.869500
H1831	H183	0.591900	0.021700	0.797700
H1841	H184	0.515100	0.042700	0.711300
H1851	H185	0.435700	0.061300	0.778700
H1861	H186	0.282600	0.145000	0.910800
H1871	H187	0.197700	0.162900	0.975700
H1881	H188	0.249700	0.015900	0.076500
H1891	H189	0.331700	0.003300	0.011300
H1901	H190	0.460600	0.025200	0.131000
H1911	H191	0.590100	0.869500	0.030100
H1921	H192	0.588700	0.797700	0.021700
H1931	H193	0.730900	0.711300	0.042700
H1941	H194	0.724300	0.778700	0.061300
H1951	H195	0.661600	0.910800	0.145000
H1961	H196	0.663700	0.975700	0.162900
H1971	H197	0.657900	0.076500	0.015900
H1981	H198	0.653700	0.011300	0.003300
H1991	H199	0.025200	0.460600	0.383200
H2001	H200	0.869500	0.590100	0.510300
H2011	H201	0.797700	0.588700	0.591900
H2021	H202	0.711300	0.730900	0.515100
H2031	H203	0.778700	0.724300	0.435700
H2041	H204	0.910800	0.661600	0.282600
H2051	H205	0.975700	0.663700	0.197700
H2061	H206	0.076500	0.657900	0.249700
H2071	H207	0.011300	0.653700	0.331700
H2081	H208	0.131000	0.383200	0.460600
H2091	H209	0.030100	0.510300	0.590100
H2101	H210	0.021700	0.591900	0.588700
H2111	H211	0.042700	0.515100	0.730900
H2121	H212	0.061300	0.435700	0.724300
H2131	H213	0.145000	0.282600	0.661600
H2141	H214	0.162900	0.197700	0.663700
H2151	H215	0.015900	0.249700	0.657900
H2161	H216	0.003300	0.331700	0.653700
H2171	H217	0.895800	0.895800	0.604200
H2181	H218	0.604200	0.604200	0.895800
H2191	H219	0.895800	0.604200	0.604200
H2201	H220	0.604200	0.895800	0.895800
H2211	H221	0.895800	0.604200	0.895800
H2221	H222	0.604200	0.895800	0.604200
H2231	H223	0.395800	0.395800	0.104200
H2241	H224	0.104200	0.104200	0.395800
H2251	H225	0.395800	0.104200	0.395800
H2261	H226	0.104200	0.395800	0.104200
H2271	H227	0.395800	0.104200	0.104200
H2281	H228	0.104200	0.395800	0.395800
C11	C1	0.928970	0.034210	0.453350
C21	C2	0.941690	0.990190	0.502450
C31	C3	0.909800	0.956340	0.535540
C41	C4	0.010790	0.118350	0.336550
C51	C5	0.060610	0.117810	0.293290
C61	C6	0.063150	0.158370	0.246570
C71	C7	0.015030	0.200590	0.242370
C81	C8	0.967700	0.197400	0.283920
C91	C9	0.113130	0.158990	0.199430
C101	C10	0.775930	0.160070	0.445030
C111	C11	0.724260	0.162580	0.483720
C121	C12	0.712730	0.163310	0.533110
C131	C13	0.755000	0.158860	0.542980
C141	C14	0.804190	0.155850	0.503850
C151	C15	0.658180	0.166280	0.574000
C161	C16	0.034210	0.928970	0.583470
C171	C17	0.990190	0.941690	0.565670
C181	C18	0.956340	0.909800	0.598320
C191	C19	0.118350	0.010790	0.534310
C201	C20	0.117810	0.060610	0.528290
C211	C21	0.158370	0.063150	0.531910
C221	C22	0.200590	0.015030	0.542010
C231	C23	0.197400	0.967700	0.550980
C241	C24	0.158990	0.113130	0.528450
C251	C25	0.160070	0.775930	0.618970
C261	C26	0.162580	0.724260	0.629440
C271	C27	0.163310	0.712730	0.590850
C281	C28	0.158860	0.755000	0.543160
C291	C29	0.155850	0.804190	0.536110
C301	C30	0.166280	0.658180	0.601540
C311	C31	0.453350	0.583470	0.928970
C321	C32	0.502450	0.565670	0.941690
C331	C33	0.535540	0.598320	0.909800
C341	C34	0.336550	0.534310	0.010790
C351	C35	0.293290	0.528290	0.060610
C361	C36	0.246570	0.531910	0.063150
C371	C37	0.242370	0.542010	0.015030
C381	C38	0.283920	0.550980	0.967700
C391	C39	0.199430	0.528450	0.113130
C401	C40	0.445030	0.618970	0.775930
C411	C41	0.483720	0.629440	0.724260
C421	C42	0.533110	0.590850	0.712730
C431	C43	0.542980	0.543160	0.755000
C441	C44	0.503850	0.536110	0.804190
C451	C45	0.574000	0.601540	0.658180
C461	C46	0.583470	0.453350	0.034210
C471	C47	0.565670	0.502450	0.990190
C481	C48	0.598320	0.535540	0.956340
C491	C49	0.534310	0.336550	0.118350
C501	C50	0.528290	0.293290	0.117810
C511	C51	0.531910	0.246570	0.158370
C521	C52	0.542010	0.242370	0.200590
C531	C53	0.550980	0.283920	0.197400
C541	C54	0.528450	0.199430	0.158990
C551	C55	0.618970	0.445030	0.160070
C561	C56	0.629440	0.483720	0.162580
C571	C57	0.590850	0.533110	0.163310
C581	C58	0.543160	0.542980	0.158860
C591	C59	0.536110	0.503850	0.155850
C601	C60	0.601540	0.574000	0.166280
C611	C61	0.928970	0.453350	0.583470
C621	C62	0.941690	0.502450	0.565670
C631	C63	0.909800	0.535540	0.598320
C641	C64	0.010790	0.336550	0.534310
C651	C65	0.060610	0.293290	0.528290
C661	C66	0.063150	0.246570	0.531910
C671	C67	0.015030	0.242370	0.542010
C681	C68	0.967700	0.283920	0.550980
C691	C69	0.113130	0.199430	0.528450
C701	C70	0.775930	0.445030	0.618970
C711	C71	0.724260	0.483720	0.629440
C721	C72	0.712730	0.533110	0.590850
C731	C73	0.755000	0.542980	0.543160
C741	C74	0.804190	0.503850	0.536110
C751	C75	0.658180	0.574000	0.601540
C761	C76	0.034210	0.583470	0.453350
C771	C77	0.990190	0.565670	0.502450
C781	C78	0.956340	0.598320	0.535540
C791	C79	0.118350	0.534310	0.336550
C801	C80	0.117810	0.528290	0.293290
C811	C81	0.158370	0.531910	0.246570
C821	C82	0.200590	0.542010	0.242370
C831	C83	0.197400	0.550980	0.283920
C841	C84	0.158990	0.528450	0.199430
C851	C85	0.160070	0.618970	0.445030
C861	C86	0.162580	0.629440	0.483720
C871	C87	0.163310	0.590850	0.533110
C881	C88	0.158860	0.543160	0.542980
C891	C89	0.155850	0.536110	0.503850
C901	C90	0.166280	0.601540	0.574000
C911	C91	0.453350	0.928970	0.034210
C921	C92	0.502450	0.941690	0.990190
C931	C93	0.535540	0.909800	0.956340
C941	C94	0.336550	0.010790	0.118350
C951	C95	0.293290	0.060610	0.117810
C961	C96	0.246570	0.063150	0.158370
C971	C97	0.242370	0.015030	0.200590
C981	C98	0.283920	0.967700	0.197400
C991	C99	0.199430	0.113130	0.158990
C1001	C100	0.445030	0.775930	0.160070
C1011	C101	0.483720	0.724260	0.162580
C1021	C102	0.533110	0.712730	0.163310
C1031	C103	0.542980	0.755000	0.158860
C1041	C104	0.503850	0.804190	0.155850
C1051	C105	0.574000	0.658180	0.166280
C1061	C106	0.583470	0.034210	0.928970
C1071	C107	0.565670	0.990190	0.941690
C1081	C108	0.598320	0.956340	0.909800
C1091	C109	0.534310	0.118350	0.010790
C1101	C110	0.528290	0.117810	0.060610
C1111	C111	0.531910	0.158370	0.063150
C1121	C112	0.542010	0.200590	0.015030
C1131	C113	0.550980	0.197400	0.967700
C1141	C114	0.528450	0.158990	0.113130
C1151	C115	0.618970	0.160070	0.775930
C1161	C116	0.629440	0.162580	0.724260
C1171	C117	0.590850	0.163310	0.712730
C1181	C118	0.543160	0.158860	0.755000
C1191	C119	0.536110	0.155850	0.804190
C1201	C120	0.601540	0.166280	0.658180
C1211	C121	0.928970	0.583470	0.034210
C1221	C122	0.941690	0.565670	0.990190
C1231	C123	0.909800	0.598320	0.956340
C1241	C124	0.010790	0.534310	0.118350
C1251	C125	0.060610	0.528290	0.117810
C1261	C126	0.063150	0.531910	0.158370
C1271	C127	0.015030	0.542010	0.200590
C1281	C128	0.967700	0.550980	0.197400
C1291	C129	0.113130	0.528450	0.158990
C1301	C130	0.775930	0.618970	0.160070
C1311	C131	0.724260	0.629440	0.162580
C1321	C132	0.712730	0.590850	0.163310
C1331	C133	0.755000	0.543160	0.158860
C1341	C134	0.804190	0.536110	0.155850
C1351	C135	0.658180	0.601540	0.166280
C1361	C136	0.034210	0.453350	0.928970
C1371	C137	0.990190	0.502450	0.941690
C1381	C138	0.956340	0.535540	0.909800
C1391	C139	0.118350	0.336550	0.010790
C1401	C140	0.117810	0.293290	0.060610
C1411	C141	0.158370	0.246570	0.063150
C1421	C142	0.200590	0.242370	0.015030
C1431	C143	0.197400	0.283920	0.967700
C1441	C144	0.158990	0.199430	0.113130
C1451	C145	0.160070	0.445030	0.775930
C1461	C146	0.162580	0.483720	0.724260
C1471	C147	0.163310	0.533110	0.712730
C1481	C148	0.158860	0.542980	0.755000
C1491	C149	0.155850	0.503850	0.804190
C1501	C150	0.166280	0.574000	0.658180
C1511	C151	0.453350	0.034210	0.583470
C1521	C152	0.502450	0.990190	0.565670
C1531	C153	0.535540	0.956340	0.598320
C1541	C154	0.336550	0.118350	0.534310
C1551	C155	0.293290	0.117810	0.528290
C1561	C156	0.246570	0.158370	0.531910
C1571	C157	0.242370	0.200590	0.542010
C1581	C158	0.283920	0.197400	0.550980
C1591	C159	0.199430	0.158990	0.528450
C1601	C160	0.445030	0.160070	0.618970
C1611	C161	0.483720	0.162580	0.629440
C1621	C162	0.533110	0.163310	0.590850
C1631	C163	0.542980	0.158860	0.543160
C1641	C164	0.503850	0.155850	0.536110
C1651	C165	0.574000	0.166280	0.601540
C1661	C166	0.583470	0.928970	0.453350
C1671	C167	0.565670	0.941690	0.502450
C1681	C168	0.598320	0.909800	0.535540
C1691	C169	0.534310	0.010790	0.336550
C1701	C170	0.528290	0.060610	0.293290
C1711	C171	0.531910	0.063150	0.246570
C1721	C172	0.542010	0.015030	0.242370
C1731	C173	0.550980	0.967700	0.283920
C1741	C174	0.528450	0.113130	0.199430
C1751	C175	0.618970	0.775930	0.445030
C1761	C176	0.629440	0.724260	0.483720
C1771	C177	0.590850	0.712730	0.533110
C1781	C178	0.543160	0.755000	0.542980
C1791	C179	0.536110	0.804190	0.503850
C1801	C180	0.601540	0.658180	0.574000
C1811	C181	0.428970	0.534210	0.083470
C1821	C182	0.441690	0.490190	0.065670
C1831	C183	0.409800	0.456340	0.098320
C1841	C184	0.510790	0.618350	0.034310
C1851	C185	0.560610	0.617810	0.028290
C1861	C186	0.563150	0.658370	0.031910
C1871	C187	0.515030	0.700590	0.042010
C1881	C188	0.467700	0.697400	0.050980
C1891	C189	0.613130	0.658990	0.028450
C1901	C190	0.275930	0.660070	0.118970
C1911	C191	0.224260	0.662580	0.129440
C1921	C192	0.212730	0.663310	0.090850
C1931	C193	0.255000	0.658860	0.043160
C1941	C194	0.304190	0.655850	0.036110
C1951	C195	0.158180	0.666280	0.101540
C1961	C196	0.534210	0.428970	0.953350
C1971	C197	0.490190	0.441690	0.002450
C1981	C198	0.456340	0.409800	0.035540
C1991	C199	0.618350	0.510790	0.836550
C2001	C200	0.617810	0.560610	0.793290
C2011	C201	0.658370	0.563150	0.746570
C2021	C202	0.700590	0.515030	0.742370
C2031	C203	0.697400	0.467700	0.783920
C2041	C204	0.658990	0.613130	0.699430
C2051	C205	0.660070	0.275930	0.945030
C2061	C206	0.662580	0.224260	0.983720
C2071	C207	0.663310	0.212730	0.033110
C2081	C208	0.658860	0.255000	0.042980
C2091	C209	0.655850	0.304190	0.003850
C2101	C210	0.666280	0.158180	0.074000
C2111	C211	0.953350	0.083470	0.534210
C2121	C212	0.002450	0.065670	0.490190
C2131	C213	0.035540	0.098320	0.456340
C2141	C214	0.836550	0.034310	0.618350
C2151	C215	0.793290	0.028290	0.617810
C2161	C216	0.746570	0.031910	0.658370
C2171	C217	0.742370	0.042010	0.700590
C2181	C218	0.783920	0.050980	0.697400
C2191	C219	0.699430	0.028450	0.658990
C2201	C220	0.945030	0.118970	0.660070
C2211	C221	0.983720	0.129440	0.662580
C2221	C222	0.033110	0.090850	0.663310
C2231	C223	0.042980	0.043160	0.658860
C2241	C224	0.003850	0.036110	0.655850
C2251	C225	0.074000	0.101540	0.666280
C2261	C226	0.083470	0.953350	0.428970
C2271	C227	0.065670	0.002450	0.441690
C2281	C228	0.098320	0.035540	0.409800
C2291	C229	0.034310	0.836550	0.510790
C2301	C230	0.028290	0.793290	0.560610
C2311	C231	0.031910	0.746570	0.563150
C2321	C232	0.042010	0.742370	0.515030
C2331	C233	0.050980	0.783920	0.467700
C2341	C234	0.028450	0.699430	0.613130
C2351	C235	0.118970	0.945030	0.275930
C2361	C236	0.129440	0.983720	0.224260
C2371	C237	0.090850	0.033110	0.212730
C2381	C238	0.043160	0.042980	0.255000
C2391	C239	0.036110	0.003850	0.304190
C2401	C240	0.101540	0.074000	0.158180
C2411	C241	0.428970	0.953350	0.534210
C2421	C242	0.441690	0.002450	0.490190
C2431	C243	0.409800	0.035540	0.456340
C2441	C244	0.510790	0.836550	0.618350
C2451	C245	0.560610	0.793290	0.617810
C2461	C246	0.563150	0.746570	0.658370
C2471	C247	0.515030	0.742370	0.700590
C2481	C248	0.467700	0.783920	0.697400
C2491	C249	0.613130	0.699430	0.658990
C2501	C250	0.275930	0.945030	0.660070
C2511	C251	0.224260	0.983720	0.662580
C2521	C252	0.212730	0.033110	0.663310
C2531	C253	0.255000	0.042980	0.658860
C2541	C254	0.304190	0.003850	0.655850
C2551	C255	0.158180	0.074000	0.666280
C2561	C256	0.534210	0.083470	0.428970
C2571	C257	0.490190	0.065670	0.441690
C2581	C258	0.456340	0.098320	0.409800
C2591	C259	0.618350	0.034310	0.510790
C2601	C260	0.617810	0.028290	0.560610
C2611	C261	0.658370	0.031910	0.563150
C2621	C262	0.700590	0.042010	0.515030
C2631	C263	0.697400	0.050980	0.467700
C2641	C264	0.658990	0.028450	0.613130
C2651	C265	0.660070	0.118970	0.275930
C2661	C266	0.662580	0.129440	0.224260
C2671	C267	0.663310	0.090850	0.212730
C2681	C268	0.658860	0.043160	0.255000
C2691	C269	0.655850	0.036110	0.304190
C2701	C270	0.666280	0.101540	0.158180
C2711	C271	0.953350	0.428970	0.083470
C2721	C272	0.002450	0.441690	0.065670
C2731	C273	0.035540	0.409800	0.098320
C2741	C274	0.836550	0.510790	0.034310
C2751	C275	0.793290	0.560610	0.028290
C2761	C276	0.746570	0.563150	0.031910
C2771	C277	0.742370	0.515030	0.042010
C2781	C278	0.783920	0.467700	0.050980
C2791	C279	0.699430	0.613130	0.028450
C2801	C280	0.945030	0.275930	0.118970
C2811	C281	0.983720	0.224260	0.129440
C2821	C282	0.033110	0.212730	0.090850
C2831	C283	0.042980	0.255000	0.043160
C2841	C284	0.003850	0.304190	0.036110
C2851	C285	0.074000	0.158180	0.101540
C2861	C286	0.083470	0.534210	0.953350
C2871	C287	0.065670	0.490190	0.002450
C2881	C288	0.098320	0.456340	0.035540
C2891	C289	0.034310	0.618350	0.836550
C2901	C290	0.028290	0.617810	0.793290
C2911	C291	0.031910	0.658370	0.746570
C2921	C292	0.042010	0.700590	0.742370
C2931	C293	0.050980	0.697400	0.783920
C2941	C294	0.028450	0.658990	0.699430
C2951	C295	0.118970	0.660070	0.945030
C2961	C296	0.129440	0.662580	0.983720
C2971	C297	0.090850	0.663310	0.033110
C2981	C298	0.043160	0.658860	0.042980
C2991	C299	0.036110	0.655850	0.003850
C3001	C300	0.101540	0.666280	0.074000
C3011	C301	0.428970	0.083470	0.953350
C3021	C302	0.441690	0.065670	0.002450
C3031	C303	0.409800	0.098320	0.035540
C3041	C304	0.510790	0.034310	0.836550
C3051	C305	0.560610	0.028290	0.793290
C3061	C306	0.563150	0.031910	0.746570
C3071	C307	0.515030	0.042010	0.742370
C3081	C308	0.467700	0.050980	0.783920
C3091	C309	0.613130	0.028450	0.699430
C3101	C310	0.275930	0.118970	0.945030
C3111	C311	0.224260	0.129440	0.983720
C3121	C312	0.212730	0.090850	0.033110
C3131	C313	0.255000	0.043160	0.042980
C3141	C314	0.304190	0.036110	0.003850
C3151	C315	0.158180	0.101540	0.074000
C3161	C316	0.534210	0.953350	0.083470
C3171	C317	0.490190	0.002450	0.065670
C3181	C318	0.456340	0.035540	0.098320
C3191	C319	0.618350	0.836550	0.034310
C3201	C320	0.617810	0.793290	0.028290
C3211	C321	0.658370	0.746570	0.031910
C3221	C322	0.700590	0.742370	0.042010
C3231	C323	0.697400	0.783920	0.050980
C3241	C324	0.658990	0.699430	0.028450
C3251	C325	0.660070	0.945030	0.118970
C3261	C326	0.662580	0.983720	0.129440
C3271	C327	0.663310	0.033110	0.090850
C3281	C328	0.658860	0.042980	0.043160
C3291	C329	0.655850	0.003850	0.036110
C3301	C330	0.666280	0.074000	0.101540
C3311	C331	0.953350	0.534210	0.428970
C3321	C332	0.002450	0.490190	0.441690
C3331	C333	0.035540	0.456340	0.409800
C3341	C334	0.836550	0.618350	0.510790
C3351	C335	0.793290	0.617810	0.560610
C3361	C336	0.746570	0.658370	0.563150
C3371	C337	0.742370	0.700590	0.515030
C3381	C338	0.783920	0.697400	0.467700
C3391	C339	0.699430	0.658990	0.613130
C3401	C340	0.945030	0.660070	0.275930
C3411	C341	0.983720	0.662580	0.224260
C3421	C342	0.033110	0.663310	0.212730
C3431	C343	0.042980	0.658860	0.255000
C3441	C344	0.003850	0.655850	0.304190
C3451	C345	0.074000	0.666280	0.158180
C3461	C346	0.083470	0.428970	0.534210
C3471	C347	0.065670	0.441690	0.490190
C3481	C348	0.098320	0.409800	0.456340
C3491	C349	0.034310	0.510790	0.618350
C3501	C350	0.028290	0.560610	0.617810
C3511	C351	0.031910	0.563150	0.658370
C3521	C352	0.042010	0.515030	0.700590
C3531	C353	0.050980	0.467700	0.697400
C3541	C354	0.028450	0.613130	0.658990
C3551	C355	0.118970	0.275930	0.660070
C3561	C356	0.129440	0.224260	0.662580
C3571	C357	0.090850	0.212730	0.663310
C3581	C358	0.043160	0.255000	0.658860
C3591	C359	0.036110	0.304190	0.655850
C3601	C360	0.101540	0.158180	0.666280
C3611	C361	0.982490	0.982490	0.517510
C3621	C362	0.917520	0.917520	0.582480
C3631	C363	0.517510	0.517510	0.982490
C3641	C364	0.582480	0.582480	0.917520
C3651	C365	0.982490	0.517510	0.517510
C3661	C366	0.917520	0.582480	0.582480
C3671	C367	0.517510	0.982490	0.982490
C3681	C368	0.582480	0.917520	0.917520
C3691	C369	0.982490	0.517510	0.982490
C3701	C370	0.917520	0.582480	0.917520
C3711	C371	0.517510	0.982490	0.517510
C3721	C372	0.582480	0.917520	0.582480
C3731	C373	0.482490	0.482490	0.017510
C3741	C374	0.417520	0.417520	0.082480
C3751	C375	0.017510	0.017510	0.482490
C3761	C376	0.082480	0.082480	0.417520
C3771	C377	0.482490	0.017510	0.482490
C3781	C378	0.417520	0.082480	0.417520
C3791	C379	0.017510	0.482490	0.017510
C3801	C380	0.082480	0.417520	0.082480
C3811	C381	0.482490	0.017510	0.017510
C3821	C382	0.417520	0.082480	0.082480
C3831	C383	0.017510	0.482490	0.482490
C3841	C384	0.082480	0.417520	0.417520
N11	N1	0.964890	0.157950	0.331410
N21	N2	0.112550	0.203150	0.156090
N31	N3	0.815430	0.155730	0.455910
N41	N4	0.622330	0.165330	0.561830
N51	N5	0.157950	0.964890	0.545750
N61	N6	0.203150	0.112550	0.528210
N71	N7	0.155730	0.815430	0.572930
N81	N8	0.165330	0.622330	0.650510
N91	N9	0.331410	0.545750	0.964890
N101	N10	0.156090	0.528210	0.112550
N111	N11	0.455910	0.572930	0.815430
N121	N12	0.561830	0.650510	0.622330
N131	N13	0.545750	0.331410	0.157950
N141	N14	0.528210	0.156090	0.203150
N151	N15	0.572930	0.455910	0.155730
N161	N16	0.650510	0.561830	0.165330
N171	N17	0.964890	0.331410	0.545750
N181	N18	0.112550	0.156090	0.528210
N191	N19	0.815430	0.455910	0.572930
N201	N20	0.622330	0.561830	0.650510
N211	N21	0.157950	0.545750	0.331410
N221	N22	0.203150	0.528210	0.156090
N231	N23	0.155730	0.572930	0.455910
N241	N24	0.165330	0.650510	0.561830
N251	N25	0.331410	0.964890	0.157950
N261	N26	0.156090	0.112550	0.203150
N271	N27	0.455910	0.815430	0.155730
N281	N28	0.561830	0.622330	0.165330
N291	N29	0.545750	0.157950	0.964890
N301	N30	0.528210	0.203150	0.112550
N311	N31	0.572930	0.155730	0.815430
N321	N32	0.650510	0.165330	0.622330
N331	N33	0.964890	0.545750	0.157950
N341	N34	0.112550	0.528210	0.203150
N351	N35	0.815430	0.572930	0.155730
N361	N36	0.622330	0.650510	0.165330
N371	N37	0.157950	0.331410	0.964890
N381	N38	0.203150	0.156090	0.112550
N391	N39	0.155730	0.455910	0.815430
N401	N40	0.165330	0.561830	0.622330
N411	N41	0.331410	0.157950	0.545750
N421	N42	0.156090	0.203150	0.528210
N431	N43	0.455910	0.155730	0.572930
N441	N44	0.561830	0.165330	0.650510
N451	N45	0.545750	0.964890	0.331410
N461	N46	0.528210	0.112550	0.156090
N471	N47	0.572930	0.815430	0.455910
N481	N48	0.650510	0.622330	0.561830
N491	N49	0.464890	0.657950	0.045750
N501	N50	0.612550	0.703150	0.028210
N511	N51	0.315430	0.655730	0.072930
N521	N52	0.122330	0.665330	0.150510
N531	N53	0.657950	0.464890	0.831410
N541	N54	0.703150	0.612550	0.656090
N551	N55	0.655730	0.315430	0.955910
N561	N56	0.665330	0.122330	0.061830
N571	N57	0.831410	0.045750	0.657950
N581	N58	0.656090	0.028210	0.703150
N591	N59	0.955910	0.072930	0.655730
N601	N60	0.061830	0.150510	0.665330
N611	N61	0.045750	0.831410	0.464890
N621	N62	0.028210	0.656090	0.612550
N631	N63	0.072930	0.955910	0.315430
N641	N64	0.150510	0.061830	0.122330
N651	N65	0.464890	0.831410	0.657950
N661	N66	0.612550	0.656090	0.703150
N671	N67	0.315430	0.955910	0.655730
N681	N68	0.122330	0.061830	0.665330
N691	N69	0.657950	0.045750	0.464890
N701	N70	0.703150	0.028210	0.612550
N711	N71	0.655730	0.072930	0.315430
N721	N72	0.665330	0.150510	0.122330
N731	N73	0.831410	0.464890	0.045750
N741	N74	0.656090	0.612550	0.028210
N751	N75	0.955910	0.315430	0.072930
N761	N76	0.061830	0.122330	0.150510
N771	N77	0.045750	0.657950	0.831410
N781	N78	0.028210	0.703150	0.656090
N791	N79	0.072930	0.655730	0.955910
N801	N80	0.150510	0.665330	0.061830
N811	N81	0.464890	0.045750	0.831410
N821	N82	0.612550	0.028210	0.656090
N831	N83	0.315430	0.072930	0.955910
N841	N84	0.122330	0.150510	0.061830
N851	N85	0.657950	0.831410	0.045750
N861	N86	0.703150	0.656090	0.028210
N871	N87	0.655730	0.955910	0.072930
N881	N88	0.665330	0.061830	0.150510
N891	N89	0.831410	0.657950	0.464890
N901	N90	0.656090	0.703150	0.612550
N911	N91	0.955910	0.655730	0.315430
N921	N92	0.061830	0.665330	0.122330
N931	N93	0.045750	0.464890	0.657950
N941	N94	0.028210	0.612550	0.703150
N951	N95	0.072930	0.315430	0.655730
N961	N96	0.150510	0.122330	0.665330
O11	O1	0.924860	0.081080	0.444900
O21	O2	0.921990	0.023230	0.422790
O31	O3	0.081080	0.924860	0.549160
O41	O4	0.023230	0.921990	0.631990
O51	O5	0.444900	0.549160	0.924860
O61	O6	0.422790	0.631990	0.921990
O71	O7	0.549160	0.444900	0.081080
O81	O8	0.631990	0.422790	0.023230
O91	O9	0.924860	0.444900	0.549160
O101	O10	0.921990	0.422790	0.631990
O111	O11	0.081080	0.549160	0.444900
O121	O12	0.023230	0.631990	0.422790
O131	O13	0.444900	0.924860	0.081080
O141	O14	0.422790	0.921990	0.023230
O151	O15	0.549160	0.081080	0.924860
O161	O16	0.631990	0.023230	0.921990
O171	O17	0.924860	0.549160	0.081080
O181	O18	0.921990	0.631990	0.023230
O191	O19	0.081080	0.444900	0.924860
O201	O20	0.023230	0.422790	0.921990
O211	O21	0.444900	0.081080	0.549160
O221	O22	0.422790	0.023230	0.631990
O231	O23	0.549160	0.924860	0.444900
O241	O24	0.631990	0.921990	0.422790
O251	O25	0.424860	0.581080	0.049160
O261	O26	0.421990	0.523230	0.131990
O271	O27	0.581080	0.424860	0.944900
O281	O28	0.523230	0.421990	0.922790
O291	O29	0.944900	0.049160	0.581080
O301	O30	0.922790	0.131990	0.523230
O311	O31	0.049160	0.944900	0.424860
O321	O32	0.131990	0.922790	0.421990
O331	O33	0.424860	0.944900	0.581080
O341	O34	0.421990	0.922790	0.523230
O351	O35	0.581080	0.049160	0.424860
O361	O36	0.523230	0.131990	0.421990
O371	O37	0.944900	0.424860	0.049160
O381	O38	0.922790	0.421990	0.131990
O391	O39	0.049160	0.581080	0.944900
O401	O40	0.131990	0.523230	0.922790
O411	O41	0.424860	0.049160	0.944900
O421	O42	0.421990	0.131990	0.922790
O431	O43	0.581080	0.944900	0.049160
O441	O44	0.523230	0.922790	0.131990
O451	O45	0.944900	0.581080	0.424860
O461	O46	0.922790	0.523230	0.421990
O471	O47	0.049160	0.424860	0.581080
O481	O48	0.131990	0.421990	0.523230
