data_EXUHUC_clean_PM
_symmetry_space_group_name_H-M	'P1'
_cell_length_a	25.461400
_cell_length_b	25.461400
_cell_length_c	14.262800
_cell_angle_alpha	90.000000
_cell_angle_beta	90.000000
_cell_angle_gamma	120.000000
_symmetry_Int_Tables_number 1

loop_
_symmetry_equiv_pos_as_xyz
'x,y,z'

loop_
_atom_site_label
_atom_site_type_symbol
_atom_site_fract_x
_atom_site_fract_y
_atom_site_fract_z
Mn11	Mn1	0.080620	0.402070	0.188010
O11	O1	0.068080	0.417270	0.333830
N11	N1	0.090960	0.493460	0.190800
O21	O2	0.059100	0.476360	0.436800
C11	C1	0.094700	0.537130	0.133200
C21	C2	0.114400	0.542130	0.034500
C31	C3	0.065500	0.464000	0.354200
C41	C4	0.072940	0.505150	0.275500
C51	C5	0.150800	0.547700	0.849300
H11	H1	0.163400	0.550300	0.787400
C61	C6	0.086800	0.557500	0.963400
H21	H2	0.056400	0.566200	0.978100
C71	C7	0.104700	0.559900	0.871500
C81	C8	0.177300	0.532000	0.917800
H31	H3	0.207700	0.523300	0.902700
C91	C9	0.159100	0.528900	0.011500
H41	H4	0.177300	0.517900	0.058200
C101	C10	0.066060	0.555690	0.265100
O31	O3	0.032200	0.574860	0.410800
C111	C11	0.047700	0.589810	0.327900
O41	O4	0.081000	0.575200	0.800000
H51	H5	0.079400	0.555700	0.753300
O51	O5	0.047290	0.635240	0.291600
N21	N2	0.080100	0.575570	0.173900
Mn21	Mn2	0.747290	0.735400	0.521340
O61	O6	0.734750	0.750600	0.667160
N31	N3	0.757630	0.826790	0.524130
O71	O7	0.725770	0.809690	0.770130
C121	C12	0.761370	0.870460	0.466530
C131	C13	0.781070	0.875460	0.367830
C141	C14	0.732170	0.797330	0.687530
C151	C15	0.739610	0.838480	0.608830
C161	C16	0.817470	0.881030	0.182630
H61	H6	0.830070	0.883630	0.120730
C171	C17	0.753470	0.890830	0.296730
H71	H7	0.723070	0.899530	0.311430
C181	C18	0.771370	0.893230	0.204830
C191	C19	0.843970	0.865330	0.251130
H81	H8	0.874370	0.856630	0.236030
C201	C20	0.825770	0.862230	0.344830
H91	H9	0.843970	0.851230	0.391530
C211	C21	0.732730	0.889020	0.598430
O81	O8	0.698870	0.908190	0.744130
C221	C22	0.714370	0.923140	0.661230
O91	O9	0.747670	0.908530	0.133330
H101	H10	0.746070	0.889030	0.086630
O101	O10	0.713960	0.968570	0.624930
N41	N4	0.746770	0.908900	0.507230
Mn31	Mn3	0.413950	0.068740	0.854680
O111	O11	0.401410	0.083940	0.000500
N51	N5	0.424290	0.160130	0.857470
O121	O12	0.392430	0.143030	0.103470
C231	C23	0.428030	0.203800	0.799870
C241	C24	0.447730	0.208800	0.701170
C251	C25	0.398830	0.130670	0.020870
C261	C26	0.406270	0.171820	0.942170
C271	C27	0.484130	0.214370	0.515970
H111	H11	0.496730	0.216970	0.454070
C281	C28	0.420130	0.224170	0.630070
H121	H12	0.389730	0.232870	0.644770
C291	C29	0.438030	0.226570	0.538170
C301	C30	0.510630	0.198670	0.584470
H131	H13	0.541030	0.189970	0.569370
C311	C31	0.492430	0.195570	0.678170
H141	H14	0.510630	0.184570	0.724870
C321	C32	0.399390	0.222360	0.931770
O131	O13	0.365530	0.241530	0.077470
C331	C33	0.381030	0.256480	0.994570
O141	O14	0.414330	0.241870	0.466670
H151	H15	0.412730	0.222370	0.419970
O151	O15	0.380620	0.301910	0.958270
N61	N6	0.413430	0.242240	0.840570
Mn41	Mn4	0.597930	0.678550	0.188010
O161	O16	0.582730	0.650810	0.333830
N71	N7	0.506540	0.597500	0.190800
O171	O17	0.523640	0.582740	0.436800
C341	C34	0.462870	0.557570	0.133200
C351	C35	0.457870	0.572270	0.034500
C361	C36	0.536000	0.601500	0.354200
C371	C37	0.494850	0.567790	0.275500
C381	C38	0.452300	0.603100	0.849300
H161	H16	0.449700	0.613100	0.787400
C391	C39	0.442500	0.529300	0.963400
H171	H17	0.433800	0.490200	0.978100
C401	C40	0.440100	0.544800	0.871500
C411	C41	0.468000	0.645300	0.917800
H181	H18	0.476700	0.684400	0.902700
C421	C42	0.471100	0.630200	0.011500
H191	H19	0.482100	0.659400	0.058200
C431	C43	0.444310	0.510370	0.265100
O181	O18	0.425140	0.457340	0.410800
C441	C44	0.410190	0.457890	0.327900
O191	O19	0.424800	0.505800	0.800000
H201	H20	0.444300	0.523700	0.753300
O201	O20	0.364760	0.412050	0.291600
N81	N8	0.424430	0.504530	0.173900
Mn51	Mn5	0.264600	0.011880	0.521340
O211	O21	0.249400	0.984140	0.667160
N91	N9	0.173210	0.930830	0.524130
O221	O22	0.190310	0.916070	0.770130
C451	C45	0.129540	0.890900	0.466530
C461	C46	0.124540	0.905600	0.367830
C471	C47	0.202670	0.934830	0.687530
C481	C48	0.161520	0.901120	0.608830
C491	C49	0.118970	0.936430	0.182630
H211	H21	0.116370	0.946430	0.120730
C501	C50	0.109170	0.862630	0.296730
H221	H22	0.100470	0.823530	0.311430
C511	C51	0.106770	0.878130	0.204830
C521	C52	0.134670	0.978630	0.251130
H231	H23	0.143370	0.017730	0.236030
C531	C53	0.137770	0.963530	0.344830
H241	H24	0.148770	0.992730	0.391530
C541	C54	0.110980	0.843700	0.598430
O231	O23	0.091810	0.790670	0.744130
C551	C55	0.076860	0.791220	0.661230
O241	O24	0.091470	0.839130	0.133330
H251	H25	0.110970	0.857030	0.086630
O251	O25	0.031430	0.745380	0.624930
N101	N10	0.091100	0.837860	0.507230
Mn61	Mn6	0.931260	0.345220	0.854680
O261	O26	0.916060	0.317480	0.000500
N111	N11	0.839870	0.264170	0.857470
O271	O27	0.856970	0.249410	0.103470
C561	C56	0.796200	0.224240	0.799870
C571	C57	0.791200	0.238940	0.701170
C581	C58	0.869330	0.268170	0.020870
C591	C59	0.828180	0.234460	0.942170
C601	C60	0.785630	0.269770	0.515970
H261	H26	0.783030	0.279770	0.454070
C611	C61	0.775830	0.195970	0.630070
H271	H27	0.767130	0.156870	0.644770
C621	C62	0.773430	0.211470	0.538170
C631	C63	0.801330	0.311970	0.584470
H281	H28	0.810030	0.351070	0.569370
C641	C64	0.804430	0.296870	0.678170
H291	H29	0.815430	0.326070	0.724870
C651	C65	0.777640	0.177040	0.931770
O281	O28	0.758470	0.124010	0.077470
C661	C66	0.743520	0.124560	0.994570
O291	O29	0.758130	0.172470	0.466670
H301	H30	0.777630	0.190370	0.419970
O301	O30	0.698090	0.078720	0.958270
N121	N12	0.757760	0.171200	0.840570
Mn71	Mn7	0.321450	0.919380	0.188010
O311	O31	0.349190	0.931920	0.333830
N131	N13	0.402500	0.909040	0.190800
O321	O32	0.417260	0.940900	0.436800
C671	C67	0.442430	0.905300	0.133200
C681	C68	0.427730	0.885600	0.034500
C691	C69	0.398500	0.934500	0.354200
C701	C70	0.432210	0.927060	0.275500
C711	C71	0.396900	0.849200	0.849300
H311	H31	0.386900	0.836600	0.787400
C721	C72	0.470700	0.913200	0.963400
H321	H32	0.509800	0.943600	0.978100
C731	C73	0.455200	0.895300	0.871500
C741	C74	0.354700	0.822700	0.917800
H331	H33	0.315600	0.792300	0.902700
C751	C75	0.369800	0.840900	0.011500
H341	H34	0.340600	0.822700	0.058200
C761	C76	0.489630	0.933940	0.265100
O331	O33	0.542660	0.967800	0.410800
C771	C77	0.542110	0.952300	0.327900
O341	O34	0.494200	0.919000	0.800000
H351	H35	0.476300	0.920600	0.753300
O351	O35	0.587950	0.952710	0.291600
N141	N14	0.495470	0.919900	0.173900
Mn81	Mn8	0.988120	0.252710	0.521340
O361	O36	0.015860	0.265250	0.667160
N151	N15	0.069170	0.242370	0.524130
O371	O37	0.083930	0.274230	0.770130
C781	C78	0.109100	0.238630	0.466530
C791	C79	0.094400	0.218930	0.367830
C801	C80	0.065170	0.267830	0.687530
C811	C81	0.098880	0.260390	0.608830
C821	C82	0.063570	0.182530	0.182630
H361	H36	0.053570	0.169930	0.120730
C831	C83	0.137370	0.246530	0.296730
H371	H37	0.176470	0.276930	0.311430
C841	C84	0.121870	0.228630	0.204830
C851	C85	0.021370	0.156030	0.251130
H381	H38	0.982270	0.125630	0.236030
C861	C86	0.036470	0.174230	0.344830
H391	H39	0.007270	0.156030	0.391530
C871	C87	0.156300	0.267270	0.598430
O381	O38	0.209330	0.301130	0.744130
C881	C88	0.208780	0.285630	0.661230
O391	O39	0.160870	0.252330	0.133330
H401	H40	0.142970	0.253930	0.086630
O401	O40	0.254620	0.286040	0.624930
N161	N16	0.162140	0.253230	0.507230
Mn91	Mn9	0.654780	0.586050	0.854680
O411	O41	0.682520	0.598590	0.000500
N171	N17	0.735830	0.575710	0.857470
O421	O42	0.750590	0.607570	0.103470
C891	C89	0.775760	0.571970	0.799870
C901	C90	0.761060	0.552270	0.701170
C911	C91	0.731830	0.601170	0.020870
C921	C92	0.765540	0.593730	0.942170
C931	C93	0.730230	0.515870	0.515970
H411	H41	0.720230	0.503270	0.454070
C941	C94	0.804030	0.579870	0.630070
H421	H42	0.843130	0.610270	0.644770
C951	C95	0.788530	0.561970	0.538170
C961	C96	0.688030	0.489370	0.584470
H431	H43	0.648930	0.458970	0.569370
C971	C97	0.703130	0.507570	0.678170
H441	H44	0.673930	0.489370	0.724870
C981	C98	0.822960	0.600610	0.931770
O431	O43	0.875990	0.634470	0.077470
C991	C99	0.875440	0.618970	0.994570
O441	O44	0.827530	0.585670	0.466670
H451	H45	0.809630	0.587270	0.419970
O451	O45	0.921280	0.619380	0.958270
N181	N18	0.828800	0.586570	0.840570
Mn101	Mn10	0.919380	0.597930	0.811990
O461	O46	0.931920	0.582730	0.666170
N191	N19	0.909040	0.506540	0.809200
O471	O47	0.940900	0.523640	0.563200
C1001	C100	0.905300	0.462870	0.866800
C1011	C101	0.885600	0.457870	0.965500
C1021	C102	0.934500	0.536000	0.645800
C1031	C103	0.927060	0.494850	0.724500
C1041	C104	0.849200	0.452300	0.150700
H461	H46	0.836600	0.449700	0.212600
C1051	C105	0.913200	0.442500	0.036600
H471	H47	0.943600	0.433800	0.021900
C1061	C106	0.895300	0.440100	0.128500
C1071	C107	0.822700	0.468000	0.082200
H481	H48	0.792300	0.476700	0.097300
C1081	C108	0.840900	0.471100	0.988500
H491	H49	0.822700	0.482100	0.941800
C1091	C109	0.933940	0.444310	0.734900
O481	O48	0.967800	0.425140	0.589200
C1101	C110	0.952300	0.410190	0.672100
O491	O49	0.919000	0.424800	0.200000
H501	H50	0.920600	0.444300	0.246700
O501	O50	0.952710	0.364760	0.708400
N201	N20	0.919900	0.424430	0.826100
Mn111	Mn11	0.586050	0.931260	0.145320
O511	O51	0.598590	0.916060	0.999500
N211	N21	0.575710	0.839870	0.142530
O521	O52	0.607570	0.856970	0.896530
C1111	C111	0.571970	0.796200	0.200130
C1121	C112	0.552270	0.791200	0.298830
C1131	C113	0.601170	0.869330	0.979130
C1141	C114	0.593730	0.828180	0.057830
C1151	C115	0.515870	0.785630	0.484030
H511	H51	0.503270	0.783030	0.545930
C1161	C116	0.579870	0.775830	0.369930
H521	H52	0.610270	0.767130	0.355230
C1171	C117	0.561970	0.773430	0.461830
C1181	C118	0.489370	0.801330	0.415530
H531	H53	0.458970	0.810030	0.430630
C1191	C119	0.507570	0.804430	0.321830
H541	H54	0.489370	0.815430	0.275130
C1201	C120	0.600610	0.777640	0.068230
O531	O53	0.634470	0.758470	0.922530
C1211	C121	0.618970	0.743520	0.005430
O541	O54	0.585670	0.758130	0.533330
H551	H55	0.587270	0.777630	0.580030
O551	O55	0.619380	0.698090	0.041730
N221	N22	0.586570	0.757760	0.159430
Mn121	Mn12	0.252710	0.264600	0.478660
O561	O56	0.265250	0.249400	0.332840
N231	N23	0.242370	0.173210	0.475870
O571	O57	0.274230	0.190310	0.229870
C1221	C122	0.238630	0.129540	0.533470
C1231	C123	0.218930	0.124540	0.632170
C1241	C124	0.267830	0.202670	0.312470
C1251	C125	0.260390	0.161520	0.391170
C1261	C126	0.182530	0.118970	0.817370
H561	H56	0.169930	0.116370	0.879270
C1271	C127	0.246530	0.109170	0.703270
H571	H57	0.276930	0.100470	0.688570
C1281	C128	0.228630	0.106770	0.795170
C1291	C129	0.156030	0.134670	0.748870
H581	H58	0.125630	0.143370	0.763970
C1301	C130	0.174230	0.137770	0.655170
H591	H59	0.156030	0.148770	0.608470
C1311	C131	0.267270	0.110980	0.401570
O581	O58	0.301130	0.091810	0.255870
C1321	C132	0.285630	0.076860	0.338770
O591	O59	0.252330	0.091470	0.866670
H601	H60	0.253930	0.110970	0.913370
O601	O60	0.286040	0.031430	0.375070
N241	N24	0.253230	0.091100	0.492770
Mn131	Mn13	0.402070	0.321450	0.811990
O611	O61	0.417270	0.349190	0.666170
N251	N25	0.493460	0.402500	0.809200
O621	O62	0.476360	0.417260	0.563200
C1331	C133	0.537130	0.442430	0.866800
C1341	C134	0.542130	0.427730	0.965500
C1351	C135	0.464000	0.398500	0.645800
C1361	C136	0.505150	0.432210	0.724500
C1371	C137	0.547700	0.396900	0.150700
H611	H61	0.550300	0.386900	0.212600
C1381	C138	0.557500	0.470700	0.036600
H621	H62	0.566200	0.509800	0.021900
C1391	C139	0.559900	0.455200	0.128500
C1401	C140	0.532000	0.354700	0.082200
H631	H63	0.523300	0.315600	0.097300
C1411	C141	0.528900	0.369800	0.988500
H641	H64	0.517900	0.340600	0.941800
C1421	C142	0.555690	0.489630	0.734900
O631	O63	0.574860	0.542660	0.589200
C1431	C143	0.589810	0.542110	0.672100
O641	O64	0.575200	0.494200	0.200000
H651	H65	0.555700	0.476300	0.246700
O651	O65	0.635240	0.587950	0.708400
N261	N26	0.575570	0.495470	0.826100
Mn141	Mn14	0.068740	0.654780	0.145320
O661	O66	0.083940	0.682520	0.999500
N271	N27	0.160130	0.735830	0.142530
O671	O67	0.143030	0.750590	0.896530
C1441	C144	0.203800	0.775760	0.200130
C1451	C145	0.208800	0.761060	0.298830
C1461	C146	0.130670	0.731830	0.979130
C1471	C147	0.171820	0.765540	0.057830
C1481	C148	0.214370	0.730230	0.484030
H661	H66	0.216970	0.720230	0.545930
C1491	C149	0.224170	0.804030	0.369930
H671	H67	0.232870	0.843130	0.355230
C1501	C150	0.226570	0.788530	0.461830
C1511	C151	0.198670	0.688030	0.415530
H681	H68	0.189970	0.648930	0.430630
C1521	C152	0.195570	0.703130	0.321830
H691	H69	0.184570	0.673930	0.275130
C1531	C153	0.222360	0.822960	0.068230
O681	O68	0.241530	0.875990	0.922530
C1541	C154	0.256480	0.875440	0.005430
O691	O69	0.241870	0.827530	0.533330
H701	H70	0.222370	0.809630	0.580030
O701	O70	0.301910	0.921280	0.041730
N281	N28	0.242240	0.828800	0.159430
Mn151	Mn15	0.735400	0.988120	0.478660
O711	O71	0.750600	0.015860	0.332840
N291	N29	0.826790	0.069170	0.475870
O721	O72	0.809690	0.083930	0.229870
C1551	C155	0.870460	0.109100	0.533470
C1561	C156	0.875460	0.094400	0.632170
C1571	C157	0.797330	0.065170	0.312470
C1581	C158	0.838480	0.098880	0.391170
C1591	C159	0.881030	0.063570	0.817370
H711	H71	0.883630	0.053570	0.879270
C1601	C160	0.890830	0.137370	0.703270
H721	H72	0.899530	0.176470	0.688570
C1611	C161	0.893230	0.121870	0.795170
C1621	C162	0.865330	0.021370	0.748870
H731	H73	0.856630	0.982270	0.763970
C1631	C163	0.862230	0.036470	0.655170
H741	H74	0.851230	0.007270	0.608470
C1641	C164	0.889020	0.156300	0.401570
O731	O73	0.908190	0.209330	0.255870
C1651	C165	0.923140	0.208780	0.338770
O741	O74	0.908530	0.160870	0.866670
H751	H75	0.889030	0.142970	0.913370
O751	O75	0.968570	0.254620	0.375070
N301	N30	0.908900	0.162140	0.492770
Mn161	Mn16	0.678550	0.080620	0.811990
O761	O76	0.650810	0.068080	0.666170
N311	N31	0.597500	0.090960	0.809200
O771	O77	0.582740	0.059100	0.563200
C1661	C166	0.557570	0.094700	0.866800
C1671	C167	0.572270	0.114400	0.965500
C1681	C168	0.601500	0.065500	0.645800
C1691	C169	0.567790	0.072940	0.724500
C1701	C170	0.603100	0.150800	0.150700
H761	H76	0.613100	0.163400	0.212600
C1711	C171	0.529300	0.086800	0.036600
H771	H77	0.490200	0.056400	0.021900
C1721	C172	0.544800	0.104700	0.128500
C1731	C173	0.645300	0.177300	0.082200
H781	H78	0.684400	0.207700	0.097300
C1741	C174	0.630200	0.159100	0.988500
H791	H79	0.659400	0.177300	0.941800
C1751	C175	0.510370	0.066060	0.734900
O781	O78	0.457340	0.032200	0.589200
C1761	C176	0.457890	0.047700	0.672100
O791	O79	0.505800	0.081000	0.200000
H801	H80	0.523700	0.079400	0.246700
O801	O80	0.412050	0.047290	0.708400
N321	N32	0.504530	0.080100	0.826100
Mn171	Mn17	0.345220	0.413950	0.145320
O811	O81	0.317480	0.401410	0.999500
N331	N33	0.264170	0.424290	0.142530
O821	O82	0.249410	0.392430	0.896530
C1771	C177	0.224240	0.428030	0.200130
C1781	C178	0.238940	0.447730	0.298830
C1791	C179	0.268170	0.398830	0.979130
C1801	C180	0.234460	0.406270	0.057830
C1811	C181	0.269770	0.484130	0.484030
H811	H81	0.279770	0.496730	0.545930
C1821	C182	0.195970	0.420130	0.369930
H821	H82	0.156870	0.389730	0.355230
C1831	C183	0.211470	0.438030	0.461830
C1841	C184	0.311970	0.510630	0.415530
H831	H83	0.351070	0.541030	0.430630
C1851	C185	0.296870	0.492430	0.321830
H841	H84	0.326070	0.510630	0.275130
C1861	C186	0.177040	0.399390	0.068230
O831	O83	0.124010	0.365530	0.922530
C1871	C187	0.124560	0.381030	0.005430
O841	O84	0.172470	0.414330	0.533330
H851	H85	0.190370	0.412730	0.580030
O851	O85	0.078720	0.380620	0.041730
N341	N34	0.171200	0.413430	0.159430
Mn181	Mn18	0.011880	0.747290	0.478660
O861	O86	0.984140	0.734750	0.332840
N351	N35	0.930830	0.757630	0.475870
O871	O87	0.916070	0.725770	0.229870
C1881	C188	0.890900	0.761370	0.533470
C1891	C189	0.905600	0.781070	0.632170
C1901	C190	0.934830	0.732170	0.312470
C1911	C191	0.901120	0.739610	0.391170
C1921	C192	0.936430	0.817470	0.817370
H861	H86	0.946430	0.830070	0.879270
C1931	C193	0.862630	0.753470	0.703270
H871	H87	0.823530	0.723070	0.688570
C1941	C194	0.878130	0.771370	0.795170
C1951	C195	0.978630	0.843970	0.748870
H881	H88	0.017730	0.874370	0.763970
C1961	C196	0.963530	0.825770	0.655170
H891	H89	0.992730	0.843970	0.608470
C1971	C197	0.843700	0.732730	0.401570
O881	O88	0.790670	0.698870	0.255870
C1981	C198	0.791220	0.714370	0.338770
O891	O89	0.839130	0.747670	0.866670
H901	H90	0.857030	0.746070	0.913370
O901	O90	0.745380	0.713960	0.375070
N361	N36	0.837860	0.746770	0.492770
Mn191	Mn19	0.000000	0.500000	0.500000
Mn201	Mn20	0.666670	0.833330	0.833330
Mn211	Mn21	0.333330	0.166670	0.166670
Mn221	Mn22	0.500000	0.500000	0.500000
Mn231	Mn23	0.166670	0.833330	0.833330
Mn241	Mn24	0.833330	0.166670	0.166670
Mn251	Mn25	0.500000	0.000000	0.500000
Mn261	Mn26	0.166670	0.333330	0.833330
Mn271	Mn27	0.833330	0.666670	0.166670
