data_EXUHEM_clean_PM
_symmetry_space_group_name_H-M	'P1'
_cell_length_a	13.312000
_cell_length_b	7.316000
_cell_length_c	14.870000
_cell_angle_alpha	90.000000
_cell_angle_beta	91.315000
_cell_angle_gamma	90.000000
_symmetry_Int_Tables_number 1

loop_
_symmetry_equiv_pos_as_xyz
'x,y,z'

loop_
_atom_site_label
_atom_site_type_symbol
_atom_site_fract_x
_atom_site_fract_y
_atom_site_fract_z
Cd11	Cd1	0.979590	0.183860	0.185410
N11	N1	0.100500	0.795600	0.387200
O11	O1	0.529000	0.600600	0.582100
C11	C1	0.217600	0.322500	0.397200
H11	H1	0.208800	0.208200	0.370800
C21	C2	0.370100	0.146600	0.575600
C31	C3	0.166200	0.637000	0.408300
O21	O2	0.931800	0.410700	0.288000
N21	N2	0.024100	0.996700	0.299700
O31	O3	0.650700	0.758000	0.643000
N31	N3	0.430400	0.002500	0.569600
C41	C4	0.307800	0.529800	0.503100
H21	H2	0.359900	0.550000	0.544700
N41	N4	0.352100	0.213300	0.491900
C51	C5	0.721800	0.303600	0.406400
H31	H3	0.686100	0.214400	0.369500
H41	H4	0.774800	0.240300	0.439600
C61	C6	0.837200	0.365000	0.284700
C71	C7	0.696400	0.550300	0.525300
H51	H5	0.755200	0.510300	0.560900
C81	C8	0.241700	0.659000	0.476400
H61	H6	0.245800	0.772500	0.504800
C91	C9	0.044800	0.884000	0.434700
H71	H7	0.035000	0.859600	0.495300
C101	C10	0.157400	0.471000	0.374200
H81	H8	0.106600	0.451700	0.331200
C111	C11	0.327800	0.214500	0.650300
H91	H9	0.256700	0.192400	0.647700
H101	H10	0.356600	0.155500	0.702500
H111	H11	0.340000	0.343600	0.653900
C121	C12	0.288600	0.355000	0.459400
C131	C13	0.459900	0.977000	0.484300
H121	H12	0.506600	0.890800	0.466100
C141	C14	0.409300	0.100600	0.427400
H131	H13	0.411000	0.109800	0.365100
C151	C15	0.768600	0.450300	0.345200
H141	H14	0.713500	0.499700	0.307800
C161	C16	0.812600	0.608800	0.396500
H151	H15	0.836500	0.701000	0.355300
H161	H16	0.868900	0.568400	0.434100
C171	C17	0.000200	0.018000	0.389700
H171	H17	0.960400	0.109700	0.413600
C181	C18	0.087700	0.862000	0.301800
C191	C19	0.614400	0.639000	0.589200
C201	C20	0.132000	0.774000	0.215500
H181	H18	0.154800	0.868200	0.176000
H191	H19	0.081600	0.701700	0.185300
H201	H20	0.188100	0.696700	0.232400
C211	C21	0.651200	0.387000	0.470800
H211	H21	0.630000	0.293500	0.512600
H221	H22	0.591900	0.428700	0.437700
O41	O4	0.812900	0.249000	0.227300
C221	C22	0.726600	0.690600	0.456900
H231	H23	0.750600	0.800000	0.487300
H241	H24	0.668900	0.723400	0.419300
Cd21	Cd2	0.479590	0.816140	0.685410
N51	N5	0.600500	0.204400	0.887200
O51	O5	0.029000	0.399400	0.082100
C231	C23	0.717600	0.677500	0.897200
H251	H25	0.708800	0.791800	0.870800
C241	C24	0.870100	0.853400	0.075600
C251	C25	0.666200	0.363000	0.908300
O61	O6	0.431800	0.589300	0.788000
N61	N6	0.524100	0.003300	0.799700
O71	O7	0.150700	0.242000	0.143000
N71	N7	0.930400	0.997500	0.069600
C261	C26	0.807800	0.470200	0.003100
H261	H26	0.859900	0.450000	0.044700
N81	N8	0.852100	0.786700	0.991900
C271	C27	0.221800	0.696400	0.906400
H271	H27	0.186100	0.785600	0.869500
H281	H28	0.274800	0.759700	0.939600
C281	C28	0.337200	0.635000	0.784700
C291	C29	0.196400	0.449700	0.025300
H291	H29	0.255200	0.489700	0.060900
C301	C30	0.741700	0.341000	0.976400
H301	H30	0.745800	0.227500	0.004800
C311	C31	0.544800	0.116000	0.934700
H311	H31	0.535000	0.140400	0.995300
C321	C32	0.657400	0.529000	0.874200
H321	H32	0.606600	0.548300	0.831200
C331	C33	0.827800	0.785500	0.150300
H331	H33	0.756700	0.807600	0.147700
H341	H34	0.856600	0.844500	0.202500
H351	H35	0.840000	0.656400	0.153900
C341	C34	0.788600	0.645000	0.959400
C351	C35	0.959900	0.023000	0.984300
H361	H36	0.006600	0.109200	0.966100
C361	C36	0.909300	0.899400	0.927400
H371	H37	0.911000	0.890200	0.865100
C371	C37	0.268600	0.549700	0.845200
H381	H38	0.213500	0.500300	0.807800
C381	C38	0.312600	0.391200	0.896500
H391	H39	0.336500	0.299000	0.855300
H401	H40	0.368900	0.431600	0.934100
C391	C39	0.500200	0.982000	0.889700
H411	H41	0.460400	0.890300	0.913600
C401	C40	0.587700	0.138000	0.801800
C411	C41	0.114400	0.361000	0.089200
C421	C42	0.632000	0.226000	0.715500
H421	H42	0.654800	0.131800	0.676000
H431	H43	0.581600	0.298300	0.685300
H441	H44	0.688100	0.303300	0.732400
C431	C43	0.151200	0.613000	0.970800
H451	H45	0.130000	0.706500	0.012600
H461	H46	0.091900	0.571300	0.937700
O81	O8	0.312900	0.751000	0.727300
C441	C44	0.226600	0.309400	0.956900
H471	H47	0.250600	0.200000	0.987300
H481	H48	0.168900	0.276600	0.919300
