data_EYOCOM_clean_PM
_symmetry_space_group_name_H-M	'P1'
_cell_length_a	29.925800
_cell_length_b	21.041800
_cell_length_c	19.432600
_cell_angle_alpha	90.000000
_cell_angle_beta	94.000000
_cell_angle_gamma	90.000000
_symmetry_Int_Tables_number 1

loop_
_symmetry_equiv_pos_as_xyz
'x,y,z'

loop_
_atom_site_label
_atom_site_type_symbol
_atom_site_fract_x
_atom_site_fract_y
_atom_site_fract_z
Er11	Er1	0.276590	0.175000	0.057660
Er21	Er2	0.181990	0.829990	0.962550
O11	O1	0.279100	0.069700	0.016800
O21	O2	0.339700	0.102600	0.070800
O31	O3	0.258200	0.840000	0.966200
O41	O4	0.309100	0.771700	0.002300
O51	O5	0.628530	0.723000	0.381600
O61	O6	0.697030	0.709600	0.351800
O71	O7	0.688970	0.807500	0.044900
O81	O8	0.731440	0.743200	0.111600
O91	O9	0.147200	0.908900	0.891500
O101	O10	0.190800	0.943900	0.973800
O111	O11	0.216600	0.184500	0.980700
O121	O12	0.171700	0.244200	0.912200
C11	C1	0.317200	0.058500	0.043100
C21	C2	0.333700	0.991500	0.046600
C31	C3	0.376600	0.978100	0.077400
H11	H1	0.394400	0.011100	0.095800
C41	C4	0.392600	0.916900	0.080800
C51	C5	0.364800	0.867100	0.053000
H21	H2	0.375300	0.825500	0.054700
C61	C6	0.323100	0.879700	0.023900
C71	C7	0.307800	0.941600	0.018300
H31	H3	0.280000	0.950000	0.995600
C81	C8	0.294600	0.826000	0.995000
C91	C9	0.436000	0.901700	0.111300
C101	C10	0.472900	0.885800	0.133100
C111	C11	0.514100	0.865200	0.158600
C121	C12	0.550100	0.844100	0.176800
C131	C13	0.593500	0.814600	0.192300
C141	C14	0.604500	0.788400	0.257400
H41	H4	0.584700	0.791300	0.292100
C151	C15	0.645600	0.758000	0.269300
C161	C16	0.674900	0.755100	0.218200
H51	H5	0.701600	0.732900	0.226800
C171	C17	0.666400	0.784300	0.153000
C181	C18	0.623200	0.812900	0.141800
H61	H6	0.615000	0.830800	0.099000
C191	C19	0.657900	0.728500	0.338400
C201	C20	0.698400	0.778800	0.100200
C211	C21	0.163100	0.954400	0.925300
C221	C22	0.147400	0.019400	0.907200
C231	C23	0.172500	0.072900	0.931300
H71	H7	0.198900	0.067400	0.958900
C241	C24	0.157500	0.134100	0.913300
C251	C25	0.118700	0.143100	0.872600
H81	H8	0.109000	0.183900	0.860900
C261	C26	0.093800	0.089900	0.848600
C271	C27	0.109800	0.026500	0.866200
H91	H9	0.094100	0.991000	0.849200
C281	C28	0.184000	0.191600	0.937400
C291	C29	0.053800	0.095800	0.803200
C301	C30	0.019800	0.098000	0.772100
Er31	Er3	0.776590	0.675000	0.057660
Er41	Er4	0.681990	0.329990	0.962550
O131	O13	0.779100	0.569700	0.016800
O141	O14	0.839700	0.602600	0.070800
O151	O15	0.758200	0.340000	0.966200
O161	O16	0.809100	0.271700	0.002300
O171	O17	0.128530	0.223000	0.381600
O181	O18	0.197030	0.209600	0.351800
O191	O19	0.188970	0.307500	0.044900
O201	O20	0.231440	0.243200	0.111600
O211	O21	0.647200	0.408900	0.891500
O221	O22	0.690800	0.443900	0.973800
O231	O23	0.716600	0.684500	0.980700
O241	O24	0.671700	0.744200	0.912200
C311	C31	0.817200	0.558500	0.043100
C321	C32	0.833700	0.491500	0.046600
C331	C33	0.876600	0.478100	0.077400
H101	H10	0.894400	0.511100	0.095800
C341	C34	0.892600	0.416900	0.080800
C351	C35	0.864800	0.367100	0.053000
H111	H11	0.875300	0.325500	0.054700
C361	C36	0.823100	0.379700	0.023900
C371	C37	0.807800	0.441600	0.018300
H121	H12	0.780000	0.450000	0.995600
C381	C38	0.794600	0.326000	0.995000
C391	C39	0.936000	0.401700	0.111300
C401	C40	0.972900	0.385800	0.133100
C411	C41	0.014100	0.365200	0.158600
C421	C42	0.050100	0.344100	0.176800
C431	C43	0.093500	0.314600	0.192300
C441	C44	0.104500	0.288400	0.257400
H131	H13	0.084700	0.291300	0.292100
C451	C45	0.145600	0.258000	0.269300
C461	C46	0.174900	0.255100	0.218200
H141	H14	0.201600	0.232900	0.226800
C471	C47	0.166400	0.284300	0.153000
C481	C48	0.123200	0.312900	0.141800
H151	H15	0.115000	0.330800	0.099000
C491	C49	0.157900	0.228500	0.338400
C501	C50	0.198400	0.278800	0.100200
C511	C51	0.663100	0.454400	0.925300
C521	C52	0.647400	0.519400	0.907200
C531	C53	0.672500	0.572900	0.931300
H161	H16	0.698900	0.567400	0.958900
C541	C54	0.657500	0.634100	0.913300
C551	C55	0.618700	0.643100	0.872600
H171	H17	0.609000	0.683900	0.860900
C561	C56	0.593800	0.589900	0.848600
C571	C57	0.609800	0.526500	0.866200
H181	H18	0.594100	0.491000	0.849200
C581	C58	0.684000	0.691600	0.937400
C591	C59	0.553800	0.595800	0.803200
C601	C60	0.519800	0.598000	0.772100
Er51	Er5	0.723410	0.175000	0.442340
Er61	Er6	0.818010	0.829990	0.537450
O251	O25	0.720900	0.069700	0.483200
O261	O26	0.660300	0.102600	0.429200
O271	O27	0.741800	0.840000	0.533800
O281	O28	0.690900	0.771700	0.497700
O291	O29	0.371470	0.723000	0.118400
O301	O30	0.302970	0.709600	0.148200
O311	O31	0.311030	0.807500	0.455100
O321	O32	0.268560	0.743200	0.388400
O331	O33	0.852800	0.908900	0.608500
O341	O34	0.809200	0.943900	0.526200
O351	O35	0.783400	0.184500	0.519300
O361	O36	0.828300	0.244200	0.587800
C611	C61	0.682800	0.058500	0.456900
C621	C62	0.666300	0.991500	0.453400
C631	C63	0.623400	0.978100	0.422600
H191	H19	0.605600	0.011100	0.404200
C641	C64	0.607400	0.916900	0.419200
C651	C65	0.635200	0.867100	0.447000
H201	H20	0.624700	0.825500	0.445300
C661	C66	0.676900	0.879700	0.476100
C671	C67	0.692200	0.941600	0.481700
H211	H21	0.720000	0.950000	0.504400
C681	C68	0.705400	0.826000	0.505000
C691	C69	0.564000	0.901700	0.388700
C701	C70	0.527100	0.885800	0.366900
C711	C71	0.485900	0.865200	0.341400
C721	C72	0.449900	0.844100	0.323200
C731	C73	0.406500	0.814600	0.307700
C741	C74	0.395500	0.788400	0.242600
H221	H22	0.415300	0.791300	0.207900
C751	C75	0.354400	0.758000	0.230700
C761	C76	0.325100	0.755100	0.281800
H231	H23	0.298400	0.732900	0.273200
C771	C77	0.333600	0.784300	0.347000
C781	C78	0.376800	0.812900	0.358200
H241	H24	0.385000	0.830800	0.401000
C791	C79	0.342100	0.728500	0.161600
C801	C80	0.301600	0.778800	0.399800
C811	C81	0.836900	0.954400	0.574700
C821	C82	0.852600	0.019400	0.592800
C831	C83	0.827500	0.072900	0.568700
H251	H25	0.801100	0.067400	0.541100
C841	C84	0.842500	0.134100	0.586700
C851	C85	0.881300	0.143100	0.627400
H261	H26	0.891000	0.183900	0.639100
C861	C86	0.906200	0.089900	0.651400
C871	C87	0.890200	0.026500	0.633800
H271	H27	0.905900	0.991000	0.650800
C881	C88	0.816000	0.191600	0.562600
C891	C89	0.946200	0.095800	0.696800
C901	C90	0.980200	0.098000	0.727900
Er71	Er7	0.223410	0.675000	0.442340
Er81	Er8	0.318010	0.329990	0.537450
O371	O37	0.220900	0.569700	0.483200
O381	O38	0.160300	0.602600	0.429200
O391	O39	0.241800	0.340000	0.533800
O401	O40	0.190900	0.271700	0.497700
O411	O41	0.871470	0.223000	0.118400
O421	O42	0.802970	0.209600	0.148200
O431	O43	0.811030	0.307500	0.455100
O441	O44	0.768560	0.243200	0.388400
O451	O45	0.352800	0.408900	0.608500
O461	O46	0.309200	0.443900	0.526200
O471	O47	0.283400	0.684500	0.519300
O481	O48	0.328300	0.744200	0.587800
C911	C91	0.182800	0.558500	0.456900
C921	C92	0.166300	0.491500	0.453400
C931	C93	0.123400	0.478100	0.422600
H281	H28	0.105600	0.511100	0.404200
C941	C94	0.107400	0.416900	0.419200
C951	C95	0.135200	0.367100	0.447000
H291	H29	0.124700	0.325500	0.445300
C961	C96	0.176900	0.379700	0.476100
C971	C97	0.192200	0.441600	0.481700
H301	H30	0.220000	0.450000	0.504400
C981	C98	0.205400	0.326000	0.505000
C991	C99	0.064000	0.401700	0.388700
C1001	C100	0.027100	0.385800	0.366900
C1011	C101	0.985900	0.365200	0.341400
C1021	C102	0.949900	0.344100	0.323200
C1031	C103	0.906500	0.314600	0.307700
C1041	C104	0.895500	0.288400	0.242600
H311	H31	0.915300	0.291300	0.207900
C1051	C105	0.854400	0.258000	0.230700
C1061	C106	0.825100	0.255100	0.281800
H321	H32	0.798400	0.232900	0.273200
C1071	C107	0.833600	0.284300	0.347000
C1081	C108	0.876800	0.312900	0.358200
H331	H33	0.885000	0.330800	0.401000
C1091	C109	0.842100	0.228500	0.161600
C1101	C110	0.801600	0.278800	0.399800
C1111	C111	0.336900	0.454400	0.574700
C1121	C112	0.352600	0.519400	0.592800
C1131	C113	0.327500	0.572900	0.568700
H341	H34	0.301100	0.567400	0.541100
C1141	C114	0.342500	0.634100	0.586700
C1151	C115	0.381300	0.643100	0.627400
H351	H35	0.391000	0.683900	0.639100
C1161	C116	0.406200	0.589900	0.651400
C1171	C117	0.390200	0.526500	0.633800
H361	H36	0.405900	0.491000	0.650800
C1181	C118	0.316000	0.691600	0.562600
C1191	C119	0.446200	0.595800	0.696800
C1201	C120	0.480200	0.598000	0.727900
Er91	Er9	0.723410	0.825000	0.942340
Er101	Er10	0.818010	0.170010	0.037450
O491	O49	0.720900	0.930300	0.983200
O501	O50	0.660300	0.897400	0.929200
O511	O51	0.741800	0.160000	0.033800
O521	O52	0.690900	0.228300	0.997700
O531	O53	0.371470	0.277000	0.618400
O541	O54	0.302970	0.290400	0.648200
O551	O55	0.311030	0.192500	0.955100
O561	O56	0.268560	0.256800	0.888400
O571	O57	0.852800	0.091100	0.108500
O581	O58	0.809200	0.056100	0.026200
O591	O59	0.783400	0.815500	0.019300
O601	O60	0.828300	0.755800	0.087800
C1211	C121	0.682800	0.941500	0.956900
C1221	C122	0.666300	0.008500	0.953400
C1231	C123	0.623400	0.021900	0.922600
H371	H37	0.605600	0.988900	0.904200
C1241	C124	0.607400	0.083100	0.919200
C1251	C125	0.635200	0.132900	0.947000
H381	H38	0.624700	0.174500	0.945300
C1261	C126	0.676900	0.120300	0.976100
C1271	C127	0.692200	0.058400	0.981700
H391	H39	0.720000	0.050000	0.004400
C1281	C128	0.705400	0.174000	0.005000
C1291	C129	0.564000	0.098300	0.888700
C1301	C130	0.527100	0.114200	0.866900
C1311	C131	0.485900	0.134800	0.841400
C1321	C132	0.449900	0.155900	0.823200
C1331	C133	0.406500	0.185400	0.807700
C1341	C134	0.395500	0.211600	0.742600
H401	H40	0.415300	0.208700	0.707900
C1351	C135	0.354400	0.242000	0.730700
C1361	C136	0.325100	0.244900	0.781800
H411	H41	0.298400	0.267100	0.773200
C1371	C137	0.333600	0.215700	0.847000
C1381	C138	0.376800	0.187100	0.858200
H421	H42	0.385000	0.169200	0.901000
C1391	C139	0.342100	0.271500	0.661600
C1401	C140	0.301600	0.221200	0.899800
C1411	C141	0.836900	0.045600	0.074700
C1421	C142	0.852600	0.980600	0.092800
C1431	C143	0.827500	0.927100	0.068700
H431	H43	0.801100	0.932600	0.041100
C1441	C144	0.842500	0.865900	0.086700
C1451	C145	0.881300	0.856900	0.127400
H441	H44	0.891000	0.816100	0.139100
C1461	C146	0.906200	0.910100	0.151400
C1471	C147	0.890200	0.973500	0.133800
H451	H45	0.905900	0.009000	0.150800
C1481	C148	0.816000	0.808400	0.062600
C1491	C149	0.946200	0.904200	0.196800
C1501	C150	0.980200	0.902000	0.227900
Er111	Er11	0.223410	0.325000	0.942340
Er121	Er12	0.318010	0.670010	0.037450
O611	O61	0.220900	0.430300	0.983200
O621	O62	0.160300	0.397400	0.929200
O631	O63	0.241800	0.660000	0.033800
O641	O64	0.190900	0.728300	0.997700
O651	O65	0.871470	0.777000	0.618400
O661	O66	0.802970	0.790400	0.648200
O671	O67	0.811030	0.692500	0.955100
O681	O68	0.768560	0.756800	0.888400
O691	O69	0.352800	0.591100	0.108500
O701	O70	0.309200	0.556100	0.026200
O711	O71	0.283400	0.315500	0.019300
O721	O72	0.328300	0.255800	0.087800
C1511	C151	0.182800	0.441500	0.956900
C1521	C152	0.166300	0.508500	0.953400
C1531	C153	0.123400	0.521900	0.922600
H461	H46	0.105600	0.488900	0.904200
C1541	C154	0.107400	0.583100	0.919200
C1551	C155	0.135200	0.632900	0.947000
H471	H47	0.124700	0.674500	0.945300
C1561	C156	0.176900	0.620300	0.976100
C1571	C157	0.192200	0.558400	0.981700
H481	H48	0.220000	0.550000	0.004400
C1581	C158	0.205400	0.674000	0.005000
C1591	C159	0.064000	0.598300	0.888700
C1601	C160	0.027100	0.614200	0.866900
C1611	C161	0.985900	0.634800	0.841400
C1621	C162	0.949900	0.655900	0.823200
C1631	C163	0.906500	0.685400	0.807700
C1641	C164	0.895500	0.711600	0.742600
H491	H49	0.915300	0.708700	0.707900
C1651	C165	0.854400	0.742000	0.730700
C1661	C166	0.825100	0.744900	0.781800
H501	H50	0.798400	0.767100	0.773200
C1671	C167	0.833600	0.715700	0.847000
C1681	C168	0.876800	0.687100	0.858200
H511	H51	0.885000	0.669200	0.901000
C1691	C169	0.842100	0.771500	0.661600
C1701	C170	0.801600	0.721200	0.899800
C1711	C171	0.336900	0.545600	0.074700
C1721	C172	0.352600	0.480600	0.092800
C1731	C173	0.327500	0.427100	0.068700
H521	H52	0.301100	0.432600	0.041100
C1741	C174	0.342500	0.365900	0.086700
C1751	C175	0.381300	0.356900	0.127400
H531	H53	0.391000	0.316100	0.139100
C1761	C176	0.406200	0.410100	0.151400
C1771	C177	0.390200	0.473500	0.133800
H541	H54	0.405900	0.509000	0.150800
C1781	C178	0.316000	0.308400	0.062600
C1791	C179	0.446200	0.404200	0.196800
C1801	C180	0.480200	0.402000	0.227900
Er131	Er13	0.276590	0.825000	0.557660
Er141	Er14	0.181990	0.170010	0.462550
O731	O73	0.279100	0.930300	0.516800
O741	O74	0.339700	0.897400	0.570800
O751	O75	0.258200	0.160000	0.466200
O761	O76	0.309100	0.228300	0.502300
O771	O77	0.628530	0.277000	0.881600
O781	O78	0.697030	0.290400	0.851800
O791	O79	0.688970	0.192500	0.544900
O801	O80	0.731440	0.256800	0.611600
O811	O81	0.147200	0.091100	0.391500
O821	O82	0.190800	0.056100	0.473800
O831	O83	0.216600	0.815500	0.480700
O841	O84	0.171700	0.755800	0.412200
C1811	C181	0.317200	0.941500	0.543100
C1821	C182	0.333700	0.008500	0.546600
C1831	C183	0.376600	0.021900	0.577400
H551	H55	0.394400	0.988900	0.595800
C1841	C184	0.392600	0.083100	0.580800
C1851	C185	0.364800	0.132900	0.553000
H561	H56	0.375300	0.174500	0.554700
C1861	C186	0.323100	0.120300	0.523900
C1871	C187	0.307800	0.058400	0.518300
H571	H57	0.280000	0.050000	0.495600
C1881	C188	0.294600	0.174000	0.495000
C1891	C189	0.436000	0.098300	0.611300
C1901	C190	0.472900	0.114200	0.633100
C1911	C191	0.514100	0.134800	0.658600
C1921	C192	0.550100	0.155900	0.676800
C1931	C193	0.593500	0.185400	0.692300
C1941	C194	0.604500	0.211600	0.757400
H581	H58	0.584700	0.208700	0.792100
C1951	C195	0.645600	0.242000	0.769300
C1961	C196	0.674900	0.244900	0.718200
H591	H59	0.701600	0.267100	0.726800
C1971	C197	0.666400	0.215700	0.653000
C1981	C198	0.623200	0.187100	0.641800
H601	H60	0.615000	0.169200	0.599000
C1991	C199	0.657900	0.271500	0.838400
C2001	C200	0.698400	0.221200	0.600200
C2011	C201	0.163100	0.045600	0.425300
C2021	C202	0.147400	0.980600	0.407200
C2031	C203	0.172500	0.927100	0.431300
H611	H61	0.198900	0.932600	0.458900
C2041	C204	0.157500	0.865900	0.413300
C2051	C205	0.118700	0.856900	0.372600
H621	H62	0.109000	0.816100	0.360900
C2061	C206	0.093800	0.910100	0.348600
C2071	C207	0.109800	0.973500	0.366200
H631	H63	0.094100	0.009000	0.349200
C2081	C208	0.184000	0.808400	0.437400
C2091	C209	0.053800	0.904200	0.303200
C2101	C210	0.019800	0.902000	0.272100
Er151	Er15	0.776590	0.325000	0.557660
Er161	Er16	0.681990	0.670010	0.462550
O851	O85	0.779100	0.430300	0.516800
O861	O86	0.839700	0.397400	0.570800
O871	O87	0.758200	0.660000	0.466200
O881	O88	0.809100	0.728300	0.502300
O891	O89	0.128530	0.777000	0.881600
O901	O90	0.197030	0.790400	0.851800
O911	O91	0.188970	0.692500	0.544900
O921	O92	0.231440	0.756800	0.611600
O931	O93	0.647200	0.591100	0.391500
O941	O94	0.690800	0.556100	0.473800
O951	O95	0.716600	0.315500	0.480700
O961	O96	0.671700	0.255800	0.412200
C2111	C211	0.817200	0.441500	0.543100
C2121	C212	0.833700	0.508500	0.546600
C2131	C213	0.876600	0.521900	0.577400
H641	H64	0.894400	0.488900	0.595800
C2141	C214	0.892600	0.583100	0.580800
C2151	C215	0.864800	0.632900	0.553000
H651	H65	0.875300	0.674500	0.554700
C2161	C216	0.823100	0.620300	0.523900
C2171	C217	0.807800	0.558400	0.518300
H661	H66	0.780000	0.550000	0.495600
C2181	C218	0.794600	0.674000	0.495000
C2191	C219	0.936000	0.598300	0.611300
C2201	C220	0.972900	0.614200	0.633100
C2211	C221	0.014100	0.634800	0.658600
C2221	C222	0.050100	0.655900	0.676800
C2231	C223	0.093500	0.685400	0.692300
C2241	C224	0.104500	0.711600	0.757400
H671	H67	0.084700	0.708700	0.792100
C2251	C225	0.145600	0.742000	0.769300
C2261	C226	0.174900	0.744900	0.718200
H681	H68	0.201600	0.767100	0.726800
C2271	C227	0.166400	0.715700	0.653000
C2281	C228	0.123200	0.687100	0.641800
H691	H69	0.115000	0.669200	0.599000
C2291	C229	0.157900	0.771500	0.838400
C2301	C230	0.198400	0.721200	0.600200
C2311	C231	0.663100	0.545600	0.425300
C2321	C232	0.647400	0.480600	0.407200
C2331	C233	0.672500	0.427100	0.431300
H701	H70	0.698900	0.432600	0.458900
C2341	C234	0.657500	0.365900	0.413300
C2351	C235	0.618700	0.356900	0.372600
H711	H71	0.609000	0.316100	0.360900
C2361	C236	0.593800	0.410100	0.348600
C2371	C237	0.609800	0.473500	0.366200
H721	H72	0.594100	0.509000	0.349200
C2381	C238	0.684000	0.308400	0.437400
C2391	C239	0.553800	0.404200	0.303200
C2401	C240	0.519800	0.402000	0.272100
