data_EYULOA_clean_PM
_symmetry_space_group_name_H-M	'P1'
_cell_length_a	15.092000
_cell_length_b	16.744000
_cell_length_c	22.518000
_cell_angle_alpha	90.000000
_cell_angle_beta	90.000000
_cell_angle_gamma	90.000000
_symmetry_Int_Tables_number 1

loop_
_symmetry_equiv_pos_as_xyz
'x,y,z'

loop_
_atom_site_label
_atom_site_type_symbol
_atom_site_fract_x
_atom_site_fract_y
_atom_site_fract_z
Co11	Co1	0.266120	0.273960	0.381950
Co21	Co2	0.733880	0.226040	0.381950
Co31	Co3	0.266120	0.726040	0.118050
Co41	Co4	0.733880	0.773960	0.118050
Co51	Co5	0.733880	0.726040	0.618050
Co61	Co6	0.266120	0.773960	0.618050
Co71	Co7	0.733880	0.273960	0.881950
Co81	Co8	0.266120	0.226040	0.881950
Co91	Co9	0.500000	0.250000	0.402680
Co101	Co10	0.500000	0.750000	0.097320
Co111	Co11	0.500000	0.750000	0.597320
Co121	Co12	0.500000	0.250000	0.902680
H11	H1	0.558200	0.437400	0.278600
H21	H2	0.494700	0.421400	0.561400
H31	H3	0.470000	0.553000	0.605500
H41	H4	0.092300	0.283900	0.452300
H51	H5	0.969100	0.355800	0.462000
H61	H6	0.041000	0.478600	0.327400
H71	H7	0.164400	0.400000	0.318500
H81	H8	0.870100	0.456800	0.426300
H91	H9	0.933800	0.523500	0.449300
H101	H10	0.947200	0.572200	0.356700
H111	H11	0.887600	0.504500	0.332200
H121	H12	0.834500	0.637000	0.389700
H131	H13	0.770900	0.566200	0.374700
H141	H14	0.675900	0.612800	0.302400
H151	H15	0.651200	0.678600	0.216500
H161	H16	0.900200	0.711200	0.190900
H171	H17	0.932600	0.649200	0.277800
H181	H18	0.441800	0.062600	0.278600
H191	H19	0.505300	0.078600	0.561400
H201	H20	0.530000	0.947000	0.605500
H211	H21	0.907700	0.216100	0.452300
H221	H22	0.030900	0.144200	0.462000
H231	H23	0.959000	0.021400	0.327400
H241	H24	0.835600	0.100000	0.318500
H251	H25	0.129900	0.043200	0.426300
H261	H26	0.066200	0.976500	0.449300
H271	H27	0.052800	0.927800	0.356700
H281	H28	0.112400	0.995500	0.332200
H291	H29	0.165500	0.863000	0.389700
H301	H30	0.229100	0.933800	0.374700
H311	H31	0.324100	0.887200	0.302400
H321	H32	0.348800	0.821400	0.216500
H331	H33	0.099800	0.788800	0.190900
H341	H34	0.067400	0.850800	0.277800
H351	H35	0.558200	0.562600	0.221400
H361	H36	0.494700	0.578600	0.938600
H371	H37	0.470000	0.447000	0.894500
H381	H38	0.092300	0.716100	0.047700
H391	H39	0.969100	0.644200	0.038000
H401	H40	0.041000	0.521400	0.172600
H411	H41	0.164400	0.600000	0.181500
H421	H42	0.870100	0.543200	0.073700
H431	H43	0.933800	0.476500	0.050700
H441	H44	0.947200	0.427800	0.143300
H451	H45	0.887600	0.495500	0.167800
H461	H46	0.834500	0.363000	0.110300
H471	H47	0.770900	0.433800	0.125300
H481	H48	0.675900	0.387200	0.197600
H491	H49	0.651200	0.321400	0.283500
H501	H50	0.900200	0.288800	0.309100
H511	H51	0.932600	0.350800	0.222200
H521	H52	0.441800	0.937400	0.221400
H531	H53	0.505300	0.921400	0.938600
H541	H54	0.530000	0.053000	0.894500
H551	H55	0.907700	0.783900	0.047700
H561	H56	0.030900	0.855800	0.038000
H571	H57	0.959000	0.978600	0.172600
H581	H58	0.835600	0.900000	0.181500
H591	H59	0.129900	0.956800	0.073700
H601	H60	0.066200	0.023500	0.050700
H611	H61	0.052800	0.072200	0.143300
H621	H62	0.112400	0.004500	0.167800
H631	H63	0.165500	0.137000	0.110300
H641	H64	0.229100	0.066200	0.125300
H651	H65	0.324100	0.112800	0.197600
H661	H66	0.348800	0.178600	0.283500
H671	H67	0.099800	0.211200	0.309100
H681	H68	0.067400	0.149200	0.222200
H691	H69	0.441800	0.562600	0.721400
H701	H70	0.505300	0.578600	0.438600
H711	H71	0.530000	0.447000	0.394500
H721	H72	0.907700	0.716100	0.547700
H731	H73	0.030900	0.644200	0.538000
H741	H74	0.959000	0.521400	0.672600
H751	H75	0.835600	0.600000	0.681500
H761	H76	0.129900	0.543200	0.573700
H771	H77	0.066200	0.476500	0.550700
H781	H78	0.052800	0.427800	0.643300
H791	H79	0.112400	0.495500	0.667800
H801	H80	0.165500	0.363000	0.610300
H811	H81	0.229100	0.433800	0.625300
H821	H82	0.324100	0.387200	0.697600
H831	H83	0.348800	0.321400	0.783500
H841	H84	0.099800	0.288800	0.809100
H851	H85	0.067400	0.350800	0.722200
H861	H86	0.558200	0.937400	0.721400
H871	H87	0.494700	0.921400	0.438600
H881	H88	0.470000	0.053000	0.394500
H891	H89	0.092300	0.783900	0.547700
H901	H90	0.969100	0.855800	0.538000
H911	H91	0.041000	0.978600	0.672600
H921	H92	0.164400	0.900000	0.681500
H931	H93	0.870100	0.956800	0.573700
H941	H94	0.933800	0.023500	0.550700
H951	H95	0.947200	0.072200	0.643300
H961	H96	0.887600	0.004500	0.667800
H971	H97	0.834500	0.137000	0.610300
H981	H98	0.770900	0.066200	0.625300
H991	H99	0.675900	0.112800	0.697600
H1001	H100	0.651200	0.178600	0.783500
H1011	H101	0.900200	0.211200	0.809100
H1021	H102	0.932600	0.149200	0.722200
H1031	H103	0.441800	0.437400	0.778600
H1041	H104	0.505300	0.421400	0.061400
H1051	H105	0.530000	0.553000	0.105500
H1061	H106	0.907700	0.283900	0.952300
H1071	H107	0.030900	0.355800	0.962000
H1081	H108	0.959000	0.478600	0.827400
H1091	H109	0.835600	0.400000	0.818500
H1101	H110	0.129900	0.456800	0.926300
H1111	H111	0.066200	0.523500	0.949300
H1121	H112	0.052800	0.572200	0.856700
H1131	H113	0.112400	0.504500	0.832200
H1141	H114	0.165500	0.637000	0.889700
H1151	H115	0.229100	0.566200	0.874700
H1161	H116	0.324100	0.612800	0.802400
H1171	H117	0.348800	0.678600	0.716500
H1181	H118	0.099800	0.711200	0.690900
H1191	H119	0.067400	0.649200	0.777800
H1201	H120	0.558200	0.062600	0.778600
H1211	H121	0.494700	0.078600	0.061400
H1221	H122	0.470000	0.947000	0.105500
H1231	H123	0.092300	0.216100	0.952300
H1241	H124	0.969100	0.144200	0.962000
H1251	H125	0.041000	0.021400	0.827400
H1261	H126	0.164400	0.100000	0.818500
H1271	H127	0.870100	0.043200	0.926300
H1281	H128	0.933800	0.976500	0.949300
H1291	H129	0.947200	0.927800	0.856700
H1301	H130	0.887600	0.995500	0.832200
H1311	H131	0.834500	0.863000	0.889700
H1321	H132	0.770900	0.933800	0.874700
H1331	H133	0.675900	0.887200	0.802400
H1341	H134	0.651200	0.821400	0.716500
H1351	H135	0.900200	0.788800	0.690900
H1361	H136	0.932600	0.850800	0.777800
C11	C1	0.400000	0.367800	0.315800
C21	C2	0.424200	0.438900	0.281100
C31	C3	0.506900	0.464100	0.267100
C41	C4	0.378800	0.359800	0.474600
C51	C5	0.382000	0.431300	0.513800
C61	C6	0.446000	0.453300	0.552500
C71	C7	0.431900	0.529500	0.578100
C81	C8	0.355800	0.564700	0.558000
C91	C9	0.321700	0.644200	0.574900
C101	C10	0.085100	0.327000	0.426700
C111	C11	0.011400	0.372100	0.434500
C121	C12	0.998500	0.435100	0.405800
C131	C13	0.053600	0.441200	0.356700
C141	C14	0.127000	0.392400	0.350900
C151	C15	0.920700	0.489400	0.415600
C161	C16	0.895000	0.540600	0.365500
C171	C17	0.823900	0.593900	0.361800
C181	C18	0.805800	0.629500	0.303300
C191	C19	0.723200	0.635000	0.281800
C201	C20	0.709500	0.673600	0.229300
C211	C21	0.853700	0.693000	0.214400
C221	C22	0.873800	0.656300	0.266600
C231	C23	0.600000	0.132200	0.315800
C241	C24	0.575800	0.061100	0.281100
C251	C25	0.493100	0.035900	0.267100
C261	C26	0.621200	0.140200	0.474600
C271	C27	0.618000	0.068700	0.513800
C281	C28	0.554000	0.046700	0.552500
C291	C29	0.568100	0.970500	0.578100
C301	C30	0.644200	0.935300	0.558000
C311	C31	0.678300	0.855800	0.574900
C321	C32	0.914900	0.173000	0.426700
C331	C33	0.988600	0.127900	0.434500
C341	C34	0.001500	0.064900	0.405800
C351	C35	0.946400	0.058800	0.356700
C361	C36	0.873000	0.107600	0.350900
C371	C37	0.079300	0.010600	0.415600
C381	C38	0.105000	0.959400	0.365500
C391	C39	0.176100	0.906100	0.361800
C401	C40	0.194200	0.870500	0.303300
C411	C41	0.276800	0.865000	0.281800
C421	C42	0.290500	0.826400	0.229300
C431	C43	0.146300	0.807000	0.214400
C441	C44	0.126200	0.843700	0.266600
C451	C45	0.400000	0.632200	0.184200
C461	C46	0.424200	0.561100	0.218900
C471	C47	0.506900	0.535900	0.232900
C481	C48	0.378800	0.640200	0.025400
C491	C49	0.382000	0.568700	0.986200
C501	C50	0.446000	0.546700	0.947500
C511	C51	0.431900	0.470500	0.921900
C521	C52	0.355800	0.435300	0.942000
C531	C53	0.321700	0.355800	0.925100
C541	C54	0.085100	0.673000	0.073300
C551	C55	0.011400	0.627900	0.065500
C561	C56	0.998500	0.564900	0.094200
C571	C57	0.053600	0.558800	0.143300
C581	C58	0.127000	0.607600	0.149100
C591	C59	0.920700	0.510600	0.084400
C601	C60	0.895000	0.459400	0.134500
C611	C61	0.823900	0.406100	0.138200
C621	C62	0.805800	0.370500	0.196700
C631	C63	0.723200	0.365000	0.218200
C641	C64	0.709500	0.326400	0.270700
C651	C65	0.853700	0.307000	0.285600
C661	C66	0.873800	0.343700	0.233400
C671	C67	0.600000	0.867800	0.184200
C681	C68	0.575800	0.938900	0.218900
C691	C69	0.493100	0.964100	0.232900
C701	C70	0.621200	0.859800	0.025400
C711	C71	0.618000	0.931300	0.986200
C721	C72	0.554000	0.953300	0.947500
C731	C73	0.568100	0.029500	0.921900
C741	C74	0.644200	0.064700	0.942000
C751	C75	0.678300	0.144200	0.925100
C761	C76	0.914900	0.827000	0.073300
C771	C77	0.988600	0.872100	0.065500
C781	C78	0.001500	0.935100	0.094200
C791	C79	0.946400	0.941200	0.143300
C801	C80	0.873000	0.892400	0.149100
C811	C81	0.079300	0.989400	0.084400
C821	C82	0.105000	0.040600	0.134500
C831	C83	0.176100	0.093900	0.138200
C841	C84	0.194200	0.129500	0.196700
C851	C85	0.276800	0.135000	0.218200
C861	C86	0.290500	0.173600	0.270700
C871	C87	0.146300	0.193000	0.285600
C881	C88	0.126200	0.156300	0.233400
C891	C89	0.600000	0.632200	0.684200
C901	C90	0.575800	0.561100	0.718900
C911	C91	0.493100	0.535900	0.732900
C921	C92	0.621200	0.640200	0.525400
C931	C93	0.618000	0.568700	0.486200
C941	C94	0.554000	0.546700	0.447500
C951	C95	0.568100	0.470500	0.421900
C961	C96	0.644200	0.435300	0.442000
C971	C97	0.678300	0.355800	0.425100
C981	C98	0.914900	0.673000	0.573300
C991	C99	0.988600	0.627900	0.565500
C1001	C100	0.001500	0.564900	0.594200
C1011	C101	0.946400	0.558800	0.643300
C1021	C102	0.873000	0.607600	0.649100
C1031	C103	0.079300	0.510600	0.584400
C1041	C104	0.105000	0.459400	0.634500
C1051	C105	0.176100	0.406100	0.638200
C1061	C106	0.194200	0.370500	0.696700
C1071	C107	0.276800	0.365000	0.718200
C1081	C108	0.290500	0.326400	0.770700
C1091	C109	0.146300	0.307000	0.785600
C1101	C110	0.126200	0.343700	0.733400
C1111	C111	0.400000	0.867800	0.684200
C1121	C112	0.424200	0.938900	0.718900
C1131	C113	0.506900	0.964100	0.732900
C1141	C114	0.378800	0.859800	0.525400
C1151	C115	0.382000	0.931300	0.486200
C1161	C116	0.446000	0.953300	0.447500
C1171	C117	0.431900	0.029500	0.421900
C1181	C118	0.355800	0.064700	0.442000
C1191	C119	0.321700	0.144200	0.425100
C1201	C120	0.085100	0.827000	0.573300
C1211	C121	0.011400	0.872100	0.565500
C1221	C122	0.998500	0.935100	0.594200
C1231	C123	0.053600	0.941200	0.643300
C1241	C124	0.127000	0.892400	0.649100
C1251	C125	0.920700	0.989400	0.584400
C1261	C126	0.895000	0.040600	0.634500
C1271	C127	0.823900	0.093900	0.638200
C1281	C128	0.805800	0.129500	0.696700
C1291	C129	0.723200	0.135000	0.718200
C1301	C130	0.709500	0.173600	0.770700
C1311	C131	0.853700	0.193000	0.785600
C1321	C132	0.873800	0.156300	0.733400
C1331	C133	0.600000	0.367800	0.815800
C1341	C134	0.575800	0.438900	0.781100
C1351	C135	0.493100	0.464100	0.767100
C1361	C136	0.621200	0.359800	0.974600
C1371	C137	0.618000	0.431300	0.013800
C1381	C138	0.554000	0.453300	0.052500
C1391	C139	0.568100	0.529500	0.078100
C1401	C140	0.644200	0.564700	0.058000
C1411	C141	0.678300	0.644200	0.074900
C1421	C142	0.914900	0.327000	0.926700
C1431	C143	0.988600	0.372100	0.934500
C1441	C144	0.001500	0.435100	0.905800
C1451	C145	0.946400	0.441200	0.856700
C1461	C146	0.873000	0.392400	0.850900
C1471	C147	0.079300	0.489400	0.915600
C1481	C148	0.105000	0.540600	0.865500
C1491	C149	0.176100	0.593900	0.861800
C1501	C150	0.194200	0.629500	0.803300
C1511	C151	0.276800	0.635000	0.781800
C1521	C152	0.290500	0.673600	0.729300
C1531	C153	0.146300	0.693000	0.714400
C1541	C154	0.126200	0.656300	0.766600
C1551	C155	0.400000	0.132200	0.815800
C1561	C156	0.424200	0.061100	0.781100
C1571	C157	0.506900	0.035900	0.767100
C1581	C158	0.378800	0.140200	0.974600
C1591	C159	0.382000	0.068700	0.013800
C1601	C160	0.446000	0.046700	0.052500
C1611	C161	0.431900	0.970500	0.078100
C1621	C162	0.355800	0.935300	0.058000
C1631	C163	0.321700	0.855800	0.074900
C1641	C164	0.085100	0.173000	0.926700
C1651	C165	0.011400	0.127900	0.934500
C1661	C166	0.998500	0.064900	0.905800
C1671	C167	0.053600	0.058800	0.856700
C1681	C168	0.127000	0.107600	0.850900
C1691	C169	0.920700	0.010600	0.915600
C1701	C170	0.895000	0.959400	0.865500
C1711	C171	0.823900	0.906100	0.861800
C1721	C172	0.805800	0.870500	0.803300
C1731	C173	0.723200	0.865000	0.781800
C1741	C174	0.709500	0.826400	0.729300
C1751	C175	0.853700	0.807000	0.714400
C1761	C176	0.873800	0.843700	0.766600
S11	S1	0.301480	0.503990	0.507790
S21	S2	0.698520	0.996010	0.507790
S31	S3	0.301480	0.496010	0.992210
S41	S4	0.698520	0.003990	0.992210
S51	S5	0.698520	0.496010	0.492210
S61	S6	0.301480	0.003990	0.492210
S71	S7	0.698520	0.503990	0.007790
S81	S8	0.301480	0.996010	0.007790
S91	S9	0.344630	0.500000	0.250000
S101	S10	0.655370	0.000000	0.250000
S111	S11	0.655370	0.500000	0.750000
S121	S12	0.344630	0.000000	0.750000
N11	N1	0.145600	0.337600	0.388000
N21	N2	0.771700	0.704500	0.195000
N31	N3	0.854400	0.162400	0.388000
N41	N4	0.228300	0.795500	0.195000
N51	N5	0.145600	0.662400	0.112000
N61	N6	0.771700	0.295500	0.305000
N71	N7	0.854400	0.837600	0.112000
N81	N8	0.228300	0.204500	0.305000
N91	N9	0.854400	0.662400	0.612000
N101	N10	0.228300	0.295500	0.805000
N111	N11	0.145600	0.837600	0.612000
N121	N12	0.771700	0.204500	0.805000
N131	N13	0.854400	0.337600	0.888000
N141	N14	0.228300	0.704500	0.695000
N151	N15	0.145600	0.162400	0.888000
N161	N16	0.771700	0.795500	0.695000
O11	O1	0.462300	0.328500	0.336400
O21	O2	0.318600	0.354200	0.323100
O31	O3	0.450800	0.322600	0.468400
O41	O4	0.305200	0.344000	0.452200
O51	O5	0.373300	0.690600	0.604000
O61	O6	0.243200	0.664300	0.563600
O71	O7	0.537700	0.171500	0.336400
O81	O8	0.681400	0.145800	0.323100
O91	O9	0.549200	0.177400	0.468400
O101	O10	0.694800	0.156000	0.452200
O111	O11	0.626700	0.809400	0.604000
O121	O12	0.756800	0.835700	0.563600
O131	O13	0.462300	0.671500	0.163600
O141	O14	0.318600	0.645800	0.176900
O151	O15	0.450800	0.677400	0.031600
O161	O16	0.305200	0.656000	0.047800
O171	O17	0.373300	0.309400	0.896000
O181	O18	0.243200	0.335700	0.936400
O191	O19	0.537700	0.828500	0.163600
O201	O20	0.681400	0.854200	0.176900
O211	O21	0.549200	0.822600	0.031600
O221	O22	0.694800	0.844000	0.047800
O231	O23	0.626700	0.190600	0.896000
O241	O24	0.756800	0.164300	0.936400
O251	O25	0.537700	0.671500	0.663600
O261	O26	0.681400	0.645800	0.676900
O271	O27	0.549200	0.677400	0.531600
O281	O28	0.694800	0.656000	0.547800
O291	O29	0.626700	0.309400	0.396000
O301	O30	0.756800	0.335700	0.436400
O311	O31	0.462300	0.828500	0.663600
O321	O32	0.318600	0.854200	0.676900
O331	O33	0.450800	0.822600	0.531600
O341	O34	0.305200	0.844000	0.547800
O351	O35	0.373300	0.190600	0.396000
O361	O36	0.243200	0.164300	0.436400
O371	O37	0.537700	0.328500	0.836400
O381	O38	0.681400	0.354200	0.823100
O391	O39	0.549200	0.322600	0.968400
O401	O40	0.694800	0.344000	0.952200
O411	O41	0.626700	0.690600	0.104000
O421	O42	0.756800	0.664300	0.063600
O431	O43	0.462300	0.171500	0.836400
O441	O44	0.318600	0.145800	0.823100
O451	O45	0.450800	0.177400	0.968400
O461	O46	0.305200	0.156000	0.952200
O471	O47	0.373300	0.809400	0.104000
O481	O48	0.243200	0.835700	0.063600
