data_EZABEN_clean_PM
_symmetry_space_group_name_H-M	'P1'
_cell_length_a	8.441300
_cell_length_b	8.441300
_cell_length_c	16.688000
_cell_angle_alpha	90.000000
_cell_angle_beta	90.000000
_cell_angle_gamma	90.782300
_symmetry_Int_Tables_number 1

loop_
_symmetry_equiv_pos_as_xyz
'x,y,z'

loop_
_atom_site_label
_atom_site_type_symbol
_atom_site_fract_x
_atom_site_fract_y
_atom_site_fract_z
Cd11	Cd1	0.938550	0.061450	0.320610
Cd21	Cd2	0.307190	0.692810	0.179800
Cd31	Cd3	0.620630	0.379370	0.284580
Cd41	Cd4	0.061450	0.938550	0.820610
Cd51	Cd5	0.692810	0.307190	0.679800
Cd61	Cd6	0.379370	0.620630	0.784580
H11	H1	0.669800	0.776000	0.258100
H21	H2	0.362800	0.093800	0.199900
H31	H3	0.330200	0.224000	0.758100
H41	H4	0.637200	0.906200	0.699900
H51	H5	0.776000	0.669800	0.758100
H61	H6	0.093800	0.362800	0.699900
H71	H7	0.224000	0.330200	0.258100
H81	H8	0.906200	0.637200	0.199900
H91	H9	0.575800	0.424200	0.489100
H101	H10	0.894900	0.105100	0.529100
H111	H11	0.424200	0.575800	0.989100
H121	H12	0.105100	0.894900	0.029100
C11	C1	0.621500	0.873100	0.250000
C21	C2	0.454600	0.046000	0.218100
C31	C3	0.378500	0.126900	0.750000
C41	C4	0.545400	0.954000	0.718100
C51	C5	0.873100	0.621500	0.750000
C61	C6	0.046000	0.454600	0.718100
C71	C7	0.126900	0.378500	0.250000
C81	C8	0.954000	0.545400	0.218100
C91	C9	0.652600	0.347400	0.482500
C101	C10	0.825600	0.174400	0.504400
C111	C11	0.347400	0.652600	0.982500
C121	C12	0.174400	0.825600	0.004400
N11	N1	0.688200	0.011400	0.269200
N21	N2	0.578600	0.126000	0.247300
N31	N3	0.476400	0.888400	0.217700
N41	N4	0.311800	0.988600	0.769200
N51	N5	0.421400	0.874000	0.747300
N61	N6	0.523600	0.111600	0.717700
N71	N7	0.011400	0.688200	0.769200
N81	N8	0.126000	0.578600	0.747300
N91	N9	0.888400	0.476400	0.717700
N101	N10	0.988600	0.311800	0.269200
N111	N11	0.874000	0.421400	0.247300
N121	N12	0.111600	0.523600	0.217700
N131	N13	0.701800	0.298200	0.413300
N141	N14	0.812800	0.187200	0.428400
N151	N15	0.728000	0.272000	0.545500
N161	N16	0.298200	0.701800	0.913300
N171	N17	0.187200	0.812800	0.928400
N181	N18	0.272000	0.728000	0.045500
Cl11	Cl1	0.076100	0.923900	0.200600
Cl21	Cl2	0.431200	0.568800	0.343700
Cl31	Cl3	0.520000	0.480000	0.142800
Cl41	Cl4	0.923900	0.076100	0.700600
Cl51	Cl5	0.568800	0.431200	0.843700
Cl61	Cl6	0.480000	0.520000	0.642800
