data_EZESAF_clean_PM
_symmetry_space_group_name_H-M	'P1'
_cell_length_a	14.139000
_cell_length_b	20.570900
_cell_length_c	9.928400
_cell_angle_alpha	90.000000
_cell_angle_beta	95.786000
_cell_angle_gamma	90.000000
_symmetry_Int_Tables_number 1

loop_
_symmetry_equiv_pos_as_xyz
'x,y,z'

loop_
_atom_site_label
_atom_site_type_symbol
_atom_site_fract_x
_atom_site_fract_y
_atom_site_fract_z
Cu11	Cu1	0.189830	0.735640	0.695320
C11	C1	0.017190	0.817830	0.219300
C21	C2	0.940500	0.850220	0.290300
C31	C3	0.947490	0.854330	0.430200
H11	H1	0.998400	0.834800	0.481500
C41	C4	0.879340	0.887210	0.494400
H21	H2	0.884000	0.889000	0.588400
C51	C5	0.804410	0.917410	0.419000
C61	C6	0.793950	0.910970	0.280300
H31	H3	0.741300	0.928600	0.229400
C71	C7	0.862650	0.878040	0.217200
H41	H4	0.856200	0.874600	0.123300
C81	C8	0.154400	0.877920	0.643800
H51	H5	0.195600	0.880400	0.576600
C91	C9	0.101500	0.927320	0.684600
H61	H6	0.100200	0.969800	0.652400
C101	C10	0.075300	0.840440	0.800600
H71	H7	0.051600	0.813000	0.863600
C111	C11	0.983900	0.939500	0.857600
H81	H8	0.945300	0.967600	0.795900
H91	H9	0.941800	0.909500	0.897700
C121	C12	0.035000	0.978910	0.964600
H101	H10	0.080600	0.006600	0.925600
H111	H11	0.069700	0.950600	0.030400
C131	C13	0.293890	0.633110	0.565700
H121	H12	0.315400	0.662800	0.505000
C141	C14	0.224510	0.590650	0.728200
H131	H13	0.188300	0.586400	0.800800
C151	C15	0.269980	0.541280	0.671300
C161	C16	0.470690	0.519600	0.545700
H141	H14	0.463700	0.495000	0.627400
H151	H15	0.504000	0.559600	0.571700
C171	C17	0.373560	0.535690	0.476600
H161	H16	0.380700	0.563100	0.398700
H171	H17	0.342400	0.495800	0.444200
C181	C18	0.354910	0.803490	0.670500
C191	C19	0.421570	0.841030	0.590400
C201	C20	0.492540	0.879040	0.655600
H181	H18	0.499700	0.880500	0.749700
C211	C21	0.553200	0.914970	0.584000
H191	H19	0.600800	0.940200	0.629500
C221	C22	0.542640	0.913080	0.444600
C231	C23	0.471940	0.875350	0.377300
H201	H20	0.464700	0.874200	0.283200
C241	C24	0.412370	0.839440	0.449700
H211	H21	0.365400	0.813800	0.404000
C251	C25	0.669950	0.987570	0.423700
H221	H22	0.695000	0.014200	0.354900
H231	H23	0.642400	0.016400	0.486500
N11	N1	0.137610	0.823230	0.717500
N21	N2	0.050420	0.902800	0.782100
N31	N3	0.239880	0.647960	0.662600
N41	N4	0.313380	0.569240	0.567100
O11	O1	0.091710	0.801350	0.295970
O21	O2	0.006760	0.809970	0.096100
O31	O3	0.744640	0.952390	0.493410
O41	O4	0.364710	0.805620	0.794700
O51	O5	0.289520	0.772600	0.599000
O61	O6	0.598500	0.946690	0.362030
Cu21	Cu2	0.810160	0.235640	0.804680
C261	C26	0.982810	0.317830	0.280700
C271	C27	0.059500	0.350220	0.209700
C281	C28	0.052510	0.354330	0.069800
H241	H24	0.001600	0.334800	0.018500
C291	C29	0.120660	0.387210	0.005600
H251	H25	0.116000	0.389000	0.911600
C301	C30	0.195590	0.417410	0.081000
C311	C31	0.206050	0.410970	0.219700
H261	H26	0.258700	0.428600	0.270600
C321	C32	0.137350	0.378040	0.282800
H271	H27	0.143800	0.374600	0.376700
C331	C33	0.845600	0.377920	0.856200
H281	H28	0.804400	0.380400	0.923400
C341	C34	0.898500	0.427320	0.815400
H291	H29	0.899800	0.469800	0.847600
C351	C35	0.924700	0.340440	0.699400
H301	H30	0.948400	0.313000	0.636400
C361	C36	0.016100	0.439500	0.642400
H311	H31	0.054700	0.467600	0.704100
H321	H32	0.058200	0.409500	0.602300
C371	C37	0.965000	0.478910	0.535400
H331	H33	0.919400	0.506600	0.574400
H341	H34	0.930300	0.450600	0.469600
C381	C38	0.706110	0.133110	0.934300
H351	H35	0.684600	0.162800	0.995000
C391	C39	0.775490	0.090650	0.771800
H361	H36	0.811700	0.086400	0.699200
C401	C40	0.730020	0.041280	0.828700
C411	C41	0.529310	0.019600	0.954300
H371	H37	0.536300	0.995000	0.872600
H381	H38	0.496000	0.059600	0.928300
C421	C42	0.626440	0.035690	0.023400
H391	H39	0.619300	0.063100	0.101300
H401	H40	0.657600	0.995800	0.055800
C431	C43	0.645090	0.303490	0.829500
C441	C44	0.578430	0.341030	0.909600
C451	C45	0.507460	0.379040	0.844400
H411	H41	0.500300	0.380500	0.750300
C461	C46	0.446800	0.414970	0.916000
H421	H42	0.399200	0.440200	0.870500
C471	C47	0.457360	0.413080	0.055400
C481	C48	0.528060	0.375350	0.122700
H431	H43	0.535300	0.374200	0.216800
C491	C49	0.587630	0.339440	0.050300
H441	H44	0.634600	0.313800	0.096000
C501	C50	0.330050	0.487570	0.076300
H451	H45	0.305000	0.514200	0.145100
H461	H46	0.357600	0.516400	0.013500
N51	N5	0.862390	0.323230	0.782500
N61	N6	0.949580	0.402800	0.717900
N71	N7	0.760120	0.147960	0.837400
N81	N8	0.686620	0.069240	0.932900
O71	O7	0.908290	0.301350	0.204030
O81	O8	0.993240	0.309970	0.403900
O91	O9	0.255360	0.452390	0.006590
O101	O10	0.635290	0.305620	0.705300
O111	O11	0.710480	0.272600	0.901000
O121	O12	0.401500	0.446690	0.137970
Cu31	Cu3	0.810160	0.264360	0.304680
C511	C51	0.982810	0.182170	0.780700
C521	C52	0.059500	0.149780	0.709700
C531	C53	0.052510	0.145670	0.569800
H471	H47	0.001600	0.165200	0.518500
C541	C54	0.120660	0.112790	0.505600
H481	H48	0.116000	0.111000	0.411600
C551	C55	0.195590	0.082590	0.581000
C561	C56	0.206050	0.089030	0.719700
H491	H49	0.258700	0.071400	0.770600
C571	C57	0.137350	0.121960	0.782800
H501	H50	0.143800	0.125400	0.876700
C581	C58	0.845600	0.122080	0.356200
H511	H51	0.804400	0.119600	0.423400
C591	C59	0.898500	0.072680	0.315400
H521	H52	0.899800	0.030200	0.347600
C601	C60	0.924700	0.159560	0.199400
H531	H53	0.948400	0.187000	0.136400
C611	C61	0.016100	0.060500	0.142400
H541	H54	0.054700	0.032400	0.204100
H551	H55	0.058200	0.090500	0.102300
C621	C62	0.965000	0.021090	0.035400
H561	H56	0.919400	0.993400	0.074400
H571	H57	0.930300	0.049400	0.969600
C631	C63	0.706110	0.366890	0.434300
H581	H58	0.684600	0.337200	0.495000
C641	C64	0.775490	0.409350	0.271800
H591	H59	0.811700	0.413600	0.199200
C651	C65	0.730020	0.458720	0.328700
C661	C66	0.529310	0.480400	0.454300
H601	H60	0.536300	0.505000	0.372600
H611	H61	0.496000	0.440400	0.428300
C671	C67	0.626440	0.464310	0.523400
H621	H62	0.619300	0.436900	0.601300
H631	H63	0.657600	0.504200	0.555800
C681	C68	0.645090	0.196510	0.329500
C691	C69	0.578430	0.158970	0.409600
C701	C70	0.507460	0.120960	0.344400
H641	H64	0.500300	0.119500	0.250300
C711	C71	0.446800	0.085030	0.416000
H651	H65	0.399200	0.059800	0.370500
C721	C72	0.457360	0.086920	0.555400
C731	C73	0.528060	0.124650	0.622700
H661	H66	0.535300	0.125800	0.716800
C741	C74	0.587630	0.160560	0.550300
H671	H67	0.634600	0.186200	0.596000
C751	C75	0.330050	0.012430	0.576300
H681	H68	0.305000	0.985800	0.645100
H691	H69	0.357600	0.983600	0.513500
N91	N9	0.862390	0.176770	0.282500
N101	N10	0.949580	0.097200	0.217900
N111	N11	0.760120	0.352040	0.337400
N121	N12	0.686620	0.430760	0.432900
O131	O13	0.908290	0.198650	0.704030
O141	O14	0.993240	0.190030	0.903900
O151	O15	0.255360	0.047610	0.506590
O161	O16	0.635290	0.194380	0.205300
O171	O17	0.710480	0.227400	0.401000
O181	O18	0.401500	0.053310	0.637970
Cu41	Cu4	0.189830	0.764360	0.195320
C761	C76	0.017190	0.682170	0.719300
C771	C77	0.940500	0.649780	0.790300
C781	C78	0.947490	0.645670	0.930200
H701	H70	0.998400	0.665200	0.981500
C791	C79	0.879340	0.612790	0.994400
H711	H71	0.884000	0.611000	0.088400
C801	C80	0.804410	0.582590	0.919000
C811	C81	0.793950	0.589030	0.780300
H721	H72	0.741300	0.571400	0.729400
C821	C82	0.862650	0.621960	0.717200
H731	H73	0.856200	0.625400	0.623300
C831	C83	0.154400	0.622080	0.143800
H741	H74	0.195600	0.619600	0.076600
C841	C84	0.101500	0.572680	0.184600
H751	H75	0.100200	0.530200	0.152400
C851	C85	0.075300	0.659560	0.300600
H761	H76	0.051600	0.687000	0.363600
C861	C86	0.983900	0.560500	0.357600
H771	H77	0.945300	0.532400	0.295900
H781	H78	0.941800	0.590500	0.397700
C871	C87	0.035000	0.521090	0.464600
H791	H79	0.080600	0.493400	0.425600
H801	H80	0.069700	0.549400	0.530400
C881	C88	0.293890	0.866890	0.065700
H811	H81	0.315400	0.837200	0.005000
C891	C89	0.224510	0.909350	0.228200
H821	H82	0.188300	0.913600	0.300800
C901	C90	0.269980	0.958720	0.171300
C911	C91	0.470690	0.980400	0.045700
H831	H83	0.463700	0.005000	0.127400
H841	H84	0.504000	0.940400	0.071700
C921	C92	0.373560	0.964310	0.976600
H851	H85	0.380700	0.936900	0.898700
H861	H86	0.342400	0.004200	0.944200
C931	C93	0.354910	0.696510	0.170500
C941	C94	0.421570	0.658970	0.090400
C951	C95	0.492540	0.620960	0.155600
H871	H87	0.499700	0.619500	0.249700
C961	C96	0.553200	0.585030	0.084000
H881	H88	0.600800	0.559800	0.129500
C971	C97	0.542640	0.586920	0.944600
C981	C98	0.471940	0.624650	0.877300
H891	H89	0.464700	0.625800	0.783200
C991	C99	0.412370	0.660560	0.949700
H901	H90	0.365400	0.686200	0.904000
C1001	C100	0.669950	0.512430	0.923700
H911	H91	0.695000	0.485800	0.854900
H921	H92	0.642400	0.483600	0.986500
N131	N13	0.137610	0.676770	0.217500
N141	N14	0.050420	0.597200	0.282100
N151	N15	0.239880	0.852040	0.162600
N161	N16	0.313380	0.930760	0.067100
O191	O19	0.091710	0.698650	0.795970
O201	O20	0.006760	0.690030	0.596100
O211	O21	0.744640	0.547610	0.993410
O221	O22	0.364710	0.694380	0.294700
O231	O23	0.289520	0.727400	0.099000
O241	O24	0.598500	0.553310	0.862030
