data_EZIVAM_clean_PM
_symmetry_space_group_name_H-M	'P1'
_cell_length_a	27.627000
_cell_length_b	6.834800
_cell_length_c	28.135000
_cell_angle_alpha	90.000000
_cell_angle_beta	90.000000
_cell_angle_gamma	90.000000
_symmetry_Int_Tables_number 1

loop_
_symmetry_equiv_pos_as_xyz
'x,y,z'

loop_
_atom_site_label
_atom_site_type_symbol
_atom_site_fract_x
_atom_site_fract_y
_atom_site_fract_z
C11	C1	0.565820	0.840000	0.384420
C21	C2	0.611300	0.101700	0.365430
C31	C3	0.585900	0.061000	0.440820
C41	C4	0.566800	0.011000	0.526040
H11	H1	0.553900	0.887200	0.514900
H21	H2	0.541500	0.078200	0.543500
C51	C5	0.601400	0.317300	0.499900
H31	H3	0.576700	0.391100	0.516600
H41	H4	0.610700	0.391200	0.471900
C61	C6	0.524220	0.536900	0.406100
H51	H5	0.524100	0.596400	0.437400
H61	H6	0.545300	0.423400	0.407100
C71	C7	0.541480	0.608100	0.322340
H71	H7	0.562500	0.495200	0.318900
H81	H8	0.553200	0.710400	0.301400
C81	C8	0.646700	0.125800	0.285660
H91	H9	0.619600	0.044900	0.275800
H101	H10	0.675200	0.043300	0.287700
C91	C9	0.672000	0.353800	0.349450
H111	H11	0.702300	0.287700	0.356300
H121	H12	0.660500	0.413000	0.378700
C101	C10	0.655110	0.286200	0.249080
H131	H13	0.663800	0.227500	0.218900
H141	H14	0.625400	0.359800	0.244600
C111	C11	0.680820	0.513800	0.312380
H151	H15	0.651600	0.590800	0.308400
H161	H16	0.706300	0.600300	0.323300
C121	C12	0.695220	0.424100	0.264830
H171	H17	0.724600	0.347000	0.269700
C131	C13	0.489730	0.553100	0.308870
H181	H18	0.469600	0.669300	0.309500
H191	H19	0.489300	0.501100	0.276800
C141	C14	0.469170	0.401600	0.342910
H201	H20	0.488700	0.282000	0.340100
C151	C15	0.473190	0.473700	0.392980
H211	H21	0.463000	0.370600	0.414400
H221	H22	0.451400	0.583600	0.397200
C161	C16	0.609900	0.974500	0.558330
H231	H23	0.599200	0.901400	0.586000
H241	H24	0.633400	0.894900	0.541500
C171	C17	0.634150	0.161700	0.574710
H251	H25	0.610800	0.232000	0.594700
C181	C18	0.644510	0.291700	0.531470
H261	H26	0.655200	0.419200	0.542400
H271	H27	0.670700	0.234300	0.513200
C191	C19	0.705880	0.576000	0.228350
C201	C20	0.417630	0.351300	0.329840
C211	C21	0.679600	0.133000	0.603950
N11	N1	0.588200	0.943700	0.350110
N21	N2	0.564120	0.889100	0.430600
N31	N3	0.611460	0.169600	0.410040
N41	N4	0.542480	0.676400	0.371420
N51	N5	0.581910	0.129800	0.485570
N61	N6	0.636390	0.210600	0.332620
O11	O1	0.744510	0.568400	0.204790
O21	O2	0.675890	0.713400	0.221200
O31	O3	0.382960	0.408900	0.352080
O41	O4	0.413870	0.245300	0.291100
O51	O5	0.701320	0.283200	0.618450
O61	O6	0.695840	0.967800	0.610350
Sr11	Sr1	0.713540	0.864260	0.143400
C221	C22	0.934180	0.160000	0.884420
C231	C23	0.888700	0.898300	0.865430
C241	C24	0.914100	0.939000	0.940820
C251	C25	0.933200	0.989000	0.026040
H281	H28	0.946100	0.112800	0.014900
H291	H29	0.958500	0.921800	0.043500
C261	C26	0.898600	0.682700	0.999900
H301	H30	0.923300	0.608900	0.016600
H311	H31	0.889300	0.608800	0.971900
C271	C27	0.975780	0.463100	0.906100
H321	H32	0.975900	0.403600	0.937400
H331	H33	0.954700	0.576600	0.907100
C281	C28	0.958520	0.391900	0.822340
H341	H34	0.937500	0.504800	0.818900
H351	H35	0.946800	0.289600	0.801400
C291	C29	0.853300	0.874200	0.785660
H361	H36	0.880400	0.955100	0.775800
H371	H37	0.824800	0.956700	0.787700
C301	C30	0.828000	0.646200	0.849450
H381	H38	0.797700	0.712300	0.856300
H391	H39	0.839500	0.587000	0.878700
C311	C31	0.844890	0.713800	0.749080
H401	H40	0.836200	0.772500	0.718900
H411	H41	0.874600	0.640200	0.744600
C321	C32	0.819180	0.486200	0.812380
H421	H42	0.848400	0.409200	0.808400
H431	H43	0.793700	0.399700	0.823300
C331	C33	0.804780	0.575900	0.764830
H441	H44	0.775400	0.653000	0.769700
C341	C34	0.010270	0.446900	0.808870
H451	H45	0.030400	0.330700	0.809500
H461	H46	0.010700	0.498900	0.776800
C351	C35	0.030830	0.598400	0.842910
H471	H47	0.011300	0.718000	0.840100
C361	C36	0.026810	0.526300	0.892980
H481	H48	0.037000	0.629400	0.914400
H491	H49	0.048600	0.416400	0.897200
C371	C37	0.890100	0.025500	0.058330
H501	H50	0.900800	0.098600	0.086000
H511	H51	0.866600	0.105100	0.041500
C381	C38	0.865850	0.838300	0.074710
H521	H52	0.889200	0.768000	0.094700
C391	C39	0.855490	0.708300	0.031470
H531	H53	0.844800	0.580800	0.042400
H541	H54	0.829300	0.765700	0.013200
C401	C40	0.794120	0.424000	0.728350
C411	C41	0.082370	0.648700	0.829840
C421	C42	0.820400	0.867000	0.103950
N71	N7	0.911800	0.056300	0.850110
N81	N8	0.935880	0.110900	0.930600
N91	N9	0.888540	0.830400	0.910040
N101	N10	0.957520	0.323600	0.871420
N111	N11	0.918090	0.870200	0.985570
N121	N12	0.863610	0.789400	0.832620
O71	O7	0.755490	0.431600	0.704790
O81	O8	0.824110	0.286600	0.721200
O91	O9	0.117040	0.591100	0.852080
O101	O10	0.086130	0.754700	0.791100
O111	O11	0.798680	0.716800	0.118450
O121	O12	0.804160	0.032200	0.110350
Sr21	Sr2	0.786450	0.135740	0.643400
C431	C43	0.434180	0.340000	0.115580
C441	C44	0.388700	0.601700	0.134570
C451	C45	0.414100	0.561000	0.059180
C461	C46	0.433200	0.511000	0.973960
H551	H55	0.446100	0.387200	0.985100
H561	H56	0.458500	0.578200	0.956500
C471	C47	0.398600	0.817300	0.000100
H571	H57	0.423300	0.891100	0.983400
H581	H58	0.389300	0.891200	0.028100
C481	C48	0.475780	0.036900	0.093900
H591	H59	0.475900	0.096400	0.062600
H601	H60	0.454700	0.923400	0.092900
C491	C49	0.458520	0.108100	0.177660
H611	H61	0.437500	0.995200	0.181100
H621	H62	0.446800	0.210400	0.198600
C501	C50	0.353300	0.625800	0.214340
H631	H63	0.380400	0.544900	0.224200
H641	H64	0.324800	0.543300	0.212300
C511	C51	0.328000	0.853800	0.150550
H651	H65	0.297700	0.787700	0.143700
H661	H66	0.339500	0.913000	0.121300
C521	C52	0.344890	0.786200	0.250920
H671	H67	0.336200	0.727500	0.281100
H681	H68	0.374600	0.859800	0.255400
C531	C53	0.319180	0.013800	0.187620
H691	H69	0.348400	0.090800	0.191600
H701	H70	0.293700	0.100300	0.176700
C541	C54	0.304780	0.924100	0.235170
H711	H71	0.275400	0.847000	0.230300
C551	C55	0.510270	0.053100	0.191130
H721	H72	0.530400	0.169300	0.190500
H731	H73	0.510700	0.001100	0.223200
C561	C56	0.530830	0.901600	0.157090
H741	H74	0.511300	0.782000	0.159900
C571	C57	0.526810	0.973700	0.107020
H751	H75	0.537000	0.870600	0.085600
H761	H76	0.548600	0.083600	0.102800
C581	C58	0.390100	0.474500	0.941670
H771	H77	0.400800	0.401400	0.914000
H781	H78	0.366600	0.394900	0.958500
C591	C59	0.365850	0.661700	0.925290
H791	H79	0.389200	0.732000	0.905300
C601	C60	0.355490	0.791700	0.968530
H801	H80	0.344800	0.919200	0.957600
H811	H81	0.329300	0.734300	0.986800
C611	C61	0.294120	0.076000	0.271650
C621	C62	0.582370	0.851300	0.170160
C631	C63	0.320400	0.633000	0.896050
N131	N13	0.411800	0.443700	0.149890
N141	N14	0.435880	0.389100	0.069400
N151	N15	0.388540	0.669600	0.089960
N161	N16	0.457520	0.176400	0.128580
N171	N17	0.418090	0.629800	0.014430
N181	N18	0.363610	0.710600	0.167380
O131	O13	0.255490	0.068400	0.295210
O141	O14	0.324110	0.213400	0.278800
O151	O15	0.617040	0.908900	0.147920
O161	O16	0.586130	0.745300	0.208900
O171	O17	0.298680	0.783200	0.881550
O181	O18	0.304160	0.467800	0.889650
Sr31	Sr3	0.286460	0.364260	0.356600
C641	C64	0.065820	0.660000	0.615580
C651	C65	0.111300	0.398300	0.634570
C661	C66	0.085900	0.439000	0.559180
C671	C67	0.066800	0.489000	0.473960
H821	H82	0.053900	0.612800	0.485100
H831	H83	0.041500	0.421800	0.456500
C681	C68	0.101400	0.182700	0.500100
H841	H84	0.076700	0.108900	0.483400
H851	H85	0.110700	0.108800	0.528100
C691	C69	0.024220	0.963100	0.593900
H861	H86	0.024100	0.903600	0.562600
H871	H87	0.045300	0.076600	0.592900
C701	C70	0.041480	0.891900	0.677660
H881	H88	0.062500	0.004800	0.681100
H891	H89	0.053200	0.789600	0.698600
C711	C71	0.146700	0.374200	0.714340
H901	H90	0.119600	0.455100	0.724200
H911	H91	0.175200	0.456700	0.712300
C721	C72	0.172000	0.146200	0.650550
H921	H92	0.202300	0.212300	0.643700
H931	H93	0.160500	0.087000	0.621300
C731	C73	0.155110	0.213800	0.750920
H941	H94	0.163800	0.272500	0.781100
H951	H95	0.125400	0.140200	0.755400
C741	C74	0.180820	0.986200	0.687620
H961	H96	0.151600	0.909200	0.691600
H971	H97	0.206300	0.899700	0.676700
C751	C75	0.195220	0.075900	0.735170
H981	H98	0.224600	0.153000	0.730300
C761	C76	0.989730	0.946900	0.691130
H991	H99	0.969600	0.830700	0.690500
H1001	H100	0.989300	0.998900	0.723200
C771	C77	0.969170	0.098400	0.657090
H1011	H101	0.988700	0.218000	0.659900
C781	C78	0.973190	0.026300	0.607020
H1021	H102	0.963000	0.129400	0.585600
H1031	H103	0.951400	0.916400	0.602800
C791	C79	0.109900	0.525500	0.441670
H1041	H104	0.099200	0.598600	0.414000
H1051	H105	0.133400	0.605100	0.458500
C801	C80	0.134150	0.338300	0.425290
H1061	H106	0.110800	0.268000	0.405300
C811	C81	0.144510	0.208300	0.468530
H1071	H107	0.155200	0.080800	0.457600
H1081	H108	0.170700	0.265700	0.486800
C821	C82	0.205880	0.924000	0.771650
C831	C83	0.917630	0.148700	0.670160
C841	C84	0.179600	0.367000	0.396050
N191	N19	0.088200	0.556300	0.649890
N201	N20	0.064120	0.610900	0.569400
N211	N21	0.111460	0.330400	0.589960
N221	N22	0.042480	0.823600	0.628580
N231	N23	0.081910	0.370200	0.514430
N241	N24	0.136390	0.289400	0.667380
O191	O19	0.244510	0.931600	0.795210
O201	O20	0.175890	0.786600	0.778800
O211	O21	0.882960	0.091100	0.647920
O221	O22	0.913870	0.254700	0.708900
O231	O23	0.201320	0.216800	0.381550
O241	O24	0.195840	0.532200	0.389650
Sr41	Sr4	0.213540	0.635740	0.856600
C851	C85	0.434180	0.160000	0.615580
C861	C86	0.388700	0.898300	0.634570
C871	C87	0.414100	0.939000	0.559180
C881	C88	0.433200	0.989000	0.473960
H1091	H109	0.446100	0.112800	0.485100
H1101	H110	0.458500	0.921800	0.456500
C891	C89	0.398600	0.682700	0.500100
H1111	H111	0.423300	0.608900	0.483400
H1121	H112	0.389300	0.608800	0.528100
C901	C90	0.475780	0.463100	0.593900
H1131	H113	0.475900	0.403600	0.562600
H1141	H114	0.454700	0.576600	0.592900
C911	C91	0.458520	0.391900	0.677660
H1151	H115	0.437500	0.504800	0.681100
H1161	H116	0.446800	0.289600	0.698600
C921	C92	0.353300	0.874200	0.714340
H1171	H117	0.380400	0.955100	0.724200
H1181	H118	0.324800	0.956700	0.712300
C931	C93	0.328000	0.646200	0.650550
H1191	H119	0.297700	0.712300	0.643700
H1201	H120	0.339500	0.587000	0.621300
C941	C94	0.344890	0.713800	0.750920
H1211	H121	0.336200	0.772500	0.781100
H1221	H122	0.374600	0.640200	0.755400
C951	C95	0.319180	0.486200	0.687620
H1231	H123	0.348400	0.409200	0.691600
H1241	H124	0.293700	0.399700	0.676700
C961	C96	0.304780	0.575900	0.735170
H1251	H125	0.275400	0.653000	0.730300
C971	C97	0.510270	0.446900	0.691130
H1261	H126	0.530400	0.330700	0.690500
H1271	H127	0.510700	0.498900	0.723200
C981	C98	0.530830	0.598400	0.657090
H1281	H128	0.511300	0.718000	0.659900
C991	C99	0.526810	0.526300	0.607020
H1291	H129	0.537000	0.629400	0.585600
H1301	H130	0.548600	0.416400	0.602800
C1001	C100	0.390100	0.025500	0.441670
H1311	H131	0.400800	0.098600	0.414000
H1321	H132	0.366600	0.105100	0.458500
C1011	C101	0.365850	0.838300	0.425290
H1331	H133	0.389200	0.768000	0.405300
C1021	C102	0.355490	0.708300	0.468530
H1341	H134	0.344800	0.580800	0.457600
H1351	H135	0.329300	0.765700	0.486800
C1031	C103	0.294120	0.424000	0.771650
C1041	C104	0.582370	0.648700	0.670160
C1051	C105	0.320400	0.867000	0.396050
N251	N25	0.411800	0.056300	0.649890
N261	N26	0.435880	0.110900	0.569400
N271	N27	0.388540	0.830400	0.589960
N281	N28	0.457520	0.323600	0.628580
N291	N29	0.418090	0.870200	0.514430
N301	N30	0.363610	0.789400	0.667380
O251	O25	0.255490	0.431600	0.795210
O261	O26	0.324110	0.286600	0.778800
O271	O27	0.617040	0.591100	0.647920
O281	O28	0.586130	0.754700	0.708900
O291	O29	0.298680	0.716800	0.381550
O301	O30	0.304160	0.032200	0.389650
Sr51	Sr5	0.286460	0.135740	0.856600
C1061	C106	0.065820	0.840000	0.115580
C1071	C107	0.111300	0.101700	0.134570
C1081	C108	0.085900	0.061000	0.059180
C1091	C109	0.066800	0.011000	0.973960
H1361	H136	0.053900	0.887200	0.985100
H1371	H137	0.041500	0.078200	0.956500
C1101	C110	0.101400	0.317300	0.000100
H1381	H138	0.076700	0.391100	0.983400
H1391	H139	0.110700	0.391200	0.028100
C1111	C111	0.024220	0.536900	0.093900
H1401	H140	0.024100	0.596400	0.062600
H1411	H141	0.045300	0.423400	0.092900
C1121	C112	0.041480	0.608100	0.177660
H1421	H142	0.062500	0.495200	0.181100
H1431	H143	0.053200	0.710400	0.198600
C1131	C113	0.146700	0.125800	0.214340
H1441	H144	0.119600	0.044900	0.224200
H1451	H145	0.175200	0.043300	0.212300
C1141	C114	0.172000	0.353800	0.150550
H1461	H146	0.202300	0.287700	0.143700
H1471	H147	0.160500	0.413000	0.121300
C1151	C115	0.155110	0.286200	0.250920
H1481	H148	0.163800	0.227500	0.281100
H1491	H149	0.125400	0.359800	0.255400
C1161	C116	0.180820	0.513800	0.187620
H1501	H150	0.151600	0.590800	0.191600
H1511	H151	0.206300	0.600300	0.176700
C1171	C117	0.195220	0.424100	0.235170
H1521	H152	0.224600	0.347000	0.230300
C1181	C118	0.989730	0.553100	0.191130
H1531	H153	0.969600	0.669300	0.190500
H1541	H154	0.989300	0.501100	0.223200
C1191	C119	0.969170	0.401600	0.157090
H1551	H155	0.988700	0.282000	0.159900
C1201	C120	0.973190	0.473700	0.107020
H1561	H156	0.963000	0.370600	0.085600
H1571	H157	0.951400	0.583600	0.102800
C1211	C121	0.109900	0.974500	0.941670
H1581	H158	0.099200	0.901400	0.914000
H1591	H159	0.133400	0.894900	0.958500
C1221	C122	0.134150	0.161700	0.925290
H1601	H160	0.110800	0.232000	0.905300
C1231	C123	0.144510	0.291700	0.968530
H1611	H161	0.155200	0.419200	0.957600
H1621	H162	0.170700	0.234300	0.986800
C1241	C124	0.205880	0.576000	0.271650
C1251	C125	0.917630	0.351300	0.170160
C1261	C126	0.179600	0.133000	0.896050
N311	N31	0.088200	0.943700	0.149890
N321	N32	0.064120	0.889100	0.069400
N331	N33	0.111460	0.169600	0.089960
N341	N34	0.042480	0.676400	0.128580
N351	N35	0.081910	0.129800	0.014430
N361	N36	0.136390	0.210600	0.167380
O311	O31	0.244510	0.568400	0.295210
O321	O32	0.175890	0.713400	0.278800
O331	O33	0.882960	0.408900	0.147920
O341	O34	0.913870	0.245300	0.208900
O351	O35	0.201320	0.283200	0.881550
O361	O36	0.195840	0.967800	0.889650
Sr61	Sr6	0.213540	0.864260	0.356600
C1271	C127	0.565820	0.660000	0.884420
C1281	C128	0.611300	0.398300	0.865430
C1291	C129	0.585900	0.439000	0.940820
C1301	C130	0.566800	0.489000	0.026040
H1631	H163	0.553900	0.612800	0.014900
H1641	H164	0.541500	0.421800	0.043500
C1311	C131	0.601400	0.182700	0.999900
H1651	H165	0.576700	0.108900	0.016600
H1661	H166	0.610700	0.108800	0.971900
C1321	C132	0.524220	0.963100	0.906100
H1671	H167	0.524100	0.903600	0.937400
H1681	H168	0.545300	0.076600	0.907100
C1331	C133	0.541480	0.891900	0.822340
H1691	H169	0.562500	0.004800	0.818900
H1701	H170	0.553200	0.789600	0.801400
C1341	C134	0.646700	0.374200	0.785660
H1711	H171	0.619600	0.455100	0.775800
H1721	H172	0.675200	0.456700	0.787700
C1351	C135	0.672000	0.146200	0.849450
H1731	H173	0.702300	0.212300	0.856300
H1741	H174	0.660500	0.087000	0.878700
C1361	C136	0.655110	0.213800	0.749080
H1751	H175	0.663800	0.272500	0.718900
H1761	H176	0.625400	0.140200	0.744600
C1371	C137	0.680820	0.986200	0.812380
H1771	H177	0.651600	0.909200	0.808400
H1781	H178	0.706300	0.899700	0.823300
C1381	C138	0.695220	0.075900	0.764830
H1791	H179	0.724600	0.153000	0.769700
C1391	C139	0.489730	0.946900	0.808870
H1801	H180	0.469600	0.830700	0.809500
H1811	H181	0.489300	0.998900	0.776800
C1401	C140	0.469170	0.098400	0.842910
H1821	H182	0.488700	0.218000	0.840100
C1411	C141	0.473190	0.026300	0.892980
H1831	H183	0.463000	0.129400	0.914400
H1841	H184	0.451400	0.916400	0.897200
C1421	C142	0.609900	0.525500	0.058330
H1851	H185	0.599200	0.598600	0.086000
H1861	H186	0.633400	0.605100	0.041500
C1431	C143	0.634150	0.338300	0.074710
H1871	H187	0.610800	0.268000	0.094700
C1441	C144	0.644510	0.208300	0.031470
H1881	H188	0.655200	0.080800	0.042400
H1891	H189	0.670700	0.265700	0.013200
C1451	C145	0.705880	0.924000	0.728350
C1461	C146	0.417630	0.148700	0.829840
C1471	C147	0.679600	0.367000	0.103950
N371	N37	0.588200	0.556300	0.850110
N381	N38	0.564120	0.610900	0.930600
N391	N39	0.611460	0.330400	0.910040
N401	N40	0.542480	0.823600	0.871420
N411	N41	0.581910	0.370200	0.985570
N421	N42	0.636390	0.289400	0.832620
O371	O37	0.744510	0.931600	0.704790
O381	O38	0.675890	0.786600	0.721200
O391	O39	0.382960	0.091100	0.852080
O401	O40	0.413870	0.254700	0.791100
O411	O41	0.701320	0.216800	0.118450
O421	O42	0.695840	0.532200	0.110350
Sr71	Sr7	0.713540	0.635740	0.643400
C1481	C148	0.934180	0.340000	0.384420
C1491	C149	0.888700	0.601700	0.365430
C1501	C150	0.914100	0.561000	0.440820
C1511	C151	0.933200	0.511000	0.526040
H1901	H190	0.946100	0.387200	0.514900
H1911	H191	0.958500	0.578200	0.543500
C1521	C152	0.898600	0.817300	0.499900
H1921	H192	0.923300	0.891100	0.516600
H1931	H193	0.889300	0.891200	0.471900
C1531	C153	0.975780	0.036900	0.406100
H1941	H194	0.975900	0.096400	0.437400
H1951	H195	0.954700	0.923400	0.407100
C1541	C154	0.958520	0.108100	0.322340
H1961	H196	0.937500	0.995200	0.318900
H1971	H197	0.946800	0.210400	0.301400
C1551	C155	0.853300	0.625800	0.285660
H1981	H198	0.880400	0.544900	0.275800
H1991	H199	0.824800	0.543300	0.287700
C1561	C156	0.828000	0.853800	0.349450
H2001	H200	0.797700	0.787700	0.356300
H2011	H201	0.839500	0.913000	0.378700
C1571	C157	0.844890	0.786200	0.249080
H2021	H202	0.836200	0.727500	0.218900
H2031	H203	0.874600	0.859800	0.244600
C1581	C158	0.819180	0.013800	0.312380
H2041	H204	0.848400	0.090800	0.308400
H2051	H205	0.793700	0.100300	0.323300
C1591	C159	0.804780	0.924100	0.264830
H2061	H206	0.775400	0.847000	0.269700
C1601	C160	0.010270	0.053100	0.308870
H2071	H207	0.030400	0.169300	0.309500
H2081	H208	0.010700	0.001100	0.276800
C1611	C161	0.030830	0.901600	0.342910
H2091	H209	0.011300	0.782000	0.340100
C1621	C162	0.026810	0.973700	0.392980
H2101	H210	0.037000	0.870600	0.414400
H2111	H211	0.048600	0.083600	0.397200
C1631	C163	0.890100	0.474500	0.558330
H2121	H212	0.900800	0.401400	0.586000
H2131	H213	0.866600	0.394900	0.541500
C1641	C164	0.865850	0.661700	0.574710
H2141	H214	0.889200	0.732000	0.594700
C1651	C165	0.855490	0.791700	0.531470
H2151	H215	0.844800	0.919200	0.542400
H2161	H216	0.829300	0.734300	0.513200
C1661	C166	0.794120	0.076000	0.228350
C1671	C167	0.082370	0.851300	0.329840
C1681	C168	0.820400	0.633000	0.603950
N431	N43	0.911800	0.443700	0.350110
N441	N44	0.935880	0.389100	0.430600
N451	N45	0.888540	0.669600	0.410040
N461	N46	0.957520	0.176400	0.371420
N471	N47	0.918090	0.629800	0.485570
N481	N48	0.863610	0.710600	0.332620
O431	O43	0.755490	0.068400	0.204790
O441	O44	0.824110	0.213400	0.221200
O451	O45	0.117040	0.908900	0.352080
O461	O46	0.086130	0.745300	0.291100
O471	O47	0.798680	0.783200	0.618450
O481	O48	0.804160	0.467800	0.610350
Sr81	Sr8	0.786450	0.364260	0.143400
