data_EZOFOP_clean_PM
_symmetry_space_group_name_H-M	'P1'
_cell_length_a	26.816000
_cell_length_b	26.816000
_cell_length_c	26.816000
_cell_angle_alpha	90.000000
_cell_angle_beta	90.000000
_cell_angle_gamma	90.000000
_symmetry_Int_Tables_number 1

loop_
_symmetry_equiv_pos_as_xyz
'x,y,z'

loop_
_atom_site_label
_atom_site_type_symbol
_atom_site_fract_x
_atom_site_fract_y
_atom_site_fract_z
H11	H1	0.593400	0.029200	0.304500
O11	O1	0.554180	0.052560	0.127510
O21	O2	0.551000	0.050800	0.210400
C11	C1	0.570000	0.064000	0.170200
C21	C2	0.750800	0.177700	0.197500
C31	C3	0.762400	0.218900	0.167200
H21	H2	0.742600	0.225800	0.139500
C41	C4	0.615500	0.094900	0.174900
C51	C5	0.642100	0.112800	0.133800
H31	H3	0.630700	0.106300	0.101700
C61	C6	0.685200	0.140000	0.140900
H41	H4	0.701800	0.153000	0.113300
C71	C7	0.704400	0.148600	0.188400
C81	C8	0.677000	0.131600	0.228800
H51	H5	0.688500	0.138000	0.260900
C91	C9	0.632700	0.105400	0.222500
H61	H6	0.614700	0.094800	0.250200
H71	H7	0.406600	0.970800	0.304500
O31	O3	0.445820	0.947440	0.127510
O41	O4	0.449000	0.949200	0.210400
C101	C10	0.430000	0.936000	0.170200
C111	C11	0.249200	0.822300	0.197500
C121	C12	0.237600	0.781100	0.167200
H81	H8	0.257400	0.774200	0.139500
C131	C13	0.384500	0.905100	0.174900
C141	C14	0.357900	0.887200	0.133800
H91	H9	0.369300	0.893700	0.101700
C151	C15	0.314800	0.860000	0.140900
H101	H10	0.298200	0.847000	0.113300
C161	C16	0.295600	0.851400	0.188400
C171	C17	0.323000	0.868400	0.228800
H111	H11	0.311500	0.862000	0.260900
C181	C18	0.367300	0.894600	0.222500
H121	H12	0.385300	0.905200	0.250200
H131	H13	0.406600	0.029200	0.695500
O51	O5	0.445820	0.052560	0.872490
O61	O6	0.449000	0.050800	0.789600
C191	C19	0.430000	0.064000	0.829800
C201	C20	0.249200	0.177700	0.802500
C211	C21	0.237600	0.218900	0.832800
H141	H14	0.257400	0.225800	0.860500
C221	C22	0.384500	0.094900	0.825100
C231	C23	0.357900	0.112800	0.866200
H151	H15	0.369300	0.106300	0.898300
C241	C24	0.314800	0.140000	0.859100
H161	H16	0.298200	0.153000	0.886700
C251	C25	0.295600	0.148600	0.811600
C261	C26	0.323000	0.131600	0.771200
H171	H17	0.311500	0.138000	0.739100
C271	C27	0.367300	0.105400	0.777500
H181	H18	0.385300	0.094800	0.749800
H191	H19	0.593400	0.970800	0.695500
O71	O7	0.554180	0.947440	0.872490
O81	O8	0.551000	0.949200	0.789600
C281	C28	0.570000	0.936000	0.829800
C291	C29	0.750800	0.822300	0.802500
C301	C30	0.762400	0.781100	0.832800
H201	H20	0.742600	0.774200	0.860500
C311	C31	0.615500	0.905100	0.825100
C321	C32	0.642100	0.887200	0.866200
H211	H21	0.630700	0.893700	0.898300
C331	C33	0.685200	0.860000	0.859100
H221	H22	0.701800	0.847000	0.886700
C341	C34	0.704400	0.851400	0.811600
C351	C35	0.677000	0.868400	0.771200
H231	H23	0.688500	0.862000	0.739100
C361	C36	0.632700	0.894600	0.777500
H241	H24	0.614700	0.905200	0.749800
H251	H25	0.304500	0.593400	0.029200
O91	O9	0.127510	0.554180	0.052560
O101	O10	0.210400	0.551000	0.050800
C371	C37	0.170200	0.570000	0.064000
C381	C38	0.197500	0.750800	0.177700
C391	C39	0.167200	0.762400	0.218900
H261	H26	0.139500	0.742600	0.225800
C401	C40	0.174900	0.615500	0.094900
C411	C41	0.133800	0.642100	0.112800
H271	H27	0.101700	0.630700	0.106300
C421	C42	0.140900	0.685200	0.140000
H281	H28	0.113300	0.701800	0.153000
C431	C43	0.188400	0.704400	0.148600
C441	C44	0.228800	0.677000	0.131600
H291	H29	0.260900	0.688500	0.138000
C451	C45	0.222500	0.632700	0.105400
H301	H30	0.250200	0.614700	0.094800
H311	H31	0.304500	0.406600	0.970800
O111	O11	0.127510	0.445820	0.947440
O121	O12	0.210400	0.449000	0.949200
C461	C46	0.170200	0.430000	0.936000
C471	C47	0.197500	0.249200	0.822300
C481	C48	0.167200	0.237600	0.781100
H321	H32	0.139500	0.257400	0.774200
C491	C49	0.174900	0.384500	0.905100
C501	C50	0.133800	0.357900	0.887200
H331	H33	0.101700	0.369300	0.893700
C511	C51	0.140900	0.314800	0.860000
H341	H34	0.113300	0.298200	0.847000
C521	C52	0.188400	0.295600	0.851400
C531	C53	0.228800	0.323000	0.868400
H351	H35	0.260900	0.311500	0.862000
C541	C54	0.222500	0.367300	0.894600
H361	H36	0.250200	0.385300	0.905200
H371	H37	0.695500	0.406600	0.029200
O131	O13	0.872490	0.445820	0.052560
O141	O14	0.789600	0.449000	0.050800
C551	C55	0.829800	0.430000	0.064000
C561	C56	0.802500	0.249200	0.177700
C571	C57	0.832800	0.237600	0.218900
H381	H38	0.860500	0.257400	0.225800
C581	C58	0.825100	0.384500	0.094900
C591	C59	0.866200	0.357900	0.112800
H391	H39	0.898300	0.369300	0.106300
C601	C60	0.859100	0.314800	0.140000
H401	H40	0.886700	0.298200	0.153000
C611	C61	0.811600	0.295600	0.148600
C621	C62	0.771200	0.323000	0.131600
H411	H41	0.739100	0.311500	0.138000
C631	C63	0.777500	0.367300	0.105400
H421	H42	0.749800	0.385300	0.094800
H431	H43	0.695500	0.593400	0.970800
O151	O15	0.872490	0.554180	0.947440
O161	O16	0.789600	0.551000	0.949200
C641	C64	0.829800	0.570000	0.936000
C651	C65	0.802500	0.750800	0.822300
C661	C66	0.832800	0.762400	0.781100
H441	H44	0.860500	0.742600	0.774200
C671	C67	0.825100	0.615500	0.905100
C681	C68	0.866200	0.642100	0.887200
H451	H45	0.898300	0.630700	0.893700
C691	C69	0.859100	0.685200	0.860000
H461	H46	0.886700	0.701800	0.847000
C701	C70	0.811600	0.704400	0.851400
C711	C71	0.771200	0.677000	0.868400
H471	H47	0.739100	0.688500	0.862000
C721	C72	0.777500	0.632700	0.894600
H481	H48	0.749800	0.614700	0.905200
H491	H49	0.029200	0.304500	0.593400
O171	O17	0.052560	0.127510	0.554180
O181	O18	0.050800	0.210400	0.551000
C731	C73	0.064000	0.170200	0.570000
C741	C74	0.177700	0.197500	0.750800
C751	C75	0.218900	0.167200	0.762400
H501	H50	0.225800	0.139500	0.742600
C761	C76	0.094900	0.174900	0.615500
C771	C77	0.112800	0.133800	0.642100
H511	H51	0.106300	0.101700	0.630700
C781	C78	0.140000	0.140900	0.685200
H521	H52	0.153000	0.113300	0.701800
C791	C79	0.148600	0.188400	0.704400
C801	C80	0.131600	0.228800	0.677000
H531	H53	0.138000	0.260900	0.688500
C811	C81	0.105400	0.222500	0.632700
H541	H54	0.094800	0.250200	0.614700
H551	H55	0.970800	0.304500	0.406600
O191	O19	0.947440	0.127510	0.445820
O201	O20	0.949200	0.210400	0.449000
C821	C82	0.936000	0.170200	0.430000
C831	C83	0.822300	0.197500	0.249200
C841	C84	0.781100	0.167200	0.237600
H561	H56	0.774200	0.139500	0.257400
C851	C85	0.905100	0.174900	0.384500
C861	C86	0.887200	0.133800	0.357900
H571	H57	0.893700	0.101700	0.369300
C871	C87	0.860000	0.140900	0.314800
H581	H58	0.847000	0.113300	0.298200
C881	C88	0.851400	0.188400	0.295600
C891	C89	0.868400	0.228800	0.323000
H591	H59	0.862000	0.260900	0.311500
C901	C90	0.894600	0.222500	0.367300
H601	H60	0.905200	0.250200	0.385300
H611	H61	0.029200	0.695500	0.406600
O211	O21	0.052560	0.872490	0.445820
O221	O22	0.050800	0.789600	0.449000
C911	C91	0.064000	0.829800	0.430000
C921	C92	0.177700	0.802500	0.249200
C931	C93	0.218900	0.832800	0.237600
H621	H62	0.225800	0.860500	0.257400
C941	C94	0.094900	0.825100	0.384500
C951	C95	0.112800	0.866200	0.357900
H631	H63	0.106300	0.898300	0.369300
C961	C96	0.140000	0.859100	0.314800
H641	H64	0.153000	0.886700	0.298200
C971	C97	0.148600	0.811600	0.295600
C981	C98	0.131600	0.771200	0.323000
H651	H65	0.138000	0.739100	0.311500
C991	C99	0.105400	0.777500	0.367300
H661	H66	0.094800	0.749800	0.385300
H671	H67	0.970800	0.695500	0.593400
O231	O23	0.947440	0.872490	0.554180
O241	O24	0.949200	0.789600	0.551000
C1001	C100	0.936000	0.829800	0.570000
C1011	C101	0.822300	0.802500	0.750800
C1021	C102	0.781100	0.832800	0.762400
H681	H68	0.774200	0.860500	0.742600
C1031	C103	0.905100	0.825100	0.615500
C1041	C104	0.887200	0.866200	0.642100
H691	H69	0.893700	0.898300	0.630700
C1051	C105	0.860000	0.859100	0.685200
H701	H70	0.847000	0.886700	0.701800
C1061	C106	0.851400	0.811600	0.704400
C1071	C107	0.868400	0.771200	0.677000
H711	H71	0.862000	0.739100	0.688500
C1081	C108	0.894600	0.777500	0.632700
H721	H72	0.905200	0.749800	0.614700
H731	H73	0.406600	0.970800	0.695500
O251	O25	0.445820	0.947440	0.872490
O261	O26	0.449000	0.949200	0.789600
C1091	C109	0.430000	0.936000	0.829800
C1101	C110	0.249200	0.822300	0.802500
C1111	C111	0.237600	0.781100	0.832800
H741	H74	0.257400	0.774200	0.860500
C1121	C112	0.384500	0.905100	0.825100
C1131	C113	0.357900	0.887200	0.866200
H751	H75	0.369300	0.893700	0.898300
C1141	C114	0.314800	0.860000	0.859100
H761	H76	0.298200	0.847000	0.886700
C1151	C115	0.295600	0.851400	0.811600
C1161	C116	0.323000	0.868400	0.771200
H771	H77	0.311500	0.862000	0.739100
C1171	C117	0.367300	0.894600	0.777500
H781	H78	0.385300	0.905200	0.749800
H791	H79	0.593400	0.029200	0.695500
O271	O27	0.554180	0.052560	0.872490
O281	O28	0.551000	0.050800	0.789600
C1181	C118	0.570000	0.064000	0.829800
C1191	C119	0.750800	0.177700	0.802500
C1201	C120	0.762400	0.218900	0.832800
H801	H80	0.742600	0.225800	0.860500
C1211	C121	0.615500	0.094900	0.825100
C1221	C122	0.642100	0.112800	0.866200
H811	H81	0.630700	0.106300	0.898300
C1231	C123	0.685200	0.140000	0.859100
H821	H82	0.701800	0.153000	0.886700
C1241	C124	0.704400	0.148600	0.811600
C1251	C125	0.677000	0.131600	0.771200
H831	H83	0.688500	0.138000	0.739100
C1261	C126	0.632700	0.105400	0.777500
H841	H84	0.614700	0.094800	0.749800
H851	H85	0.593400	0.970800	0.304500
O291	O29	0.554180	0.947440	0.127510
O301	O30	0.551000	0.949200	0.210400
C1271	C127	0.570000	0.936000	0.170200
C1281	C128	0.750800	0.822300	0.197500
C1291	C129	0.762400	0.781100	0.167200
H861	H86	0.742600	0.774200	0.139500
C1301	C130	0.615500	0.905100	0.174900
C1311	C131	0.642100	0.887200	0.133800
H871	H87	0.630700	0.893700	0.101700
C1321	C132	0.685200	0.860000	0.140900
H881	H88	0.701800	0.847000	0.113300
C1331	C133	0.704400	0.851400	0.188400
C1341	C134	0.677000	0.868400	0.228800
H891	H89	0.688500	0.862000	0.260900
C1351	C135	0.632700	0.894600	0.222500
H901	H90	0.614700	0.905200	0.250200
H911	H91	0.406600	0.029200	0.304500
O311	O31	0.445820	0.052560	0.127510
O321	O32	0.449000	0.050800	0.210400
C1361	C136	0.430000	0.064000	0.170200
C1371	C137	0.249200	0.177700	0.197500
C1381	C138	0.237600	0.218900	0.167200
H921	H92	0.257400	0.225800	0.139500
C1391	C139	0.384500	0.094900	0.174900
C1401	C140	0.357900	0.112800	0.133800
H931	H93	0.369300	0.106300	0.101700
C1411	C141	0.314800	0.140000	0.140900
H941	H94	0.298200	0.153000	0.113300
C1421	C142	0.295600	0.148600	0.188400
C1431	C143	0.323000	0.131600	0.228800
H951	H95	0.311500	0.138000	0.260900
C1441	C144	0.367300	0.105400	0.222500
H961	H96	0.385300	0.094800	0.250200
H971	H97	0.695500	0.406600	0.970800
O331	O33	0.872490	0.445820	0.947440
O341	O34	0.789600	0.449000	0.949200
C1451	C145	0.829800	0.430000	0.936000
C1461	C146	0.802500	0.249200	0.822300
C1471	C147	0.832800	0.237600	0.781100
H981	H98	0.860500	0.257400	0.774200
C1481	C148	0.825100	0.384500	0.905100
C1491	C149	0.866200	0.357900	0.887200
H991	H99	0.898300	0.369300	0.893700
C1501	C150	0.859100	0.314800	0.860000
H1001	H100	0.886700	0.298200	0.847000
C1511	C151	0.811600	0.295600	0.851400
C1521	C152	0.771200	0.323000	0.868400
H1011	H101	0.739100	0.311500	0.862000
C1531	C153	0.777500	0.367300	0.894600
H1021	H102	0.749800	0.385300	0.905200
H1031	H103	0.695500	0.593400	0.029200
O351	O35	0.872490	0.554180	0.052560
O361	O36	0.789600	0.551000	0.050800
C1541	C154	0.829800	0.570000	0.064000
C1551	C155	0.802500	0.750800	0.177700
C1561	C156	0.832800	0.762400	0.218900
H1041	H104	0.860500	0.742600	0.225800
C1571	C157	0.825100	0.615500	0.094900
C1581	C158	0.866200	0.642100	0.112800
H1051	H105	0.898300	0.630700	0.106300
C1591	C159	0.859100	0.685200	0.140000
H1061	H106	0.886700	0.701800	0.153000
C1601	C160	0.811600	0.704400	0.148600
C1611	C161	0.771200	0.677000	0.131600
H1071	H107	0.739100	0.688500	0.138000
C1621	C162	0.777500	0.632700	0.105400
H1081	H108	0.749800	0.614700	0.094800
H1091	H109	0.304500	0.593400	0.970800
O371	O37	0.127510	0.554180	0.947440
O381	O38	0.210400	0.551000	0.949200
C1631	C163	0.170200	0.570000	0.936000
C1641	C164	0.197500	0.750800	0.822300
C1651	C165	0.167200	0.762400	0.781100
H1101	H110	0.139500	0.742600	0.774200
C1661	C166	0.174900	0.615500	0.905100
C1671	C167	0.133800	0.642100	0.887200
H1111	H111	0.101700	0.630700	0.893700
C1681	C168	0.140900	0.685200	0.860000
H1121	H112	0.113300	0.701800	0.847000
C1691	C169	0.188400	0.704400	0.851400
C1701	C170	0.228800	0.677000	0.868400
H1131	H113	0.260900	0.688500	0.862000
C1711	C171	0.222500	0.632700	0.894600
H1141	H114	0.250200	0.614700	0.905200
H1151	H115	0.304500	0.406600	0.029200
O391	O39	0.127510	0.445820	0.052560
O401	O40	0.210400	0.449000	0.050800
C1721	C172	0.170200	0.430000	0.064000
C1731	C173	0.197500	0.249200	0.177700
C1741	C174	0.167200	0.237600	0.218900
H1161	H116	0.139500	0.257400	0.225800
C1751	C175	0.174900	0.384500	0.094900
C1761	C176	0.133800	0.357900	0.112800
H1171	H117	0.101700	0.369300	0.106300
C1771	C177	0.140900	0.314800	0.140000
H1181	H118	0.113300	0.298200	0.153000
C1781	C178	0.188400	0.295600	0.148600
C1791	C179	0.228800	0.323000	0.131600
H1191	H119	0.260900	0.311500	0.138000
C1801	C180	0.222500	0.367300	0.105400
H1201	H120	0.250200	0.385300	0.094800
H1211	H121	0.970800	0.695500	0.406600
O411	O41	0.947440	0.872490	0.445820
O421	O42	0.949200	0.789600	0.449000
C1811	C181	0.936000	0.829800	0.430000
C1821	C182	0.822300	0.802500	0.249200
C1831	C183	0.781100	0.832800	0.237600
H1221	H122	0.774200	0.860500	0.257400
C1841	C184	0.905100	0.825100	0.384500
C1851	C185	0.887200	0.866200	0.357900
H1231	H123	0.893700	0.898300	0.369300
C1861	C186	0.860000	0.859100	0.314800
H1241	H124	0.847000	0.886700	0.298200
C1871	C187	0.851400	0.811600	0.295600
C1881	C188	0.868400	0.771200	0.323000
H1251	H125	0.862000	0.739100	0.311500
C1891	C189	0.894600	0.777500	0.367300
H1261	H126	0.905200	0.749800	0.385300
H1271	H127	0.029200	0.695500	0.593400
O431	O43	0.052560	0.872490	0.554180
O441	O44	0.050800	0.789600	0.551000
C1901	C190	0.064000	0.829800	0.570000
C1911	C191	0.177700	0.802500	0.750800
C1921	C192	0.218900	0.832800	0.762400
H1281	H128	0.225800	0.860500	0.742600
C1931	C193	0.094900	0.825100	0.615500
C1941	C194	0.112800	0.866200	0.642100
H1291	H129	0.106300	0.898300	0.630700
C1951	C195	0.140000	0.859100	0.685200
H1301	H130	0.153000	0.886700	0.701800
C1961	C196	0.148600	0.811600	0.704400
C1971	C197	0.131600	0.771200	0.677000
H1311	H131	0.138000	0.739100	0.688500
C1981	C198	0.105400	0.777500	0.632700
H1321	H132	0.094800	0.749800	0.614700
H1331	H133	0.970800	0.304500	0.593400
O451	O45	0.947440	0.127510	0.554180
O461	O46	0.949200	0.210400	0.551000
C1991	C199	0.936000	0.170200	0.570000
C2001	C200	0.822300	0.197500	0.750800
C2011	C201	0.781100	0.167200	0.762400
H1341	H134	0.774200	0.139500	0.742600
C2021	C202	0.905100	0.174900	0.615500
C2031	C203	0.887200	0.133800	0.642100
H1351	H135	0.893700	0.101700	0.630700
C2041	C204	0.860000	0.140900	0.685200
H1361	H136	0.847000	0.113300	0.701800
C2051	C205	0.851400	0.188400	0.704400
C2061	C206	0.868400	0.228800	0.677000
H1371	H137	0.862000	0.260900	0.688500
C2071	C207	0.894600	0.222500	0.632700
H1381	H138	0.905200	0.250200	0.614700
H1391	H139	0.029200	0.304500	0.406600
O471	O47	0.052560	0.127510	0.445820
O481	O48	0.050800	0.210400	0.449000
C2081	C208	0.064000	0.170200	0.430000
C2091	C209	0.177700	0.197500	0.249200
C2101	C210	0.218900	0.167200	0.237600
H1401	H140	0.225800	0.139500	0.257400
C2111	C211	0.094900	0.174900	0.384500
C2121	C212	0.112800	0.133800	0.357900
H1411	H141	0.106300	0.101700	0.369300
C2131	C213	0.140000	0.140900	0.314800
H1421	H142	0.153000	0.113300	0.298200
C2141	C214	0.148600	0.188400	0.295600
C2151	C215	0.131600	0.228800	0.323000
H1431	H143	0.138000	0.260900	0.311500
C2161	C216	0.105400	0.222500	0.367300
H1441	H144	0.094800	0.250200	0.385300
Ni11	Ni1	0.500000	0.000000	0.221630
Ni21	Ni2	0.500000	0.000000	0.115490
N11	N1	0.500000	0.000000	0.296200
Ni31	Ni3	0.500000	0.000000	0.778370
Ni41	Ni4	0.500000	0.000000	0.884510
N21	N2	0.500000	0.000000	0.703800
Ni51	Ni5	0.221630	0.500000	0.000000
Ni61	Ni6	0.115490	0.500000	0.000000
N31	N3	0.296200	0.500000	0.000000
Ni71	Ni7	0.778370	0.500000	0.000000
Ni81	Ni8	0.884510	0.500000	0.000000
N41	N4	0.703800	0.500000	0.000000
Ni91	Ni9	0.000000	0.221630	0.500000
Ni101	Ni10	0.000000	0.115490	0.500000
N51	N5	0.000000	0.296200	0.500000
Ni111	Ni11	0.000000	0.778370	0.500000
Ni121	Ni12	0.000000	0.884510	0.500000
N61	N6	0.000000	0.703800	0.500000
C2171	C217	0.535200	0.000000	0.326900
N71	N7	0.523700	0.000000	0.372500
H1451	H145	0.543400	0.000000	0.397800
C2181	C218	0.583100	0.000000	0.322400
H1461	H146	0.598100	0.000000	0.354900
C2191	C219	0.464800	0.000000	0.326900
N81	N8	0.476300	0.000000	0.372500
H1471	H147	0.456600	0.000000	0.397800
C2201	C220	0.416900	0.000000	0.322400
H1481	H148	0.401900	0.000000	0.354900
C2211	C221	0.464800	0.000000	0.673100
N91	N9	0.476300	0.000000	0.627500
H1491	H149	0.456600	0.000000	0.602200
C2221	C222	0.416900	0.000000	0.677600
H1501	H150	0.401900	0.000000	0.645100
C2231	C223	0.535200	0.000000	0.673100
N101	N10	0.523700	0.000000	0.627500
H1511	H151	0.543400	0.000000	0.602200
C2241	C224	0.583100	0.000000	0.677600
H1521	H152	0.598100	0.000000	0.645100
C2251	C225	0.326900	0.535200	0.000000
N111	N11	0.372500	0.523700	0.000000
H1531	H153	0.397800	0.543400	0.000000
C2261	C226	0.322400	0.583100	0.000000
H1541	H154	0.354900	0.598100	0.000000
C2271	C227	0.326900	0.464800	0.000000
N121	N12	0.372500	0.476300	0.000000
H1551	H155	0.397800	0.456600	0.000000
C2281	C228	0.322400	0.416900	0.000000
H1561	H156	0.354900	0.401900	0.000000
C2291	C229	0.673100	0.464800	0.000000
N131	N13	0.627500	0.476300	0.000000
H1571	H157	0.602200	0.456600	0.000000
C2301	C230	0.677600	0.416900	0.000000
H1581	H158	0.645100	0.401900	0.000000
C2311	C231	0.673100	0.535200	0.000000
N141	N14	0.627500	0.523700	0.000000
H1591	H159	0.602200	0.543400	0.000000
C2321	C232	0.677600	0.583100	0.000000
H1601	H160	0.645100	0.598100	0.000000
C2331	C233	0.000000	0.326900	0.535200
N151	N15	0.000000	0.372500	0.523700
H1611	H161	0.000000	0.397800	0.543400
C2341	C234	0.000000	0.322400	0.583100
H1621	H162	0.000000	0.354900	0.598100
C2351	C235	0.000000	0.326900	0.464800
N161	N16	0.000000	0.372500	0.476300
H1631	H163	0.000000	0.397800	0.456600
C2361	C236	0.000000	0.322400	0.416900
H1641	H164	0.000000	0.354900	0.401900
C2371	C237	0.000000	0.673100	0.464800
N171	N17	0.000000	0.627500	0.476300
H1651	H165	0.000000	0.602200	0.456600
C2381	C238	0.000000	0.677600	0.416900
H1661	H166	0.000000	0.645100	0.401900
C2391	C239	0.000000	0.673100	0.535200
N181	N18	0.000000	0.627500	0.523700
H1671	H167	0.000000	0.602200	0.543400
C2401	C240	0.000000	0.677600	0.583100
H1681	H168	0.000000	0.645100	0.598100
H1691	H169	0.093400	0.529200	0.804500
O491	O49	0.054180	0.552560	0.627510
O501	O50	0.051000	0.550800	0.710400
C2411	C241	0.070000	0.564000	0.670200
C2421	C242	0.250800	0.677700	0.697500
C2431	C243	0.262400	0.718900	0.667200
H1701	H170	0.242600	0.725800	0.639500
C2441	C244	0.115500	0.594900	0.674900
C2451	C245	0.142100	0.612800	0.633800
H1711	H171	0.130700	0.606300	0.601700
C2461	C246	0.185200	0.640000	0.640900
H1721	H172	0.201800	0.653000	0.613300
C2471	C247	0.204400	0.648600	0.688400
C2481	C248	0.177000	0.631600	0.728800
H1731	H173	0.188500	0.638000	0.760900
C2491	C249	0.132700	0.605400	0.722500
H1741	H174	0.114700	0.594800	0.750200
H1751	H175	0.906600	0.470800	0.804500
O511	O51	0.945820	0.447440	0.627510
O521	O52	0.949000	0.449200	0.710400
C2501	C250	0.930000	0.436000	0.670200
C2511	C251	0.749200	0.322300	0.697500
C2521	C252	0.737600	0.281100	0.667200
H1761	H176	0.757400	0.274200	0.639500
C2531	C253	0.884500	0.405100	0.674900
C2541	C254	0.857900	0.387200	0.633800
H1771	H177	0.869300	0.393700	0.601700
C2551	C255	0.814800	0.360000	0.640900
H1781	H178	0.798200	0.347000	0.613300
C2561	C256	0.795600	0.351400	0.688400
C2571	C257	0.823000	0.368400	0.728800
H1791	H179	0.811500	0.362000	0.760900
C2581	C258	0.867300	0.394600	0.722500
H1801	H180	0.885300	0.405200	0.750200
H1811	H181	0.906600	0.529200	0.195500
O531	O53	0.945820	0.552560	0.372490
O541	O54	0.949000	0.550800	0.289600
C2591	C259	0.930000	0.564000	0.329800
C2601	C260	0.749200	0.677700	0.302500
C2611	C261	0.737600	0.718900	0.332800
H1821	H182	0.757400	0.725800	0.360500
C2621	C262	0.884500	0.594900	0.325100
C2631	C263	0.857900	0.612800	0.366200
H1831	H183	0.869300	0.606300	0.398300
C2641	C264	0.814800	0.640000	0.359100
H1841	H184	0.798200	0.653000	0.386700
C2651	C265	0.795600	0.648600	0.311600
C2661	C266	0.823000	0.631600	0.271200
H1851	H185	0.811500	0.638000	0.239100
C2671	C267	0.867300	0.605400	0.277500
H1861	H186	0.885300	0.594800	0.249800
H1871	H187	0.093400	0.470800	0.195500
O551	O55	0.054180	0.447440	0.372490
O561	O56	0.051000	0.449200	0.289600
C2681	C268	0.070000	0.436000	0.329800
C2691	C269	0.250800	0.322300	0.302500
C2701	C270	0.262400	0.281100	0.332800
H1881	H188	0.242600	0.274200	0.360500
C2711	C271	0.115500	0.405100	0.325100
C2721	C272	0.142100	0.387200	0.366200
H1891	H189	0.130700	0.393700	0.398300
C2731	C273	0.185200	0.360000	0.359100
H1901	H190	0.201800	0.347000	0.386700
C2741	C274	0.204400	0.351400	0.311600
C2751	C275	0.177000	0.368400	0.271200
H1911	H191	0.188500	0.362000	0.239100
C2761	C276	0.132700	0.394600	0.277500
H1921	H192	0.114700	0.405200	0.249800
H1931	H193	0.804500	0.093400	0.529200
O571	O57	0.627510	0.054180	0.552560
O581	O58	0.710400	0.051000	0.550800
C2771	C277	0.670200	0.070000	0.564000
C2781	C278	0.697500	0.250800	0.677700
C2791	C279	0.667200	0.262400	0.718900
H1941	H194	0.639500	0.242600	0.725800
C2801	C280	0.674900	0.115500	0.594900
C2811	C281	0.633800	0.142100	0.612800
H1951	H195	0.601700	0.130700	0.606300
C2821	C282	0.640900	0.185200	0.640000
H1961	H196	0.613300	0.201800	0.653000
C2831	C283	0.688400	0.204400	0.648600
C2841	C284	0.728800	0.177000	0.631600
H1971	H197	0.760900	0.188500	0.638000
C2851	C285	0.722500	0.132700	0.605400
H1981	H198	0.750200	0.114700	0.594800
H1991	H199	0.804500	0.906600	0.470800
O591	O59	0.627510	0.945820	0.447440
O601	O60	0.710400	0.949000	0.449200
C2861	C286	0.670200	0.930000	0.436000
C2871	C287	0.697500	0.749200	0.322300
C2881	C288	0.667200	0.737600	0.281100
H2001	H200	0.639500	0.757400	0.274200
C2891	C289	0.674900	0.884500	0.405100
C2901	C290	0.633800	0.857900	0.387200
H2011	H201	0.601700	0.869300	0.393700
C2911	C291	0.640900	0.814800	0.360000
H2021	H202	0.613300	0.798200	0.347000
C2921	C292	0.688400	0.795600	0.351400
C2931	C293	0.728800	0.823000	0.368400
H2031	H203	0.760900	0.811500	0.362000
C2941	C294	0.722500	0.867300	0.394600
H2041	H204	0.750200	0.885300	0.405200
H2051	H205	0.195500	0.906600	0.529200
O611	O61	0.372490	0.945820	0.552560
O621	O62	0.289600	0.949000	0.550800
C2951	C295	0.329800	0.930000	0.564000
C2961	C296	0.302500	0.749200	0.677700
C2971	C297	0.332800	0.737600	0.718900
H2061	H206	0.360500	0.757400	0.725800
C2981	C298	0.325100	0.884500	0.594900
C2991	C299	0.366200	0.857900	0.612800
H2071	H207	0.398300	0.869300	0.606300
C3001	C300	0.359100	0.814800	0.640000
H2081	H208	0.386700	0.798200	0.653000
C3011	C301	0.311600	0.795600	0.648600
C3021	C302	0.271200	0.823000	0.631600
H2091	H209	0.239100	0.811500	0.638000
C3031	C303	0.277500	0.867300	0.605400
H2101	H210	0.249800	0.885300	0.594800
H2111	H211	0.195500	0.093400	0.470800
O631	O63	0.372490	0.054180	0.447440
O641	O64	0.289600	0.051000	0.449200
C3041	C304	0.329800	0.070000	0.436000
C3051	C305	0.302500	0.250800	0.322300
C3061	C306	0.332800	0.262400	0.281100
H2121	H212	0.360500	0.242600	0.274200
C3071	C307	0.325100	0.115500	0.405100
C3081	C308	0.366200	0.142100	0.387200
H2131	H213	0.398300	0.130700	0.393700
C3091	C309	0.359100	0.185200	0.360000
H2141	H214	0.386700	0.201800	0.347000
C3101	C310	0.311600	0.204400	0.351400
C3111	C311	0.271200	0.177000	0.368400
H2151	H215	0.239100	0.188500	0.362000
C3121	C312	0.277500	0.132700	0.394600
H2161	H216	0.249800	0.114700	0.405200
H2171	H217	0.529200	0.804500	0.093400
O651	O65	0.552560	0.627510	0.054180
O661	O66	0.550800	0.710400	0.051000
C3131	C313	0.564000	0.670200	0.070000
C3141	C314	0.677700	0.697500	0.250800
C3151	C315	0.718900	0.667200	0.262400
H2181	H218	0.725800	0.639500	0.242600
C3161	C316	0.594900	0.674900	0.115500
C3171	C317	0.612800	0.633800	0.142100
H2191	H219	0.606300	0.601700	0.130700
C3181	C318	0.640000	0.640900	0.185200
H2201	H220	0.653000	0.613300	0.201800
C3191	C319	0.648600	0.688400	0.204400
C3201	C320	0.631600	0.728800	0.177000
H2211	H221	0.638000	0.760900	0.188500
C3211	C321	0.605400	0.722500	0.132700
H2221	H222	0.594800	0.750200	0.114700
H2231	H223	0.470800	0.804500	0.906600
O671	O67	0.447440	0.627510	0.945820
O681	O68	0.449200	0.710400	0.949000
C3221	C322	0.436000	0.670200	0.930000
C3231	C323	0.322300	0.697500	0.749200
C3241	C324	0.281100	0.667200	0.737600
H2241	H224	0.274200	0.639500	0.757400
C3251	C325	0.405100	0.674900	0.884500
C3261	C326	0.387200	0.633800	0.857900
H2251	H225	0.393700	0.601700	0.869300
C3271	C327	0.360000	0.640900	0.814800
H2261	H226	0.347000	0.613300	0.798200
C3281	C328	0.351400	0.688400	0.795600
C3291	C329	0.368400	0.728800	0.823000
H2271	H227	0.362000	0.760900	0.811500
C3301	C330	0.394600	0.722500	0.867300
H2281	H228	0.405200	0.750200	0.885300
H2291	H229	0.529200	0.195500	0.906600
O691	O69	0.552560	0.372490	0.945820
O701	O70	0.550800	0.289600	0.949000
C3311	C331	0.564000	0.329800	0.930000
C3321	C332	0.677700	0.302500	0.749200
C3331	C333	0.718900	0.332800	0.737600
H2301	H230	0.725800	0.360500	0.757400
C3341	C334	0.594900	0.325100	0.884500
C3351	C335	0.612800	0.366200	0.857900
H2311	H231	0.606300	0.398300	0.869300
C3361	C336	0.640000	0.359100	0.814800
H2321	H232	0.653000	0.386700	0.798200
C3371	C337	0.648600	0.311600	0.795600
C3381	C338	0.631600	0.271200	0.823000
H2331	H233	0.638000	0.239100	0.811500
C3391	C339	0.605400	0.277500	0.867300
H2341	H234	0.594800	0.249800	0.885300
H2351	H235	0.470800	0.195500	0.093400
O711	O71	0.447440	0.372490	0.054180
O721	O72	0.449200	0.289600	0.051000
C3401	C340	0.436000	0.329800	0.070000
C3411	C341	0.322300	0.302500	0.250800
C3421	C342	0.281100	0.332800	0.262400
H2361	H236	0.274200	0.360500	0.242600
C3431	C343	0.405100	0.325100	0.115500
C3441	C344	0.387200	0.366200	0.142100
H2371	H237	0.393700	0.398300	0.130700
C3451	C345	0.360000	0.359100	0.185200
H2381	H238	0.347000	0.386700	0.201800
C3461	C346	0.351400	0.311600	0.204400
C3471	C347	0.368400	0.271200	0.177000
H2391	H239	0.362000	0.239100	0.188500
C3481	C348	0.394600	0.277500	0.132700
H2401	H240	0.405200	0.249800	0.114700
H2411	H241	0.906600	0.470800	0.195500
O731	O73	0.945820	0.447440	0.372490
O741	O74	0.949000	0.449200	0.289600
C3491	C349	0.930000	0.436000	0.329800
C3501	C350	0.749200	0.322300	0.302500
C3511	C351	0.737600	0.281100	0.332800
H2421	H242	0.757400	0.274200	0.360500
C3521	C352	0.884500	0.405100	0.325100
C3531	C353	0.857900	0.387200	0.366200
H2431	H243	0.869300	0.393700	0.398300
C3541	C354	0.814800	0.360000	0.359100
H2441	H244	0.798200	0.347000	0.386700
C3551	C355	0.795600	0.351400	0.311600
C3561	C356	0.823000	0.368400	0.271200
H2451	H245	0.811500	0.362000	0.239100
C3571	C357	0.867300	0.394600	0.277500
H2461	H246	0.885300	0.405200	0.249800
H2471	H247	0.093400	0.529200	0.195500
O751	O75	0.054180	0.552560	0.372490
O761	O76	0.051000	0.550800	0.289600
C3581	C358	0.070000	0.564000	0.329800
C3591	C359	0.250800	0.677700	0.302500
C3601	C360	0.262400	0.718900	0.332800
H2481	H248	0.242600	0.725800	0.360500
C3611	C361	0.115500	0.594900	0.325100
C3621	C362	0.142100	0.612800	0.366200
H2491	H249	0.130700	0.606300	0.398300
C3631	C363	0.185200	0.640000	0.359100
H2501	H250	0.201800	0.653000	0.386700
C3641	C364	0.204400	0.648600	0.311600
C3651	C365	0.177000	0.631600	0.271200
H2511	H251	0.188500	0.638000	0.239100
C3661	C366	0.132700	0.605400	0.277500
H2521	H252	0.114700	0.594800	0.249800
H2531	H253	0.093400	0.470800	0.804500
O771	O77	0.054180	0.447440	0.627510
O781	O78	0.051000	0.449200	0.710400
C3671	C367	0.070000	0.436000	0.670200
C3681	C368	0.250800	0.322300	0.697500
C3691	C369	0.262400	0.281100	0.667200
H2541	H254	0.242600	0.274200	0.639500
C3701	C370	0.115500	0.405100	0.674900
C3711	C371	0.142100	0.387200	0.633800
H2551	H255	0.130700	0.393700	0.601700
C3721	C372	0.185200	0.360000	0.640900
H2561	H256	0.201800	0.347000	0.613300
C3731	C373	0.204400	0.351400	0.688400
C3741	C374	0.177000	0.368400	0.728800
H2571	H257	0.188500	0.362000	0.760900
C3751	C375	0.132700	0.394600	0.722500
H2581	H258	0.114700	0.405200	0.750200
H2591	H259	0.906600	0.529200	0.804500
O791	O79	0.945820	0.552560	0.627510
O801	O80	0.949000	0.550800	0.710400
C3761	C376	0.930000	0.564000	0.670200
C3771	C377	0.749200	0.677700	0.697500
C3781	C378	0.737600	0.718900	0.667200
H2601	H260	0.757400	0.725800	0.639500
C3791	C379	0.884500	0.594900	0.674900
C3801	C380	0.857900	0.612800	0.633800
H2611	H261	0.869300	0.606300	0.601700
C3811	C381	0.814800	0.640000	0.640900
H2621	H262	0.798200	0.653000	0.613300
C3821	C382	0.795600	0.648600	0.688400
C3831	C383	0.823000	0.631600	0.728800
H2631	H263	0.811500	0.638000	0.760900
C3841	C384	0.867300	0.605400	0.722500
H2641	H264	0.885300	0.594800	0.750200
H2651	H265	0.195500	0.906600	0.470800
O811	O81	0.372490	0.945820	0.447440
O821	O82	0.289600	0.949000	0.449200
C3851	C385	0.329800	0.930000	0.436000
C3861	C386	0.302500	0.749200	0.322300
C3871	C387	0.332800	0.737600	0.281100
H2661	H266	0.360500	0.757400	0.274200
C3881	C388	0.325100	0.884500	0.405100
C3891	C389	0.366200	0.857900	0.387200
H2671	H267	0.398300	0.869300	0.393700
C3901	C390	0.359100	0.814800	0.360000
H2681	H268	0.386700	0.798200	0.347000
C3911	C391	0.311600	0.795600	0.351400
C3921	C392	0.271200	0.823000	0.368400
H2691	H269	0.239100	0.811500	0.362000
C3931	C393	0.277500	0.867300	0.394600
H2701	H270	0.249800	0.885300	0.405200
H2711	H271	0.195500	0.093400	0.529200
O831	O83	0.372490	0.054180	0.552560
O841	O84	0.289600	0.051000	0.550800
C3941	C394	0.329800	0.070000	0.564000
C3951	C395	0.302500	0.250800	0.677700
C3961	C396	0.332800	0.262400	0.718900
H2721	H272	0.360500	0.242600	0.725800
C3971	C397	0.325100	0.115500	0.594900
C3981	C398	0.366200	0.142100	0.612800
H2731	H273	0.398300	0.130700	0.606300
C3991	C399	0.359100	0.185200	0.640000
H2741	H274	0.386700	0.201800	0.653000
C4001	C400	0.311600	0.204400	0.648600
C4011	C401	0.271200	0.177000	0.631600
H2751	H275	0.239100	0.188500	0.638000
C4021	C402	0.277500	0.132700	0.605400
H2761	H276	0.249800	0.114700	0.594800
H2771	H277	0.804500	0.093400	0.470800
O851	O85	0.627510	0.054180	0.447440
O861	O86	0.710400	0.051000	0.449200
C4031	C403	0.670200	0.070000	0.436000
C4041	C404	0.697500	0.250800	0.322300
C4051	C405	0.667200	0.262400	0.281100
H2781	H278	0.639500	0.242600	0.274200
C4061	C406	0.674900	0.115500	0.405100
C4071	C407	0.633800	0.142100	0.387200
H2791	H279	0.601700	0.130700	0.393700
C4081	C408	0.640900	0.185200	0.360000
H2801	H280	0.613300	0.201800	0.347000
C4091	C409	0.688400	0.204400	0.351400
C4101	C410	0.728800	0.177000	0.368400
H2811	H281	0.760900	0.188500	0.362000
C4111	C411	0.722500	0.132700	0.394600
H2821	H282	0.750200	0.114700	0.405200
H2831	H283	0.804500	0.906600	0.529200
O871	O87	0.627510	0.945820	0.552560
O881	O88	0.710400	0.949000	0.550800
C4121	C412	0.670200	0.930000	0.564000
C4131	C413	0.697500	0.749200	0.677700
C4141	C414	0.667200	0.737600	0.718900
H2841	H284	0.639500	0.757400	0.725800
C4151	C415	0.674900	0.884500	0.594900
C4161	C416	0.633800	0.857900	0.612800
H2851	H285	0.601700	0.869300	0.606300
C4171	C417	0.640900	0.814800	0.640000
H2861	H286	0.613300	0.798200	0.653000
C4181	C418	0.688400	0.795600	0.648600
C4191	C419	0.728800	0.823000	0.631600
H2871	H287	0.760900	0.811500	0.638000
C4201	C420	0.722500	0.867300	0.605400
H2881	H288	0.750200	0.885300	0.594800
H2891	H289	0.470800	0.195500	0.906600
O891	O89	0.447440	0.372490	0.945820
O901	O90	0.449200	0.289600	0.949000
C4211	C421	0.436000	0.329800	0.930000
C4221	C422	0.322300	0.302500	0.749200
C4231	C423	0.281100	0.332800	0.737600
H2901	H290	0.274200	0.360500	0.757400
C4241	C424	0.405100	0.325100	0.884500
C4251	C425	0.387200	0.366200	0.857900
H2911	H291	0.393700	0.398300	0.869300
C4261	C426	0.360000	0.359100	0.814800
H2921	H292	0.347000	0.386700	0.798200
C4271	C427	0.351400	0.311600	0.795600
C4281	C428	0.368400	0.271200	0.823000
H2931	H293	0.362000	0.239100	0.811500
C4291	C429	0.394600	0.277500	0.867300
H2941	H294	0.405200	0.249800	0.885300
H2951	H295	0.529200	0.195500	0.093400
O911	O91	0.552560	0.372490	0.054180
O921	O92	0.550800	0.289600	0.051000
C4301	C430	0.564000	0.329800	0.070000
C4311	C431	0.677700	0.302500	0.250800
C4321	C432	0.718900	0.332800	0.262400
H2961	H296	0.725800	0.360500	0.242600
C4331	C433	0.594900	0.325100	0.115500
C4341	C434	0.612800	0.366200	0.142100
H2971	H297	0.606300	0.398300	0.130700
C4351	C435	0.640000	0.359100	0.185200
H2981	H298	0.653000	0.386700	0.201800
C4361	C436	0.648600	0.311600	0.204400
C4371	C437	0.631600	0.271200	0.177000
H2991	H299	0.638000	0.239100	0.188500
C4381	C438	0.605400	0.277500	0.132700
H3001	H300	0.594800	0.249800	0.114700
H3011	H301	0.470800	0.804500	0.093400
O931	O93	0.447440	0.627510	0.054180
O941	O94	0.449200	0.710400	0.051000
C4391	C439	0.436000	0.670200	0.070000
C4401	C440	0.322300	0.697500	0.250800
C4411	C441	0.281100	0.667200	0.262400
H3021	H302	0.274200	0.639500	0.242600
C4421	C442	0.405100	0.674900	0.115500
C4431	C443	0.387200	0.633800	0.142100
H3031	H303	0.393700	0.601700	0.130700
C4441	C444	0.360000	0.640900	0.185200
H3041	H304	0.347000	0.613300	0.201800
C4451	C445	0.351400	0.688400	0.204400
C4461	C446	0.368400	0.728800	0.177000
H3051	H305	0.362000	0.760900	0.188500
C4471	C447	0.394600	0.722500	0.132700
H3061	H306	0.405200	0.750200	0.114700
H3071	H307	0.529200	0.804500	0.906600
O951	O95	0.552560	0.627510	0.945820
O961	O96	0.550800	0.710400	0.949000
C4481	C448	0.564000	0.670200	0.930000
C4491	C449	0.677700	0.697500	0.749200
C4501	C450	0.718900	0.667200	0.737600
H3081	H308	0.725800	0.639500	0.757400
C4511	C451	0.594900	0.674900	0.884500
C4521	C452	0.612800	0.633800	0.857900
H3091	H309	0.606300	0.601700	0.869300
C4531	C453	0.640000	0.640900	0.814800
H3101	H310	0.653000	0.613300	0.798200
C4541	C454	0.648600	0.688400	0.795600
C4551	C455	0.631600	0.728800	0.823000
H3111	H311	0.638000	0.760900	0.811500
C4561	C456	0.605400	0.722500	0.867300
H3121	H312	0.594800	0.750200	0.885300
Ni131	Ni13	0.000000	0.500000	0.721630
Ni141	Ni14	0.000000	0.500000	0.615490
N191	N19	0.000000	0.500000	0.796200
Ni151	Ni15	0.000000	0.500000	0.278370
Ni161	Ni16	0.000000	0.500000	0.384510
N201	N20	0.000000	0.500000	0.203800
Ni171	Ni17	0.721630	0.000000	0.500000
Ni181	Ni18	0.615490	0.000000	0.500000
N211	N21	0.796200	0.000000	0.500000
Ni191	Ni19	0.278370	0.000000	0.500000
Ni201	Ni20	0.384510	0.000000	0.500000
N221	N22	0.203800	0.000000	0.500000
Ni211	Ni21	0.500000	0.721630	0.000000
Ni221	Ni22	0.500000	0.615490	0.000000
N231	N23	0.500000	0.796200	0.000000
Ni231	Ni23	0.500000	0.278370	0.000000
Ni241	Ni24	0.500000	0.384510	0.000000
N241	N24	0.500000	0.203800	0.000000
C4571	C457	0.035200	0.500000	0.826900
N251	N25	0.023700	0.500000	0.872500
H3131	H313	0.043400	0.500000	0.897800
C4581	C458	0.083100	0.500000	0.822400
H3141	H314	0.098100	0.500000	0.854900
C4591	C459	0.964800	0.500000	0.826900
N261	N26	0.976300	0.500000	0.872500
H3151	H315	0.956600	0.500000	0.897800
C4601	C460	0.916900	0.500000	0.822400
H3161	H316	0.901900	0.500000	0.854900
C4611	C461	0.964800	0.500000	0.173100
N271	N27	0.976300	0.500000	0.127500
H3171	H317	0.956600	0.500000	0.102200
C4621	C462	0.916900	0.500000	0.177600
H3181	H318	0.901900	0.500000	0.145100
C4631	C463	0.035200	0.500000	0.173100
N281	N28	0.023700	0.500000	0.127500
H3191	H319	0.043400	0.500000	0.102200
C4641	C464	0.083100	0.500000	0.177600
H3201	H320	0.098100	0.500000	0.145100
C4651	C465	0.826900	0.035200	0.500000
N291	N29	0.872500	0.023700	0.500000
H3211	H321	0.897800	0.043400	0.500000
C4661	C466	0.822400	0.083100	0.500000
H3221	H322	0.854900	0.098100	0.500000
C4671	C467	0.826900	0.964800	0.500000
N301	N30	0.872500	0.976300	0.500000
H3231	H323	0.897800	0.956600	0.500000
C4681	C468	0.822400	0.916900	0.500000
H3241	H324	0.854900	0.901900	0.500000
C4691	C469	0.173100	0.964800	0.500000
N311	N31	0.127500	0.976300	0.500000
H3251	H325	0.102200	0.956600	0.500000
C4701	C470	0.177600	0.916900	0.500000
H3261	H326	0.145100	0.901900	0.500000
C4711	C471	0.173100	0.035200	0.500000
N321	N32	0.127500	0.023700	0.500000
H3271	H327	0.102200	0.043400	0.500000
C4721	C472	0.177600	0.083100	0.500000
H3281	H328	0.145100	0.098100	0.500000
C4731	C473	0.500000	0.826900	0.035200
N331	N33	0.500000	0.872500	0.023700
H3291	H329	0.500000	0.897800	0.043400
C4741	C474	0.500000	0.822400	0.083100
H3301	H330	0.500000	0.854900	0.098100
C4751	C475	0.500000	0.826900	0.964800
N341	N34	0.500000	0.872500	0.976300
H3311	H331	0.500000	0.897800	0.956600
C4761	C476	0.500000	0.822400	0.916900
H3321	H332	0.500000	0.854900	0.901900
C4771	C477	0.500000	0.173100	0.964800
N351	N35	0.500000	0.127500	0.976300
H3331	H333	0.500000	0.102200	0.956600
C4781	C478	0.500000	0.177600	0.916900
H3341	H334	0.500000	0.145100	0.901900
C4791	C479	0.500000	0.173100	0.035200
N361	N36	0.500000	0.127500	0.023700
H3351	H335	0.500000	0.102200	0.043400
C4801	C480	0.500000	0.177600	0.083100
H3361	H336	0.500000	0.145100	0.098100
