data_FABCUI_clean_PM
_symmetry_space_group_name_H-M	'P1'
_cell_length_a	31.154000
_cell_length_b	18.385000
_cell_length_c	26.034000
_cell_angle_alpha	90.000000
_cell_angle_beta	114.274000
_cell_angle_gamma	90.000000
_symmetry_Int_Tables_number 1

loop_
_symmetry_equiv_pos_as_xyz
'x,y,z'

loop_
_atom_site_label
_atom_site_type_symbol
_atom_site_fract_x
_atom_site_fract_y
_atom_site_fract_z
Cu11	Cu1	0.499980	0.018110	0.499990
Cu21	Cu2	0.562890	0.135660	0.565680
Cu31	Cu3	0.714370	0.262660	0.088960
Cu41	Cu4	0.653170	0.386850	0.027450
Cu51	Cu5	0.487880	0.492500	0.001270
Cu61	Cu6	0.545810	0.373330	0.069190
Cu71	Cu7	0.720880	0.234420	0.588700
Cu81	Cu8	0.663560	0.118910	0.514170
Cl11	Cl1	0.576340	0.048130	0.497720
Cl21	Cl2	0.636620	0.298480	0.088290
Cl31	Cl3	0.568780	0.453220	0.006430
Cl41	Cl4	0.643430	0.199940	0.586690
N11	N1	0.454170	0.069400	0.436540
N21	N2	0.195990	0.960980	0.076550
N31	N3	0.515340	0.943230	0.556350
N41	N4	0.640040	0.830910	0.942090
N51	N5	0.578880	0.087160	0.638700
N61	N6	0.696620	0.189550	0.030500
N71	N7	0.759810	0.313340	0.153500
N81	N8	0.004600	0.200290	0.519960
N91	N9	0.635810	0.341860	0.953270
N101	N10	0.506780	0.432600	0.557490
N111	N11	0.444790	0.439240	0.937480
N121	N12	0.205070	0.547840	0.565690
N131	N13	0.570010	0.420810	0.142410
N141	N14	0.704570	0.310210	0.532730
N151	N15	0.764940	0.182280	0.653040
N161	N16	0.020520	0.291610	0.014780
C11	C1	0.466830	0.105720	0.400270
H11	H1	0.499500	0.110800	0.409300
C21	C2	0.435410	0.136170	0.350730
H21	H2	0.446400	0.161700	0.326800
C31	C3	0.387550	0.129170	0.336250
C41	C4	0.374350	0.093800	0.374470
H31	H3	0.341900	0.089500	0.366900
C51	C5	0.407660	0.064940	0.423060
H41	H4	0.397500	0.040700	0.448300
C61	C6	0.241510	0.962900	0.086180
H51	H5	0.253000	0.927800	0.068200
C71	C7	0.272770	0.013500	0.121010
H61	H6	0.304900	0.012200	0.126800
C81	C8	0.257190	0.066090	0.147450
C91	C9	0.209970	0.063950	0.137470
H71	H7	0.197500	0.098900	0.154500
C101	C10	0.180740	0.010770	0.102540
H81	H8	0.148600	0.009800	0.096900
C111	C11	0.351410	0.156740	0.280190
H91	H9	0.367600	0.184700	0.260900
H101	H10	0.329200	0.189800	0.286900
C121	C12	0.323790	0.093550	0.242110
H111	H11	0.305700	0.067400	0.260000
H121	H12	0.345900	0.058800	0.237000
C131	C13	0.289810	0.123830	0.184380
H131	H13	0.270800	0.163500	0.190300
H141	H14	0.308400	0.144700	0.164900
C141	C14	0.559780	0.916560	0.580840
H151	H15	0.583500	0.937700	0.571500
C151	C15	0.571740	0.859620	0.618930
H161	H16	0.603400	0.843300	0.636000
C161	C16	0.538080	0.826500	0.632360
C171	C17	0.492900	0.854600	0.607840
H171	H17	0.468700	0.834300	0.616700
C181	C18	0.482840	0.912400	0.570220
H181	H18	0.451600	0.930700	0.553800
C191	C19	0.668720	0.799200	0.921670
H191	H19	0.701700	0.800100	0.943900
C201	C20	0.651960	0.765170	0.869370
H201	H20	0.673400	0.743800	0.856300
C211	C21	0.603850	0.762400	0.836180
C221	C22	0.574640	0.794700	0.857710
H211	H21	0.541500	0.794200	0.836600
C231	C23	0.593790	0.827700	0.910070
H221	H22	0.573000	0.849200	0.924000
C241	C24	0.550770	0.764680	0.673860
H231	H23	0.574200	0.733000	0.668400
H241	H24	0.522400	0.735100	0.667000
C251	C25	0.571060	0.793130	0.734560
H251	H25	0.547500	0.824700	0.739900
H261	H26	0.599300	0.823000	0.741200
C261	C26	0.584550	0.731010	0.777790
H271	H27	0.556500	0.700900	0.771600
H281	H28	0.608500	0.699500	0.773200
C271	C27	0.624240	0.075600	0.673320
H291	H29	0.647800	0.090700	0.661200
C281	C28	0.638470	0.042900	0.725460
H301	H30	0.671000	0.036100	0.748300
C291	C29	0.605050	0.019880	0.744500
C301	C30	0.558360	0.031600	0.708310
H311	H31	0.534100	0.016400	0.719000
C311	C31	0.546810	0.065100	0.656800
H321	H32	0.514500	0.072800	0.633200
C321	C32	0.726580	0.162100	0.010850
H331	H33	0.757600	0.181300	0.024900
C331	C33	0.714760	0.107000	0.971070
H341	H34	0.737200	0.089900	0.957900
C341	C34	0.670350	0.077270	0.950770
C351	C35	0.638980	0.105300	0.971800
H351	H35	0.608100	0.085900	0.959500
C361	C36	0.653310	0.160900	0.010370
H361	H36	0.631300	0.180000	0.023500
C371	C37	0.619850	0.987640	0.802320
H371	H37	0.645300	0.951700	0.809100
H381	H38	0.592800	0.962100	0.804900
C381	C38	0.637470	0.047920	0.847560
H391	H39	0.663500	0.074800	0.843600
H401	H40	0.611500	0.082700	0.841300
C391	C39	0.654820	0.017200	0.907330
H411	H41	0.629200	0.989000	0.911100
H421	H42	0.681500	0.983800	0.914200
C401	C40	0.746590	0.349000	0.189190
H431	H43	0.713900	0.353400	0.179900
C411	C41	0.777750	0.379800	0.238700
H441	H44	0.766400	0.404900	0.262600
C421	C42	0.825770	0.373980	0.253480
C431	C43	0.839150	0.339580	0.215280
H451	H45	0.871600	0.336200	0.222900
C441	C44	0.806160	0.310040	0.166200
H461	H46	0.816500	0.286700	0.140700
C451	C45	0.959450	0.208540	0.509640
H471	H47	0.946300	0.176600	0.528100
C461	C46	0.930260	0.260490	0.473820
H481	H48	0.898100	0.263100	0.467900
C471	C47	0.948070	0.308720	0.446590
C481	C48	0.995360	0.300820	0.457390
H491	H49	0.009400	0.332600	0.440000
C491	C49	0.022090	0.246760	0.493480
H501	H50	0.054300	0.242300	0.499800
C501	C50	0.861310	0.401790	0.308910
H511	H51	0.845400	0.433600	0.326300
H521	H52	0.885200	0.431300	0.302400
C511	C51	0.886080	0.338920	0.349720
H531	H53	0.862100	0.306600	0.353400
H541	H54	0.904700	0.309900	0.334100
C521	C52	0.918650	0.368030	0.407900
H551	H55	0.939800	0.405300	0.403400
H561	H56	0.899400	0.391700	0.425300
C531	C53	0.667200	0.315820	0.935270
H571	H57	0.699700	0.320500	0.959200
C541	C54	0.654720	0.282160	0.883260
H581	H58	0.678400	0.263800	0.872600
C551	C55	0.607360	0.275450	0.846750
C561	C56	0.575000	0.303740	0.864770
H591	H59	0.542300	0.301800	0.840900
C571	C57	0.590070	0.334980	0.917730
H601	H60	0.566900	0.352500	0.929600
C581	C58	0.550000	0.401930	0.574920
H611	H61	0.570800	0.418500	0.559000
C591	C59	0.564810	0.347900	0.614640
H621	H62	0.595600	0.328300	0.625900
C601	C60	0.535940	0.321600	0.638530
C611	C61	0.491150	0.352070	0.620600
H631	H63	0.469900	0.336000	0.636000
C621	C62	0.477940	0.406510	0.579760
H641	H64	0.447100	0.426100	0.567100
C631	C63	0.552260	0.263960	0.683430
H651	H65	0.576600	0.233500	0.678800
H661	H66	0.525400	0.232200	0.679500
C641	C64	0.572780	0.299070	0.742750
H671	H67	0.598500	0.332900	0.745800
H681	H68	0.547900	0.327600	0.747900
C651	C65	0.591870	0.241790	0.789150
H691	H69	0.567100	0.205100	0.783800
H701	H70	0.618900	0.216600	0.786400
C661	C66	0.460330	0.402010	0.904050
H711	H71	0.493400	0.396700	0.916000
C671	C67	0.430910	0.370920	0.853190
H721	H72	0.443700	0.344900	0.831200
C681	C68	0.382530	0.378300	0.834740
C691	C69	0.366510	0.414870	0.869910
H731	H73	0.333600	0.419700	0.859400
C701	C70	0.397740	0.444390	0.919980
H741	H74	0.385600	0.469400	0.943100
C711	C71	0.249330	0.536700	0.572970
H751	H75	0.261700	0.565900	0.552100
C721	C72	0.278820	0.484400	0.609800
H761	H76	0.310300	0.478900	0.613700
C731	C73	0.261690	0.441200	0.640110
C741	C74	0.216190	0.453300	0.633120
H771	H77	0.203100	0.425600	0.653900
C751	C75	0.189130	0.506600	0.595260
H781	H78	0.157500	0.513300	0.590700
C761	C76	0.291040	0.382500	0.679530
H791	H79	0.310600	0.358500	0.662600
H801	H80	0.269900	0.345300	0.684000
C771	C77	0.323260	0.412300	0.737780
H811	H81	0.304200	0.439900	0.753700
H821	H82	0.346600	0.446000	0.734000
C781	C78	0.349040	0.349820	0.777810
H831	H83	0.325700	0.317300	0.782700
H841	H84	0.366900	0.321000	0.761000
C791	C79	0.616520	0.424790	0.173840
H851	H85	0.637200	0.405400	0.158700
C801	C80	0.636060	0.455440	0.226910
H861	H86	0.669300	0.456400	0.247500
C811	C81	0.606940	0.484780	0.249930
C821	C82	0.558990	0.481350	0.217240
H871	H87	0.537600	0.501300	0.231000
C831	C83	0.542020	0.449280	0.164900
H881	H88	0.508900	0.447200	0.143700
C841	C84	0.736700	0.343300	0.519290
H891	H89	0.768500	0.327500	0.537000
C851	C85	0.725630	0.399200	0.480860
H901	H90	0.749500	0.420700	0.472000
C861	C86	0.680090	0.424090	0.455310
C871	C87	0.646650	0.390500	0.469670
H911	H91	0.614800	0.406100	0.453100
C881	C88	0.660220	0.334450	0.508160
H921	H92	0.637000	0.311900	0.517700
C891	C89	0.626420	0.515820	0.308590
H931	H93	0.601700	0.544300	0.314100
H941	H94	0.652900	0.549000	0.313600
C901	C90	0.643810	0.454510	0.352810
H951	H95	0.617000	0.422500	0.348700
H961	H96	0.667500	0.424800	0.346200
C911	C91	0.665590	0.485330	0.412680
H971	H97	0.693500	0.515200	0.417600
H981	H98	0.642400	0.517000	0.418900
C921	C92	0.811740	0.187400	0.668830
H991	H99	0.823300	0.211100	0.644700
C931	C93	0.843490	0.158900	0.719650
H1001	H100	0.876300	0.163700	0.729600
C941	C94	0.828500	0.124020	0.755690
C951	C95	0.780330	0.117010	0.738460
H1011	H101	0.768000	0.091500	0.761200
C961	C96	0.750320	0.147500	0.687840
H1021	H102	0.717400	0.143500	0.677300
C971	C97	0.034090	0.249400	0.981980
H1031	H103	0.064900	0.255600	0.983700
C981	C98	0.005060	0.197280	0.945630
H1041	H104	0.015900	0.169200	0.922700
C991	C99	0.960370	0.186450	0.942920
C1001	C100	0.946250	0.230310	0.976370
H1051	H105	0.915600	0.225100	0.975500
C1011	C101	0.976780	0.281600	0.010960
H1061	H106	0.966200	0.311400	0.033200
C1021	C102	0.862940	0.097020	0.812260
H1071	H107	0.883700	0.060100	0.806700
H1081	H108	0.845400	0.073300	0.831900
C1031	C103	0.893100	0.158310	0.849110
H1091	H109	0.872500	0.194700	0.855800
H1101	H110	0.910300	0.182800	0.829400
C1041	C104	0.928370	0.128400	0.905590
H1111	H111	0.910900	0.105300	0.925600
H1121	H112	0.947800	0.090400	0.898500
Cu91	Cu9	0.999980	0.518110	0.499990
Cu101	Cu10	0.062890	0.635660	0.565680
Cu111	Cu11	0.214370	0.762660	0.088960
Cu121	Cu12	0.153170	0.886850	0.027450
Cu131	Cu13	0.987880	0.992500	0.001270
Cu141	Cu14	0.045810	0.873330	0.069190
Cu151	Cu15	0.220880	0.734420	0.588700
Cu161	Cu16	0.163560	0.618910	0.514170
Cl51	Cl5	0.076340	0.548130	0.497720
Cl61	Cl6	0.136620	0.798480	0.088290
Cl71	Cl7	0.068780	0.953220	0.006430
Cl81	Cl8	0.143430	0.699940	0.586690
N171	N17	0.954170	0.569400	0.436540
N181	N18	0.695990	0.460980	0.076550
N191	N19	0.015340	0.443230	0.556350
N201	N20	0.140040	0.330910	0.942090
N211	N21	0.078880	0.587160	0.638700
N221	N22	0.196620	0.689550	0.030500
N231	N23	0.259810	0.813340	0.153500
N241	N24	0.504600	0.700290	0.519960
N251	N25	0.135810	0.841860	0.953270
N261	N26	0.006780	0.932600	0.557490
N271	N27	0.944790	0.939240	0.937480
N281	N28	0.705070	0.047840	0.565690
N291	N29	0.070010	0.920810	0.142410
N301	N30	0.204570	0.810210	0.532730
N311	N31	0.264940	0.682280	0.653040
N321	N32	0.520520	0.791610	0.014780
C1051	C105	0.966830	0.605720	0.400270
H1131	H113	0.999500	0.610800	0.409300
C1061	C106	0.935410	0.636170	0.350730
H1141	H114	0.946400	0.661700	0.326800
C1071	C107	0.887550	0.629170	0.336250
C1081	C108	0.874350	0.593800	0.374470
H1151	H115	0.841900	0.589500	0.366900
C1091	C109	0.907660	0.564940	0.423060
H1161	H116	0.897500	0.540700	0.448300
C1101	C110	0.741510	0.462900	0.086180
H1171	H117	0.753000	0.427800	0.068200
C1111	C111	0.772770	0.513500	0.121010
H1181	H118	0.804900	0.512200	0.126800
C1121	C112	0.757190	0.566090	0.147450
C1131	C113	0.709970	0.563950	0.137470
H1191	H119	0.697500	0.598900	0.154500
C1141	C114	0.680740	0.510770	0.102540
H1201	H120	0.648600	0.509800	0.096900
C1151	C115	0.851410	0.656740	0.280190
H1211	H121	0.867600	0.684700	0.260900
H1221	H122	0.829200	0.689800	0.286900
C1161	C116	0.823790	0.593550	0.242110
H1231	H123	0.805700	0.567400	0.260000
H1241	H124	0.845900	0.558800	0.237000
C1171	C117	0.789810	0.623830	0.184380
H1251	H125	0.770800	0.663500	0.190300
H1261	H126	0.808400	0.644700	0.164900
C1181	C118	0.059780	0.416560	0.580840
H1271	H127	0.083500	0.437700	0.571500
C1191	C119	0.071740	0.359620	0.618930
H1281	H128	0.103400	0.343300	0.636000
C1201	C120	0.038080	0.326500	0.632360
C1211	C121	0.992900	0.354600	0.607840
H1291	H129	0.968700	0.334300	0.616700
C1221	C122	0.982840	0.412400	0.570220
H1301	H130	0.951600	0.430700	0.553800
C1231	C123	0.168720	0.299200	0.921670
H1311	H131	0.201700	0.300100	0.943900
C1241	C124	0.151960	0.265170	0.869370
H1321	H132	0.173400	0.243800	0.856300
C1251	C125	0.103850	0.262400	0.836180
C1261	C126	0.074640	0.294700	0.857710
H1331	H133	0.041500	0.294200	0.836600
C1271	C127	0.093790	0.327700	0.910070
H1341	H134	0.073000	0.349200	0.924000
C1281	C128	0.050770	0.264680	0.673860
H1351	H135	0.074200	0.233000	0.668400
H1361	H136	0.022400	0.235100	0.667000
C1291	C129	0.071060	0.293130	0.734560
H1371	H137	0.047500	0.324700	0.739900
H1381	H138	0.099300	0.323000	0.741200
C1301	C130	0.084550	0.231010	0.777790
H1391	H139	0.056500	0.200900	0.771600
H1401	H140	0.108500	0.199500	0.773200
C1311	C131	0.124240	0.575600	0.673320
H1411	H141	0.147800	0.590700	0.661200
C1321	C132	0.138470	0.542900	0.725460
H1421	H142	0.171000	0.536100	0.748300
C1331	C133	0.105050	0.519880	0.744500
C1341	C134	0.058360	0.531600	0.708310
H1431	H143	0.034100	0.516400	0.719000
C1351	C135	0.046810	0.565100	0.656800
H1441	H144	0.014500	0.572800	0.633200
C1361	C136	0.226580	0.662100	0.010850
H1451	H145	0.257600	0.681300	0.024900
C1371	C137	0.214760	0.607000	0.971070
H1461	H146	0.237200	0.589900	0.957900
C1381	C138	0.170350	0.577270	0.950770
C1391	C139	0.138980	0.605300	0.971800
H1471	H147	0.108100	0.585900	0.959500
C1401	C140	0.153310	0.660900	0.010370
H1481	H148	0.131300	0.680000	0.023500
C1411	C141	0.119850	0.487640	0.802320
H1491	H149	0.145300	0.451700	0.809100
H1501	H150	0.092800	0.462100	0.804900
C1421	C142	0.137470	0.547920	0.847560
H1511	H151	0.163500	0.574800	0.843600
H1521	H152	0.111500	0.582700	0.841300
C1431	C143	0.154820	0.517200	0.907330
H1531	H153	0.129200	0.489000	0.911100
H1541	H154	0.181500	0.483800	0.914200
C1441	C144	0.246590	0.849000	0.189190
H1551	H155	0.213900	0.853400	0.179900
C1451	C145	0.277750	0.879800	0.238700
H1561	H156	0.266400	0.904900	0.262600
C1461	C146	0.325770	0.873980	0.253480
C1471	C147	0.339150	0.839580	0.215280
H1571	H157	0.371600	0.836200	0.222900
C1481	C148	0.306160	0.810040	0.166200
H1581	H158	0.316500	0.786700	0.140700
C1491	C149	0.459450	0.708540	0.509640
H1591	H159	0.446300	0.676600	0.528100
C1501	C150	0.430260	0.760490	0.473820
H1601	H160	0.398100	0.763100	0.467900
C1511	C151	0.448070	0.808720	0.446590
C1521	C152	0.495360	0.800820	0.457390
H1611	H161	0.509400	0.832600	0.440000
C1531	C153	0.522090	0.746760	0.493480
H1621	H162	0.554300	0.742300	0.499800
C1541	C154	0.361310	0.901790	0.308910
H1631	H163	0.345400	0.933600	0.326300
H1641	H164	0.385200	0.931300	0.302400
C1551	C155	0.386080	0.838920	0.349720
H1651	H165	0.362100	0.806600	0.353400
H1661	H166	0.404700	0.809900	0.334100
C1561	C156	0.418650	0.868030	0.407900
H1671	H167	0.439800	0.905300	0.403400
H1681	H168	0.399400	0.891700	0.425300
C1571	C157	0.167200	0.815820	0.935270
H1691	H169	0.199700	0.820500	0.959200
C1581	C158	0.154720	0.782160	0.883260
H1701	H170	0.178400	0.763800	0.872600
C1591	C159	0.107360	0.775450	0.846750
C1601	C160	0.075000	0.803740	0.864770
H1711	H171	0.042300	0.801800	0.840900
C1611	C161	0.090070	0.834980	0.917730
H1721	H172	0.066900	0.852500	0.929600
C1621	C162	0.050000	0.901930	0.574920
H1731	H173	0.070800	0.918500	0.559000
C1631	C163	0.064810	0.847900	0.614640
H1741	H174	0.095600	0.828300	0.625900
C1641	C164	0.035940	0.821600	0.638530
C1651	C165	0.991150	0.852070	0.620600
H1751	H175	0.969900	0.836000	0.636000
C1661	C166	0.977940	0.906510	0.579760
H1761	H176	0.947100	0.926100	0.567100
C1671	C167	0.052260	0.763960	0.683430
H1771	H177	0.076600	0.733500	0.678800
H1781	H178	0.025400	0.732200	0.679500
C1681	C168	0.072780	0.799070	0.742750
H1791	H179	0.098500	0.832900	0.745800
H1801	H180	0.047900	0.827600	0.747900
C1691	C169	0.091870	0.741790	0.789150
H1811	H181	0.067100	0.705100	0.783800
H1821	H182	0.118900	0.716600	0.786400
C1701	C170	0.960330	0.902010	0.904050
H1831	H183	0.993400	0.896700	0.916000
C1711	C171	0.930910	0.870920	0.853190
H1841	H184	0.943700	0.844900	0.831200
C1721	C172	0.882530	0.878300	0.834740
C1731	C173	0.866510	0.914870	0.869910
H1851	H185	0.833600	0.919700	0.859400
C1741	C174	0.897740	0.944390	0.919980
H1861	H186	0.885600	0.969400	0.943100
C1751	C175	0.749330	0.036700	0.572970
H1871	H187	0.761700	0.065900	0.552100
C1761	C176	0.778820	0.984400	0.609800
H1881	H188	0.810300	0.978900	0.613700
C1771	C177	0.761690	0.941200	0.640110
C1781	C178	0.716190	0.953300	0.633120
H1891	H189	0.703100	0.925600	0.653900
C1791	C179	0.689130	0.006600	0.595260
H1901	H190	0.657500	0.013300	0.590700
C1801	C180	0.791040	0.882500	0.679530
H1911	H191	0.810600	0.858500	0.662600
H1921	H192	0.769900	0.845300	0.684000
C1811	C181	0.823260	0.912300	0.737780
H1931	H193	0.804200	0.939900	0.753700
H1941	H194	0.846600	0.946000	0.734000
C1821	C182	0.849040	0.849820	0.777810
H1951	H195	0.825700	0.817300	0.782700
H1961	H196	0.866900	0.821000	0.761000
C1831	C183	0.116520	0.924790	0.173840
H1971	H197	0.137200	0.905400	0.158700
C1841	C184	0.136060	0.955440	0.226910
H1981	H198	0.169300	0.956400	0.247500
C1851	C185	0.106940	0.984780	0.249930
C1861	C186	0.058990	0.981350	0.217240
H1991	H199	0.037600	0.001300	0.231000
C1871	C187	0.042020	0.949280	0.164900
H2001	H200	0.008900	0.947200	0.143700
C1881	C188	0.236700	0.843300	0.519290
H2011	H201	0.268500	0.827500	0.537000
C1891	C189	0.225630	0.899200	0.480860
H2021	H202	0.249500	0.920700	0.472000
C1901	C190	0.180090	0.924090	0.455310
C1911	C191	0.146650	0.890500	0.469670
H2031	H203	0.114800	0.906100	0.453100
C1921	C192	0.160220	0.834450	0.508160
H2041	H204	0.137000	0.811900	0.517700
C1931	C193	0.126420	0.015820	0.308590
H2051	H205	0.101700	0.044300	0.314100
H2061	H206	0.152900	0.049000	0.313600
C1941	C194	0.143810	0.954510	0.352810
H2071	H207	0.117000	0.922500	0.348700
H2081	H208	0.167500	0.924800	0.346200
C1951	C195	0.165590	0.985330	0.412680
H2091	H209	0.193500	0.015200	0.417600
H2101	H210	0.142400	0.017000	0.418900
C1961	C196	0.311740	0.687400	0.668830
H2111	H211	0.323300	0.711100	0.644700
C1971	C197	0.343490	0.658900	0.719650
H2121	H212	0.376300	0.663700	0.729600
C1981	C198	0.328500	0.624020	0.755690
C1991	C199	0.280330	0.617010	0.738460
H2131	H213	0.268000	0.591500	0.761200
C2001	C200	0.250320	0.647500	0.687840
H2141	H214	0.217400	0.643500	0.677300
C2011	C201	0.534090	0.749400	0.981980
H2151	H215	0.564900	0.755600	0.983700
C2021	C202	0.505060	0.697280	0.945630
H2161	H216	0.515900	0.669200	0.922700
C2031	C203	0.460370	0.686450	0.942920
C2041	C204	0.446250	0.730310	0.976370
H2171	H217	0.415600	0.725100	0.975500
C2051	C205	0.476780	0.781600	0.010960
H2181	H218	0.466200	0.811400	0.033200
C2061	C206	0.362940	0.597020	0.812260
H2191	H219	0.383700	0.560100	0.806700
H2201	H220	0.345400	0.573300	0.831900
C2071	C207	0.393100	0.658310	0.849110
H2211	H221	0.372500	0.694700	0.855800
H2221	H222	0.410300	0.682800	0.829400
C2081	C208	0.428370	0.628400	0.905590
H2231	H223	0.410900	0.605300	0.925600
H2241	H224	0.447800	0.590400	0.898500
Cu171	Cu17	0.499980	0.981890	0.999990
Cu181	Cu18	0.562890	0.864340	0.065680
Cu191	Cu19	0.714370	0.737340	0.588960
Cu201	Cu20	0.653170	0.613150	0.527450
Cu211	Cu21	0.487880	0.507500	0.501270
Cu221	Cu22	0.545810	0.626670	0.569190
Cu231	Cu23	0.720880	0.765580	0.088700
Cu241	Cu24	0.663560	0.881090	0.014170
Cl91	Cl9	0.576340	0.951870	0.997720
Cl101	Cl10	0.636620	0.701520	0.588290
Cl111	Cl11	0.568780	0.546780	0.506430
Cl121	Cl12	0.643430	0.800060	0.086690
N331	N33	0.454170	0.930600	0.936540
N341	N34	0.195990	0.039020	0.576550
N351	N35	0.515340	0.056770	0.056350
N361	N36	0.640040	0.169090	0.442090
N371	N37	0.578880	0.912840	0.138700
N381	N38	0.696620	0.810450	0.530500
N391	N39	0.759810	0.686660	0.653500
N401	N40	0.004600	0.799710	0.019960
N411	N41	0.635810	0.658140	0.453270
N421	N42	0.506780	0.567400	0.057490
N431	N43	0.444790	0.560760	0.437480
N441	N44	0.205070	0.452160	0.065690
N451	N45	0.570010	0.579190	0.642410
N461	N46	0.704570	0.689790	0.032730
N471	N47	0.764940	0.817720	0.153040
N481	N48	0.020520	0.708390	0.514780
C2091	C209	0.466830	0.894280	0.900270
H2251	H225	0.499500	0.889200	0.909300
C2101	C210	0.435410	0.863830	0.850730
H2261	H226	0.446400	0.838300	0.826800
C2111	C211	0.387550	0.870830	0.836250
C2121	C212	0.374350	0.906200	0.874470
H2271	H227	0.341900	0.910500	0.866900
C2131	C213	0.407660	0.935060	0.923060
H2281	H228	0.397500	0.959300	0.948300
C2141	C214	0.241510	0.037100	0.586180
H2291	H229	0.253000	0.072200	0.568200
C2151	C215	0.272770	0.986500	0.621010
H2301	H230	0.304900	0.987800	0.626800
C2161	C216	0.257190	0.933910	0.647450
C2171	C217	0.209970	0.936050	0.637470
H2311	H231	0.197500	0.901100	0.654500
C2181	C218	0.180740	0.989230	0.602540
H2321	H232	0.148600	0.990200	0.596900
C2191	C219	0.351410	0.843260	0.780190
H2331	H233	0.367600	0.815300	0.760900
H2341	H234	0.329200	0.810200	0.786900
C2201	C220	0.323790	0.906450	0.742110
H2351	H235	0.305700	0.932600	0.760000
H2361	H236	0.345900	0.941200	0.737000
C2211	C221	0.289810	0.876170	0.684380
H2371	H237	0.270800	0.836500	0.690300
H2381	H238	0.308400	0.855300	0.664900
C2221	C222	0.559780	0.083440	0.080840
H2391	H239	0.583500	0.062300	0.071500
C2231	C223	0.571740	0.140380	0.118930
H2401	H240	0.603400	0.156700	0.136000
C2241	C224	0.538080	0.173500	0.132360
C2251	C225	0.492900	0.145400	0.107840
H2411	H241	0.468700	0.165700	0.116700
C2261	C226	0.482840	0.087600	0.070220
H2421	H242	0.451600	0.069300	0.053800
C2271	C227	0.668720	0.200800	0.421670
H2431	H243	0.701700	0.199900	0.443900
C2281	C228	0.651960	0.234830	0.369370
H2441	H244	0.673400	0.256200	0.356300
C2291	C229	0.603850	0.237600	0.336180
C2301	C230	0.574640	0.205300	0.357710
H2451	H245	0.541500	0.205800	0.336600
C2311	C231	0.593790	0.172300	0.410070
H2461	H246	0.573000	0.150800	0.424000
C2321	C232	0.550770	0.235320	0.173860
H2471	H247	0.574200	0.267000	0.168400
H2481	H248	0.522400	0.264900	0.167000
C2331	C233	0.571060	0.206870	0.234560
H2491	H249	0.547500	0.175300	0.239900
H2501	H250	0.599300	0.177000	0.241200
C2341	C234	0.584550	0.268990	0.277790
H2511	H251	0.556500	0.299100	0.271600
H2521	H252	0.608500	0.300500	0.273200
C2351	C235	0.624240	0.924400	0.173320
H2531	H253	0.647800	0.909300	0.161200
C2361	C236	0.638470	0.957100	0.225460
H2541	H254	0.671000	0.963900	0.248300
C2371	C237	0.605050	0.980120	0.244500
C2381	C238	0.558360	0.968400	0.208310
H2551	H255	0.534100	0.983600	0.219000
C2391	C239	0.546810	0.934900	0.156800
H2561	H256	0.514500	0.927200	0.133200
C2401	C240	0.726580	0.837900	0.510850
H2571	H257	0.757600	0.818700	0.524900
C2411	C241	0.714760	0.893000	0.471070
H2581	H258	0.737200	0.910100	0.457900
C2421	C242	0.670350	0.922730	0.450770
C2431	C243	0.638980	0.894700	0.471800
H2591	H259	0.608100	0.914100	0.459500
C2441	C244	0.653310	0.839100	0.510370
H2601	H260	0.631300	0.820000	0.523500
C2451	C245	0.619850	0.012360	0.302320
H2611	H261	0.645300	0.048300	0.309100
H2621	H262	0.592800	0.037900	0.304900
C2461	C246	0.637470	0.952080	0.347560
H2631	H263	0.663500	0.925200	0.343600
H2641	H264	0.611500	0.917300	0.341300
C2471	C247	0.654820	0.982800	0.407330
H2651	H265	0.629200	0.011000	0.411100
H2661	H266	0.681500	0.016200	0.414200
C2481	C248	0.746590	0.651000	0.689190
H2671	H267	0.713900	0.646600	0.679900
C2491	C249	0.777750	0.620200	0.738700
H2681	H268	0.766400	0.595100	0.762600
C2501	C250	0.825770	0.626020	0.753480
C2511	C251	0.839150	0.660420	0.715280
H2691	H269	0.871600	0.663800	0.722900
C2521	C252	0.806160	0.689960	0.666200
H2701	H270	0.816500	0.713300	0.640700
C2531	C253	0.959450	0.791460	0.009640
H2711	H271	0.946300	0.823400	0.028100
C2541	C254	0.930260	0.739510	0.973820
H2721	H272	0.898100	0.736900	0.967900
C2551	C255	0.948070	0.691280	0.946590
C2561	C256	0.995360	0.699180	0.957390
H2731	H273	0.009400	0.667400	0.940000
C2571	C257	0.022090	0.753240	0.993480
H2741	H274	0.054300	0.757700	0.999800
C2581	C258	0.861310	0.598210	0.808910
H2751	H275	0.845400	0.566400	0.826300
H2761	H276	0.885200	0.568700	0.802400
C2591	C259	0.886080	0.661080	0.849720
H2771	H277	0.862100	0.693400	0.853400
H2781	H278	0.904700	0.690100	0.834100
C2601	C260	0.918650	0.631970	0.907900
H2791	H279	0.939800	0.594700	0.903400
H2801	H280	0.899400	0.608300	0.925300
C2611	C261	0.667200	0.684180	0.435270
H2811	H281	0.699700	0.679500	0.459200
C2621	C262	0.654720	0.717840	0.383260
H2821	H282	0.678400	0.736200	0.372600
C2631	C263	0.607360	0.724550	0.346750
C2641	C264	0.575000	0.696260	0.364770
H2831	H283	0.542300	0.698200	0.340900
C2651	C265	0.590070	0.665020	0.417730
H2841	H284	0.566900	0.647500	0.429600
C2661	C266	0.550000	0.598070	0.074920
H2851	H285	0.570800	0.581500	0.059000
C2671	C267	0.564810	0.652100	0.114640
H2861	H286	0.595600	0.671700	0.125900
C2681	C268	0.535940	0.678400	0.138530
C2691	C269	0.491150	0.647930	0.120600
H2871	H287	0.469900	0.664000	0.136000
C2701	C270	0.477940	0.593490	0.079760
H2881	H288	0.447100	0.573900	0.067100
C2711	C271	0.552260	0.736040	0.183430
H2891	H289	0.576600	0.766500	0.178800
H2901	H290	0.525400	0.767800	0.179500
C2721	C272	0.572780	0.700930	0.242750
H2911	H291	0.598500	0.667100	0.245800
H2921	H292	0.547900	0.672400	0.247900
C2731	C273	0.591870	0.758210	0.289150
H2931	H293	0.567100	0.794900	0.283800
H2941	H294	0.618900	0.783400	0.286400
C2741	C274	0.460330	0.597990	0.404050
H2951	H295	0.493400	0.603300	0.416000
C2751	C275	0.430910	0.629080	0.353190
H2961	H296	0.443700	0.655100	0.331200
C2761	C276	0.382530	0.621700	0.334740
C2771	C277	0.366510	0.585130	0.369910
H2971	H297	0.333600	0.580300	0.359400
C2781	C278	0.397740	0.555610	0.419980
H2981	H298	0.385600	0.530600	0.443100
C2791	C279	0.249330	0.463300	0.072970
H2991	H299	0.261700	0.434100	0.052100
C2801	C280	0.278820	0.515600	0.109800
H3001	H300	0.310300	0.521100	0.113700
C2811	C281	0.261690	0.558800	0.140110
C2821	C282	0.216190	0.546700	0.133120
H3011	H301	0.203100	0.574400	0.153900
C2831	C283	0.189130	0.493400	0.095260
H3021	H302	0.157500	0.486700	0.090700
C2841	C284	0.291040	0.617500	0.179530
H3031	H303	0.310600	0.641500	0.162600
H3041	H304	0.269900	0.654700	0.184000
C2851	C285	0.323260	0.587700	0.237780
H3051	H305	0.304200	0.560100	0.253700
H3061	H306	0.346600	0.554000	0.234000
C2861	C286	0.349040	0.650180	0.277810
H3071	H307	0.325700	0.682700	0.282700
H3081	H308	0.366900	0.679000	0.261000
C2871	C287	0.616520	0.575210	0.673840
H3091	H309	0.637200	0.594600	0.658700
C2881	C288	0.636060	0.544560	0.726910
H3101	H310	0.669300	0.543600	0.747500
C2891	C289	0.606940	0.515220	0.749930
C2901	C290	0.558990	0.518650	0.717240
H3111	H311	0.537600	0.498700	0.731000
C2911	C291	0.542020	0.550720	0.664900
H3121	H312	0.508900	0.552800	0.643700
C2921	C292	0.736700	0.656700	0.019290
H3131	H313	0.768500	0.672500	0.037000
C2931	C293	0.725630	0.600800	0.980860
H3141	H314	0.749500	0.579300	0.972000
C2941	C294	0.680090	0.575910	0.955310
C2951	C295	0.646650	0.609500	0.969670
H3151	H315	0.614800	0.593900	0.953100
C2961	C296	0.660220	0.665550	0.008160
H3161	H316	0.637000	0.688100	0.017700
C2971	C297	0.626420	0.484180	0.808590
H3171	H317	0.601700	0.455700	0.814100
H3181	H318	0.652900	0.451000	0.813600
C2981	C298	0.643810	0.545490	0.852810
H3191	H319	0.617000	0.577500	0.848700
H3201	H320	0.667500	0.575200	0.846200
C2991	C299	0.665590	0.514670	0.912680
H3211	H321	0.693500	0.484800	0.917600
H3221	H322	0.642400	0.483000	0.918900
C3001	C300	0.811740	0.812600	0.168830
H3231	H323	0.823300	0.788900	0.144700
C3011	C301	0.843490	0.841100	0.219650
H3241	H324	0.876300	0.836300	0.229600
C3021	C302	0.828500	0.875980	0.255690
C3031	C303	0.780330	0.882990	0.238460
H3251	H325	0.768000	0.908500	0.261200
C3041	C304	0.750320	0.852500	0.187840
H3261	H326	0.717400	0.856500	0.177300
C3051	C305	0.034090	0.750600	0.481980
H3271	H327	0.064900	0.744400	0.483700
C3061	C306	0.005060	0.802720	0.445630
H3281	H328	0.015900	0.830800	0.422700
C3071	C307	0.960370	0.813550	0.442920
C3081	C308	0.946250	0.769690	0.476370
H3291	H329	0.915600	0.774900	0.475500
C3091	C309	0.976780	0.718400	0.510960
H3301	H330	0.966200	0.688600	0.533200
C3101	C310	0.862940	0.902980	0.312260
H3311	H331	0.883700	0.939900	0.306700
H3321	H332	0.845400	0.926700	0.331900
C3111	C311	0.893100	0.841690	0.349110
H3331	H333	0.872500	0.805300	0.355800
H3341	H334	0.910300	0.817200	0.329400
C3121	C312	0.928370	0.871600	0.405590
H3351	H335	0.910900	0.894700	0.425600
H3361	H336	0.947800	0.909600	0.398500
Cu251	Cu25	0.999980	0.481890	0.999990
Cu261	Cu26	0.062890	0.364340	0.065680
Cu271	Cu27	0.214370	0.237340	0.588960
Cu281	Cu28	0.153170	0.113150	0.527450
Cu291	Cu29	0.987880	0.007500	0.501270
Cu301	Cu30	0.045810	0.126670	0.569190
Cu311	Cu31	0.220880	0.265580	0.088700
Cu321	Cu32	0.163560	0.381090	0.014170
Cl131	Cl13	0.076340	0.451870	0.997720
Cl141	Cl14	0.136620	0.201520	0.588290
Cl151	Cl15	0.068780	0.046780	0.506430
Cl161	Cl16	0.143430	0.300060	0.086690
N491	N49	0.954170	0.430600	0.936540
N501	N50	0.695990	0.539020	0.576550
N511	N51	0.015340	0.556770	0.056350
N521	N52	0.140040	0.669090	0.442090
N531	N53	0.078880	0.412840	0.138700
N541	N54	0.196620	0.310450	0.530500
N551	N55	0.259810	0.186660	0.653500
N561	N56	0.504600	0.299710	0.019960
N571	N57	0.135810	0.158140	0.453270
N581	N58	0.006780	0.067400	0.057490
N591	N59	0.944790	0.060760	0.437480
N601	N60	0.705070	0.952160	0.065690
N611	N61	0.070010	0.079190	0.642410
N621	N62	0.204570	0.189790	0.032730
N631	N63	0.264940	0.317720	0.153040
N641	N64	0.520520	0.208390	0.514780
C3131	C313	0.966830	0.394280	0.900270
H3371	H337	0.999500	0.389200	0.909300
C3141	C314	0.935410	0.363830	0.850730
H3381	H338	0.946400	0.338300	0.826800
C3151	C315	0.887550	0.370830	0.836250
C3161	C316	0.874350	0.406200	0.874470
H3391	H339	0.841900	0.410500	0.866900
C3171	C317	0.907660	0.435060	0.923060
H3401	H340	0.897500	0.459300	0.948300
C3181	C318	0.741510	0.537100	0.586180
H3411	H341	0.753000	0.572200	0.568200
C3191	C319	0.772770	0.486500	0.621010
H3421	H342	0.804900	0.487800	0.626800
C3201	C320	0.757190	0.433910	0.647450
C3211	C321	0.709970	0.436050	0.637470
H3431	H343	0.697500	0.401100	0.654500
C3221	C322	0.680740	0.489230	0.602540
H3441	H344	0.648600	0.490200	0.596900
C3231	C323	0.851410	0.343260	0.780190
H3451	H345	0.867600	0.315300	0.760900
H3461	H346	0.829200	0.310200	0.786900
C3241	C324	0.823790	0.406450	0.742110
H3471	H347	0.805700	0.432600	0.760000
H3481	H348	0.845900	0.441200	0.737000
C3251	C325	0.789810	0.376170	0.684380
H3491	H349	0.770800	0.336500	0.690300
H3501	H350	0.808400	0.355300	0.664900
C3261	C326	0.059780	0.583440	0.080840
H3511	H351	0.083500	0.562300	0.071500
C3271	C327	0.071740	0.640380	0.118930
H3521	H352	0.103400	0.656700	0.136000
C3281	C328	0.038080	0.673500	0.132360
C3291	C329	0.992900	0.645400	0.107840
H3531	H353	0.968700	0.665700	0.116700
C3301	C330	0.982840	0.587600	0.070220
H3541	H354	0.951600	0.569300	0.053800
C3311	C331	0.168720	0.700800	0.421670
H3551	H355	0.201700	0.699900	0.443900
C3321	C332	0.151960	0.734830	0.369370
H3561	H356	0.173400	0.756200	0.356300
C3331	C333	0.103850	0.737600	0.336180
C3341	C334	0.074640	0.705300	0.357710
H3571	H357	0.041500	0.705800	0.336600
C3351	C335	0.093790	0.672300	0.410070
H3581	H358	0.073000	0.650800	0.424000
C3361	C336	0.050770	0.735320	0.173860
H3591	H359	0.074200	0.767000	0.168400
H3601	H360	0.022400	0.764900	0.167000
C3371	C337	0.071060	0.706870	0.234560
H3611	H361	0.047500	0.675300	0.239900
H3621	H362	0.099300	0.677000	0.241200
C3381	C338	0.084550	0.768990	0.277790
H3631	H363	0.056500	0.799100	0.271600
H3641	H364	0.108500	0.800500	0.273200
C3391	C339	0.124240	0.424400	0.173320
H3651	H365	0.147800	0.409300	0.161200
C3401	C340	0.138470	0.457100	0.225460
H3661	H366	0.171000	0.463900	0.248300
C3411	C341	0.105050	0.480120	0.244500
C3421	C342	0.058360	0.468400	0.208310
H3671	H367	0.034100	0.483600	0.219000
C3431	C343	0.046810	0.434900	0.156800
H3681	H368	0.014500	0.427200	0.133200
C3441	C344	0.226580	0.337900	0.510850
H3691	H369	0.257600	0.318700	0.524900
C3451	C345	0.214760	0.393000	0.471070
H3701	H370	0.237200	0.410100	0.457900
C3461	C346	0.170350	0.422730	0.450770
C3471	C347	0.138980	0.394700	0.471800
H3711	H371	0.108100	0.414100	0.459500
C3481	C348	0.153310	0.339100	0.510370
H3721	H372	0.131300	0.320000	0.523500
C3491	C349	0.119850	0.512360	0.302320
H3731	H373	0.145300	0.548300	0.309100
H3741	H374	0.092800	0.537900	0.304900
C3501	C350	0.137470	0.452080	0.347560
H3751	H375	0.163500	0.425200	0.343600
H3761	H376	0.111500	0.417300	0.341300
C3511	C351	0.154820	0.482800	0.407330
H3771	H377	0.129200	0.511000	0.411100
H3781	H378	0.181500	0.516200	0.414200
C3521	C352	0.246590	0.151000	0.689190
H3791	H379	0.213900	0.146600	0.679900
C3531	C353	0.277750	0.120200	0.738700
H3801	H380	0.266400	0.095100	0.762600
C3541	C354	0.325770	0.126020	0.753480
C3551	C355	0.339150	0.160420	0.715280
H3811	H381	0.371600	0.163800	0.722900
C3561	C356	0.306160	0.189960	0.666200
H3821	H382	0.316500	0.213300	0.640700
C3571	C357	0.459450	0.291460	0.009640
H3831	H383	0.446300	0.323400	0.028100
C3581	C358	0.430260	0.239510	0.973820
H3841	H384	0.398100	0.236900	0.967900
C3591	C359	0.448070	0.191280	0.946590
C3601	C360	0.495360	0.199180	0.957390
H3851	H385	0.509400	0.167400	0.940000
C3611	C361	0.522090	0.253240	0.993480
H3861	H386	0.554300	0.257700	0.999800
C3621	C362	0.361310	0.098210	0.808910
H3871	H387	0.345400	0.066400	0.826300
H3881	H388	0.385200	0.068700	0.802400
C3631	C363	0.386080	0.161080	0.849720
H3891	H389	0.362100	0.193400	0.853400
H3901	H390	0.404700	0.190100	0.834100
C3641	C364	0.418650	0.131970	0.907900
H3911	H391	0.439800	0.094700	0.903400
H3921	H392	0.399400	0.108300	0.925300
C3651	C365	0.167200	0.184180	0.435270
H3931	H393	0.199700	0.179500	0.459200
C3661	C366	0.154720	0.217840	0.383260
H3941	H394	0.178400	0.236200	0.372600
C3671	C367	0.107360	0.224550	0.346750
C3681	C368	0.075000	0.196260	0.364770
H3951	H395	0.042300	0.198200	0.340900
C3691	C369	0.090070	0.165020	0.417730
H3961	H396	0.066900	0.147500	0.429600
C3701	C370	0.050000	0.098070	0.074920
H3971	H397	0.070800	0.081500	0.059000
C3711	C371	0.064810	0.152100	0.114640
H3981	H398	0.095600	0.171700	0.125900
C3721	C372	0.035940	0.178400	0.138530
C3731	C373	0.991150	0.147930	0.120600
H3991	H399	0.969900	0.164000	0.136000
C3741	C374	0.977940	0.093490	0.079760
H4001	H400	0.947100	0.073900	0.067100
C3751	C375	0.052260	0.236040	0.183430
H4011	H401	0.076600	0.266500	0.178800
H4021	H402	0.025400	0.267800	0.179500
C3761	C376	0.072780	0.200930	0.242750
H4031	H403	0.098500	0.167100	0.245800
H4041	H404	0.047900	0.172400	0.247900
C3771	C377	0.091870	0.258210	0.289150
H4051	H405	0.067100	0.294900	0.283800
H4061	H406	0.118900	0.283400	0.286400
C3781	C378	0.960330	0.097990	0.404050
H4071	H407	0.993400	0.103300	0.416000
C3791	C379	0.930910	0.129080	0.353190
H4081	H408	0.943700	0.155100	0.331200
C3801	C380	0.882530	0.121700	0.334740
C3811	C381	0.866510	0.085130	0.369910
H4091	H409	0.833600	0.080300	0.359400
C3821	C382	0.897740	0.055610	0.419980
H4101	H410	0.885600	0.030600	0.443100
C3831	C383	0.749330	0.963300	0.072970
H4111	H411	0.761700	0.934100	0.052100
C3841	C384	0.778820	0.015600	0.109800
H4121	H412	0.810300	0.021100	0.113700
C3851	C385	0.761690	0.058800	0.140110
C3861	C386	0.716190	0.046700	0.133120
H4131	H413	0.703100	0.074400	0.153900
C3871	C387	0.689130	0.993400	0.095260
H4141	H414	0.657500	0.986700	0.090700
C3881	C388	0.791040	0.117500	0.179530
H4151	H415	0.810600	0.141500	0.162600
H4161	H416	0.769900	0.154700	0.184000
C3891	C389	0.823260	0.087700	0.237780
H4171	H417	0.804200	0.060100	0.253700
H4181	H418	0.846600	0.054000	0.234000
C3901	C390	0.849040	0.150180	0.277810
H4191	H419	0.825700	0.182700	0.282700
H4201	H420	0.866900	0.179000	0.261000
C3911	C391	0.116520	0.075210	0.673840
H4211	H421	0.137200	0.094600	0.658700
C3921	C392	0.136060	0.044560	0.726910
H4221	H422	0.169300	0.043600	0.747500
C3931	C393	0.106940	0.015220	0.749930
C3941	C394	0.058990	0.018650	0.717240
H4231	H423	0.037600	0.998700	0.731000
C3951	C395	0.042020	0.050720	0.664900
H4241	H424	0.008900	0.052800	0.643700
C3961	C396	0.236700	0.156700	0.019290
H4251	H425	0.268500	0.172500	0.037000
C3971	C397	0.225630	0.100800	0.980860
H4261	H426	0.249500	0.079300	0.972000
C3981	C398	0.180090	0.075910	0.955310
C3991	C399	0.146650	0.109500	0.969670
H4271	H427	0.114800	0.093900	0.953100
C4001	C400	0.160220	0.165550	0.008160
H4281	H428	0.137000	0.188100	0.017700
C4011	C401	0.126420	0.984180	0.808590
H4291	H429	0.101700	0.955700	0.814100
H4301	H430	0.152900	0.951000	0.813600
C4021	C402	0.143810	0.045490	0.852810
H4311	H431	0.117000	0.077500	0.848700
H4321	H432	0.167500	0.075200	0.846200
C4031	C403	0.165590	0.014670	0.912680
H4331	H433	0.193500	0.984800	0.917600
H4341	H434	0.142400	0.983000	0.918900
C4041	C404	0.311740	0.312600	0.168830
H4351	H435	0.323300	0.288900	0.144700
C4051	C405	0.343490	0.341100	0.219650
H4361	H436	0.376300	0.336300	0.229600
C4061	C406	0.328500	0.375980	0.255690
C4071	C407	0.280330	0.382990	0.238460
H4371	H437	0.268000	0.408500	0.261200
C4081	C408	0.250320	0.352500	0.187840
H4381	H438	0.217400	0.356500	0.177300
C4091	C409	0.534090	0.250600	0.481980
H4391	H439	0.564900	0.244400	0.483700
C4101	C410	0.505060	0.302720	0.445630
H4401	H440	0.515900	0.330800	0.422700
C4111	C411	0.460370	0.313550	0.442920
C4121	C412	0.446250	0.269690	0.476370
H4411	H441	0.415600	0.274900	0.475500
C4131	C413	0.476780	0.218400	0.510960
H4421	H442	0.466200	0.188600	0.533200
C4141	C414	0.362940	0.402980	0.312260
H4431	H443	0.383700	0.439900	0.306700
H4441	H444	0.345400	0.426700	0.331900
C4151	C415	0.393100	0.341690	0.349110
H4451	H445	0.372500	0.305300	0.355800
H4461	H446	0.410300	0.317200	0.329400
C4161	C416	0.428370	0.371600	0.405590
H4471	H447	0.410900	0.394700	0.425600
H4481	H448	0.447800	0.409600	0.398500
