data_FAFJIH_SL_PM
_symmetry_space_group_name_H-M	'P1'
_cell_length_a	12.489500
_cell_length_b	12.489500
_cell_length_c	18.254000
_cell_angle_alpha	98.756700
_cell_angle_beta	98.756700
_cell_angle_gamma	116.378000
_symmetry_Int_Tables_number 1

loop_
_symmetry_equiv_pos_as_xyz
'x,y,z'

loop_
_atom_site_label
_atom_site_type_symbol
_atom_site_fract_x
_atom_site_fract_y
_atom_site_fract_z
Zn11	Zn1	0.802180	0.659060	0.040910
Zn21	Zn2	0.340940	0.197820	0.459090
Zn31	Zn3	0.197820	0.340940	0.959090
Zn41	Zn4	0.659060	0.802180	0.540910
Zn51	Zn5	0.248550	0.751450	0.750000
Zn61	Zn6	0.751450	0.248550	0.250000
B71	B7	0.715900	0.029500	0.950000
B81	B8	0.970500	0.284100	0.550000
B91	B9	0.284100	0.970500	0.050000
B101	B10	0.029500	0.715900	0.450000
H111	H11	0.799000	0.969000	0.820000
H121	H12	0.036000	0.116000	0.831000
H131	H13	0.954000	0.238000	0.009000
H141	H14	0.581000	0.705000	0.072000
H151	H15	0.536000	0.880000	0.039000
H161	H16	0.838000	0.896000	0.964000
H171	H17	0.787000	0.067000	0.118000
H181	H18	0.753000	0.355000	0.110000
H191	H19	0.708000	0.268000	0.963000
H201	H20	0.662500	0.124900	0.821600
H211	H21	0.482000	0.976000	0.726000
H221	H22	0.513000	0.817000	0.889000
H231	H23	0.793000	0.535000	0.740000
H241	H24	0.583000	0.355000	0.870000
H251	H25	0.735000	0.639000	0.315000
H261	H26	0.031000	0.201000	0.680000
H271	H27	0.884000	0.964000	0.669000
H281	H28	0.762000	0.046000	0.491000
H291	H29	0.295000	0.419000	0.428000
H301	H30	0.120000	0.464000	0.461000
H311	H31	0.104000	0.162000	0.536000
H321	H32	0.933000	0.213000	0.382000
H331	H33	0.645000	0.247000	0.390000
H341	H34	0.732000	0.292000	0.537000
H351	H35	0.875100	0.337500	0.678400
H361	H36	0.024000	0.518000	0.774000
H371	H37	0.183000	0.487000	0.611000
H381	H38	0.465000	0.207000	0.760000
H391	H39	0.645000	0.417000	0.630000
H401	H40	0.361000	0.265000	0.185000
H411	H41	0.201000	0.031000	0.180000
H421	H42	0.964000	0.884000	0.169000
H431	H43	0.046000	0.762000	0.991000
H441	H44	0.419000	0.295000	0.928000
H451	H45	0.464000	0.120000	0.961000
H461	H46	0.162000	0.104000	0.036000
H471	H47	0.213000	0.933000	0.882000
H481	H48	0.247000	0.645000	0.890000
H491	H49	0.292000	0.732000	0.037000
H501	H50	0.337500	0.875100	0.178400
H511	H51	0.518000	0.024000	0.274000
H521	H52	0.487000	0.183000	0.111000
H531	H53	0.207000	0.465000	0.260000
H541	H54	0.417000	0.645000	0.130000
H551	H55	0.265000	0.361000	0.685000
H561	H56	0.969000	0.799000	0.320000
H571	H57	0.116000	0.036000	0.331000
H581	H58	0.238000	0.954000	0.509000
H591	H59	0.705000	0.581000	0.572000
H601	H60	0.880000	0.536000	0.539000
H611	H61	0.896000	0.838000	0.464000
H621	H62	0.067000	0.787000	0.618000
H631	H63	0.355000	0.753000	0.610000
H641	H64	0.268000	0.708000	0.463000
H651	H65	0.124900	0.662500	0.321600
H661	H66	0.976000	0.482000	0.226000
H671	H67	0.817000	0.513000	0.389000
H681	H68	0.535000	0.793000	0.240000
H691	H69	0.355000	0.583000	0.370000
H701	H70	0.639000	0.735000	0.815000
C711	C71	0.858100	0.034100	0.855400
C721	C72	0.973700	0.114500	0.854800
C731	C73	0.939100	0.187700	0.960400
C741	C74	0.622600	0.761200	0.038200
C751	C75	0.604500	0.852300	0.019300
C761	C76	0.763700	0.856100	0.980800
C771	C77	0.757300	0.133100	0.092300
C781	C78	0.756000	0.302600	0.087000
C791	C79	0.721300	0.236100	0.013100
C801	C80	0.601400	0.047800	0.822400
C811	C81	0.496300	0.978100	0.769200
C821	C82	0.497300	0.881500	0.855500
C831	C83	0.793400	0.551600	0.890800
C841	C84	0.730400	0.474600	0.746600
C851	C85	0.708300	0.455300	0.816600
C861	C86	0.607200	0.351800	0.819500
C871	C87	0.718300	0.613300	0.172500
C881	C88	0.628900	0.528900	0.212200
C891	C89	0.651400	0.559800	0.292200
C901	C90	0.521300	0.425700	0.169300
C911	C91	0.965900	0.141900	0.644600
C921	C92	0.885500	0.026300	0.645200
C931	C93	0.812300	0.060900	0.539600
C941	C94	0.238800	0.377400	0.461800
C951	C95	0.147700	0.395500	0.480700
C961	C96	0.143900	0.236300	0.519200
C971	C97	0.866900	0.242700	0.407700
C981	C98	0.697400	0.244000	0.413000
C991	C99	0.763900	0.278700	0.486900
C1001	C100	0.952200	0.398600	0.677600
C1011	C101	0.021900	0.503700	0.730800
C1021	C102	0.118500	0.502700	0.644500
C1031	C103	0.448400	0.206600	0.609200
C1041	C104	0.525400	0.269600	0.753400
C1051	C105	0.544700	0.291700	0.683400
C1061	C106	0.648200	0.392800	0.680500
C1071	C107	0.386700	0.281700	0.327500
C1081	C108	0.471100	0.371100	0.287800
C1091	C109	0.440200	0.348600	0.207800
C1101	C110	0.574300	0.478700	0.330700
C1111	C111	0.141900	0.965900	0.144600
C1121	C112	0.026300	0.885500	0.145200
C1131	C113	0.060900	0.812300	0.039600
C1141	C114	0.377400	0.238800	0.961800
C1151	C115	0.395500	0.147700	0.980700
C1161	C116	0.236300	0.143900	0.019200
C1171	C117	0.242700	0.866900	0.907700
C1181	C118	0.244000	0.697400	0.913000
C1191	C119	0.278700	0.763900	0.986900
C1201	C120	0.398600	0.952200	0.177600
C1211	C121	0.503700	0.021900	0.230800
C1221	C122	0.502700	0.118500	0.144500
C1231	C123	0.206600	0.448400	0.109200
C1241	C124	0.269600	0.525400	0.253400
C1251	C125	0.291700	0.544700	0.183400
C1261	C126	0.392800	0.648200	0.180500
C1271	C127	0.281700	0.386700	0.827500
C1281	C128	0.371100	0.471100	0.787800
C1291	C129	0.348600	0.440200	0.707800
C1301	C130	0.478700	0.574300	0.830700
C1311	C131	0.034100	0.858100	0.355400
C1321	C132	0.114500	0.973700	0.354800
C1331	C133	0.187700	0.939100	0.460400
C1341	C134	0.761200	0.622600	0.538200
C1351	C135	0.852300	0.604500	0.519300
C1361	C136	0.856100	0.763700	0.480800
C1371	C137	0.133100	0.757300	0.592300
C1381	C138	0.302600	0.756000	0.587000
C1391	C139	0.236100	0.721300	0.513100
C1401	C140	0.047800	0.601400	0.322400
C1411	C141	0.978100	0.496300	0.269200
C1421	C142	0.881500	0.497300	0.355500
C1431	C143	0.551600	0.793400	0.390800
C1441	C144	0.474600	0.730400	0.246600
C1451	C145	0.455300	0.708300	0.316600
C1461	C146	0.351800	0.607200	0.319500
C1471	C147	0.613300	0.718300	0.672500
C1481	C148	0.528900	0.628900	0.712200
C1491	C149	0.559800	0.651400	0.792200
C1501	C150	0.425700	0.521300	0.669300
N1511	N151	0.024400	0.212000	0.920600
N1521	N152	0.834500	0.081100	0.922600
N1531	N153	0.722200	0.762000	0.014300
N1541	N154	0.695400	0.914600	0.982200
N1551	N155	0.773400	0.238000	0.137200
N1561	N156	0.722700	0.128700	0.016700
N1571	N157	0.605400	0.987200	0.879200
N1581	N158	0.428600	0.872000	0.789800
N1591	N159	0.788000	0.975600	0.579400
N1601	N160	0.918900	0.165500	0.577400
N1611	N161	0.238000	0.277800	0.485700
N1621	N162	0.085400	0.304600	0.517800
N1631	N163	0.762000	0.226600	0.362800
N1641	N164	0.871300	0.277300	0.483300
N1651	N165	0.012800	0.394600	0.620800
N1661	N166	0.128000	0.571400	0.710200
N1671	N167	0.975600	0.788000	0.079400
N1681	N168	0.165500	0.918900	0.077400
N1691	N169	0.277800	0.238000	0.985700
N1701	N170	0.304600	0.085400	0.017800
N1711	N171	0.226600	0.762000	0.862800
N1721	N172	0.277300	0.871300	0.983300
N1731	N173	0.394600	0.012800	0.120800
N1741	N174	0.571400	0.128000	0.210200
N1751	N175	0.212000	0.024400	0.420600
N1761	N176	0.081100	0.834500	0.422600
N1771	N177	0.762000	0.722200	0.514300
N1781	N178	0.914600	0.695400	0.482200
N1791	N179	0.238000	0.773400	0.637200
N1801	N180	0.128700	0.722700	0.516700
N1811	N181	0.987200	0.605400	0.379200
N1821	N182	0.872000	0.428600	0.289800
O1831	O183	0.875800	0.650400	0.887700
O1841	O184	0.763300	0.525900	0.953700
O1851	O185	0.793900	0.720700	0.207200
O1861	O186	0.705900	0.562100	0.102700
O1871	O187	0.349600	0.124200	0.612300
O1881	O188	0.474100	0.236700	0.546300
O1891	O189	0.279300	0.206100	0.292800
O1901	O190	0.437900	0.294100	0.397300
O1911	O191	0.124200	0.349600	0.112300
O1921	O192	0.236700	0.474100	0.046300
O1931	O193	0.206100	0.279300	0.792800
O1941	O194	0.294100	0.437900	0.897300
O1951	O195	0.650400	0.875800	0.387700
O1961	O196	0.525900	0.763300	0.453700
O1971	O197	0.720700	0.793900	0.707200
O1981	O198	0.562100	0.705900	0.602700
H1991	H199	0.499310	0.404060	0.104150
H2001	H200	0.595940	0.500690	0.395850
H2011	H201	0.500690	0.595940	0.895850
H2021	H202	0.404060	0.499310	0.604150
