data_FAGMAE_clean_PM
_symmetry_space_group_name_H-M	'P1'
_cell_length_a	24.958000
_cell_length_b	24.958000
_cell_length_c	13.849600
_cell_angle_alpha	90.000000
_cell_angle_beta	90.000000
_cell_angle_gamma	90.000000
_symmetry_Int_Tables_number 1

loop_
_symmetry_equiv_pos_as_xyz
'x,y,z'

loop_
_atom_site_label
_atom_site_type_symbol
_atom_site_fract_x
_atom_site_fract_y
_atom_site_fract_z
S11	S1	0.342700	0.469650	0.492700
C11	C1	0.393700	0.427600	0.447200
C21	C2	0.437600	0.408200	0.498000
C31	C3	0.472800	0.372500	0.454000
C41	C4	0.464100	0.356300	0.359300
H11	H1	0.488100	0.332000	0.329300
C51	C5	0.420100	0.375800	0.308500
C61	C6	0.384900	0.411400	0.352500
H21	H2	0.354900	0.424700	0.317700
S21	S2	0.450340	0.426110	0.623000
C71	C7	0.392800	0.398400	0.685400
H31	H3	0.387500	0.418000	0.746800
H41	H4	0.360500	0.403600	0.645200
C81	C8	0.399200	0.341100	0.706300
H51	H5	0.364500	0.327100	0.729700
H61	H6	0.407600	0.322400	0.645000
N11	N1	0.440000	0.327300	0.776100
N21	N2	0.477700	0.290100	0.762000
C91	C9	0.505400	0.285700	0.840500
H71	H7	0.535700	0.263200	0.849200
C101	C10	0.483700	0.319400	0.910000
H81	H8	0.495400	0.324400	0.974700
C111	C11	0.441600	0.343900	0.864500
H91	H9	0.417600	0.368800	0.893000
C121	C12	0.413000	0.363500	0.198200
C131	C13	0.429000	0.411600	0.139000
H101	H10	0.455800	0.400900	0.091100
H111	H11	0.444200	0.439100	0.181500
H121	H12	0.397400	0.426000	0.106000
C141	C14	0.353000	0.348100	0.179900
H131	H13	0.351300	0.318300	0.134000
H141	H14	0.333900	0.379100	0.153400
H151	H15	0.336400	0.337400	0.241000
C151	C15	0.446900	0.315400	0.165700
H161	H16	0.441800	0.285600	0.210900
H171	H17	0.484800	0.325600	0.164500
H181	H18	0.435700	0.304200	0.100900
S31	S3	0.842700	0.969650	0.992700
C161	C16	0.893700	0.927600	0.947200
C171	C17	0.937600	0.908200	0.998000
C181	C18	0.972800	0.872500	0.954000
C191	C19	0.964100	0.856300	0.859300
H191	H19	0.988100	0.832000	0.829300
C201	C20	0.920100	0.875800	0.808500
C211	C21	0.884900	0.911400	0.852500
H201	H20	0.854900	0.924700	0.817700
S41	S4	0.950340	0.926110	0.123000
C221	C22	0.892800	0.898400	0.185400
H211	H21	0.887500	0.918000	0.246800
H221	H22	0.860500	0.903600	0.145200
C231	C23	0.899200	0.841100	0.206300
H231	H23	0.864500	0.827100	0.229700
H241	H24	0.907600	0.822400	0.145000
N31	N3	0.940000	0.827300	0.276100
N41	N4	0.977700	0.790100	0.262000
C241	C24	0.005400	0.785700	0.340500
H251	H25	0.035700	0.763200	0.349200
C251	C25	0.983700	0.819400	0.410000
H261	H26	0.995400	0.824400	0.474700
C261	C26	0.941600	0.843900	0.364500
H271	H27	0.917600	0.868800	0.393000
C271	C27	0.913000	0.863500	0.698200
C281	C28	0.929000	0.911600	0.639000
H281	H28	0.955800	0.900900	0.591100
H291	H29	0.944200	0.939100	0.681500
H301	H30	0.897400	0.926000	0.606000
C291	C29	0.853000	0.848100	0.679900
H311	H31	0.851300	0.818300	0.634000
H321	H32	0.833900	0.879100	0.653400
H331	H33	0.836400	0.837400	0.741000
C301	C30	0.946900	0.815400	0.665700
H341	H34	0.941800	0.785600	0.710900
H351	H35	0.984800	0.825600	0.664500
H361	H36	0.935700	0.804200	0.600900
S51	S5	0.657300	0.530350	0.492700
C311	C31	0.606300	0.572400	0.447200
C321	C32	0.562400	0.591800	0.498000
C331	C33	0.527200	0.627500	0.454000
C341	C34	0.535900	0.643700	0.359300
H371	H37	0.511900	0.668000	0.329300
C351	C35	0.579900	0.624200	0.308500
C361	C36	0.615100	0.588600	0.352500
H381	H38	0.645100	0.575300	0.317700
S61	S6	0.549660	0.573890	0.623000
C371	C37	0.607200	0.601600	0.685400
H391	H39	0.612500	0.582000	0.746800
H401	H40	0.639500	0.596400	0.645200
C381	C38	0.600800	0.658900	0.706300
H411	H41	0.635500	0.672900	0.729700
H421	H42	0.592400	0.677600	0.645000
N51	N5	0.560000	0.672700	0.776100
N61	N6	0.522300	0.709900	0.762000
C391	C39	0.494600	0.714300	0.840500
H431	H43	0.464300	0.736800	0.849200
C401	C40	0.516300	0.680600	0.910000
H441	H44	0.504600	0.675600	0.974700
C411	C41	0.558400	0.656100	0.864500
H451	H45	0.582400	0.631200	0.893000
C421	C42	0.587000	0.636500	0.198200
C431	C43	0.571000	0.588400	0.139000
H461	H46	0.544200	0.599100	0.091100
H471	H47	0.555800	0.560900	0.181500
H481	H48	0.602600	0.574000	0.106000
C441	C44	0.647000	0.651900	0.179900
H491	H49	0.648700	0.681700	0.134000
H501	H50	0.666100	0.620900	0.153400
H511	H51	0.663600	0.662600	0.241000
C451	C45	0.553100	0.684600	0.165700
H521	H52	0.558200	0.714400	0.210900
H531	H53	0.515200	0.674400	0.164500
H541	H54	0.564300	0.695800	0.100900
S71	S7	0.157300	0.030350	0.992700
C461	C46	0.106300	0.072400	0.947200
C471	C47	0.062400	0.091800	0.998000
C481	C48	0.027200	0.127500	0.954000
C491	C49	0.035900	0.143700	0.859300
H551	H55	0.011900	0.168000	0.829300
C501	C50	0.079900	0.124200	0.808500
C511	C51	0.115100	0.088600	0.852500
H561	H56	0.145100	0.075300	0.817700
S81	S8	0.049660	0.073890	0.123000
C521	C52	0.107200	0.101600	0.185400
H571	H57	0.112500	0.082000	0.246800
H581	H58	0.139500	0.096400	0.145200
C531	C53	0.100800	0.158900	0.206300
H591	H59	0.135500	0.172900	0.229700
H601	H60	0.092400	0.177600	0.145000
N71	N7	0.060000	0.172700	0.276100
N81	N8	0.022300	0.209900	0.262000
C541	C54	0.994600	0.214300	0.340500
H611	H61	0.964300	0.236800	0.349200
C551	C55	0.016300	0.180600	0.410000
H621	H62	0.004600	0.175600	0.474700
C561	C56	0.058400	0.156100	0.364500
H631	H63	0.082400	0.131200	0.393000
C571	C57	0.087000	0.136500	0.698200
C581	C58	0.071000	0.088400	0.639000
H641	H64	0.044200	0.099100	0.591100
H651	H65	0.055800	0.060900	0.681500
H661	H66	0.102600	0.074000	0.606000
C591	C59	0.147000	0.151900	0.679900
H671	H67	0.148700	0.181700	0.634000
H681	H68	0.166100	0.120900	0.653400
H691	H69	0.163600	0.162600	0.741000
C601	C60	0.053100	0.184600	0.665700
H701	H70	0.058200	0.214400	0.710900
H711	H71	0.015200	0.174400	0.664500
H721	H72	0.064300	0.195800	0.600900
S91	S9	0.469650	0.657300	0.507300
C611	C61	0.427600	0.606300	0.552800
C621	C62	0.408200	0.562400	0.502000
C631	C63	0.372500	0.527200	0.546000
C641	C64	0.356300	0.535900	0.640700
H731	H73	0.332000	0.511900	0.670700
C651	C65	0.375800	0.579900	0.691500
C661	C66	0.411400	0.615100	0.647500
H741	H74	0.424700	0.645100	0.682300
S101	S10	0.426110	0.549660	0.377000
C671	C67	0.398400	0.607200	0.314600
H751	H75	0.418000	0.612500	0.253200
H761	H76	0.403600	0.639500	0.354800
C681	C68	0.341100	0.600800	0.293700
H771	H77	0.327100	0.635500	0.270300
H781	H78	0.322400	0.592400	0.355000
N91	N9	0.327300	0.560000	0.223900
N101	N10	0.290100	0.522300	0.238000
C691	C69	0.285700	0.494600	0.159500
H791	H79	0.263200	0.464300	0.150800
C701	C70	0.319400	0.516300	0.090000
H801	H80	0.324400	0.504600	0.025300
C711	C71	0.343900	0.558400	0.135500
H811	H81	0.368800	0.582400	0.107000
C721	C72	0.363500	0.587000	0.801800
C731	C73	0.411600	0.571000	0.861000
H821	H82	0.400900	0.544200	0.908900
H831	H83	0.439100	0.555800	0.818500
H841	H84	0.426000	0.602600	0.894000
C741	C74	0.348100	0.647000	0.820100
H851	H85	0.318300	0.648700	0.866000
H861	H86	0.379100	0.666100	0.846600
H871	H87	0.337400	0.663600	0.759000
C751	C75	0.315400	0.553100	0.834300
H881	H88	0.285600	0.558200	0.789100
H891	H89	0.325600	0.515200	0.835500
H901	H90	0.304200	0.564300	0.899100
S111	S11	0.969650	0.157300	0.007300
C761	C76	0.927600	0.106300	0.052800
C771	C77	0.908200	0.062400	0.002000
C781	C78	0.872500	0.027200	0.046000
C791	C79	0.856300	0.035900	0.140700
H911	H91	0.832000	0.011900	0.170700
C801	C80	0.875800	0.079900	0.191500
C811	C81	0.911400	0.115100	0.147500
H921	H92	0.924700	0.145100	0.182300
S121	S12	0.926110	0.049660	0.877000
C821	C82	0.898400	0.107200	0.814600
H931	H93	0.918000	0.112500	0.753200
H941	H94	0.903600	0.139500	0.854800
C831	C83	0.841100	0.100800	0.793700
H951	H95	0.827100	0.135500	0.770300
H961	H96	0.822400	0.092400	0.855000
N111	N11	0.827300	0.060000	0.723900
N121	N12	0.790100	0.022300	0.738000
C841	C84	0.785700	0.994600	0.659500
H971	H97	0.763200	0.964300	0.650800
C851	C85	0.819400	0.016300	0.590000
H981	H98	0.824400	0.004600	0.525300
C861	C86	0.843900	0.058400	0.635500
H991	H99	0.868800	0.082400	0.607000
C871	C87	0.863500	0.087000	0.301800
C881	C88	0.911600	0.071000	0.361000
H1001	H100	0.900900	0.044200	0.408900
H1011	H101	0.939100	0.055800	0.318500
H1021	H102	0.926000	0.102600	0.394000
C891	C89	0.848100	0.147000	0.320100
H1031	H103	0.818300	0.148700	0.366000
H1041	H104	0.879100	0.166100	0.346600
H1051	H105	0.837400	0.163600	0.259000
C901	C90	0.815400	0.053100	0.334300
H1061	H106	0.785600	0.058200	0.289100
H1071	H107	0.825600	0.015200	0.335500
H1081	H108	0.804200	0.064300	0.399100
S131	S13	0.530350	0.342700	0.507300
C911	C91	0.572400	0.393700	0.552800
C921	C92	0.591800	0.437600	0.502000
C931	C93	0.627500	0.472800	0.546000
C941	C94	0.643700	0.464100	0.640700
H1091	H109	0.668000	0.488100	0.670700
C951	C95	0.624200	0.420100	0.691500
C961	C96	0.588600	0.384900	0.647500
H1101	H110	0.575300	0.354900	0.682300
S141	S14	0.573890	0.450340	0.377000
C971	C97	0.601600	0.392800	0.314600
H1111	H111	0.582000	0.387500	0.253200
H1121	H112	0.596400	0.360500	0.354800
C981	C98	0.658900	0.399200	0.293700
H1131	H113	0.672900	0.364500	0.270300
H1141	H114	0.677600	0.407600	0.355000
N131	N13	0.672700	0.440000	0.223900
N141	N14	0.709900	0.477700	0.238000
C991	C99	0.714300	0.505400	0.159500
H1151	H115	0.736800	0.535700	0.150800
C1001	C100	0.680600	0.483700	0.090000
H1161	H116	0.675600	0.495400	0.025300
C1011	C101	0.656100	0.441600	0.135500
H1171	H117	0.631200	0.417600	0.107000
C1021	C102	0.636500	0.413000	0.801800
C1031	C103	0.588400	0.429000	0.861000
H1181	H118	0.599100	0.455800	0.908900
H1191	H119	0.560900	0.444200	0.818500
H1201	H120	0.574000	0.397400	0.894000
C1041	C104	0.651900	0.353000	0.820100
H1211	H121	0.681700	0.351300	0.866000
H1221	H122	0.620900	0.333900	0.846600
H1231	H123	0.662600	0.336400	0.759000
C1051	C105	0.684600	0.446900	0.834300
H1241	H124	0.714400	0.441800	0.789100
H1251	H125	0.674400	0.484800	0.835500
H1261	H126	0.695800	0.435700	0.899100
S151	S15	0.030350	0.842700	0.007300
C1061	C106	0.072400	0.893700	0.052800
C1071	C107	0.091800	0.937600	0.002000
C1081	C108	0.127500	0.972800	0.046000
C1091	C109	0.143700	0.964100	0.140700
H1271	H127	0.168000	0.988100	0.170700
C1101	C110	0.124200	0.920100	0.191500
C1111	C111	0.088600	0.884900	0.147500
H1281	H128	0.075300	0.854900	0.182300
S161	S16	0.073890	0.950340	0.877000
C1121	C112	0.101600	0.892800	0.814600
H1291	H129	0.082000	0.887500	0.753200
H1301	H130	0.096400	0.860500	0.854800
C1131	C113	0.158900	0.899200	0.793700
H1311	H131	0.172900	0.864500	0.770300
H1321	H132	0.177600	0.907600	0.855000
N151	N15	0.172700	0.940000	0.723900
N161	N16	0.209900	0.977700	0.738000
C1141	C114	0.214300	0.005400	0.659500
H1331	H133	0.236800	0.035700	0.650800
C1151	C115	0.180600	0.983700	0.590000
H1341	H134	0.175600	0.995400	0.525300
C1161	C116	0.156100	0.941600	0.635500
H1351	H135	0.131200	0.917600	0.607000
C1171	C117	0.136500	0.913000	0.301800
C1181	C118	0.088400	0.929000	0.361000
H1361	H136	0.099100	0.955800	0.408900
H1371	H137	0.060900	0.944200	0.318500
H1381	H138	0.074000	0.897400	0.394000
C1191	C119	0.151900	0.853000	0.320100
H1391	H139	0.181700	0.851300	0.366000
H1401	H140	0.120900	0.833900	0.346600
H1411	H141	0.162600	0.836400	0.259000
C1201	C120	0.184600	0.946900	0.334300
H1421	H142	0.214400	0.941800	0.289100
H1431	H143	0.174400	0.984800	0.335500
H1441	H144	0.195800	0.935700	0.399100
S171	S17	0.157300	0.469650	0.257300
C1211	C121	0.106300	0.427600	0.302800
C1221	C122	0.062400	0.408200	0.252000
C1231	C123	0.027200	0.372500	0.296000
C1241	C124	0.035900	0.356300	0.390700
H1451	H145	0.011900	0.332000	0.420700
C1251	C125	0.079900	0.375800	0.441500
C1261	C126	0.115100	0.411400	0.397500
H1461	H146	0.145100	0.424700	0.432300
S181	S18	0.049660	0.426110	0.127000
C1271	C127	0.107200	0.398400	0.064600
H1471	H147	0.112500	0.418000	0.003200
H1481	H148	0.139500	0.403600	0.104800
C1281	C128	0.100800	0.341100	0.043700
H1491	H149	0.135500	0.327100	0.020300
H1501	H150	0.092400	0.322400	0.105000
N171	N17	0.060000	0.327300	0.973900
N181	N18	0.022300	0.290100	0.988000
C1291	C129	0.994600	0.285700	0.909500
H1511	H151	0.964300	0.263200	0.900800
C1301	C130	0.016300	0.319400	0.840000
H1521	H152	0.004600	0.324400	0.775300
C1311	C131	0.058400	0.343900	0.885500
H1531	H153	0.082400	0.368800	0.857000
C1321	C132	0.087000	0.363500	0.551800
C1331	C133	0.071000	0.411600	0.611000
H1541	H154	0.044200	0.400900	0.658900
H1551	H155	0.055800	0.439100	0.568500
H1561	H156	0.102600	0.426000	0.644000
C1341	C134	0.147000	0.348100	0.570100
H1571	H157	0.148700	0.318300	0.616000
H1581	H158	0.166100	0.379100	0.596600
H1591	H159	0.163600	0.337400	0.509000
C1351	C135	0.053100	0.315400	0.584300
H1601	H160	0.058200	0.285600	0.539100
H1611	H161	0.015200	0.325600	0.585500
H1621	H162	0.064300	0.304200	0.649100
S191	S19	0.657300	0.969650	0.757300
C1361	C136	0.606300	0.927600	0.802800
C1371	C137	0.562400	0.908200	0.752000
C1381	C138	0.527200	0.872500	0.796000
C1391	C139	0.535900	0.856300	0.890700
H1631	H163	0.511900	0.832000	0.920700
C1401	C140	0.579900	0.875800	0.941500
C1411	C141	0.615100	0.911400	0.897500
H1641	H164	0.645100	0.924700	0.932300
S201	S20	0.549660	0.926110	0.627000
C1421	C142	0.607200	0.898400	0.564600
H1651	H165	0.612500	0.918000	0.503200
H1661	H166	0.639500	0.903600	0.604800
C1431	C143	0.600800	0.841100	0.543700
H1671	H167	0.635500	0.827100	0.520300
H1681	H168	0.592400	0.822400	0.605000
N191	N19	0.560000	0.827300	0.473900
N201	N20	0.522300	0.790100	0.488000
C1441	C144	0.494600	0.785700	0.409500
H1691	H169	0.464300	0.763200	0.400800
C1451	C145	0.516300	0.819400	0.340000
H1701	H170	0.504600	0.824400	0.275300
C1461	C146	0.558400	0.843900	0.385500
H1711	H171	0.582400	0.868800	0.357000
C1471	C147	0.587000	0.863500	0.051800
C1481	C148	0.571000	0.911600	0.111000
H1721	H172	0.544200	0.900900	0.158900
H1731	H173	0.555800	0.939100	0.068500
H1741	H174	0.602600	0.926000	0.144000
C1491	C149	0.647000	0.848100	0.070100
H1751	H175	0.648700	0.818300	0.116000
H1761	H176	0.666100	0.879100	0.096600
H1771	H177	0.663600	0.837400	0.009000
C1501	C150	0.553100	0.815400	0.084300
H1781	H178	0.558200	0.785600	0.039100
H1791	H179	0.515200	0.825600	0.085500
H1801	H180	0.564300	0.804200	0.149100
S211	S21	0.842700	0.530350	0.257300
C1511	C151	0.893700	0.572400	0.302800
C1521	C152	0.937600	0.591800	0.252000
C1531	C153	0.972800	0.627500	0.296000
C1541	C154	0.964100	0.643700	0.390700
H1811	H181	0.988100	0.668000	0.420700
C1551	C155	0.920100	0.624200	0.441500
C1561	C156	0.884900	0.588600	0.397500
H1821	H182	0.854900	0.575300	0.432300
S221	S22	0.950340	0.573890	0.127000
C1571	C157	0.892800	0.601600	0.064600
H1831	H183	0.887500	0.582000	0.003200
H1841	H184	0.860500	0.596400	0.104800
C1581	C158	0.899200	0.658900	0.043700
H1851	H185	0.864500	0.672900	0.020300
H1861	H186	0.907600	0.677600	0.105000
N211	N21	0.940000	0.672700	0.973900
N221	N22	0.977700	0.709900	0.988000
C1591	C159	0.005400	0.714300	0.909500
H1871	H187	0.035700	0.736800	0.900800
C1601	C160	0.983700	0.680600	0.840000
H1881	H188	0.995400	0.675600	0.775300
C1611	C161	0.941600	0.656100	0.885500
H1891	H189	0.917600	0.631200	0.857000
C1621	C162	0.913000	0.636500	0.551800
C1631	C163	0.929000	0.588400	0.611000
H1901	H190	0.955800	0.599100	0.658900
H1911	H191	0.944200	0.560900	0.568500
H1921	H192	0.897400	0.574000	0.644000
C1641	C164	0.853000	0.651900	0.570100
H1931	H193	0.851300	0.681700	0.616000
H1941	H194	0.833900	0.620900	0.596600
H1951	H195	0.836400	0.662600	0.509000
C1651	C165	0.946900	0.684600	0.584300
H1961	H196	0.941800	0.714400	0.539100
H1971	H197	0.984800	0.674400	0.585500
H1981	H198	0.935700	0.695800	0.649100
S231	S23	0.342700	0.030350	0.757300
C1661	C166	0.393700	0.072400	0.802800
C1671	C167	0.437600	0.091800	0.752000
C1681	C168	0.472800	0.127500	0.796000
C1691	C169	0.464100	0.143700	0.890700
H1991	H199	0.488100	0.168000	0.920700
C1701	C170	0.420100	0.124200	0.941500
C1711	C171	0.384900	0.088600	0.897500
H2001	H200	0.354900	0.075300	0.932300
S241	S24	0.450340	0.073890	0.627000
C1721	C172	0.392800	0.101600	0.564600
H2011	H201	0.387500	0.082000	0.503200
H2021	H202	0.360500	0.096400	0.604800
C1731	C173	0.399200	0.158900	0.543700
H2031	H203	0.364500	0.172900	0.520300
H2041	H204	0.407600	0.177600	0.605000
N231	N23	0.440000	0.172700	0.473900
N241	N24	0.477700	0.209900	0.488000
C1741	C174	0.505400	0.214300	0.409500
H2051	H205	0.535700	0.236800	0.400800
C1751	C175	0.483700	0.180600	0.340000
H2061	H206	0.495400	0.175600	0.275300
C1761	C176	0.441600	0.156100	0.385500
H2071	H207	0.417600	0.131200	0.357000
C1771	C177	0.413000	0.136500	0.051800
C1781	C178	0.429000	0.088400	0.111000
H2081	H208	0.455800	0.099100	0.158900
H2091	H209	0.444200	0.060900	0.068500
H2101	H210	0.397400	0.074000	0.144000
C1791	C179	0.353000	0.151900	0.070100
H2111	H211	0.351300	0.181700	0.116000
H2121	H212	0.333900	0.120900	0.096600
H2131	H213	0.336400	0.162600	0.009000
C1801	C180	0.446900	0.184600	0.084300
H2141	H214	0.441800	0.214400	0.039100
H2151	H215	0.484800	0.174400	0.085500
H2161	H216	0.435700	0.195800	0.149100
S251	S25	0.030350	0.657300	0.242700
C1811	C181	0.072400	0.606300	0.197200
C1821	C182	0.091800	0.562400	0.248000
C1831	C183	0.127500	0.527200	0.204000
C1841	C184	0.143700	0.535900	0.109300
H2171	H217	0.168000	0.511900	0.079300
C1851	C185	0.124200	0.579900	0.058500
C1861	C186	0.088600	0.615100	0.102500
H2181	H218	0.075300	0.645100	0.067700
S261	S26	0.073890	0.549660	0.373000
C1871	C187	0.101600	0.607200	0.435400
H2191	H219	0.082000	0.612500	0.496800
H2201	H220	0.096400	0.639500	0.395200
C1881	C188	0.158900	0.600800	0.456300
H2211	H221	0.172900	0.635500	0.479700
H2221	H222	0.177600	0.592400	0.395000
N251	N25	0.172700	0.560000	0.526100
N261	N26	0.209900	0.522300	0.512000
C1891	C189	0.214300	0.494600	0.590500
H2231	H223	0.236800	0.464300	0.599200
C1901	C190	0.180600	0.516300	0.660000
H2241	H224	0.175600	0.504600	0.724700
C1911	C191	0.156100	0.558400	0.614500
H2251	H225	0.131200	0.582400	0.643000
C1921	C192	0.136500	0.587000	0.948200
C1931	C193	0.088400	0.571000	0.889000
H2261	H226	0.099100	0.544200	0.841100
H2271	H227	0.060900	0.555800	0.931500
H2281	H228	0.074000	0.602600	0.856000
C1941	C194	0.151900	0.647000	0.929900
H2291	H229	0.181700	0.648700	0.884000
H2301	H230	0.120900	0.666100	0.903400
H2311	H231	0.162600	0.663600	0.991000
C1951	C195	0.184600	0.553100	0.915700
H2321	H232	0.214400	0.558200	0.960900
H2331	H233	0.174400	0.515200	0.914500
H2341	H234	0.195800	0.564300	0.850900
S271	S27	0.530350	0.157300	0.742700
C1961	C196	0.572400	0.106300	0.697200
C1971	C197	0.591800	0.062400	0.748000
C1981	C198	0.627500	0.027200	0.704000
C1991	C199	0.643700	0.035900	0.609300
H2351	H235	0.668000	0.011900	0.579300
C2001	C200	0.624200	0.079900	0.558500
C2011	C201	0.588600	0.115100	0.602500
H2361	H236	0.575300	0.145100	0.567700
S281	S28	0.573890	0.049660	0.873000
C2021	C202	0.601600	0.107200	0.935400
H2371	H237	0.582000	0.112500	0.996800
H2381	H238	0.596400	0.139500	0.895200
C2031	C203	0.658900	0.100800	0.956300
H2391	H239	0.672900	0.135500	0.979700
H2401	H240	0.677600	0.092400	0.895000
N271	N27	0.672700	0.060000	0.026100
N281	N28	0.709900	0.022300	0.012000
C2041	C204	0.714300	0.994600	0.090500
H2411	H241	0.736800	0.964300	0.099200
C2051	C205	0.680600	0.016300	0.160000
H2421	H242	0.675600	0.004600	0.224700
C2061	C206	0.656100	0.058400	0.114500
H2431	H243	0.631200	0.082400	0.143000
C2071	C207	0.636500	0.087000	0.448200
C2081	C208	0.588400	0.071000	0.389000
H2441	H244	0.599100	0.044200	0.341100
H2451	H245	0.560900	0.055800	0.431500
H2461	H246	0.574000	0.102600	0.356000
C2091	C209	0.651900	0.147000	0.429900
H2471	H247	0.681700	0.148700	0.384000
H2481	H248	0.620900	0.166100	0.403400
H2491	H249	0.662600	0.163600	0.491000
C2101	C210	0.684600	0.053100	0.415700
H2501	H250	0.714400	0.058200	0.460900
H2511	H251	0.674400	0.015200	0.414500
H2521	H252	0.695800	0.064300	0.350900
S291	S29	0.969650	0.342700	0.242700
C2111	C211	0.927600	0.393700	0.197200
C2121	C212	0.908200	0.437600	0.248000
C2131	C213	0.872500	0.472800	0.204000
C2141	C214	0.856300	0.464100	0.109300
H2531	H253	0.832000	0.488100	0.079300
C2151	C215	0.875800	0.420100	0.058500
C2161	C216	0.911400	0.384900	0.102500
H2541	H254	0.924700	0.354900	0.067700
S301	S30	0.926110	0.450340	0.373000
C2171	C217	0.898400	0.392800	0.435400
H2551	H255	0.918000	0.387500	0.496800
H2561	H256	0.903600	0.360500	0.395200
C2181	C218	0.841100	0.399200	0.456300
H2571	H257	0.827100	0.364500	0.479700
H2581	H258	0.822400	0.407600	0.395000
N291	N29	0.827300	0.440000	0.526100
N301	N30	0.790100	0.477700	0.512000
C2191	C219	0.785700	0.505400	0.590500
H2591	H259	0.763200	0.535700	0.599200
C2201	C220	0.819400	0.483700	0.660000
H2601	H260	0.824400	0.495400	0.724700
C2211	C221	0.843900	0.441600	0.614500
H2611	H261	0.868800	0.417600	0.643000
C2221	C222	0.863500	0.413000	0.948200
C2231	C223	0.911600	0.429000	0.889000
H2621	H262	0.900900	0.455800	0.841100
H2631	H263	0.939100	0.444200	0.931500
H2641	H264	0.926000	0.397400	0.856000
C2241	C224	0.848100	0.353000	0.929900
H2651	H265	0.818300	0.351300	0.884000
H2661	H266	0.879100	0.333900	0.903400
H2671	H267	0.837400	0.336400	0.991000
C2251	C225	0.815400	0.446900	0.915700
H2681	H268	0.785600	0.441800	0.960900
H2691	H269	0.825600	0.484800	0.914500
H2701	H270	0.804200	0.435700	0.850900
S311	S31	0.469650	0.842700	0.742700
C2261	C226	0.427600	0.893700	0.697200
C2271	C227	0.408200	0.937600	0.748000
C2281	C228	0.372500	0.972800	0.704000
C2291	C229	0.356300	0.964100	0.609300
H2711	H271	0.332000	0.988100	0.579300
C2301	C230	0.375800	0.920100	0.558500
C2311	C231	0.411400	0.884900	0.602500
H2721	H272	0.424700	0.854900	0.567700
S321	S32	0.426110	0.950340	0.873000
C2321	C232	0.398400	0.892800	0.935400
H2731	H273	0.418000	0.887500	0.996800
H2741	H274	0.403600	0.860500	0.895200
C2331	C233	0.341100	0.899200	0.956300
H2751	H275	0.327100	0.864500	0.979700
H2761	H276	0.322400	0.907600	0.895000
N311	N31	0.327300	0.940000	0.026100
N321	N32	0.290100	0.977700	0.012000
C2341	C234	0.285700	0.005400	0.090500
H2771	H277	0.263200	0.035700	0.099200
C2351	C235	0.319400	0.983700	0.160000
H2781	H278	0.324400	0.995400	0.224700
C2361	C236	0.343900	0.941600	0.114500
H2791	H279	0.368800	0.917600	0.143000
C2371	C237	0.363500	0.913000	0.448200
C2381	C238	0.411600	0.929000	0.389000
H2801	H280	0.400900	0.955800	0.341100
H2811	H281	0.439100	0.944200	0.431500
H2821	H282	0.426000	0.897400	0.356000
C2391	C239	0.348100	0.853000	0.429900
H2831	H283	0.318300	0.851300	0.384000
H2841	H284	0.379100	0.833900	0.403400
H2851	H285	0.337400	0.836400	0.491000
C2401	C240	0.315400	0.946900	0.415700
H2861	H286	0.285600	0.941800	0.460900
H2871	H287	0.325600	0.984800	0.414500
H2881	H288	0.304200	0.935700	0.350900
Ag11	Ag1	0.488770	0.250000	0.625000
Ag21	Ag2	0.511230	0.750000	0.625000
Ag31	Ag3	0.250000	0.511230	0.375000
Ag41	Ag4	0.750000	0.011230	0.875000
Ag51	Ag5	0.750000	0.488770	0.375000
Ag61	Ag6	0.250000	0.988770	0.875000
Ag71	Ag7	0.011230	0.250000	0.125000
Ag81	Ag8	0.988770	0.750000	0.125000
