data_FAGXIX_clean_PM
_symmetry_space_group_name_H-M	'P1'
_cell_length_a	19.953000
_cell_length_b	9.495000
_cell_length_c	25.805000
_cell_angle_alpha	90.000000
_cell_angle_beta	91.915000
_cell_angle_gamma	90.000000
_symmetry_Int_Tables_number 1

loop_
_symmetry_equiv_pos_as_xyz
'x,y,z'

loop_
_atom_site_label
_atom_site_type_symbol
_atom_site_fract_x
_atom_site_fract_y
_atom_site_fract_z
Zn11	Zn1	0.084730	0.451960	0.472750
O11	O1	0.987630	0.427400	0.448480
O21	O2	0.381600	0.956000	0.098490
O31	O3	0.921170	0.702400	0.477690
O41	O4	0.904820	0.357400	0.496850
O51	O5	0.843620	0.853100	0.499710
O61	O6	0.292700	0.911700	0.049680
C11	C1	0.920900	0.077600	0.467730
H11	H1	0.887400	0.097600	0.490800
C21	C2	0.933800	0.939700	0.454010
C31	C3	0.981300	0.909500	0.418520
H21	H2	0.989500	0.816200	0.409700
C41	C4	0.018100	0.018200	0.395250
C51	C5	0.004100	0.157300	0.411550
H31	H3	0.027500	0.231800	0.397300
C61	C6	0.957800	0.185000	0.447190
C71	C7	0.068300	0.990400	0.356000
C81	C8	0.060400	0.881700	0.320300
H41	H4	0.025200	0.818600	0.323600
C91	C9	0.103500	0.864700	0.280000
H51	H5	0.096400	0.791100	0.256700
C101	C10	0.157100	0.955000	0.273700
C111	C11	0.166000	0.063300	0.310600
H61	H6	0.201900	0.125000	0.307800
C121	C12	0.123100	0.079700	0.350400
H71	H7	0.130700	0.151800	0.374300
C131	C13	0.199700	0.946600	0.228600
C141	C14	0.173300	0.898600	0.181500
H81	H8	0.129100	0.867900	0.178800
C151	C15	0.212900	0.896600	0.138600
H91	H9	0.193800	0.868500	0.106900
C161	C16	0.279600	0.934600	0.140900
C171	C17	0.305300	0.982400	0.187500
H101	H10	0.349900	0.011200	0.190200
C181	C18	0.266200	0.988500	0.230500
H111	H11	0.285000	0.021800	0.261600
C191	C19	0.894500	0.821800	0.479170
C201	C20	0.949000	0.334000	0.465050
C211	C21	0.319700	0.932700	0.093900
Zn21	Zn2	0.584730	0.951960	0.472750
O71	O7	0.487630	0.927400	0.448480
O81	O8	0.881600	0.456000	0.098490
O91	O9	0.421170	0.202400	0.477690
O101	O10	0.404820	0.857400	0.496850
O111	O11	0.343620	0.353100	0.499710
O121	O12	0.792700	0.411700	0.049680
C221	C22	0.420900	0.577600	0.467730
H121	H12	0.387400	0.597600	0.490800
C231	C23	0.433800	0.439700	0.454010
C241	C24	0.481300	0.409500	0.418520
H131	H13	0.489500	0.316200	0.409700
C251	C25	0.518100	0.518200	0.395250
C261	C26	0.504100	0.657300	0.411550
H141	H14	0.527500	0.731800	0.397300
C271	C27	0.457800	0.685000	0.447190
C281	C28	0.568300	0.490400	0.356000
C291	C29	0.560400	0.381700	0.320300
H151	H15	0.525200	0.318600	0.323600
C301	C30	0.603500	0.364700	0.280000
H161	H16	0.596400	0.291100	0.256700
C311	C31	0.657100	0.455000	0.273700
C321	C32	0.666000	0.563300	0.310600
H171	H17	0.701900	0.625000	0.307800
C331	C33	0.623100	0.579700	0.350400
H181	H18	0.630700	0.651800	0.374300
C341	C34	0.699700	0.446600	0.228600
C351	C35	0.673300	0.398600	0.181500
H191	H19	0.629100	0.367900	0.178800
C361	C36	0.712900	0.396600	0.138600
H201	H20	0.693800	0.368500	0.106900
C371	C37	0.779600	0.434600	0.140900
C381	C38	0.805300	0.482400	0.187500
H211	H21	0.849900	0.511200	0.190200
C391	C39	0.766200	0.488500	0.230500
H221	H22	0.785000	0.521800	0.261600
C401	C40	0.394500	0.321800	0.479170
C411	C41	0.449000	0.834000	0.465050
C421	C42	0.819700	0.432700	0.093900
Zn31	Zn3	0.915270	0.451960	0.027250
O131	O13	0.012370	0.427400	0.051520
O141	O14	0.618400	0.956000	0.401510
O151	O15	0.078830	0.702400	0.022310
O161	O16	0.095180	0.357400	0.003150
O171	O17	0.156380	0.853100	0.000290
O181	O18	0.707300	0.911700	0.450320
C431	C43	0.079100	0.077600	0.032270
H231	H23	0.112600	0.097600	0.009200
C441	C44	0.066200	0.939700	0.045990
C451	C45	0.018700	0.909500	0.081480
H241	H24	0.010500	0.816200	0.090300
C461	C46	0.981900	0.018200	0.104750
C471	C47	0.995900	0.157300	0.088450
H251	H25	0.972500	0.231800	0.102700
C481	C48	0.042200	0.185000	0.052810
C491	C49	0.931700	0.990400	0.144000
C501	C50	0.939600	0.881700	0.179700
H261	H26	0.974800	0.818600	0.176400
C511	C51	0.896500	0.864700	0.220000
H271	H27	0.903600	0.791100	0.243300
C521	C52	0.842900	0.955000	0.226300
C531	C53	0.834000	0.063300	0.189400
H281	H28	0.798100	0.125000	0.192200
C541	C54	0.876900	0.079700	0.149600
H291	H29	0.869300	0.151800	0.125700
C551	C55	0.800300	0.946600	0.271400
C561	C56	0.826700	0.898600	0.318500
H301	H30	0.870900	0.867900	0.321200
C571	C57	0.787100	0.896600	0.361400
H311	H31	0.806200	0.868500	0.393100
C581	C58	0.720400	0.934600	0.359100
C591	C59	0.694700	0.982400	0.312500
H321	H32	0.650100	0.011200	0.309800
C601	C60	0.733800	0.988500	0.269500
H331	H33	0.715000	0.021800	0.238400
C611	C61	0.105500	0.821800	0.020830
C621	C62	0.051000	0.334000	0.034950
C631	C63	0.680300	0.932700	0.406100
Zn41	Zn4	0.415270	0.951960	0.027250
O191	O19	0.512370	0.927400	0.051520
O201	O20	0.118400	0.456000	0.401510
O211	O21	0.578830	0.202400	0.022310
O221	O22	0.595180	0.857400	0.003150
O231	O23	0.656380	0.353100	0.000290
O241	O24	0.207300	0.411700	0.450320
C641	C64	0.579100	0.577600	0.032270
H341	H34	0.612600	0.597600	0.009200
C651	C65	0.566200	0.439700	0.045990
C661	C66	0.518700	0.409500	0.081480
H351	H35	0.510500	0.316200	0.090300
C671	C67	0.481900	0.518200	0.104750
C681	C68	0.495900	0.657300	0.088450
H361	H36	0.472500	0.731800	0.102700
C691	C69	0.542200	0.685000	0.052810
C701	C70	0.431700	0.490400	0.144000
C711	C71	0.439600	0.381700	0.179700
H371	H37	0.474800	0.318600	0.176400
C721	C72	0.396500	0.364700	0.220000
H381	H38	0.403600	0.291100	0.243300
C731	C73	0.342900	0.455000	0.226300
C741	C74	0.334000	0.563300	0.189400
H391	H39	0.298100	0.625000	0.192200
C751	C75	0.376900	0.579700	0.149600
H401	H40	0.369300	0.651800	0.125700
C761	C76	0.300300	0.446600	0.271400
C771	C77	0.326700	0.398600	0.318500
H411	H41	0.370900	0.367900	0.321200
C781	C78	0.287100	0.396600	0.361400
H421	H42	0.306200	0.368500	0.393100
C791	C79	0.220400	0.434600	0.359100
C801	C80	0.194700	0.482400	0.312500
H431	H43	0.150100	0.511200	0.309800
C811	C81	0.233800	0.488500	0.269500
H441	H44	0.215000	0.521800	0.238400
C821	C82	0.605500	0.321800	0.020830
C831	C83	0.551000	0.834000	0.034950
C841	C84	0.180300	0.432700	0.406100
Zn51	Zn5	0.915270	0.548040	0.527250
O251	O25	0.012370	0.572600	0.551520
O261	O26	0.618400	0.044000	0.901510
O271	O27	0.078830	0.297600	0.522310
O281	O28	0.095180	0.642600	0.503150
O291	O29	0.156380	0.146900	0.500290
O301	O30	0.707300	0.088300	0.950320
C851	C85	0.079100	0.922400	0.532270
H451	H45	0.112600	0.902400	0.509200
C861	C86	0.066200	0.060300	0.545990
C871	C87	0.018700	0.090500	0.581480
H461	H46	0.010500	0.183800	0.590300
C881	C88	0.981900	0.981800	0.604750
C891	C89	0.995900	0.842700	0.588450
H471	H47	0.972500	0.768200	0.602700
C901	C90	0.042200	0.815000	0.552810
C911	C91	0.931700	0.009600	0.644000
C921	C92	0.939600	0.118300	0.679700
H481	H48	0.974800	0.181400	0.676400
C931	C93	0.896500	0.135300	0.720000
H491	H49	0.903600	0.208900	0.743300
C941	C94	0.842900	0.045000	0.726300
C951	C95	0.834000	0.936700	0.689400
H501	H50	0.798100	0.875000	0.692200
C961	C96	0.876900	0.920300	0.649600
H511	H51	0.869300	0.848200	0.625700
C971	C97	0.800300	0.053400	0.771400
C981	C98	0.826700	0.101400	0.818500
H521	H52	0.870900	0.132100	0.821200
C991	C99	0.787100	0.103400	0.861400
H531	H53	0.806200	0.131500	0.893100
C1001	C100	0.720400	0.065400	0.859100
C1011	C101	0.694700	0.017600	0.812500
H541	H54	0.650100	0.988800	0.809800
C1021	C102	0.733800	0.011500	0.769500
H551	H55	0.715000	0.978200	0.738400
C1031	C103	0.105500	0.178200	0.520830
C1041	C104	0.051000	0.666000	0.534950
C1051	C105	0.680300	0.067300	0.906100
Zn61	Zn6	0.415270	0.048040	0.527250
O311	O31	0.512370	0.072600	0.551520
O321	O32	0.118400	0.544000	0.901510
O331	O33	0.578830	0.797600	0.522310
O341	O34	0.595180	0.142600	0.503150
O351	O35	0.656380	0.646900	0.500290
O361	O36	0.207300	0.588300	0.950320
C1061	C106	0.579100	0.422400	0.532270
H561	H56	0.612600	0.402400	0.509200
C1071	C107	0.566200	0.560300	0.545990
C1081	C108	0.518700	0.590500	0.581480
H571	H57	0.510500	0.683800	0.590300
C1091	C109	0.481900	0.481800	0.604750
C1101	C110	0.495900	0.342700	0.588450
H581	H58	0.472500	0.268200	0.602700
C1111	C111	0.542200	0.315000	0.552810
C1121	C112	0.431700	0.509600	0.644000
C1131	C113	0.439600	0.618300	0.679700
H591	H59	0.474800	0.681400	0.676400
C1141	C114	0.396500	0.635300	0.720000
H601	H60	0.403600	0.708900	0.743300
C1151	C115	0.342900	0.545000	0.726300
C1161	C116	0.334000	0.436700	0.689400
H611	H61	0.298100	0.375000	0.692200
C1171	C117	0.376900	0.420300	0.649600
H621	H62	0.369300	0.348200	0.625700
C1181	C118	0.300300	0.553400	0.771400
C1191	C119	0.326700	0.601400	0.818500
H631	H63	0.370900	0.632100	0.821200
C1201	C120	0.287100	0.603400	0.861400
H641	H64	0.306200	0.631500	0.893100
C1211	C121	0.220400	0.565400	0.859100
C1221	C122	0.194700	0.517600	0.812500
H651	H65	0.150100	0.488800	0.809800
C1231	C123	0.233800	0.511500	0.769500
H661	H66	0.215000	0.478200	0.738400
C1241	C124	0.605500	0.678200	0.520830
C1251	C125	0.551000	0.166000	0.534950
C1261	C126	0.180300	0.567300	0.906100
Zn71	Zn7	0.084730	0.548040	0.972750
O371	O37	0.987630	0.572600	0.948480
O381	O38	0.381600	0.044000	0.598490
O391	O39	0.921170	0.297600	0.977690
O401	O40	0.904820	0.642600	0.996850
O411	O41	0.843620	0.146900	0.999710
O421	O42	0.292700	0.088300	0.549680
C1271	C127	0.920900	0.922400	0.967730
H671	H67	0.887400	0.902400	0.990800
C1281	C128	0.933800	0.060300	0.954010
C1291	C129	0.981300	0.090500	0.918520
H681	H68	0.989500	0.183800	0.909700
C1301	C130	0.018100	0.981800	0.895250
C1311	C131	0.004100	0.842700	0.911550
H691	H69	0.027500	0.768200	0.897300
C1321	C132	0.957800	0.815000	0.947190
C1331	C133	0.068300	0.009600	0.856000
C1341	C134	0.060400	0.118300	0.820300
H701	H70	0.025200	0.181400	0.823600
C1351	C135	0.103500	0.135300	0.780000
H711	H71	0.096400	0.208900	0.756700
C1361	C136	0.157100	0.045000	0.773700
C1371	C137	0.166000	0.936700	0.810600
H721	H72	0.201900	0.875000	0.807800
C1381	C138	0.123100	0.920300	0.850400
H731	H73	0.130700	0.848200	0.874300
C1391	C139	0.199700	0.053400	0.728600
C1401	C140	0.173300	0.101400	0.681500
H741	H74	0.129100	0.132100	0.678800
C1411	C141	0.212900	0.103400	0.638600
H751	H75	0.193800	0.131500	0.606900
C1421	C142	0.279600	0.065400	0.640900
C1431	C143	0.305300	0.017600	0.687500
H761	H76	0.349900	0.988800	0.690200
C1441	C144	0.266200	0.011500	0.730500
H771	H77	0.285000	0.978200	0.761600
C1451	C145	0.894500	0.178200	0.979170
C1461	C146	0.949000	0.666000	0.965050
C1471	C147	0.319700	0.067300	0.593900
Zn81	Zn8	0.584730	0.048040	0.972750
O431	O43	0.487630	0.072600	0.948480
O441	O44	0.881600	0.544000	0.598490
O451	O45	0.421170	0.797600	0.977690
O461	O46	0.404820	0.142600	0.996850
O471	O47	0.343620	0.646900	0.999710
O481	O48	0.792700	0.588300	0.549680
C1481	C148	0.420900	0.422400	0.967730
H781	H78	0.387400	0.402400	0.990800
C1491	C149	0.433800	0.560300	0.954010
C1501	C150	0.481300	0.590500	0.918520
H791	H79	0.489500	0.683800	0.909700
C1511	C151	0.518100	0.481800	0.895250
C1521	C152	0.504100	0.342700	0.911550
H801	H80	0.527500	0.268200	0.897300
C1531	C153	0.457800	0.315000	0.947190
C1541	C154	0.568300	0.509600	0.856000
C1551	C155	0.560400	0.618300	0.820300
H811	H81	0.525200	0.681400	0.823600
C1561	C156	0.603500	0.635300	0.780000
H821	H82	0.596400	0.708900	0.756700
C1571	C157	0.657100	0.545000	0.773700
C1581	C158	0.666000	0.436700	0.810600
H831	H83	0.701900	0.375000	0.807800
C1591	C159	0.623100	0.420300	0.850400
H841	H84	0.630700	0.348200	0.874300
C1601	C160	0.699700	0.553400	0.728600
C1611	C161	0.673300	0.601400	0.681500
H851	H85	0.629100	0.632100	0.678800
C1621	C162	0.712900	0.603400	0.638600
H861	H86	0.693800	0.631500	0.606900
C1631	C163	0.779600	0.565400	0.640900
C1641	C164	0.805300	0.517600	0.687500
H871	H87	0.849900	0.488800	0.690200
C1651	C165	0.766200	0.511500	0.730500
H881	H88	0.785000	0.478200	0.761600
C1661	C166	0.394500	0.678200	0.979170
C1671	C167	0.449000	0.166000	0.965050
C1681	C168	0.819700	0.567300	0.593900
Zn91	Zn9	0.750000	0.750000	0.500000
Zn101	Zn10	0.250000	0.750000	0.000000
Zn111	Zn11	0.250000	0.250000	0.500000
Zn121	Zn12	0.750000	0.250000	0.000000
