data_FAHQIQ_clean_PM
_symmetry_space_group_name_H-M	'P1'
_cell_length_a	23.129000
_cell_length_b	39.470000
_cell_length_c	40.610000
_cell_angle_alpha	90.000000
_cell_angle_beta	90.000000
_cell_angle_gamma	90.000000
_symmetry_Int_Tables_number 1

loop_
_symmetry_equiv_pos_as_xyz
'x,y,z'

loop_
_atom_site_label
_atom_site_type_symbol
_atom_site_fract_x
_atom_site_fract_y
_atom_site_fract_z
O11	O1	0.624030	0.664890	0.348040
O21	O2	0.708490	0.647710	0.364140
O31	O3	0.897110	0.835970	0.180990
O41	O4	0.811320	0.843230	0.162560
C11	C1	0.671200	0.713190	0.305640
H11	H1	0.631400	0.713800	0.309100
C21	C2	0.696400	0.735190	0.283590
H21	H2	0.673200	0.750700	0.272600
C31	C3	0.755100	0.734910	0.277260
C41	C4	0.788100	0.711280	0.293980
H31	H3	0.827600	0.709700	0.290000
C51	C5	0.762700	0.690340	0.316350
H41	H4	0.786100	0.675300	0.328000
C61	C6	0.704900	0.690210	0.322610
C71	C7	0.859100	0.792210	0.231570
H51	H5	0.897300	0.799200	0.233100
C81	C8	0.835300	0.769930	0.254460
H61	H6	0.858500	0.762200	0.271600
C91	C9	0.779000	0.758810	0.252960
C101	C10	0.745300	0.770490	0.226800
H71	H7	0.707400	0.763000	0.224600
C111	C11	0.767700	0.793270	0.203940
H81	H8	0.744300	0.801400	0.187100
C121	C12	0.823200	0.803670	0.206100
C131	C13	0.678600	0.665960	0.346540
C141	C14	0.846500	0.828720	0.182620
O51	O5	0.624030	0.164890	0.848040
O61	O6	0.708490	0.147710	0.864140
O71	O7	0.897110	0.335970	0.680990
O81	O8	0.811320	0.343230	0.662560
C151	C15	0.671200	0.213190	0.805640
H91	H9	0.631400	0.213800	0.809100
C161	C16	0.696400	0.235190	0.783590
H101	H10	0.673200	0.250700	0.772600
C171	C17	0.755100	0.234910	0.777260
C181	C18	0.788100	0.211280	0.793980
H111	H11	0.827600	0.209700	0.790000
C191	C19	0.762700	0.190340	0.816350
H121	H12	0.786100	0.175300	0.828000
C201	C20	0.704900	0.190210	0.822610
C211	C21	0.859100	0.292210	0.731570
H131	H13	0.897300	0.299200	0.733100
C221	C22	0.835300	0.269930	0.754460
H141	H14	0.858500	0.262200	0.771600
C231	C23	0.779000	0.258810	0.752960
C241	C24	0.745300	0.270490	0.726800
H151	H15	0.707400	0.263000	0.724600
C251	C25	0.767700	0.293270	0.703940
H161	H16	0.744300	0.301400	0.687100
C261	C26	0.823200	0.303670	0.706100
C271	C27	0.678600	0.165960	0.846540
C281	C28	0.846500	0.328720	0.682620
O91	O9	0.124030	0.664890	0.848040
O101	O10	0.208490	0.647710	0.864140
O111	O11	0.397110	0.835970	0.680990
O121	O12	0.311320	0.843230	0.662560
C291	C29	0.171200	0.713190	0.805640
H171	H17	0.131400	0.713800	0.809100
C301	C30	0.196400	0.735190	0.783590
H181	H18	0.173200	0.750700	0.772600
C311	C31	0.255100	0.734910	0.777260
C321	C32	0.288100	0.711280	0.793980
H191	H19	0.327600	0.709700	0.790000
C331	C33	0.262700	0.690340	0.816350
H201	H20	0.286100	0.675300	0.828000
C341	C34	0.204900	0.690210	0.822610
C351	C35	0.359100	0.792210	0.731570
H211	H21	0.397300	0.799200	0.733100
C361	C36	0.335300	0.769930	0.754460
H221	H22	0.358500	0.762200	0.771600
C371	C37	0.279000	0.758810	0.752960
C381	C38	0.245300	0.770490	0.726800
H231	H23	0.207400	0.763000	0.724600
C391	C39	0.267700	0.793270	0.703940
H241	H24	0.244300	0.801400	0.687100
C401	C40	0.323200	0.803670	0.706100
C411	C41	0.178600	0.665960	0.846540
C421	C42	0.346500	0.828720	0.682620
O131	O13	0.124030	0.164890	0.348040
O141	O14	0.208490	0.147710	0.364140
O151	O15	0.397110	0.335970	0.180990
O161	O16	0.311320	0.343230	0.162560
C431	C43	0.171200	0.213190	0.305640
H251	H25	0.131400	0.213800	0.309100
C441	C44	0.196400	0.235190	0.283590
H261	H26	0.173200	0.250700	0.272600
C451	C45	0.255100	0.234910	0.277260
C461	C46	0.288100	0.211280	0.293980
H271	H27	0.327600	0.209700	0.290000
C471	C47	0.262700	0.190340	0.316350
H281	H28	0.286100	0.175300	0.328000
C481	C48	0.204900	0.190210	0.322610
C491	C49	0.359100	0.292210	0.231570
H291	H29	0.397300	0.299200	0.233100
C501	C50	0.335300	0.269930	0.254460
H301	H30	0.358500	0.262200	0.271600
C511	C51	0.279000	0.258810	0.252960
C521	C52	0.245300	0.270490	0.226800
H311	H31	0.207400	0.263000	0.224600
C531	C53	0.267700	0.293270	0.203940
H321	H32	0.244300	0.301400	0.187100
C541	C54	0.323200	0.303670	0.206100
C551	C55	0.178600	0.165960	0.346540
C561	C56	0.346500	0.328720	0.182620
O171	O17	0.125970	0.085110	0.348040
O181	O18	0.041510	0.102290	0.364140
O191	O19	0.852890	0.914030	0.180990
O201	O20	0.938680	0.906770	0.162560
C571	C57	0.078800	0.036810	0.305640
H331	H33	0.118600	0.036200	0.309100
C581	C58	0.053600	0.014810	0.283590
H341	H34	0.076800	0.999300	0.272600
C591	C59	0.994900	0.015090	0.277260
C601	C60	0.961900	0.038720	0.293980
H351	H35	0.922400	0.040300	0.290000
C611	C61	0.987300	0.059660	0.316350
H361	H36	0.963900	0.074700	0.328000
C621	C62	0.045100	0.059790	0.322610
C631	C63	0.890900	0.957790	0.231570
H371	H37	0.852700	0.950800	0.233100
C641	C64	0.914700	0.980070	0.254460
H381	H38	0.891500	0.987800	0.271600
C651	C65	0.971000	0.991190	0.252960
C661	C66	0.004700	0.979510	0.226800
H391	H39	0.042600	0.987000	0.224600
C671	C67	0.982300	0.956730	0.203940
H401	H40	0.005700	0.948600	0.187100
C681	C68	0.926800	0.946330	0.206100
C691	C69	0.071400	0.084040	0.346540
C701	C70	0.903500	0.921280	0.182620
O211	O21	0.125970	0.585110	0.848040
O221	O22	0.041510	0.602290	0.864140
O231	O23	0.852890	0.414030	0.680990
O241	O24	0.938680	0.406770	0.662560
C711	C71	0.078800	0.536810	0.805640
H411	H41	0.118600	0.536200	0.809100
C721	C72	0.053600	0.514810	0.783590
H421	H42	0.076800	0.499300	0.772600
C731	C73	0.994900	0.515090	0.777260
C741	C74	0.961900	0.538720	0.793980
H431	H43	0.922400	0.540300	0.790000
C751	C75	0.987300	0.559660	0.816350
H441	H44	0.963900	0.574700	0.828000
C761	C76	0.045100	0.559790	0.822610
C771	C77	0.890900	0.457790	0.731570
H451	H45	0.852700	0.450800	0.733100
C781	C78	0.914700	0.480070	0.754460
H461	H46	0.891500	0.487800	0.771600
C791	C79	0.971000	0.491190	0.752960
C801	C80	0.004700	0.479510	0.726800
H471	H47	0.042600	0.487000	0.724600
C811	C81	0.982300	0.456730	0.703940
H481	H48	0.005700	0.448600	0.687100
C821	C82	0.926800	0.446330	0.706100
C831	C83	0.071400	0.584040	0.846540
C841	C84	0.903500	0.421280	0.682620
O251	O25	0.625970	0.085110	0.848040
O261	O26	0.541510	0.102290	0.864140
O271	O27	0.352890	0.914030	0.680990
O281	O28	0.438680	0.906770	0.662560
C851	C85	0.578800	0.036810	0.805640
H491	H49	0.618600	0.036200	0.809100
C861	C86	0.553600	0.014810	0.783590
H501	H50	0.576800	0.999300	0.772600
C871	C87	0.494900	0.015090	0.777260
C881	C88	0.461900	0.038720	0.793980
H511	H51	0.422400	0.040300	0.790000
C891	C89	0.487300	0.059660	0.816350
H521	H52	0.463900	0.074700	0.828000
C901	C90	0.545100	0.059790	0.822610
C911	C91	0.390900	0.957790	0.731570
H531	H53	0.352700	0.950800	0.733100
C921	C92	0.414700	0.980070	0.754460
H541	H54	0.391500	0.987800	0.771600
C931	C93	0.471000	0.991190	0.752960
C941	C94	0.504700	0.979510	0.726800
H551	H55	0.542600	0.987000	0.724600
C951	C95	0.482300	0.956730	0.703940
H561	H56	0.505700	0.948600	0.687100
C961	C96	0.426800	0.946330	0.706100
C971	C97	0.571400	0.084040	0.846540
C981	C98	0.403500	0.921280	0.682620
O291	O29	0.625970	0.585110	0.348040
O301	O30	0.541510	0.602290	0.364140
O311	O31	0.352890	0.414030	0.180990
O321	O32	0.438680	0.406770	0.162560
C991	C99	0.578800	0.536810	0.305640
H571	H57	0.618600	0.536200	0.309100
C1001	C100	0.553600	0.514810	0.283590
H581	H58	0.576800	0.499300	0.272600
C1011	C101	0.494900	0.515090	0.277260
C1021	C102	0.461900	0.538720	0.293980
H591	H59	0.422400	0.540300	0.290000
C1031	C103	0.487300	0.559660	0.316350
H601	H60	0.463900	0.574700	0.328000
C1041	C104	0.545100	0.559790	0.322610
C1051	C105	0.390900	0.457790	0.231570
H611	H61	0.352700	0.450800	0.233100
C1061	C106	0.414700	0.480070	0.254460
H621	H62	0.391500	0.487800	0.271600
C1071	C107	0.471000	0.491190	0.252960
C1081	C108	0.504700	0.479510	0.226800
H631	H63	0.542600	0.487000	0.224600
C1091	C109	0.482300	0.456730	0.203940
H641	H64	0.505700	0.448600	0.187100
C1101	C110	0.426800	0.446330	0.206100
C1111	C111	0.571400	0.584040	0.346540
C1121	C112	0.403500	0.421280	0.182620
O331	O33	0.874030	0.335110	0.598040
O341	O34	0.958490	0.352290	0.614140
O351	O35	0.147110	0.164030	0.430990
O361	O36	0.061320	0.156770	0.412560
C1131	C113	0.921200	0.286810	0.555640
H651	H65	0.881400	0.286200	0.559100
C1141	C114	0.946400	0.264810	0.533590
H661	H66	0.923200	0.249300	0.522600
C1151	C115	0.005100	0.265090	0.527260
C1161	C116	0.038100	0.288720	0.543980
H671	H67	0.077600	0.290300	0.540000
C1171	C117	0.012700	0.309660	0.566350
H681	H68	0.036100	0.324700	0.578000
C1181	C118	0.954900	0.309790	0.572610
C1191	C119	0.109100	0.207790	0.481570
H691	H69	0.147300	0.200800	0.483100
C1201	C120	0.085300	0.230070	0.504460
H701	H70	0.108500	0.237800	0.521600
C1211	C121	0.029000	0.241190	0.502960
C1221	C122	0.995300	0.229510	0.476800
H711	H71	0.957400	0.237000	0.474600
C1231	C123	0.017700	0.206730	0.453940
H721	H72	0.994300	0.198600	0.437100
C1241	C124	0.073200	0.196330	0.456100
C1251	C125	0.928600	0.334040	0.596540
C1261	C126	0.096500	0.171280	0.432620
O371	O37	0.874030	0.835110	0.098040
O381	O38	0.958490	0.852290	0.114140
O391	O39	0.147110	0.664030	0.930990
O401	O40	0.061320	0.656770	0.912560
C1271	C127	0.921200	0.786810	0.055640
H731	H73	0.881400	0.786200	0.059100
C1281	C128	0.946400	0.764810	0.033590
H741	H74	0.923200	0.749300	0.022600
C1291	C129	0.005100	0.765090	0.027260
C1301	C130	0.038100	0.788720	0.043980
H751	H75	0.077600	0.790300	0.040000
C1311	C131	0.012700	0.809660	0.066350
H761	H76	0.036100	0.824700	0.078000
C1321	C132	0.954900	0.809790	0.072610
C1331	C133	0.109100	0.707790	0.981570
H771	H77	0.147300	0.700800	0.983100
C1341	C134	0.085300	0.730070	0.004460
H781	H78	0.108500	0.737800	0.021600
C1351	C135	0.029000	0.741190	0.002960
C1361	C136	0.995300	0.729510	0.976800
H791	H79	0.957400	0.737000	0.974600
C1371	C137	0.017700	0.706730	0.953940
H801	H80	0.994300	0.698600	0.937100
C1381	C138	0.073200	0.696330	0.956100
C1391	C139	0.928600	0.834040	0.096540
C1401	C140	0.096500	0.671280	0.932620
O411	O41	0.374030	0.335110	0.098040
O421	O42	0.458490	0.352290	0.114140
O431	O43	0.647110	0.164030	0.930990
O441	O44	0.561320	0.156770	0.912560
C1411	C141	0.421200	0.286810	0.055640
H811	H81	0.381400	0.286200	0.059100
C1421	C142	0.446400	0.264810	0.033590
H821	H82	0.423200	0.249300	0.022600
C1431	C143	0.505100	0.265090	0.027260
C1441	C144	0.538100	0.288720	0.043980
H831	H83	0.577600	0.290300	0.040000
C1451	C145	0.512700	0.309660	0.066350
H841	H84	0.536100	0.324700	0.078000
C1461	C146	0.454900	0.309790	0.072610
C1471	C147	0.609100	0.207790	0.981570
H851	H85	0.647300	0.200800	0.983100
C1481	C148	0.585300	0.230070	0.004460
H861	H86	0.608500	0.237800	0.021600
C1491	C149	0.529000	0.241190	0.002960
C1501	C150	0.495300	0.229510	0.976800
H871	H87	0.457400	0.237000	0.974600
C1511	C151	0.517700	0.206730	0.953940
H881	H88	0.494300	0.198600	0.937100
C1521	C152	0.573200	0.196330	0.956100
C1531	C153	0.428600	0.334040	0.096540
C1541	C154	0.596500	0.171280	0.932620
O451	O45	0.374030	0.835110	0.598040
O461	O46	0.458490	0.852290	0.614140
O471	O47	0.647110	0.664030	0.430990
O481	O48	0.561320	0.656770	0.412560
C1551	C155	0.421200	0.786810	0.555640
H891	H89	0.381400	0.786200	0.559100
C1561	C156	0.446400	0.764810	0.533590
H901	H90	0.423200	0.749300	0.522600
C1571	C157	0.505100	0.765090	0.527260
C1581	C158	0.538100	0.788720	0.543980
H911	H91	0.577600	0.790300	0.540000
C1591	C159	0.512700	0.809660	0.566350
H921	H92	0.536100	0.824700	0.578000
C1601	C160	0.454900	0.809790	0.572610
C1611	C161	0.609100	0.707790	0.481570
H931	H93	0.647300	0.700800	0.483100
C1621	C162	0.585300	0.730070	0.504460
H941	H94	0.608500	0.737800	0.521600
C1631	C163	0.529000	0.741190	0.502960
C1641	C164	0.495300	0.729510	0.476800
H951	H95	0.457400	0.737000	0.474600
C1651	C165	0.517700	0.706730	0.453940
H961	H96	0.494300	0.698600	0.437100
C1661	C166	0.573200	0.696330	0.456100
C1671	C167	0.428600	0.834040	0.596540
C1681	C168	0.596500	0.671280	0.432620
O491	O49	0.375970	0.914890	0.598040
O501	O50	0.291510	0.897710	0.614140
O511	O51	0.102890	0.085970	0.430990
O521	O52	0.188680	0.093230	0.412560
C1691	C169	0.328800	0.963190	0.555640
H971	H97	0.368600	0.963800	0.559100
C1701	C170	0.303600	0.985190	0.533590
H981	H98	0.326800	0.000700	0.522600
C1711	C171	0.244900	0.984910	0.527260
C1721	C172	0.211900	0.961280	0.543980
H991	H99	0.172400	0.959700	0.540000
C1731	C173	0.237300	0.940340	0.566350
H1001	H100	0.213900	0.925300	0.578000
C1741	C174	0.295100	0.940210	0.572610
C1751	C175	0.140900	0.042210	0.481570
H1011	H101	0.102700	0.049200	0.483100
C1761	C176	0.164700	0.019930	0.504460
H1021	H102	0.141500	0.012200	0.521600
C1771	C177	0.221000	0.008810	0.502960
C1781	C178	0.254700	0.020490	0.476800
H1031	H103	0.292600	0.013000	0.474600
C1791	C179	0.232300	0.043270	0.453940
H1041	H104	0.255700	0.051400	0.437100
C1801	C180	0.176800	0.053670	0.456100
C1811	C181	0.321400	0.915960	0.596540
C1821	C182	0.153500	0.078720	0.432620
O531	O53	0.375970	0.414890	0.098040
O541	O54	0.291510	0.397710	0.114140
O551	O55	0.102890	0.585970	0.930990
O561	O56	0.188680	0.593230	0.912560
C1831	C183	0.328800	0.463190	0.055640
H1051	H105	0.368600	0.463800	0.059100
C1841	C184	0.303600	0.485190	0.033590
H1061	H106	0.326800	0.500700	0.022600
C1851	C185	0.244900	0.484910	0.027260
C1861	C186	0.211900	0.461280	0.043980
H1071	H107	0.172400	0.459700	0.040000
C1871	C187	0.237300	0.440340	0.066350
H1081	H108	0.213900	0.425300	0.078000
C1881	C188	0.295100	0.440210	0.072610
C1891	C189	0.140900	0.542210	0.981570
H1091	H109	0.102700	0.549200	0.983100
C1901	C190	0.164700	0.519930	0.004460
H1101	H110	0.141500	0.512200	0.021600
C1911	C191	0.221000	0.508810	0.002960
C1921	C192	0.254700	0.520490	0.976800
H1111	H111	0.292600	0.513000	0.974600
C1931	C193	0.232300	0.543270	0.953940
H1121	H112	0.255700	0.551400	0.937100
C1941	C194	0.176800	0.553670	0.956100
C1951	C195	0.321400	0.415960	0.096540
C1961	C196	0.153500	0.578720	0.932620
O571	O57	0.875970	0.914890	0.098040
O581	O58	0.791510	0.897710	0.114140
O591	O59	0.602890	0.085970	0.930990
O601	O60	0.688680	0.093230	0.912560
C1971	C197	0.828800	0.963190	0.055640
H1131	H113	0.868600	0.963800	0.059100
C1981	C198	0.803600	0.985190	0.033590
H1141	H114	0.826800	0.000700	0.022600
C1991	C199	0.744900	0.984910	0.027260
C2001	C200	0.711900	0.961280	0.043980
H1151	H115	0.672400	0.959700	0.040000
C2011	C201	0.737300	0.940340	0.066350
H1161	H116	0.713900	0.925300	0.078000
C2021	C202	0.795100	0.940210	0.072610
C2031	C203	0.640900	0.042210	0.981570
H1171	H117	0.602700	0.049200	0.983100
C2041	C204	0.664700	0.019930	0.004460
H1181	H118	0.641500	0.012200	0.021600
C2051	C205	0.721000	0.008810	0.002960
C2061	C206	0.754700	0.020490	0.976800
H1191	H119	0.792600	0.013000	0.974600
C2071	C207	0.732300	0.043270	0.953940
H1201	H120	0.755700	0.051400	0.937100
C2081	C208	0.676800	0.053670	0.956100
C2091	C209	0.821400	0.915960	0.096540
C2101	C210	0.653500	0.078720	0.932620
O611	O61	0.875970	0.414890	0.598040
O621	O62	0.791510	0.397710	0.614140
O631	O63	0.602890	0.585970	0.430990
O641	O64	0.688680	0.593230	0.412560
C2111	C211	0.828800	0.463190	0.555640
H1211	H121	0.868600	0.463800	0.559100
C2121	C212	0.803600	0.485190	0.533590
H1221	H122	0.826800	0.500700	0.522600
C2131	C213	0.744900	0.484910	0.527260
C2141	C214	0.711900	0.461280	0.543980
H1231	H123	0.672400	0.459700	0.540000
C2151	C215	0.737300	0.440340	0.566350
H1241	H124	0.713900	0.425300	0.578000
C2161	C216	0.795100	0.440210	0.572610
C2171	C217	0.640900	0.542210	0.481570
H1251	H125	0.602700	0.549200	0.483100
C2181	C218	0.664700	0.519930	0.504460
H1261	H126	0.641500	0.512200	0.521600
C2191	C219	0.721000	0.508810	0.502960
C2201	C220	0.754700	0.520490	0.476800
H1271	H127	0.792600	0.513000	0.474600
C2211	C221	0.732300	0.543270	0.453940
H1281	H128	0.755700	0.551400	0.437100
C2221	C222	0.676800	0.553670	0.456100
C2231	C223	0.821400	0.415960	0.596540
C2241	C224	0.653500	0.578720	0.432620
In11	In1	0.625000	0.625000	0.387270
In21	In2	0.625000	0.125000	0.887270
In31	In3	0.125000	0.125000	0.387270
In41	In4	0.125000	0.625000	0.887270
In51	In5	0.875000	0.375000	0.637270
In61	In6	0.875000	0.875000	0.137270
In71	In7	0.375000	0.375000	0.137270
In81	In8	0.375000	0.875000	0.637270
O651	O65	0.947540	0.278710	0.396850
O661	O66	0.866860	0.286700	0.418310
O671	O67	0.138250	0.458730	0.583730
O681	O68	0.052250	0.471030	0.600780
C2251	C225	0.001700	0.322270	0.441890
H1291	H129	0.025400	0.312400	0.426100
C2261	C226	0.024300	0.344000	0.465050
H1301	H130	0.064200	0.347100	0.464900
C2271	C227	0.993500	0.361330	0.488090
C2281	C228	0.937500	0.351170	0.489420
H1311	H131	0.914000	0.360200	0.505800
C2291	C229	0.913700	0.328070	0.467720
H1321	H132	0.875600	0.321100	0.470800
C2301	C230	0.944000	0.315480	0.442360
C2311	C231	0.093900	0.418970	0.532030
H1331	H133	0.132300	0.425800	0.530100
C2321	C232	0.071000	0.396550	0.509120
H1341	H134	0.093900	0.389000	0.491800
C2331	C233	0.015200	0.385450	0.511830
C2341	C234	0.982900	0.397450	0.537150
H1351	H135	0.945100	0.389700	0.539500
C2351	C235	0.004400	0.421160	0.560130
H1361	H136	0.980600	0.429700	0.576600
C2361	C236	0.060400	0.431340	0.557740
C2371	C237	0.917900	0.292170	0.417790
C2381	C238	0.084400	0.455530	0.582320
O691	O69	0.947540	0.778710	0.896850
O701	O70	0.866860	0.786700	0.918310
O711	O71	0.138250	0.958730	0.083730
O721	O72	0.052250	0.971030	0.100780
C2391	C239	0.001700	0.822270	0.941890
H1371	H137	0.025400	0.812400	0.926100
C2401	C240	0.024300	0.844000	0.965050
H1381	H138	0.064200	0.847100	0.964900
C2411	C241	0.993500	0.861330	0.988090
C2421	C242	0.937500	0.851170	0.989420
H1391	H139	0.914000	0.860200	0.005800
C2431	C243	0.913700	0.828070	0.967720
H1401	H140	0.875600	0.821100	0.970800
C2441	C244	0.944000	0.815480	0.942360
C2451	C245	0.093900	0.918970	0.032030
H1411	H141	0.132300	0.925800	0.030100
C2461	C246	0.071000	0.896550	0.009120
H1421	H142	0.093900	0.889000	0.991800
C2471	C247	0.015200	0.885450	0.011830
C2481	C248	0.982900	0.897450	0.037150
H1431	H143	0.945100	0.889700	0.039500
C2491	C249	0.004400	0.921160	0.060130
H1441	H144	0.980600	0.929700	0.076600
C2501	C250	0.060400	0.931340	0.057740
C2511	C251	0.917900	0.792170	0.917790
C2521	C252	0.084400	0.955530	0.082320
O731	O73	0.447540	0.278710	0.896850
O741	O74	0.366860	0.286700	0.918310
O751	O75	0.638250	0.458730	0.083730
O761	O76	0.552250	0.471030	0.100780
C2531	C253	0.501700	0.322270	0.941890
H1451	H145	0.525400	0.312400	0.926100
C2541	C254	0.524300	0.344000	0.965050
H1461	H146	0.564200	0.347100	0.964900
C2551	C255	0.493500	0.361330	0.988090
C2561	C256	0.437500	0.351170	0.989420
H1471	H147	0.414000	0.360200	0.005800
C2571	C257	0.413700	0.328070	0.967720
H1481	H148	0.375600	0.321100	0.970800
C2581	C258	0.444000	0.315480	0.942360
C2591	C259	0.593900	0.418970	0.032030
H1491	H149	0.632300	0.425800	0.030100
C2601	C260	0.571000	0.396550	0.009120
H1501	H150	0.593900	0.389000	0.991800
C2611	C261	0.515200	0.385450	0.011830
C2621	C262	0.482900	0.397450	0.037150
H1511	H151	0.445100	0.389700	0.039500
C2631	C263	0.504400	0.421160	0.060130
H1521	H152	0.480600	0.429700	0.076600
C2641	C264	0.560400	0.431340	0.057740
C2651	C265	0.417900	0.292170	0.917790
C2661	C266	0.584400	0.455530	0.082320
O771	O77	0.447540	0.778710	0.396850
O781	O78	0.366860	0.786700	0.418310
O791	O79	0.638250	0.958730	0.583730
O801	O80	0.552250	0.971030	0.600780
C2671	C267	0.501700	0.822270	0.441890
H1531	H153	0.525400	0.812400	0.426100
C2681	C268	0.524300	0.844000	0.465050
H1541	H154	0.564200	0.847100	0.464900
C2691	C269	0.493500	0.861330	0.488090
C2701	C270	0.437500	0.851170	0.489420
H1551	H155	0.414000	0.860200	0.505800
C2711	C271	0.413700	0.828070	0.467720
H1561	H156	0.375600	0.821100	0.470800
C2721	C272	0.444000	0.815480	0.442360
C2731	C273	0.593900	0.918970	0.532030
H1571	H157	0.632300	0.925800	0.530100
C2741	C274	0.571000	0.896550	0.509120
H1581	H158	0.593900	0.889000	0.491800
C2751	C275	0.515200	0.885450	0.511830
C2761	C276	0.482900	0.897450	0.537150
H1591	H159	0.445100	0.889700	0.539500
C2771	C277	0.504400	0.921160	0.560130
H1601	H160	0.480600	0.929700	0.576600
C2781	C278	0.560400	0.931340	0.557740
C2791	C279	0.417900	0.792170	0.417790
C2801	C280	0.584400	0.955530	0.582320
O811	O81	0.802460	0.278710	0.353150
O821	O82	0.883140	0.286700	0.331690
O831	O83	0.611750	0.458730	0.166270
O841	O84	0.697750	0.471030	0.149220
C2811	C281	0.748300	0.322270	0.308110
H1611	H161	0.724600	0.312400	0.323900
C2821	C282	0.725700	0.344000	0.284950
H1621	H162	0.685800	0.347100	0.285100
C2831	C283	0.756500	0.361330	0.261910
C2841	C284	0.812500	0.351170	0.260580
H1631	H163	0.836000	0.360200	0.244200
C2851	C285	0.836300	0.328070	0.282280
H1641	H164	0.874400	0.321100	0.279200
C2861	C286	0.806000	0.315480	0.307640
C2871	C287	0.656100	0.418970	0.217970
H1651	H165	0.617700	0.425800	0.219900
C2881	C288	0.679000	0.396550	0.240880
H1661	H166	0.656100	0.389000	0.258200
C2891	C289	0.734800	0.385450	0.238170
C2901	C290	0.767100	0.397450	0.212850
H1671	H167	0.804900	0.389700	0.210500
C2911	C291	0.745600	0.421160	0.189870
H1681	H168	0.769400	0.429700	0.173400
C2921	C292	0.689600	0.431340	0.192260
C2931	C293	0.832100	0.292170	0.332210
C2941	C294	0.665600	0.455530	0.167680
O851	O85	0.802460	0.778710	0.853150
O861	O86	0.883140	0.786700	0.831690
O871	O87	0.611750	0.958730	0.666270
O881	O88	0.697750	0.971030	0.649220
C2951	C295	0.748300	0.822270	0.808110
H1691	H169	0.724600	0.812400	0.823900
C2961	C296	0.725700	0.844000	0.784950
H1701	H170	0.685800	0.847100	0.785100
C2971	C297	0.756500	0.861330	0.761910
C2981	C298	0.812500	0.851170	0.760580
H1711	H171	0.836000	0.860200	0.744200
C2991	C299	0.836300	0.828070	0.782280
H1721	H172	0.874400	0.821100	0.779200
C3001	C300	0.806000	0.815480	0.807640
C3011	C301	0.656100	0.918970	0.717970
H1731	H173	0.617700	0.925800	0.719900
C3021	C302	0.679000	0.896550	0.740880
H1741	H174	0.656100	0.889000	0.758200
C3031	C303	0.734800	0.885450	0.738170
C3041	C304	0.767100	0.897450	0.712850
H1751	H175	0.804900	0.889700	0.710500
C3051	C305	0.745600	0.921160	0.689870
H1761	H176	0.769400	0.929700	0.673400
C3061	C306	0.689600	0.931340	0.692260
C3071	C307	0.832100	0.792170	0.832210
C3081	C308	0.665600	0.955530	0.667680
O891	O89	0.302460	0.278710	0.853150
O901	O90	0.383140	0.286700	0.831690
O911	O91	0.111750	0.458730	0.666270
O921	O92	0.197750	0.471030	0.649220
C3091	C309	0.248300	0.322270	0.808110
H1771	H177	0.224600	0.312400	0.823900
C3101	C310	0.225700	0.344000	0.784950
H1781	H178	0.185800	0.347100	0.785100
C3111	C311	0.256500	0.361330	0.761910
C3121	C312	0.312500	0.351170	0.760580
H1791	H179	0.336000	0.360200	0.744200
C3131	C313	0.336300	0.328070	0.782280
H1801	H180	0.374400	0.321100	0.779200
C3141	C314	0.306000	0.315480	0.807640
C3151	C315	0.156100	0.418970	0.717970
H1811	H181	0.117700	0.425800	0.719900
C3161	C316	0.179000	0.396550	0.740880
H1821	H182	0.156100	0.389000	0.758200
C3171	C317	0.234800	0.385450	0.738170
C3181	C318	0.267100	0.397450	0.712850
H1831	H183	0.304900	0.389700	0.710500
C3191	C319	0.245600	0.421160	0.689870
H1841	H184	0.269400	0.429700	0.673400
C3201	C320	0.189600	0.431340	0.692260
C3211	C321	0.332100	0.292170	0.832210
C3221	C322	0.165600	0.455530	0.667680
O931	O93	0.302460	0.778710	0.353150
O941	O94	0.383140	0.786700	0.331690
O951	O95	0.111750	0.958730	0.166270
O961	O96	0.197750	0.971030	0.149220
C3231	C323	0.248300	0.822270	0.308110
H1851	H185	0.224600	0.812400	0.323900
C3241	C324	0.225700	0.844000	0.284950
H1861	H186	0.185800	0.847100	0.285100
C3251	C325	0.256500	0.861330	0.261910
C3261	C326	0.312500	0.851170	0.260580
H1871	H187	0.336000	0.860200	0.244200
C3271	C327	0.336300	0.828070	0.282280
H1881	H188	0.374400	0.821100	0.279200
C3281	C328	0.306000	0.815480	0.307640
C3291	C329	0.156100	0.918970	0.217970
H1891	H189	0.117700	0.925800	0.219900
C3301	C330	0.179000	0.896550	0.240880
H1901	H190	0.156100	0.889000	0.258200
C3311	C331	0.234800	0.885450	0.238170
C3321	C332	0.267100	0.897450	0.212850
H1911	H191	0.304900	0.889700	0.210500
C3331	C333	0.245600	0.921160	0.189870
H1921	H192	0.269400	0.929700	0.173400
C3341	C334	0.189600	0.931340	0.192260
C3351	C335	0.332100	0.792170	0.332210
C3361	C336	0.165600	0.955530	0.167680
O971	O97	0.197540	0.528710	0.603150
O981	O98	0.116860	0.536700	0.581690
O991	O99	0.388250	0.708730	0.416270
O1001	O100	0.302250	0.721030	0.399220
C3371	C337	0.251700	0.572270	0.558110
H1931	H193	0.275400	0.562400	0.573900
C3381	C338	0.274300	0.594000	0.534950
H1941	H194	0.314200	0.597100	0.535100
C3391	C339	0.243500	0.611330	0.511910
C3401	C340	0.187500	0.601170	0.510580
H1951	H195	0.164000	0.610200	0.494200
C3411	C341	0.163700	0.578070	0.532280
H1961	H196	0.125600	0.571100	0.529200
C3421	C342	0.194000	0.565480	0.557640
C3431	C343	0.343900	0.668970	0.467970
H1971	H197	0.382300	0.675800	0.469900
C3441	C344	0.321000	0.646550	0.490880
H1981	H198	0.343900	0.639000	0.508200
C3451	C345	0.265200	0.635450	0.488170
C3461	C346	0.232900	0.647450	0.462850
H1991	H199	0.195100	0.639700	0.460500
C3471	C347	0.254400	0.671160	0.439870
H2001	H200	0.230600	0.679700	0.423400
C3481	C348	0.310400	0.681340	0.442260
C3491	C349	0.167900	0.542170	0.582210
C3501	C350	0.334400	0.705530	0.417680
O1011	O101	0.197540	0.028710	0.103150
O1021	O102	0.116860	0.036700	0.081690
O1031	O103	0.388250	0.208730	0.916270
O1041	O104	0.302250	0.221030	0.899220
C3511	C351	0.251700	0.072270	0.058110
H2011	H201	0.275400	0.062400	0.073900
C3521	C352	0.274300	0.094000	0.034950
H2021	H202	0.314200	0.097100	0.035100
C3531	C353	0.243500	0.111330	0.011910
C3541	C354	0.187500	0.101170	0.010580
H2031	H203	0.164000	0.110200	0.994200
C3551	C355	0.163700	0.078070	0.032280
H2041	H204	0.125600	0.071100	0.029200
C3561	C356	0.194000	0.065480	0.057640
C3571	C357	0.343900	0.168970	0.967970
H2051	H205	0.382300	0.175800	0.969900
C3581	C358	0.321000	0.146550	0.990880
H2061	H206	0.343900	0.139000	0.008200
C3591	C359	0.265200	0.135450	0.988170
C3601	C360	0.232900	0.147450	0.962850
H2071	H207	0.195100	0.139700	0.960500
C3611	C361	0.254400	0.171160	0.939870
H2081	H208	0.230600	0.179700	0.923400
C3621	C362	0.310400	0.181340	0.942260
C3631	C363	0.167900	0.042170	0.082210
C3641	C364	0.334400	0.205530	0.917680
O1051	O105	0.697540	0.528710	0.103150
O1061	O106	0.616860	0.536700	0.081690
O1071	O107	0.888250	0.708730	0.916270
O1081	O108	0.802250	0.721030	0.899220
C3651	C365	0.751700	0.572270	0.058110
H2091	H209	0.775400	0.562400	0.073900
C3661	C366	0.774300	0.594000	0.034950
H2101	H210	0.814200	0.597100	0.035100
C3671	C367	0.743500	0.611330	0.011910
C3681	C368	0.687500	0.601170	0.010580
H2111	H211	0.664000	0.610200	0.994200
C3691	C369	0.663700	0.578070	0.032280
H2121	H212	0.625600	0.571100	0.029200
C3701	C370	0.694000	0.565480	0.057640
C3711	C371	0.843900	0.668970	0.967970
H2131	H213	0.882300	0.675800	0.969900
C3721	C372	0.821000	0.646550	0.990880
H2141	H214	0.843900	0.639000	0.008200
C3731	C373	0.765200	0.635450	0.988170
C3741	C374	0.732900	0.647450	0.962850
H2151	H215	0.695100	0.639700	0.960500
C3751	C375	0.754400	0.671160	0.939870
H2161	H216	0.730600	0.679700	0.923400
C3761	C376	0.810400	0.681340	0.942260
C3771	C377	0.667900	0.542170	0.082210
C3781	C378	0.834400	0.705530	0.917680
O1091	O109	0.697540	0.028710	0.603150
O1101	O110	0.616860	0.036700	0.581690
O1111	O111	0.888250	0.208730	0.416270
O1121	O112	0.802250	0.221030	0.399220
C3791	C379	0.751700	0.072270	0.558110
H2171	H217	0.775400	0.062400	0.573900
C3801	C380	0.774300	0.094000	0.534950
H2181	H218	0.814200	0.097100	0.535100
C3811	C381	0.743500	0.111330	0.511910
C3821	C382	0.687500	0.101170	0.510580
H2191	H219	0.664000	0.110200	0.494200
C3831	C383	0.663700	0.078070	0.532280
H2201	H220	0.625600	0.071100	0.529200
C3841	C384	0.694000	0.065480	0.557640
C3851	C385	0.843900	0.168970	0.467970
H2211	H221	0.882300	0.175800	0.469900
C3861	C386	0.821000	0.146550	0.490880
H2221	H222	0.843900	0.139000	0.508200
C3871	C387	0.765200	0.135450	0.488170
C3881	C388	0.732900	0.147450	0.462850
H2231	H223	0.695100	0.139700	0.460500
C3891	C389	0.754400	0.171160	0.439870
H2241	H224	0.730600	0.179700	0.423400
C3901	C390	0.810400	0.181340	0.442260
C3911	C391	0.667900	0.042170	0.582210
C3921	C392	0.834400	0.205530	0.417680
O1131	O113	0.052460	0.528710	0.646850
O1141	O114	0.133140	0.536700	0.668310
O1151	O115	0.861750	0.708730	0.833730
O1161	O116	0.947750	0.721030	0.850780
C3931	C393	0.998300	0.572270	0.691890
H2251	H225	0.974600	0.562400	0.676100
C3941	C394	0.975700	0.594000	0.715050
H2261	H226	0.935800	0.597100	0.714900
C3951	C395	0.006500	0.611330	0.738090
C3961	C396	0.062500	0.601170	0.739420
H2271	H227	0.086000	0.610200	0.755800
C3971	C397	0.086300	0.578070	0.717720
H2281	H228	0.124400	0.571100	0.720800
C3981	C398	0.056000	0.565480	0.692360
C3991	C399	0.906100	0.668970	0.782030
H2291	H229	0.867700	0.675800	0.780100
C4001	C400	0.929000	0.646550	0.759120
H2301	H230	0.906100	0.639000	0.741800
C4011	C401	0.984800	0.635450	0.761830
C4021	C402	0.017100	0.647450	0.787150
H2311	H231	0.054900	0.639700	0.789500
C4031	C403	0.995600	0.671160	0.810130
H2321	H232	0.019400	0.679700	0.826600
C4041	C404	0.939600	0.681340	0.807740
C4051	C405	0.082100	0.542170	0.667790
C4061	C406	0.915600	0.705530	0.832320
O1171	O117	0.052460	0.028710	0.146850
O1181	O118	0.133140	0.036700	0.168310
O1191	O119	0.861750	0.208730	0.333730
O1201	O120	0.947750	0.221030	0.350780
C4071	C407	0.998300	0.072270	0.191890
H2331	H233	0.974600	0.062400	0.176100
C4081	C408	0.975700	0.094000	0.215050
H2341	H234	0.935800	0.097100	0.214900
C4091	C409	0.006500	0.111330	0.238090
C4101	C410	0.062500	0.101170	0.239420
H2351	H235	0.086000	0.110200	0.255800
C4111	C411	0.086300	0.078070	0.217720
H2361	H236	0.124400	0.071100	0.220800
C4121	C412	0.056000	0.065480	0.192360
C4131	C413	0.906100	0.168970	0.282030
H2371	H237	0.867700	0.175800	0.280100
C4141	C414	0.929000	0.146550	0.259120
H2381	H238	0.906100	0.139000	0.241800
C4151	C415	0.984800	0.135450	0.261830
C4161	C416	0.017100	0.147450	0.287150
H2391	H239	0.054900	0.139700	0.289500
C4171	C417	0.995600	0.171160	0.310130
H2401	H240	0.019400	0.179700	0.326600
C4181	C418	0.939600	0.181340	0.307740
C4191	C419	0.082100	0.042170	0.167790
C4201	C420	0.915600	0.205530	0.332320
O1211	O121	0.552460	0.528710	0.146850
O1221	O122	0.633140	0.536700	0.168310
O1231	O123	0.361750	0.708730	0.333730
O1241	O124	0.447750	0.721030	0.350780
C4211	C421	0.498300	0.572270	0.191890
H2411	H241	0.474600	0.562400	0.176100
C4221	C422	0.475700	0.594000	0.215050
H2421	H242	0.435800	0.597100	0.214900
C4231	C423	0.506500	0.611330	0.238090
C4241	C424	0.562500	0.601170	0.239420
H2431	H243	0.586000	0.610200	0.255800
C4251	C425	0.586300	0.578070	0.217720
H2441	H244	0.624400	0.571100	0.220800
C4261	C426	0.556000	0.565480	0.192360
C4271	C427	0.406100	0.668970	0.282030
H2451	H245	0.367700	0.675800	0.280100
C4281	C428	0.429000	0.646550	0.259120
H2461	H246	0.406100	0.639000	0.241800
C4291	C429	0.484800	0.635450	0.261830
C4301	C430	0.517100	0.647450	0.287150
H2471	H247	0.554900	0.639700	0.289500
C4311	C431	0.495600	0.671160	0.310130
H2481	H248	0.519400	0.679700	0.326600
C4321	C432	0.439600	0.681340	0.307740
C4331	C433	0.582100	0.542170	0.167790
C4341	C434	0.415600	0.705530	0.332320
O1251	O125	0.552460	0.028710	0.646850
O1261	O126	0.633140	0.036700	0.668310
O1271	O127	0.361750	0.208730	0.833730
O1281	O128	0.447750	0.221030	0.850780
C4351	C435	0.498300	0.072270	0.691890
H2491	H249	0.474600	0.062400	0.676100
C4361	C436	0.475700	0.094000	0.715050
H2501	H250	0.435800	0.097100	0.714900
C4371	C437	0.506500	0.111330	0.738090
C4381	C438	0.562500	0.101170	0.739420
H2511	H251	0.586000	0.110200	0.755800
C4391	C439	0.586300	0.078070	0.717720
H2521	H252	0.624400	0.071100	0.720800
C4401	C440	0.556000	0.065480	0.692360
C4411	C441	0.406100	0.168970	0.782030
H2531	H253	0.367700	0.175800	0.780100
C4421	C442	0.429000	0.146550	0.759120
H2541	H254	0.406100	0.139000	0.741800
C4431	C443	0.484800	0.135450	0.761830
C4441	C444	0.517100	0.147450	0.787150
H2551	H255	0.554900	0.139700	0.789500
C4451	C445	0.495600	0.171160	0.810130
H2561	H256	0.519400	0.179700	0.826600
C4461	C446	0.439600	0.181340	0.807740
C4471	C447	0.582100	0.042170	0.667790
C4481	C448	0.415600	0.205530	0.832320
In91	In9	0.875000	0.248660	0.375000
In101	In10	0.875000	0.748660	0.875000
In111	In11	0.375000	0.248660	0.875000
In121	In12	0.375000	0.748660	0.375000
In131	In13	0.125000	0.498660	0.625000
In141	In14	0.125000	0.998660	0.125000
In151	In15	0.625000	0.498660	0.125000
In161	In16	0.625000	0.998660	0.625000
O1291	O129	0.802460	0.471290	0.396850
O1301	O130	0.883140	0.463300	0.418310
O1311	O131	0.611750	0.291270	0.583730
O1321	O132	0.697750	0.278970	0.600780
C4491	C449	0.748300	0.427730	0.441890
H2571	H257	0.724600	0.437600	0.426100
C4501	C450	0.725700	0.406000	0.465050
H2581	H258	0.685800	0.402900	0.464900
C4511	C451	0.756500	0.388670	0.488090
C4521	C452	0.812500	0.398830	0.489420
H2591	H259	0.836000	0.389800	0.505800
C4531	C453	0.836300	0.421930	0.467720
H2601	H260	0.874400	0.428900	0.470800
C4541	C454	0.806000	0.434520	0.442360
C4551	C455	0.656100	0.331030	0.532030
H2611	H261	0.617700	0.324200	0.530100
C4561	C456	0.679000	0.353450	0.509120
H2621	H262	0.656100	0.361000	0.491800
C4571	C457	0.734800	0.364550	0.511830
C4581	C458	0.767100	0.352550	0.537150
H2631	H263	0.804900	0.360300	0.539500
C4591	C459	0.745600	0.328840	0.560130
H2641	H264	0.769400	0.320300	0.576600
C4601	C460	0.689600	0.318660	0.557740
C4611	C461	0.832100	0.457830	0.417790
C4621	C462	0.665600	0.294470	0.582320
O1331	O133	0.802460	0.971290	0.896850
O1341	O134	0.883140	0.963300	0.918310
O1351	O135	0.611750	0.791270	0.083730
O1361	O136	0.697750	0.778970	0.100780
C4631	C463	0.748300	0.927730	0.941890
H2651	H265	0.724600	0.937600	0.926100
C4641	C464	0.725700	0.906000	0.965050
H2661	H266	0.685800	0.902900	0.964900
C4651	C465	0.756500	0.888670	0.988090
C4661	C466	0.812500	0.898830	0.989420
H2671	H267	0.836000	0.889800	0.005800
C4671	C467	0.836300	0.921930	0.967720
H2681	H268	0.874400	0.928900	0.970800
C4681	C468	0.806000	0.934520	0.942360
C4691	C469	0.656100	0.831030	0.032030
H2691	H269	0.617700	0.824200	0.030100
C4701	C470	0.679000	0.853450	0.009120
H2701	H270	0.656100	0.861000	0.991800
C4711	C471	0.734800	0.864550	0.011830
C4721	C472	0.767100	0.852550	0.037150
H2711	H271	0.804900	0.860300	0.039500
C4731	C473	0.745600	0.828840	0.060130
H2721	H272	0.769400	0.820300	0.076600
C4741	C474	0.689600	0.818660	0.057740
C4751	C475	0.832100	0.957830	0.917790
C4761	C476	0.665600	0.794470	0.082320
O1371	O137	0.302460	0.471290	0.896850
O1381	O138	0.383140	0.463300	0.918310
O1391	O139	0.111750	0.291270	0.083730
O1401	O140	0.197750	0.278970	0.100780
C4771	C477	0.248300	0.427730	0.941890
H2731	H273	0.224600	0.437600	0.926100
C4781	C478	0.225700	0.406000	0.965050
H2741	H274	0.185800	0.402900	0.964900
C4791	C479	0.256500	0.388670	0.988090
C4801	C480	0.312500	0.398830	0.989420
H2751	H275	0.336000	0.389800	0.005800
C4811	C481	0.336300	0.421930	0.967720
H2761	H276	0.374400	0.428900	0.970800
C4821	C482	0.306000	0.434520	0.942360
C4831	C483	0.156100	0.331030	0.032030
H2771	H277	0.117700	0.324200	0.030100
C4841	C484	0.179000	0.353450	0.009120
H2781	H278	0.156100	0.361000	0.991800
C4851	C485	0.234800	0.364550	0.011830
C4861	C486	0.267100	0.352550	0.037150
H2791	H279	0.304900	0.360300	0.039500
C4871	C487	0.245600	0.328840	0.060130
H2801	H280	0.269400	0.320300	0.076600
C4881	C488	0.189600	0.318660	0.057740
C4891	C489	0.332100	0.457830	0.917790
C4901	C490	0.165600	0.294470	0.082320
O1411	O141	0.302460	0.971290	0.396850
O1421	O142	0.383140	0.963300	0.418310
O1431	O143	0.111750	0.791270	0.583730
O1441	O144	0.197750	0.778970	0.600780
C4911	C491	0.248300	0.927730	0.441890
H2811	H281	0.224600	0.937600	0.426100
C4921	C492	0.225700	0.906000	0.465050
H2821	H282	0.185800	0.902900	0.464900
C4931	C493	0.256500	0.888670	0.488090
C4941	C494	0.312500	0.898830	0.489420
H2831	H283	0.336000	0.889800	0.505800
C4951	C495	0.336300	0.921930	0.467720
H2841	H284	0.374400	0.928900	0.470800
C4961	C496	0.306000	0.934520	0.442360
C4971	C497	0.156100	0.831030	0.532030
H2851	H285	0.117700	0.824200	0.530100
C4981	C498	0.179000	0.853450	0.509120
H2861	H286	0.156100	0.861000	0.491800
C4991	C499	0.234800	0.864550	0.511830
C5001	C500	0.267100	0.852550	0.537150
H2871	H287	0.304900	0.860300	0.539500
C5011	C501	0.245600	0.828840	0.560130
H2881	H288	0.269400	0.820300	0.576600
C5021	C502	0.189600	0.818660	0.557740
C5031	C503	0.332100	0.957830	0.417790
C5041	C504	0.165600	0.794470	0.582320
O1451	O145	0.947540	0.471290	0.353150
O1461	O146	0.866860	0.463300	0.331690
O1471	O147	0.138250	0.291270	0.166270
O1481	O148	0.052250	0.278970	0.149220
C5051	C505	0.001700	0.427730	0.308110
H2891	H289	0.025400	0.437600	0.323900
C5061	C506	0.024300	0.406000	0.284950
H2901	H290	0.064200	0.402900	0.285100
C5071	C507	0.993500	0.388670	0.261910
C5081	C508	0.937500	0.398830	0.260580
H2911	H291	0.914000	0.389800	0.244200
C5091	C509	0.913700	0.421930	0.282280
H2921	H292	0.875600	0.428900	0.279200
C5101	C510	0.944000	0.434520	0.307640
C5111	C511	0.093900	0.331030	0.217970
H2931	H293	0.132300	0.324200	0.219900
C5121	C512	0.071000	0.353450	0.240880
H2941	H294	0.093900	0.361000	0.258200
C5131	C513	0.015200	0.364550	0.238170
C5141	C514	0.982900	0.352550	0.212850
H2951	H295	0.945100	0.360300	0.210500
C5151	C515	0.004400	0.328840	0.189870
H2961	H296	0.980600	0.320300	0.173400
C5161	C516	0.060400	0.318660	0.192260
C5171	C517	0.917900	0.457830	0.332210
C5181	C518	0.084400	0.294470	0.167680
O1491	O149	0.947540	0.971290	0.853150
O1501	O150	0.866860	0.963300	0.831690
O1511	O151	0.138250	0.791270	0.666270
O1521	O152	0.052250	0.778970	0.649220
C5191	C519	0.001700	0.927730	0.808110
H2971	H297	0.025400	0.937600	0.823900
C5201	C520	0.024300	0.906000	0.784950
H2981	H298	0.064200	0.902900	0.785100
C5211	C521	0.993500	0.888670	0.761910
C5221	C522	0.937500	0.898830	0.760580
H2991	H299	0.914000	0.889800	0.744200
C5231	C523	0.913700	0.921930	0.782280
H3001	H300	0.875600	0.928900	0.779200
C5241	C524	0.944000	0.934520	0.807640
C5251	C525	0.093900	0.831030	0.717970
H3011	H301	0.132300	0.824200	0.719900
C5261	C526	0.071000	0.853450	0.740880
H3021	H302	0.093900	0.861000	0.758200
C5271	C527	0.015200	0.864550	0.738170
C5281	C528	0.982900	0.852550	0.712850
H3031	H303	0.945100	0.860300	0.710500
C5291	C529	0.004400	0.828840	0.689870
H3041	H304	0.980600	0.820300	0.673400
C5301	C530	0.060400	0.818660	0.692260
C5311	C531	0.917900	0.957830	0.832210
C5321	C532	0.084400	0.794470	0.667680
O1531	O153	0.447540	0.471290	0.853150
O1541	O154	0.366860	0.463300	0.831690
O1551	O155	0.638250	0.291270	0.666270
O1561	O156	0.552250	0.278970	0.649220
C5331	C533	0.501700	0.427730	0.808110
H3051	H305	0.525400	0.437600	0.823900
C5341	C534	0.524300	0.406000	0.784950
H3061	H306	0.564200	0.402900	0.785100
C5351	C535	0.493500	0.388670	0.761910
C5361	C536	0.437500	0.398830	0.760580
H3071	H307	0.414000	0.389800	0.744200
C5371	C537	0.413700	0.421930	0.782280
H3081	H308	0.375600	0.428900	0.779200
C5381	C538	0.444000	0.434520	0.807640
C5391	C539	0.593900	0.331030	0.717970
H3091	H309	0.632300	0.324200	0.719900
C5401	C540	0.571000	0.353450	0.740880
H3101	H310	0.593900	0.361000	0.758200
C5411	C541	0.515200	0.364550	0.738170
C5421	C542	0.482900	0.352550	0.712850
H3111	H311	0.445100	0.360300	0.710500
C5431	C543	0.504400	0.328840	0.689870
H3121	H312	0.480600	0.320300	0.673400
C5441	C544	0.560400	0.318660	0.692260
C5451	C545	0.417900	0.457830	0.832210
C5461	C546	0.584400	0.294470	0.667680
O1571	O157	0.447540	0.971290	0.353150
O1581	O158	0.366860	0.963300	0.331690
O1591	O159	0.638250	0.791270	0.166270
O1601	O160	0.552250	0.778970	0.149220
C5471	C547	0.501700	0.927730	0.308110
H3131	H313	0.525400	0.937600	0.323900
C5481	C548	0.524300	0.906000	0.284950
H3141	H314	0.564200	0.902900	0.285100
C5491	C549	0.493500	0.888670	0.261910
C5501	C550	0.437500	0.898830	0.260580
H3151	H315	0.414000	0.889800	0.244200
C5511	C551	0.413700	0.921930	0.282280
H3161	H316	0.375600	0.928900	0.279200
C5521	C552	0.444000	0.934520	0.307640
C5531	C553	0.593900	0.831030	0.217970
H3171	H317	0.632300	0.824200	0.219900
C5541	C554	0.571000	0.853450	0.240880
H3181	H318	0.593900	0.861000	0.258200
C5551	C555	0.515200	0.864550	0.238170
C5561	C556	0.482900	0.852550	0.212850
H3191	H319	0.445100	0.860300	0.210500
C5571	C557	0.504400	0.828840	0.189870
H3201	H320	0.480600	0.820300	0.173400
C5581	C558	0.560400	0.818660	0.192260
C5591	C559	0.417900	0.957830	0.332210
C5601	C560	0.584400	0.794470	0.167680
O1611	O161	0.052460	0.721290	0.603150
O1621	O162	0.133140	0.713300	0.581690
O1631	O163	0.861750	0.541270	0.416270
O1641	O164	0.947750	0.528970	0.399220
C5611	C561	0.998300	0.677730	0.558110
H3211	H321	0.974600	0.687600	0.573900
C5621	C562	0.975700	0.656000	0.534950
H3221	H322	0.935800	0.652900	0.535100
C5631	C563	0.006500	0.638670	0.511910
C5641	C564	0.062500	0.648830	0.510580
H3231	H323	0.086000	0.639800	0.494200
C5651	C565	0.086300	0.671930	0.532280
H3241	H324	0.124400	0.678900	0.529200
C5661	C566	0.056000	0.684520	0.557640
C5671	C567	0.906100	0.581030	0.467970
H3251	H325	0.867700	0.574200	0.469900
C5681	C568	0.929000	0.603450	0.490880
H3261	H326	0.906100	0.611000	0.508200
C5691	C569	0.984800	0.614550	0.488170
C5701	C570	0.017100	0.602550	0.462850
H3271	H327	0.054900	0.610300	0.460500
C5711	C571	0.995600	0.578840	0.439870
H3281	H328	0.019400	0.570300	0.423400
C5721	C572	0.939600	0.568660	0.442260
C5731	C573	0.082100	0.707830	0.582210
C5741	C574	0.915600	0.544470	0.417680
O1651	O165	0.052460	0.221290	0.103150
O1661	O166	0.133140	0.213300	0.081690
O1671	O167	0.861750	0.041270	0.916270
O1681	O168	0.947750	0.028970	0.899220
C5751	C575	0.998300	0.177730	0.058110
H3291	H329	0.974600	0.187600	0.073900
C5761	C576	0.975700	0.156000	0.034950
H3301	H330	0.935800	0.152900	0.035100
C5771	C577	0.006500	0.138670	0.011910
C5781	C578	0.062500	0.148830	0.010580
H3311	H331	0.086000	0.139800	0.994200
C5791	C579	0.086300	0.171930	0.032280
H3321	H332	0.124400	0.178900	0.029200
C5801	C580	0.056000	0.184520	0.057640
C5811	C581	0.906100	0.081030	0.967970
H3331	H333	0.867700	0.074200	0.969900
C5821	C582	0.929000	0.103450	0.990880
H3341	H334	0.906100	0.111000	0.008200
C5831	C583	0.984800	0.114550	0.988170
C5841	C584	0.017100	0.102550	0.962850
H3351	H335	0.054900	0.110300	0.960500
C5851	C585	0.995600	0.078840	0.939870
H3361	H336	0.019400	0.070300	0.923400
C5861	C586	0.939600	0.068660	0.942260
C5871	C587	0.082100	0.207830	0.082210
C5881	C588	0.915600	0.044470	0.917680
O1691	O169	0.552460	0.721290	0.103150
O1701	O170	0.633140	0.713300	0.081690
O1711	O171	0.361750	0.541270	0.916270
O1721	O172	0.447750	0.528970	0.899220
C5891	C589	0.498300	0.677730	0.058110
H3371	H337	0.474600	0.687600	0.073900
C5901	C590	0.475700	0.656000	0.034950
H3381	H338	0.435800	0.652900	0.035100
C5911	C591	0.506500	0.638670	0.011910
C5921	C592	0.562500	0.648830	0.010580
H3391	H339	0.586000	0.639800	0.994200
C5931	C593	0.586300	0.671930	0.032280
H3401	H340	0.624400	0.678900	0.029200
C5941	C594	0.556000	0.684520	0.057640
C5951	C595	0.406100	0.581030	0.967970
H3411	H341	0.367700	0.574200	0.969900
C5961	C596	0.429000	0.603450	0.990880
H3421	H342	0.406100	0.611000	0.008200
C5971	C597	0.484800	0.614550	0.988170
C5981	C598	0.517100	0.602550	0.962850
H3431	H343	0.554900	0.610300	0.960500
C5991	C599	0.495600	0.578840	0.939870
H3441	H344	0.519400	0.570300	0.923400
C6001	C600	0.439600	0.568660	0.942260
C6011	C601	0.582100	0.707830	0.082210
C6021	C602	0.415600	0.544470	0.917680
O1731	O173	0.552460	0.221290	0.603150
O1741	O174	0.633140	0.213300	0.581690
O1751	O175	0.361750	0.041270	0.416270
O1761	O176	0.447750	0.028970	0.399220
C6031	C603	0.498300	0.177730	0.558110
H3451	H345	0.474600	0.187600	0.573900
C6041	C604	0.475700	0.156000	0.534950
H3461	H346	0.435800	0.152900	0.535100
C6051	C605	0.506500	0.138670	0.511910
C6061	C606	0.562500	0.148830	0.510580
H3471	H347	0.586000	0.139800	0.494200
C6071	C607	0.586300	0.171930	0.532280
H3481	H348	0.624400	0.178900	0.529200
C6081	C608	0.556000	0.184520	0.557640
C6091	C609	0.406100	0.081030	0.467970
H3491	H349	0.367700	0.074200	0.469900
C6101	C610	0.429000	0.103450	0.490880
H3501	H350	0.406100	0.111000	0.508200
C6111	C611	0.484800	0.114550	0.488170
C6121	C612	0.517100	0.102550	0.462850
H3511	H351	0.554900	0.110300	0.460500
C6131	C613	0.495600	0.078840	0.439870
H3521	H352	0.519400	0.070300	0.423400
C6141	C614	0.439600	0.068660	0.442260
C6151	C615	0.582100	0.207830	0.582210
C6161	C616	0.415600	0.044470	0.417680
O1771	O177	0.197540	0.721290	0.646850
O1781	O178	0.116860	0.713300	0.668310
O1791	O179	0.388250	0.541270	0.833730
O1801	O180	0.302250	0.528970	0.850780
C6171	C617	0.251700	0.677730	0.691890
H3531	H353	0.275400	0.687600	0.676100
C6181	C618	0.274300	0.656000	0.715050
H3541	H354	0.314200	0.652900	0.714900
C6191	C619	0.243500	0.638670	0.738090
C6201	C620	0.187500	0.648830	0.739420
H3551	H355	0.164000	0.639800	0.755800
C6211	C621	0.163700	0.671930	0.717720
H3561	H356	0.125600	0.678900	0.720800
C6221	C622	0.194000	0.684520	0.692360
C6231	C623	0.343900	0.581030	0.782030
H3571	H357	0.382300	0.574200	0.780100
C6241	C624	0.321000	0.603450	0.759120
H3581	H358	0.343900	0.611000	0.741800
C6251	C625	0.265200	0.614550	0.761830
C6261	C626	0.232900	0.602550	0.787150
H3591	H359	0.195100	0.610300	0.789500
C6271	C627	0.254400	0.578840	0.810130
H3601	H360	0.230600	0.570300	0.826600
C6281	C628	0.310400	0.568660	0.807740
C6291	C629	0.167900	0.707830	0.667790
C6301	C630	0.334400	0.544470	0.832320
O1811	O181	0.197540	0.221290	0.146850
O1821	O182	0.116860	0.213300	0.168310
O1831	O183	0.388250	0.041270	0.333730
O1841	O184	0.302250	0.028970	0.350780
C6311	C631	0.251700	0.177730	0.191890
H3611	H361	0.275400	0.187600	0.176100
C6321	C632	0.274300	0.156000	0.215050
H3621	H362	0.314200	0.152900	0.214900
C6331	C633	0.243500	0.138670	0.238090
C6341	C634	0.187500	0.148830	0.239420
H3631	H363	0.164000	0.139800	0.255800
C6351	C635	0.163700	0.171930	0.217720
H3641	H364	0.125600	0.178900	0.220800
C6361	C636	0.194000	0.184520	0.192360
C6371	C637	0.343900	0.081030	0.282030
H3651	H365	0.382300	0.074200	0.280100
C6381	C638	0.321000	0.103450	0.259120
H3661	H366	0.343900	0.111000	0.241800
C6391	C639	0.265200	0.114550	0.261830
C6401	C640	0.232900	0.102550	0.287150
H3671	H367	0.195100	0.110300	0.289500
C6411	C641	0.254400	0.078840	0.310130
H3681	H368	0.230600	0.070300	0.326600
C6421	C642	0.310400	0.068660	0.307740
C6431	C643	0.167900	0.207830	0.167790
C6441	C644	0.334400	0.044470	0.332320
O1851	O185	0.697540	0.721290	0.146850
O1861	O186	0.616860	0.713300	0.168310
O1871	O187	0.888250	0.541270	0.333730
O1881	O188	0.802250	0.528970	0.350780
C6451	C645	0.751700	0.677730	0.191890
H3691	H369	0.775400	0.687600	0.176100
C6461	C646	0.774300	0.656000	0.215050
H3701	H370	0.814200	0.652900	0.214900
C6471	C647	0.743500	0.638670	0.238090
C6481	C648	0.687500	0.648830	0.239420
H3711	H371	0.664000	0.639800	0.255800
C6491	C649	0.663700	0.671930	0.217720
H3721	H372	0.625600	0.678900	0.220800
C6501	C650	0.694000	0.684520	0.192360
C6511	C651	0.843900	0.581030	0.282030
H3731	H373	0.882300	0.574200	0.280100
C6521	C652	0.821000	0.603450	0.259120
H3741	H374	0.843900	0.611000	0.241800
C6531	C653	0.765200	0.614550	0.261830
C6541	C654	0.732900	0.602550	0.287150
H3751	H375	0.695100	0.610300	0.289500
C6551	C655	0.754400	0.578840	0.310130
H3761	H376	0.730600	0.570300	0.326600
C6561	C656	0.810400	0.568660	0.307740
C6571	C657	0.667900	0.707830	0.167790
C6581	C658	0.834400	0.544470	0.332320
O1891	O189	0.697540	0.221290	0.646850
O1901	O190	0.616860	0.213300	0.668310
O1911	O191	0.888250	0.041270	0.833730
O1921	O192	0.802250	0.028970	0.850780
C6591	C659	0.751700	0.177730	0.691890
H3771	H377	0.775400	0.187600	0.676100
C6601	C660	0.774300	0.156000	0.715050
H3781	H378	0.814200	0.152900	0.714900
C6611	C661	0.743500	0.138670	0.738090
C6621	C662	0.687500	0.148830	0.739420
H3791	H379	0.664000	0.139800	0.755800
C6631	C663	0.663700	0.171930	0.717720
H3801	H380	0.625600	0.178900	0.720800
C6641	C664	0.694000	0.184520	0.692360
C6651	C665	0.843900	0.081030	0.782030
H3811	H381	0.882300	0.074200	0.780100
C6661	C666	0.821000	0.103450	0.759120
H3821	H382	0.843900	0.111000	0.741800
C6671	C667	0.765200	0.114550	0.761830
C6681	C668	0.732900	0.102550	0.787150
H3831	H383	0.695100	0.110300	0.789500
C6691	C669	0.754400	0.078840	0.810130
H3841	H384	0.730600	0.070300	0.826600
C6701	C670	0.810400	0.068660	0.807740
C6711	C671	0.667900	0.207830	0.667790
C6721	C672	0.834400	0.044470	0.832320
In171	In17	0.875000	0.501340	0.375000
In181	In18	0.875000	0.001340	0.875000
In191	In19	0.375000	0.501340	0.875000
In201	In20	0.375000	0.001340	0.375000
In211	In21	0.125000	0.751340	0.625000
In221	In22	0.125000	0.251340	0.125000
In231	In23	0.625000	0.751340	0.125000
In241	In24	0.625000	0.251340	0.625000
O1931	O193	0.125970	0.664890	0.401960
O1941	O194	0.041510	0.647710	0.385860
O1951	O195	0.852890	0.835970	0.569010
O1961	O196	0.938680	0.843230	0.587440
C6731	C673	0.078800	0.713190	0.444360
H3851	H385	0.118600	0.713800	0.440900
C6741	C674	0.053600	0.735190	0.466410
H3861	H386	0.076800	0.750700	0.477400
C6751	C675	0.994900	0.734910	0.472740
C6761	C676	0.961900	0.711280	0.456020
H3871	H387	0.922400	0.709700	0.460000
C6771	C677	0.987300	0.690340	0.433650
H3881	H388	0.963900	0.675300	0.422000
C6781	C678	0.045100	0.690210	0.427390
C6791	C679	0.890900	0.792210	0.518430
H3891	H389	0.852700	0.799200	0.516900
C6801	C680	0.914700	0.769930	0.495540
H3901	H390	0.891500	0.762200	0.478400
C6811	C681	0.971000	0.758810	0.497040
C6821	C682	0.004700	0.770490	0.523200
H3911	H391	0.042600	0.763000	0.525400
C6831	C683	0.982300	0.793270	0.546060
H3921	H392	0.005700	0.801400	0.562900
C6841	C684	0.926800	0.803670	0.543900
C6851	C685	0.071400	0.665960	0.403460
C6861	C686	0.903500	0.828720	0.567380
O1971	O197	0.125970	0.164890	0.901960
O1981	O198	0.041510	0.147710	0.885860
O1991	O199	0.852890	0.335970	0.069010
O2001	O200	0.938680	0.343230	0.087440
C6871	C687	0.078800	0.213190	0.944360
H3931	H393	0.118600	0.213800	0.940900
C6881	C688	0.053600	0.235190	0.966410
H3941	H394	0.076800	0.250700	0.977400
C6891	C689	0.994900	0.234910	0.972740
C6901	C690	0.961900	0.211280	0.956020
H3951	H395	0.922400	0.209700	0.960000
C6911	C691	0.987300	0.190340	0.933650
H3961	H396	0.963900	0.175300	0.922000
C6921	C692	0.045100	0.190210	0.927390
C6931	C693	0.890900	0.292210	0.018430
H3971	H397	0.852700	0.299200	0.016900
C6941	C694	0.914700	0.269930	0.995540
H3981	H398	0.891500	0.262200	0.978400
C6951	C695	0.971000	0.258810	0.997040
C6961	C696	0.004700	0.270490	0.023200
H3991	H399	0.042600	0.263000	0.025400
C6971	C697	0.982300	0.293270	0.046060
H4001	H400	0.005700	0.301400	0.062900
C6981	C698	0.926800	0.303670	0.043900
C6991	C699	0.071400	0.165960	0.903460
C7001	C700	0.903500	0.328720	0.067380
O2011	O201	0.625970	0.664890	0.901960
O2021	O202	0.541510	0.647710	0.885860
O2031	O203	0.352890	0.835970	0.069010
O2041	O204	0.438680	0.843230	0.087440
C7011	C701	0.578800	0.713190	0.944360
H4011	H401	0.618600	0.713800	0.940900
C7021	C702	0.553600	0.735190	0.966410
H4021	H402	0.576800	0.750700	0.977400
C7031	C703	0.494900	0.734910	0.972740
C7041	C704	0.461900	0.711280	0.956020
H4031	H403	0.422400	0.709700	0.960000
C7051	C705	0.487300	0.690340	0.933650
H4041	H404	0.463900	0.675300	0.922000
C7061	C706	0.545100	0.690210	0.927390
C7071	C707	0.390900	0.792210	0.018430
H4051	H405	0.352700	0.799200	0.016900
C7081	C708	0.414700	0.769930	0.995540
H4061	H406	0.391500	0.762200	0.978400
C7091	C709	0.471000	0.758810	0.997040
C7101	C710	0.504700	0.770490	0.023200
H4071	H407	0.542600	0.763000	0.025400
C7111	C711	0.482300	0.793270	0.046060
H4081	H408	0.505700	0.801400	0.062900
C7121	C712	0.426800	0.803670	0.043900
C7131	C713	0.571400	0.665960	0.903460
C7141	C714	0.403500	0.828720	0.067380
O2051	O205	0.625970	0.164890	0.401960
O2061	O206	0.541510	0.147710	0.385860
O2071	O207	0.352890	0.335970	0.569010
O2081	O208	0.438680	0.343230	0.587440
C7151	C715	0.578800	0.213190	0.444360
H4091	H409	0.618600	0.213800	0.440900
C7161	C716	0.553600	0.235190	0.466410
H4101	H410	0.576800	0.250700	0.477400
C7171	C717	0.494900	0.234910	0.472740
C7181	C718	0.461900	0.211280	0.456020
H4111	H411	0.422400	0.209700	0.460000
C7191	C719	0.487300	0.190340	0.433650
H4121	H412	0.463900	0.175300	0.422000
C7201	C720	0.545100	0.190210	0.427390
C7211	C721	0.390900	0.292210	0.518430
H4131	H413	0.352700	0.299200	0.516900
C7221	C722	0.414700	0.269930	0.495540
H4141	H414	0.391500	0.262200	0.478400
C7231	C723	0.471000	0.258810	0.497040
C7241	C724	0.504700	0.270490	0.523200
H4151	H415	0.542600	0.263000	0.525400
C7251	C725	0.482300	0.293270	0.546060
H4161	H416	0.505700	0.301400	0.562900
C7261	C726	0.426800	0.303670	0.543900
C7271	C727	0.571400	0.165960	0.403460
C7281	C728	0.403500	0.328720	0.567380
O2091	O209	0.624030	0.085110	0.401960
O2101	O210	0.708490	0.102290	0.385860
O2111	O211	0.897110	0.914030	0.569010
O2121	O212	0.811320	0.906770	0.587440
C7291	C729	0.671200	0.036810	0.444360
H4171	H417	0.631400	0.036200	0.440900
C7301	C730	0.696400	0.014810	0.466410
H4181	H418	0.673200	0.999300	0.477400
C7311	C731	0.755100	0.015090	0.472740
C7321	C732	0.788100	0.038720	0.456020
H4191	H419	0.827600	0.040300	0.460000
C7331	C733	0.762700	0.059660	0.433650
H4201	H420	0.786100	0.074700	0.422000
C7341	C734	0.704900	0.059790	0.427390
C7351	C735	0.859100	0.957790	0.518430
H4211	H421	0.897300	0.950800	0.516900
C7361	C736	0.835300	0.980070	0.495540
H4221	H422	0.858500	0.987800	0.478400
C7371	C737	0.779000	0.991190	0.497040
C7381	C738	0.745300	0.979510	0.523200
H4231	H423	0.707400	0.987000	0.525400
C7391	C739	0.767700	0.956730	0.546060
H4241	H424	0.744300	0.948600	0.562900
C7401	C740	0.823200	0.946330	0.543900
C7411	C741	0.678600	0.084040	0.403460
C7421	C742	0.846500	0.921280	0.567380
O2131	O213	0.624030	0.585110	0.901960
O2141	O214	0.708490	0.602290	0.885860
O2151	O215	0.897110	0.414030	0.069010
O2161	O216	0.811320	0.406770	0.087440
C7431	C743	0.671200	0.536810	0.944360
H4251	H425	0.631400	0.536200	0.940900
C7441	C744	0.696400	0.514810	0.966410
H4261	H426	0.673200	0.499300	0.977400
C7451	C745	0.755100	0.515090	0.972740
C7461	C746	0.788100	0.538720	0.956020
H4271	H427	0.827600	0.540300	0.960000
C7471	C747	0.762700	0.559660	0.933650
H4281	H428	0.786100	0.574700	0.922000
C7481	C748	0.704900	0.559790	0.927390
C7491	C749	0.859100	0.457790	0.018430
H4291	H429	0.897300	0.450800	0.016900
C7501	C750	0.835300	0.480070	0.995540
H4301	H430	0.858500	0.487800	0.978400
C7511	C751	0.779000	0.491190	0.997040
C7521	C752	0.745300	0.479510	0.023200
H4311	H431	0.707400	0.487000	0.025400
C7531	C753	0.767700	0.456730	0.046060
H4321	H432	0.744300	0.448600	0.062900
C7541	C754	0.823200	0.446330	0.043900
C7551	C755	0.678600	0.584040	0.903460
C7561	C756	0.846500	0.421280	0.067380
O2171	O217	0.124030	0.085110	0.901960
O2181	O218	0.208490	0.102290	0.885860
O2191	O219	0.397110	0.914030	0.069010
O2201	O220	0.311320	0.906770	0.087440
C7571	C757	0.171200	0.036810	0.944360
H4331	H433	0.131400	0.036200	0.940900
C7581	C758	0.196400	0.014810	0.966410
H4341	H434	0.173200	0.999300	0.977400
C7591	C759	0.255100	0.015090	0.972740
C7601	C760	0.288100	0.038720	0.956020
H4351	H435	0.327600	0.040300	0.960000
C7611	C761	0.262700	0.059660	0.933650
H4361	H436	0.286100	0.074700	0.922000
C7621	C762	0.204900	0.059790	0.927390
C7631	C763	0.359100	0.957790	0.018430
H4371	H437	0.397300	0.950800	0.016900
C7641	C764	0.335300	0.980070	0.995540
H4381	H438	0.358500	0.987800	0.978400
C7651	C765	0.279000	0.991190	0.997040
C7661	C766	0.245300	0.979510	0.023200
H4391	H439	0.207400	0.987000	0.025400
C7671	C767	0.267700	0.956730	0.046060
H4401	H440	0.244300	0.948600	0.062900
C7681	C768	0.323200	0.946330	0.043900
C7691	C769	0.178600	0.084040	0.903460
C7701	C770	0.346500	0.921280	0.067380
O2211	O221	0.124030	0.585110	0.401960
O2221	O222	0.208490	0.602290	0.385860
O2231	O223	0.397110	0.414030	0.569010
O2241	O224	0.311320	0.406770	0.587440
C7711	C771	0.171200	0.536810	0.444360
H4411	H441	0.131400	0.536200	0.440900
C7721	C772	0.196400	0.514810	0.466410
H4421	H442	0.173200	0.499300	0.477400
C7731	C773	0.255100	0.515090	0.472740
C7741	C774	0.288100	0.538720	0.456020
H4431	H443	0.327600	0.540300	0.460000
C7751	C775	0.262700	0.559660	0.433650
H4441	H444	0.286100	0.574700	0.422000
C7761	C776	0.204900	0.559790	0.427390
C7771	C777	0.359100	0.457790	0.518430
H4451	H445	0.397300	0.450800	0.516900
C7781	C778	0.335300	0.480070	0.495540
H4461	H446	0.358500	0.487800	0.478400
C7791	C779	0.279000	0.491190	0.497040
C7801	C780	0.245300	0.479510	0.523200
H4471	H447	0.207400	0.487000	0.525400
C7811	C781	0.267700	0.456730	0.546060
H4481	H448	0.244300	0.448600	0.562900
C7821	C782	0.323200	0.446330	0.543900
C7831	C783	0.178600	0.584040	0.403460
C7841	C784	0.346500	0.421280	0.567380
O2251	O225	0.375970	0.335110	0.651960
O2261	O226	0.291510	0.352290	0.635860
O2271	O227	0.102890	0.164030	0.819010
O2281	O228	0.188680	0.156770	0.837440
C7851	C785	0.328800	0.286810	0.694360
H4491	H449	0.368600	0.286200	0.690900
C7861	C786	0.303600	0.264810	0.716410
H4501	H450	0.326800	0.249300	0.727400
C7871	C787	0.244900	0.265090	0.722740
C7881	C788	0.211900	0.288720	0.706020
H4511	H451	0.172400	0.290300	0.710000
C7891	C789	0.237300	0.309660	0.683650
H4521	H452	0.213900	0.324700	0.672000
C7901	C790	0.295100	0.309790	0.677390
C7911	C791	0.140900	0.207790	0.768430
H4531	H453	0.102700	0.200800	0.766900
C7921	C792	0.164700	0.230070	0.745540
H4541	H454	0.141500	0.237800	0.728400
C7931	C793	0.221000	0.241190	0.747040
C7941	C794	0.254700	0.229510	0.773200
H4551	H455	0.292600	0.237000	0.775400
C7951	C795	0.232300	0.206730	0.796060
H4561	H456	0.255700	0.198600	0.812900
C7961	C796	0.176800	0.196330	0.793900
C7971	C797	0.321400	0.334040	0.653460
C7981	C798	0.153500	0.171280	0.817380
O2291	O229	0.375970	0.835110	0.151960
O2301	O230	0.291510	0.852290	0.135860
O2311	O231	0.102890	0.664030	0.319010
O2321	O232	0.188680	0.656770	0.337440
C7991	C799	0.328800	0.786810	0.194360
H4571	H457	0.368600	0.786200	0.190900
C8001	C800	0.303600	0.764810	0.216410
H4581	H458	0.326800	0.749300	0.227400
C8011	C801	0.244900	0.765090	0.222740
C8021	C802	0.211900	0.788720	0.206020
H4591	H459	0.172400	0.790300	0.210000
C8031	C803	0.237300	0.809660	0.183650
H4601	H460	0.213900	0.824700	0.172000
C8041	C804	0.295100	0.809790	0.177390
C8051	C805	0.140900	0.707790	0.268430
H4611	H461	0.102700	0.700800	0.266900
C8061	C806	0.164700	0.730070	0.245540
H4621	H462	0.141500	0.737800	0.228400
C8071	C807	0.221000	0.741190	0.247040
C8081	C808	0.254700	0.729510	0.273200
H4631	H463	0.292600	0.737000	0.275400
C8091	C809	0.232300	0.706730	0.296060
H4641	H464	0.255700	0.698600	0.312900
C8101	C810	0.176800	0.696330	0.293900
C8111	C811	0.321400	0.834040	0.153460
C8121	C812	0.153500	0.671280	0.317380
O2331	O233	0.875970	0.335110	0.151960
O2341	O234	0.791510	0.352290	0.135860
O2351	O235	0.602890	0.164030	0.319010
O2361	O236	0.688680	0.156770	0.337440
C8131	C813	0.828800	0.286810	0.194360
H4651	H465	0.868600	0.286200	0.190900
C8141	C814	0.803600	0.264810	0.216410
H4661	H466	0.826800	0.249300	0.227400
C8151	C815	0.744900	0.265090	0.222740
C8161	C816	0.711900	0.288720	0.206020
H4671	H467	0.672400	0.290300	0.210000
C8171	C817	0.737300	0.309660	0.183650
H4681	H468	0.713900	0.324700	0.172000
C8181	C818	0.795100	0.309790	0.177390
C8191	C819	0.640900	0.207790	0.268430
H4691	H469	0.602700	0.200800	0.266900
C8201	C820	0.664700	0.230070	0.245540
H4701	H470	0.641500	0.237800	0.228400
C8211	C821	0.721000	0.241190	0.247040
C8221	C822	0.754700	0.229510	0.273200
H4711	H471	0.792600	0.237000	0.275400
C8231	C823	0.732300	0.206730	0.296060
H4721	H472	0.755700	0.198600	0.312900
C8241	C824	0.676800	0.196330	0.293900
C8251	C825	0.821400	0.334040	0.153460
C8261	C826	0.653500	0.171280	0.317380
O2371	O237	0.875970	0.835110	0.651960
O2381	O238	0.791510	0.852290	0.635860
O2391	O239	0.602890	0.664030	0.819010
O2401	O240	0.688680	0.656770	0.837440
C8271	C827	0.828800	0.786810	0.694360
H4731	H473	0.868600	0.786200	0.690900
C8281	C828	0.803600	0.764810	0.716410
H4741	H474	0.826800	0.749300	0.727400
C8291	C829	0.744900	0.765090	0.722740
C8301	C830	0.711900	0.788720	0.706020
H4751	H475	0.672400	0.790300	0.710000
C8311	C831	0.737300	0.809660	0.683650
H4761	H476	0.713900	0.824700	0.672000
C8321	C832	0.795100	0.809790	0.677390
C8331	C833	0.640900	0.707790	0.768430
H4771	H477	0.602700	0.700800	0.766900
C8341	C834	0.664700	0.730070	0.745540
H4781	H478	0.641500	0.737800	0.728400
C8351	C835	0.721000	0.741190	0.747040
C8361	C836	0.754700	0.729510	0.773200
H4791	H479	0.792600	0.737000	0.775400
C8371	C837	0.732300	0.706730	0.796060
H4801	H480	0.755700	0.698600	0.812900
C8381	C838	0.676800	0.696330	0.793900
C8391	C839	0.821400	0.834040	0.653460
C8401	C840	0.653500	0.671280	0.817380
O2411	O241	0.874030	0.914890	0.651960
O2421	O242	0.958490	0.897710	0.635860
O2431	O243	0.147110	0.085970	0.819010
O2441	O244	0.061320	0.093230	0.837440
C8411	C841	0.921200	0.963190	0.694360
H4811	H481	0.881400	0.963800	0.690900
C8421	C842	0.946400	0.985190	0.716410
H4821	H482	0.923200	0.000700	0.727400
C8431	C843	0.005100	0.984910	0.722740
C8441	C844	0.038100	0.961280	0.706020
H4831	H483	0.077600	0.959700	0.710000
C8451	C845	0.012700	0.940340	0.683650
H4841	H484	0.036100	0.925300	0.672000
C8461	C846	0.954900	0.940210	0.677390
C8471	C847	0.109100	0.042210	0.768430
H4851	H485	0.147300	0.049200	0.766900
C8481	C848	0.085300	0.019930	0.745540
H4861	H486	0.108500	0.012200	0.728400
C8491	C849	0.029000	0.008810	0.747040
C8501	C850	0.995300	0.020490	0.773200
H4871	H487	0.957400	0.013000	0.775400
C8511	C851	0.017700	0.043270	0.796060
H4881	H488	0.994300	0.051400	0.812900
C8521	C852	0.073200	0.053670	0.793900
C8531	C853	0.928600	0.915960	0.653460
C8541	C854	0.096500	0.078720	0.817380
O2451	O245	0.874030	0.414890	0.151960
O2461	O246	0.958490	0.397710	0.135860
O2471	O247	0.147110	0.585970	0.319010
O2481	O248	0.061320	0.593230	0.337440
C8551	C855	0.921200	0.463190	0.194360
H4891	H489	0.881400	0.463800	0.190900
C8561	C856	0.946400	0.485190	0.216410
H4901	H490	0.923200	0.500700	0.227400
C8571	C857	0.005100	0.484910	0.222740
C8581	C858	0.038100	0.461280	0.206020
H4911	H491	0.077600	0.459700	0.210000
C8591	C859	0.012700	0.440340	0.183650
H4921	H492	0.036100	0.425300	0.172000
C8601	C860	0.954900	0.440210	0.177390
C8611	C861	0.109100	0.542210	0.268430
H4931	H493	0.147300	0.549200	0.266900
C8621	C862	0.085300	0.519930	0.245540
H4941	H494	0.108500	0.512200	0.228400
C8631	C863	0.029000	0.508810	0.247040
C8641	C864	0.995300	0.520490	0.273200
H4951	H495	0.957400	0.513000	0.275400
C8651	C865	0.017700	0.543270	0.296060
H4961	H496	0.994300	0.551400	0.312900
C8661	C866	0.073200	0.553670	0.293900
C8671	C867	0.928600	0.415960	0.153460
C8681	C868	0.096500	0.578720	0.317380
O2491	O249	0.374030	0.914890	0.151960
O2501	O250	0.458490	0.897710	0.135860
O2511	O251	0.647110	0.085970	0.319010
O2521	O252	0.561320	0.093230	0.337440
C8691	C869	0.421200	0.963190	0.194360
H4971	H497	0.381400	0.963800	0.190900
C8701	C870	0.446400	0.985190	0.216410
H4981	H498	0.423200	0.000700	0.227400
C8711	C871	0.505100	0.984910	0.222740
C8721	C872	0.538100	0.961280	0.206020
H4991	H499	0.577600	0.959700	0.210000
C8731	C873	0.512700	0.940340	0.183650
H5001	H500	0.536100	0.925300	0.172000
C8741	C874	0.454900	0.940210	0.177390
C8751	C875	0.609100	0.042210	0.268430
H5011	H501	0.647300	0.049200	0.266900
C8761	C876	0.585300	0.019930	0.245540
H5021	H502	0.608500	0.012200	0.228400
C8771	C877	0.529000	0.008810	0.247040
C8781	C878	0.495300	0.020490	0.273200
H5031	H503	0.457400	0.013000	0.275400
C8791	C879	0.517700	0.043270	0.296060
H5041	H504	0.494300	0.051400	0.312900
C8801	C880	0.573200	0.053670	0.293900
C8811	C881	0.428600	0.915960	0.153460
C8821	C882	0.596500	0.078720	0.317380
O2531	O253	0.374030	0.414890	0.651960
O2541	O254	0.458490	0.397710	0.635860
O2551	O255	0.647110	0.585970	0.819010
O2561	O256	0.561320	0.593230	0.837440
C8831	C883	0.421200	0.463190	0.694360
H5051	H505	0.381400	0.463800	0.690900
C8841	C884	0.446400	0.485190	0.716410
H5061	H506	0.423200	0.500700	0.727400
C8851	C885	0.505100	0.484910	0.722740
C8861	C886	0.538100	0.461280	0.706020
H5071	H507	0.577600	0.459700	0.710000
C8871	C887	0.512700	0.440340	0.683650
H5081	H508	0.536100	0.425300	0.672000
C8881	C888	0.454900	0.440210	0.677390
C8891	C889	0.609100	0.542210	0.768430
H5091	H509	0.647300	0.549200	0.766900
C8901	C890	0.585300	0.519930	0.745540
H5101	H510	0.608500	0.512200	0.728400
C8911	C891	0.529000	0.508810	0.747040
C8921	C892	0.495300	0.520490	0.773200
H5111	H511	0.457400	0.513000	0.775400
C8931	C893	0.517700	0.543270	0.796060
H5121	H512	0.494300	0.551400	0.812900
C8941	C894	0.573200	0.553670	0.793900
C8951	C895	0.428600	0.415960	0.653460
C8961	C896	0.596500	0.578720	0.817380
In251	In25	0.125000	0.625000	0.362730
In261	In26	0.125000	0.125000	0.862730
In271	In27	0.625000	0.125000	0.362730
In281	In28	0.625000	0.625000	0.862730
In291	In29	0.375000	0.375000	0.612730
In301	In30	0.375000	0.875000	0.112730
In311	In31	0.875000	0.875000	0.612730
In321	In32	0.875000	0.375000	0.112730
