data_FAJYAS_clean_PM
_symmetry_space_group_name_H-M	'P1'
_cell_length_a	13.877300
_cell_length_b	21.608000
_cell_length_c	34.922100
_cell_angle_alpha	90.000000
_cell_angle_beta	96.236000
_cell_angle_gamma	90.000000
_symmetry_Int_Tables_number 1

loop_
_symmetry_equiv_pos_as_xyz
'x,y,z'

loop_
_atom_site_label
_atom_site_type_symbol
_atom_site_fract_x
_atom_site_fract_y
_atom_site_fract_z
Co11	Co1	0.478360	0.506540	0.851350
Co21	Co2	0.299780	0.584160	0.812190
Co31	Co3	0.271710	0.431490	0.837740
Co41	Co4	0.978360	0.993460	0.351350
Co51	Co5	0.799780	0.915840	0.312190
Co61	Co6	0.771710	0.068510	0.337740
H11	H1	0.742600	0.033900	0.089300
H21	H2	0.522800	0.125100	0.931800
H31	H3	0.608400	0.905500	0.012400
H41	H4	0.593000	0.035300	0.928300
H51	H5	0.658000	0.084300	0.039900
H61	H6	0.647400	0.855300	0.958900
H71	H7	0.105000	0.106600	0.947300
H81	H8	0.093700	0.827300	0.989300
H91	H9	0.150000	0.016800	0.120600
H101	H10	0.082000	0.886900	0.033200
H111	H11	0.425400	0.186400	0.891000
H121	H12	0.148900	0.012300	0.954600
H131	H13	0.395200	0.279100	0.860200
H141	H14	0.660000	0.919000	0.148000
H151	H15	0.663200	0.925500	0.213300
H161	H16	0.130400	0.066100	0.064800
H171	H17	0.635100	0.351300	0.918700
H181	H18	0.756400	0.095200	0.144600
H191	H19	0.142900	0.009900	0.249800
H201	H20	0.766400	0.100100	0.211700
H211	H21	0.640500	0.664400	0.906800
H221	H22	0.165300	0.727600	0.990800
H231	H23	0.126200	0.821500	0.891200
H241	H24	0.692200	0.757200	0.936600
H251	H25	0.163100	0.733300	0.858300
H261	H26	0.160400	0.238500	0.858000
H271	H27	0.435300	0.835500	0.896700
H281	H28	0.391100	0.743100	0.866100
H291	H29	0.663900	0.258800	0.950900
H301	H30	0.123400	0.154000	0.892100
H311	H31	0.215400	0.237200	0.989400
H321	H32	0.208000	0.641100	0.957100
H331	H33	0.194900	0.013900	0.189000
H341	H34	0.933700	0.956200	0.142300
H351	H35	0.246300	0.326300	0.955400
H361	H36	0.884100	0.948900	0.204300
H371	H37	0.242600	0.466100	0.589300
H381	H38	0.022800	0.374900	0.431800
H391	H39	0.108400	0.594500	0.512400
H401	H40	0.093000	0.464700	0.428300
H411	H41	0.158000	0.415700	0.539900
H421	H42	0.147400	0.644700	0.458900
H431	H43	0.605000	0.393400	0.447300
H441	H44	0.593700	0.672700	0.489300
H451	H45	0.650000	0.483200	0.620600
H461	H46	0.582000	0.613100	0.533200
H471	H47	0.925400	0.313600	0.391000
H481	H48	0.648900	0.487700	0.454600
H491	H49	0.895200	0.220900	0.360200
H501	H50	0.160000	0.581000	0.648000
H511	H51	0.163200	0.574500	0.713300
H521	H52	0.630400	0.433900	0.564800
H531	H53	0.135100	0.148700	0.418700
H541	H54	0.256400	0.404800	0.644600
H551	H55	0.642900	0.490100	0.749800
H561	H56	0.266400	0.399900	0.711700
H571	H57	0.140500	0.835600	0.406800
H581	H58	0.665300	0.772400	0.490800
H591	H59	0.626200	0.678500	0.391200
H601	H60	0.192200	0.742800	0.436600
H611	H61	0.663100	0.766700	0.358300
H621	H62	0.660400	0.261500	0.358000
H631	H63	0.935300	0.664500	0.396700
H641	H64	0.891100	0.756900	0.366100
H651	H65	0.163900	0.241200	0.450900
H661	H66	0.623400	0.346000	0.392100
H671	H67	0.715400	0.262800	0.489400
H681	H68	0.708000	0.858900	0.457100
H691	H69	0.694900	0.486100	0.689000
H701	H70	0.433700	0.543800	0.642300
H711	H71	0.746300	0.173700	0.455400
H721	H72	0.384100	0.551100	0.704300
C11	C1	0.625600	0.070310	0.981720
C21	C2	0.613500	0.947370	0.004560
C31	C3	0.644900	0.972260	0.073500
C41	C4	0.604000	0.024450	0.954810
C51	C5	0.636300	0.992900	0.032040
C61	C6	0.642300	0.053320	0.020990
C71	C7	0.598100	0.962540	0.965440
C81	C8	0.097900	0.928160	0.026810
C91	C9	0.562400	0.916460	0.935590
C101	C10	0.127900	0.894900	0.958310
C111	C11	0.467900	0.220300	0.897100
C121	C12	0.138300	0.002800	0.980340
C131	C13	0.119400	0.942800	0.989630
C141	C14	0.166900	0.114100	0.998650
C151	C15	0.705300	0.006730	0.139160
C161	C16	0.142500	0.050400	0.007360
C171	C17	0.974700	0.972500	0.272190
C181	C18	0.568100	0.804940	0.919890
C191	C19	0.548100	0.212830	0.924550
C201	C20	0.714700	0.013900	0.219510
C211	C21	0.100200	0.975100	0.054380
C221	C22	0.629100	0.136490	0.971580
C231	C23	0.136500	0.782700	0.944170
C241	C24	0.485400	0.387400	0.867980
C251	C25	0.721600	0.016100	0.262750
C261	C26	0.449800	0.275600	0.878940
C271	C27	0.008800	0.977700	0.232940
C281	C28	0.679900	0.956500	0.160690
C291	C29	0.683000	0.960200	0.199370
C301	C30	0.125100	0.035200	0.045380
C311	C31	0.590900	0.318000	0.913630
C321	C32	0.511600	0.695500	0.883020
C331	C33	0.480200	0.634500	0.863520
C341	C34	0.063700	0.959300	0.091880
C351	C35	0.168100	0.186900	0.943570
C361	C36	0.069400	0.984900	0.160130
C371	C37	0.737800	0.060500	0.158740
C381	C38	0.100000	0.997800	0.228000
C391	C39	0.508200	0.326500	0.886970
C401	C40	0.743100	0.063500	0.198720
C411	C41	0.184900	0.678000	0.904310
C421	C42	0.209000	0.291400	0.903130
C431	C43	0.599300	0.699600	0.904340
C441	C44	0.163600	0.729200	0.963530
C451	C45	0.139900	0.784000	0.904900
C461	C46	0.629800	0.754400	0.922520
C471	C47	0.162800	0.731800	0.885420
C481	C48	0.171900	0.239300	0.885330
C491	C49	0.478200	0.801100	0.898760
C501	C50	0.452800	0.746000	0.880800
C511	C51	0.608900	0.262800	0.932350
C521	C52	0.231300	0.346700	0.880660
C531	C53	0.151100	0.189100	0.905500
C541	C54	0.203500	0.237400	0.962130
C551	C55	0.188200	0.677700	0.943390
C561	C56	0.130700	0.000700	0.191900
C571	C57	0.977400	0.966400	0.164290
C581	C58	0.218200	0.623000	0.882330
C591	C59	0.222900	0.290300	0.941770
C601	C60	0.947900	0.962500	0.201280
C611	C61	0.125600	0.429690	0.481720
C621	C62	0.113500	0.552630	0.504560
C631	C63	0.144900	0.527740	0.573500
C641	C64	0.104000	0.475550	0.454810
C651	C65	0.136300	0.507100	0.532040
C661	C66	0.142300	0.446680	0.520990
C671	C67	0.098100	0.537460	0.465440
C681	C68	0.597900	0.571840	0.526810
C691	C69	0.062400	0.583540	0.435590
C701	C70	0.627900	0.605100	0.458310
C711	C71	0.967900	0.279700	0.397100
C721	C72	0.638300	0.497200	0.480340
C731	C73	0.619400	0.557200	0.489630
C741	C74	0.666900	0.385900	0.498650
C751	C75	0.205300	0.493270	0.639160
C761	C76	0.642500	0.449600	0.507360
C771	C77	0.474700	0.527500	0.772190
C781	C78	0.068100	0.695060	0.419890
C791	C79	0.048100	0.287170	0.424550
C801	C80	0.214700	0.486100	0.719510
C811	C81	0.600200	0.524900	0.554380
C821	C82	0.129100	0.363510	0.471580
C831	C83	0.636500	0.717300	0.444170
C841	C84	0.985400	0.112600	0.367980
C851	C85	0.221600	0.483900	0.762750
C861	C86	0.949800	0.224400	0.378940
C871	C87	0.508800	0.522300	0.732940
C881	C88	0.179900	0.543500	0.660690
C891	C89	0.183000	0.539800	0.699370
C901	C90	0.625100	0.464800	0.545380
C911	C91	0.090900	0.182000	0.413630
C921	C92	0.011600	0.804500	0.383020
C931	C93	0.980200	0.865500	0.363520
C941	C94	0.563700	0.540700	0.591880
C951	C95	0.668100	0.313100	0.443570
C961	C96	0.569400	0.515100	0.660130
C971	C97	0.237800	0.439500	0.658740
C981	C98	0.600000	0.502200	0.728000
C991	C99	0.008200	0.173500	0.386970
C1001	C100	0.243100	0.436500	0.698720
C1011	C101	0.684900	0.822000	0.404310
C1021	C102	0.709000	0.208600	0.403130
C1031	C103	0.099300	0.800400	0.404340
C1041	C104	0.663600	0.770800	0.463530
C1051	C105	0.639900	0.716000	0.404900
C1061	C106	0.129800	0.745600	0.422520
C1071	C107	0.662800	0.768200	0.385420
C1081	C108	0.671900	0.260700	0.385330
C1091	C109	0.978200	0.698900	0.398760
C1101	C110	0.952800	0.754000	0.380800
C1111	C111	0.108900	0.237200	0.432350
C1121	C112	0.731300	0.153300	0.380660
C1131	C113	0.651100	0.310900	0.405500
C1141	C114	0.703500	0.262600	0.462130
C1151	C115	0.688200	0.822300	0.443390
C1161	C116	0.630700	0.499300	0.691900
C1171	C117	0.477400	0.533600	0.664290
C1181	C118	0.718200	0.877000	0.382330
C1191	C119	0.722900	0.209700	0.441770
C1201	C120	0.447900	0.537500	0.701280
N11	N1	0.703000	0.007870	0.099100
N21	N2	0.562100	0.154360	0.941600
N31	N3	0.598800	0.859570	0.940640
N41	N4	0.142200	0.132310	0.961760
N51	N5	0.116100	0.835150	0.967170
N61	N6	0.102100	0.991020	0.123260
N71	N7	0.203000	0.492130	0.599100
N81	N8	0.062100	0.345640	0.441600
N91	N9	0.098800	0.640430	0.440640
N101	N10	0.642200	0.367690	0.461760
N111	N11	0.616100	0.664850	0.467170
N121	N12	0.602100	0.508980	0.623260
O11	O1	0.601300	0.926560	0.083090
O21	O2	0.501200	0.930680	0.909690
O31	O3	0.148400	0.911300	0.926790
O41	O4	0.337100	0.511530	0.850520
O51	O5	0.000300	0.919890	0.092500
O61	O6	0.685900	0.172170	0.988440
O71	O7	0.757200	0.063560	0.279210
O81	O8	0.524400	0.586120	0.873910
O91	O9	0.024700	0.996160	0.300320
O101	O10	0.208300	0.149250	0.023110
O111	O11	0.695200	0.967830	0.279520
O121	O12	0.531500	0.434250	0.881140
O131	O13	0.404000	0.639350	0.840570
O141	O14	0.418800	0.391340	0.840340
O151	O15	0.895100	0.945290	0.274010
O161	O16	0.265600	0.393800	0.897010
O171	O17	0.218900	0.344620	0.844300
O181	O18	0.202600	0.623920	0.846660
O191	O19	0.260100	0.580200	0.903590
O201	O20	0.101300	0.573440	0.583090
O211	O21	0.001200	0.569320	0.409690
O221	O22	0.648400	0.588700	0.426790
O231	O23	0.837100	0.988470	0.350520
O241	O24	0.500300	0.580110	0.592500
O251	O25	0.185900	0.327830	0.488440
O261	O26	0.257200	0.436440	0.779210
O271	O27	0.024400	0.913880	0.373910
O281	O28	0.524700	0.503840	0.800320
O291	O29	0.708300	0.350750	0.523110
O301	O30	0.195200	0.532170	0.779520
O311	O31	0.031500	0.065750	0.381140
O321	O32	0.904000	0.860650	0.340570
O331	O33	0.918800	0.108660	0.340340
O341	O34	0.395100	0.554710	0.774010
O351	O35	0.765600	0.106200	0.397010
O361	O36	0.718900	0.155380	0.344300
O371	O37	0.702600	0.876080	0.346660
O381	O38	0.760100	0.919800	0.403590
Co71	Co7	0.021640	0.006540	0.648650
Co81	Co8	0.200220	0.084160	0.687810
Co91	Co9	0.228290	0.931490	0.662260
Co101	Co10	0.521640	0.493460	0.148650
Co111	Co11	0.700220	0.415840	0.187810
Co121	Co12	0.728290	0.568510	0.162260
H731	H73	0.757400	0.533900	0.410700
H741	H74	0.977200	0.625100	0.568200
H751	H75	0.891600	0.405500	0.487600
H761	H76	0.907000	0.535300	0.571700
H771	H77	0.842000	0.584300	0.460100
H781	H78	0.852600	0.355300	0.541100
H791	H79	0.395000	0.606600	0.552700
H801	H80	0.406300	0.327300	0.510700
H811	H81	0.350000	0.516800	0.379400
H821	H82	0.418000	0.386900	0.466800
H831	H83	0.074600	0.686400	0.609000
H841	H84	0.351100	0.512300	0.545400
H851	H85	0.104800	0.779100	0.639800
H861	H86	0.840000	0.419000	0.352000
H871	H87	0.836800	0.425500	0.286700
H881	H88	0.369600	0.566100	0.435200
H891	H89	0.864900	0.851300	0.581300
H901	H90	0.743600	0.595200	0.355400
H911	H91	0.357100	0.509900	0.250200
H921	H92	0.733600	0.600100	0.288300
H931	H93	0.859500	0.164400	0.593200
H941	H94	0.334700	0.227600	0.509200
H951	H95	0.373800	0.321500	0.608800
H961	H96	0.807800	0.257200	0.563400
H971	H97	0.336900	0.233300	0.641700
H981	H98	0.339600	0.738500	0.642000
H991	H99	0.064700	0.335500	0.603300
H1001	H100	0.108900	0.243100	0.633900
H1011	H101	0.836100	0.758800	0.549100
H1021	H102	0.376600	0.654000	0.607900
H1031	H103	0.284600	0.737200	0.510600
H1041	H104	0.292000	0.141100	0.542900
H1051	H105	0.305100	0.513900	0.311000
H1061	H106	0.566300	0.456200	0.357700
H1071	H107	0.253700	0.826300	0.544600
H1081	H108	0.615900	0.448900	0.295700
H1091	H109	0.257400	0.966100	0.910700
H1101	H110	0.477200	0.874900	0.068200
H1111	H111	0.391600	0.094500	0.987600
H1121	H112	0.407000	0.964700	0.071700
H1131	H113	0.342000	0.915700	0.960100
H1141	H114	0.352600	0.144700	0.041100
H1151	H115	0.895000	0.893400	0.052700
H1161	H116	0.906300	0.172700	0.010700
H1171	H117	0.850000	0.983200	0.879400
H1181	H118	0.918000	0.113100	0.966800
H1191	H119	0.574600	0.813600	0.109000
H1201	H120	0.851100	0.987700	0.045400
H1211	H121	0.604800	0.720900	0.139800
H1221	H122	0.340000	0.081000	0.852000
H1231	H123	0.336800	0.074500	0.786700
H1241	H124	0.869600	0.933900	0.935200
H1251	H125	0.364900	0.648700	0.081300
H1261	H126	0.243600	0.904800	0.855400
H1271	H127	0.857100	0.990100	0.750200
H1281	H128	0.233600	0.899900	0.788300
H1291	H129	0.359500	0.335600	0.093200
H1301	H130	0.834700	0.272400	0.009200
H1311	H131	0.873800	0.178500	0.108800
H1321	H132	0.307800	0.242800	0.063400
H1331	H133	0.836900	0.266700	0.141700
H1341	H134	0.839600	0.761500	0.142000
H1351	H135	0.564700	0.164500	0.103300
H1361	H136	0.608900	0.256900	0.133900
H1371	H137	0.336100	0.741200	0.049100
H1381	H138	0.876600	0.846000	0.107900
H1391	H139	0.784600	0.762800	0.010600
H1401	H140	0.792000	0.358900	0.042900
H1411	H141	0.805100	0.986100	0.811000
H1421	H142	0.066300	0.043800	0.857700
H1431	H143	0.753700	0.673700	0.044600
H1441	H144	0.115900	0.051100	0.795700
C1211	C121	0.874400	0.570310	0.518280
C1221	C122	0.886500	0.447370	0.495440
C1231	C123	0.855100	0.472260	0.426500
C1241	C124	0.896000	0.524450	0.545190
C1251	C125	0.863700	0.492900	0.467960
C1261	C126	0.857700	0.553320	0.479010
C1271	C127	0.901900	0.462540	0.534560
C1281	C128	0.402100	0.428160	0.473190
C1291	C129	0.937600	0.416460	0.564410
C1301	C130	0.372100	0.394900	0.541690
C1311	C131	0.032100	0.720300	0.602900
C1321	C132	0.361700	0.502800	0.519660
C1331	C133	0.380600	0.442800	0.510370
C1341	C134	0.333100	0.614100	0.501350
C1351	C135	0.794700	0.506730	0.360840
C1361	C136	0.357500	0.550400	0.492640
C1371	C137	0.525300	0.472500	0.227810
C1381	C138	0.931900	0.304940	0.580110
C1391	C139	0.951900	0.712830	0.575450
C1401	C140	0.785300	0.513900	0.280490
C1411	C141	0.399800	0.475100	0.445620
C1421	C142	0.870900	0.636490	0.528420
C1431	C143	0.363500	0.282700	0.555830
C1441	C144	0.014600	0.887400	0.632020
C1451	C145	0.778400	0.516100	0.237250
C1461	C146	0.050200	0.775600	0.621060
C1471	C147	0.491200	0.477700	0.267060
C1481	C148	0.820100	0.456500	0.339310
C1491	C149	0.817000	0.460200	0.300630
C1501	C150	0.374900	0.535200	0.454620
C1511	C151	0.909100	0.818000	0.586370
C1521	C152	0.988400	0.195500	0.616980
C1531	C153	0.019800	0.134500	0.636480
C1541	C154	0.436300	0.459300	0.408120
C1551	C155	0.331900	0.686900	0.556430
C1561	C156	0.430600	0.484900	0.339870
C1571	C157	0.762200	0.560500	0.341260
C1581	C158	0.400000	0.497800	0.272000
C1591	C159	0.991800	0.826500	0.613030
C1601	C160	0.756900	0.563500	0.301280
C1611	C161	0.315100	0.178000	0.595690
C1621	C162	0.291000	0.791400	0.596870
C1631	C163	0.900700	0.199600	0.595660
C1641	C164	0.336400	0.229200	0.536470
C1651	C165	0.360100	0.284000	0.595100
C1661	C166	0.870200	0.254400	0.577480
C1671	C167	0.337200	0.231800	0.614580
C1681	C168	0.328100	0.739300	0.614670
C1691	C169	0.021800	0.301100	0.601240
C1701	C170	0.047200	0.246000	0.619200
C1711	C171	0.891100	0.762800	0.567650
C1721	C172	0.268700	0.846700	0.619340
C1731	C173	0.348900	0.689100	0.594500
C1741	C174	0.296500	0.737400	0.537870
C1751	C175	0.311800	0.177700	0.556610
C1761	C176	0.369300	0.500700	0.308100
C1771	C177	0.522600	0.466400	0.335710
C1781	C178	0.281800	0.123000	0.617670
C1791	C179	0.277100	0.790300	0.558230
C1801	C180	0.552100	0.462500	0.298720
C1811	C181	0.374400	0.929690	0.018280
C1821	C182	0.386500	0.052630	0.995440
C1831	C183	0.355100	0.027740	0.926500
C1841	C184	0.396000	0.975550	0.045190
C1851	C185	0.363700	0.007100	0.967960
C1861	C186	0.357700	0.946680	0.979010
C1871	C187	0.401900	0.037460	0.034560
C1881	C188	0.902100	0.071840	0.973190
C1891	C189	0.437600	0.083540	0.064410
C1901	C190	0.872100	0.105100	0.041690
C1911	C191	0.532100	0.779700	0.102900
C1921	C192	0.861700	0.997200	0.019660
C1931	C193	0.880600	0.057200	0.010370
C1941	C194	0.833100	0.885900	0.001350
C1951	C195	0.294700	0.993270	0.860840
C1961	C196	0.857500	0.949600	0.992640
C1971	C197	0.025300	0.027500	0.727810
C1981	C198	0.431900	0.195060	0.080110
C1991	C199	0.451900	0.787170	0.075450
C2001	C200	0.285300	0.986100	0.780490
C2011	C201	0.899800	0.024900	0.945620
C2021	C202	0.370900	0.863510	0.028420
C2031	C203	0.863500	0.217300	0.055830
C2041	C204	0.514600	0.612600	0.132020
C2051	C205	0.278400	0.983900	0.737250
C2061	C206	0.550200	0.724400	0.121060
C2071	C207	0.991200	0.022300	0.767060
C2081	C208	0.320100	0.043500	0.839310
C2091	C209	0.317000	0.039800	0.800630
C2101	C210	0.874900	0.964800	0.954620
C2111	C211	0.409100	0.682000	0.086370
C2121	C212	0.488400	0.304500	0.116980
C2131	C213	0.519800	0.365500	0.136480
C2141	C214	0.936300	0.040700	0.908120
C2151	C215	0.831900	0.813100	0.056430
C2161	C216	0.930600	0.015100	0.839870
C2171	C217	0.262200	0.939500	0.841260
C2181	C218	0.900000	0.002200	0.772000
C2191	C219	0.491800	0.673500	0.113030
C2201	C220	0.256900	0.936500	0.801280
C2211	C221	0.815100	0.322000	0.095690
C2221	C222	0.791000	0.708600	0.096870
C2231	C223	0.400700	0.300400	0.095660
C2241	C224	0.836400	0.270800	0.036470
C2251	C225	0.860100	0.216000	0.095100
C2261	C226	0.370200	0.245600	0.077480
C2271	C227	0.837200	0.268200	0.114580
C2281	C228	0.828100	0.760700	0.114670
C2291	C229	0.521800	0.198900	0.101240
C2301	C230	0.547200	0.254000	0.119200
C2311	C231	0.391100	0.737200	0.067650
C2321	C232	0.768700	0.653300	0.119340
C2331	C233	0.848900	0.810900	0.094500
C2341	C234	0.796500	0.762600	0.037870
C2351	C235	0.811800	0.322300	0.056610
C2361	C236	0.869300	0.999300	0.808100
C2371	C237	0.022600	0.033600	0.835710
C2381	C238	0.781800	0.377000	0.117670
C2391	C239	0.777100	0.709700	0.058230
C2401	C240	0.052100	0.037500	0.798720
N131	N13	0.797000	0.507870	0.400900
N141	N14	0.937900	0.654360	0.558400
N151	N15	0.901200	0.359570	0.559360
N161	N16	0.357800	0.632310	0.538240
N171	N17	0.383900	0.335150	0.532830
N181	N18	0.397900	0.491020	0.376740
N191	N19	0.297000	0.992130	0.900900
N201	N20	0.437900	0.845640	0.058400
N211	N21	0.401200	0.140430	0.059360
N221	N22	0.857800	0.867690	0.038240
N231	N23	0.883900	0.164850	0.032830
N241	N24	0.897900	0.008980	0.876740
O391	O39	0.898700	0.426560	0.416910
O401	O40	0.998800	0.430680	0.590310
O411	O41	0.351600	0.411300	0.573210
O421	O42	0.162900	0.011530	0.649480
O431	O43	0.499700	0.419890	0.407500
O441	O44	0.814100	0.672170	0.511560
O451	O45	0.742800	0.563560	0.220790
O461	O46	0.975600	0.086120	0.626090
O471	O47	0.475300	0.496160	0.199680
O481	O48	0.291700	0.649250	0.476890
O491	O49	0.804800	0.467830	0.220480
O501	O50	0.968500	0.934250	0.618860
O511	O51	0.096000	0.139350	0.659430
O521	O52	0.081200	0.891340	0.659660
O531	O53	0.604900	0.445290	0.225990
O541	O54	0.234400	0.893800	0.602990
O551	O55	0.281100	0.844620	0.655700
O561	O56	0.297400	0.123920	0.653340
O571	O57	0.239900	0.080200	0.596410
O581	O58	0.398700	0.073440	0.916910
O591	O59	0.498800	0.069320	0.090310
O601	O60	0.851600	0.088700	0.073210
O611	O61	0.662900	0.488470	0.149480
O621	O62	0.999700	0.080110	0.907500
O631	O63	0.314100	0.827830	0.011560
O641	O64	0.242800	0.936440	0.720790
O651	O65	0.475600	0.413880	0.126090
O661	O66	0.975300	0.003840	0.699680
O671	O67	0.791700	0.850750	0.976890
O681	O68	0.304800	0.032170	0.720480
O691	O69	0.468500	0.565750	0.118860
O701	O70	0.596000	0.360650	0.159430
O711	O71	0.581200	0.608660	0.159660
O721	O72	0.104900	0.054710	0.725990
O731	O73	0.734400	0.606200	0.102990
O741	O74	0.781100	0.655380	0.155700
O751	O75	0.797400	0.376080	0.153340
O761	O76	0.739900	0.419800	0.096410
