data_FAKGOP_clean_PM
_symmetry_space_group_name_H-M	'P1'
_cell_length_a	13.346400
_cell_length_b	13.894500
_cell_length_c	14.565000
_cell_angle_alpha	90.000000
_cell_angle_beta	114.553000
_cell_angle_gamma	90.000000
_symmetry_Int_Tables_number 1

loop_
_symmetry_equiv_pos_as_xyz
'x,y,z'

loop_
_atom_site_label
_atom_site_type_symbol
_atom_site_fract_x
_atom_site_fract_y
_atom_site_fract_z
Ni11	Ni1	0.476700	0.598770	0.236920
Ni21	Ni2	0.658270	0.734170	0.425090
Ni31	Ni3	0.023300	0.098770	0.263080
Ni41	Ni4	0.841730	0.234170	0.074910
H11	H1	0.067000	0.170600	0.819400
H21	H2	0.962800	0.233700	0.802600
H31	H3	0.964500	0.233900	0.498400
H41	H4	0.759600	0.399600	0.270700
H51	H5	0.802900	0.452000	0.556100
H61	H6	0.042300	0.212100	0.974200
H71	H7	0.243200	0.421500	0.959300
H81	H8	0.249000	0.345700	0.227700
H91	H9	0.974100	0.184000	0.648000
H101	H10	0.075400	0.253900	0.676900
H111	H11	0.433000	0.670600	0.680600
H121	H12	0.537200	0.733700	0.697400
H131	H13	0.535500	0.733900	0.001600
H141	H14	0.740400	0.899600	0.229300
H151	H15	0.697100	0.952000	0.943900
H161	H16	0.457700	0.712100	0.525800
H171	H17	0.256800	0.921500	0.540700
H181	H18	0.251000	0.845700	0.272300
H191	H19	0.525900	0.684000	0.852000
H201	H20	0.424600	0.753900	0.823100
C11	C1	0.694400	0.525680	0.372600
C21	C2	0.770900	0.440400	0.408300
C31	C3	0.259200	0.395020	0.101540
C41	C4	0.890600	0.339300	0.543210
C51	C5	0.031000	0.231700	0.793800
C61	C6	0.866500	0.309300	0.373070
C71	C7	0.915700	0.285400	0.475900
C81	C8	0.793500	0.385300	0.339200
C91	C9	0.819000	0.416200	0.510100
C101	C10	0.096800	0.257700	0.006100
C111	C11	0.217300	0.383200	0.997200
C121	C12	0.137000	0.314600	0.950200
C131	C13	0.220500	0.338200	0.157970
C141	C14	0.345300	0.469700	0.152850
C151	C15	0.007600	0.242300	0.684500
C161	C16	0.139100	0.269980	0.110510
C171	C17	0.895200	0.253530	0.299500
C181	C18	0.097400	0.210730	0.172000
C191	C19	0.805600	0.025680	0.127400
C201	C20	0.729100	0.940400	0.091700
C211	C21	0.240800	0.895020	0.398460
C221	C22	0.609400	0.839300	0.956790
C231	C23	0.469000	0.731700	0.706200
C241	C24	0.633500	0.809300	0.126930
C251	C25	0.584300	0.785400	0.024100
C261	C26	0.706500	0.885300	0.160800
C271	C27	0.681000	0.916200	0.989900
C281	C28	0.403200	0.757700	0.493900
C291	C29	0.282700	0.883200	0.502800
C301	C30	0.363000	0.814600	0.549800
C311	C31	0.279500	0.838200	0.342030
C321	C32	0.154700	0.969700	0.347150
C331	C33	0.492400	0.742300	0.815500
C341	C34	0.360900	0.769980	0.389490
C351	C35	0.604800	0.753530	0.200500
C361	C36	0.402600	0.710730	0.328000
O11	O1	0.101170	0.309620	0.847200
O21	O2	0.933910	0.322080	0.645690
O31	O3	0.377740	0.484060	0.245950
O41	O4	0.613590	0.517940	0.287840
O51	O5	0.385920	0.519220	0.104500
O61	O6	0.717310	0.597660	0.429400
O71	O7	0.973830	0.193650	0.335540
O81	O8	0.842660	0.270960	0.207900
O91	O9	0.000690	0.173220	0.132100
O101	O10	0.155670	0.194170	0.263240
O111	O11	0.398830	0.809620	0.652800
O121	O12	0.566090	0.822080	0.854310
O131	O13	0.122260	0.984060	0.254050
O141	O14	0.886410	0.017940	0.212160
O151	O15	0.114080	0.019220	0.395500
O161	O16	0.782690	0.097660	0.070600
O171	O17	0.526170	0.693650	0.164460
O181	O18	0.657340	0.770960	0.292100
O191	O19	0.499310	0.673220	0.367900
O201	O20	0.344330	0.694170	0.236760
Ni51	Ni5	0.523300	0.401230	0.763080
Ni61	Ni6	0.341730	0.265830	0.574910
Ni71	Ni7	0.976700	0.901230	0.736920
Ni81	Ni8	0.158270	0.765830	0.925090
H211	H21	0.933000	0.829400	0.180600
H221	H22	0.037200	0.766300	0.197400
H231	H23	0.035500	0.766100	0.501600
H241	H24	0.240400	0.600400	0.729300
H251	H25	0.197100	0.548000	0.443900
H261	H26	0.957700	0.787900	0.025800
H271	H27	0.756800	0.578500	0.040700
H281	H28	0.751000	0.654300	0.772300
H291	H29	0.025900	0.816000	0.352000
H301	H30	0.924600	0.746100	0.323100
H311	H31	0.567000	0.329400	0.319400
H321	H32	0.462800	0.266300	0.302600
H331	H33	0.464500	0.266100	0.998400
H341	H34	0.259600	0.100400	0.770700
H351	H35	0.302900	0.048000	0.056100
H361	H36	0.542300	0.287900	0.474200
H371	H37	0.743200	0.078500	0.459300
H381	H38	0.749000	0.154300	0.727700
H391	H39	0.474100	0.316000	0.148000
H401	H40	0.575400	0.246100	0.176900
C371	C37	0.305600	0.474320	0.627400
C381	C38	0.229100	0.559600	0.591700
C391	C39	0.740800	0.604980	0.898460
C401	C40	0.109400	0.660700	0.456790
C411	C41	0.969000	0.768300	0.206200
C421	C42	0.133500	0.690700	0.626930
C431	C43	0.084300	0.714600	0.524100
C441	C44	0.206500	0.614700	0.660800
C451	C45	0.181000	0.583800	0.489900
C461	C46	0.903200	0.742300	0.993900
C471	C47	0.782700	0.616800	0.002800
C481	C48	0.863000	0.685400	0.049800
C491	C49	0.779500	0.661800	0.842030
C501	C50	0.654700	0.530300	0.847150
C511	C51	0.992400	0.757700	0.315500
C521	C52	0.860900	0.730020	0.889490
C531	C53	0.104800	0.746470	0.700500
C541	C54	0.902600	0.789270	0.828000
C551	C55	0.194400	0.974320	0.872600
C561	C56	0.270900	0.059600	0.908300
C571	C57	0.759200	0.104980	0.601540
C581	C58	0.390600	0.160700	0.043210
C591	C59	0.531000	0.268300	0.293800
C601	C60	0.366500	0.190700	0.873070
C611	C61	0.415700	0.214600	0.975900
C621	C62	0.293500	0.114700	0.839200
C631	C63	0.319000	0.083800	0.010100
C641	C64	0.596800	0.242300	0.506100
C651	C65	0.717300	0.116800	0.497200
C661	C66	0.637000	0.185400	0.450200
C671	C67	0.720500	0.161800	0.657970
C681	C68	0.845300	0.030300	0.652850
C691	C69	0.507600	0.257700	0.184500
C701	C70	0.639100	0.230020	0.610510
C711	C71	0.395200	0.246470	0.799500
C721	C72	0.597400	0.289270	0.672000
O211	O21	0.898830	0.690380	0.152800
O221	O22	0.066090	0.677920	0.354310
O231	O23	0.622260	0.515940	0.754050
O241	O24	0.386410	0.482060	0.712160
O251	O25	0.614080	0.480780	0.895500
O261	O26	0.282690	0.402340	0.570600
O271	O27	0.026170	0.806350	0.664460
O281	O28	0.157340	0.729040	0.792100
O291	O29	0.999310	0.826780	0.867900
O301	O30	0.844330	0.805830	0.736760
O311	O31	0.601170	0.190380	0.347200
O321	O32	0.433910	0.177920	0.145690
O331	O33	0.877740	0.015940	0.745950
O341	O34	0.113590	0.982060	0.787840
O351	O35	0.885920	0.980780	0.604500
O361	O36	0.217310	0.902340	0.929400
O371	O37	0.473830	0.306350	0.835540
O381	O38	0.342660	0.229040	0.707900
O391	O39	0.500690	0.326780	0.632100
O401	O40	0.655670	0.305830	0.763240
