data_FAKLIO_clean_PM
_symmetry_space_group_name_H-M	'P1'
_cell_length_a	10.853200
_cell_length_b	13.015800
_cell_length_c	13.015800
_cell_angle_alpha	120.000000
_cell_angle_beta	90.000000
_cell_angle_gamma	90.000000
_symmetry_Int_Tables_number 1

loop_
_symmetry_equiv_pos_as_xyz
'x,y,z'

loop_
_atom_site_label
_atom_site_type_symbol
_atom_site_fract_x
_atom_site_fract_y
_atom_site_fract_z
Mn11	Mn1	0.000000	0.333330	0.666660
Mn21	Mn2	0.000000	0.666670	0.333340
H11	H1	0.604600	0.610000	0.180200
H21	H2	0.604600	0.570200	0.390000
H31	H3	0.604600	0.819800	0.429800
H41	H4	0.395400	0.570200	0.180200
H51	H5	0.395400	0.819800	0.390000
H61	H6	0.395400	0.610000	0.429800
H71	H7	0.395400	0.390000	0.819800
H81	H8	0.395400	0.429800	0.610000
H91	H9	0.395400	0.180200	0.570200
H101	H10	0.604600	0.429800	0.819800
H111	H11	0.604600	0.180200	0.610000
H121	H12	0.604600	0.390000	0.570200
C11	C1	0.825800	0.503500	0.895000
C21	C2	0.562300	0.565000	0.107000
C31	C3	0.825800	0.391500	0.496500
C41	C4	0.562300	0.542000	0.435000
C51	C5	0.825800	0.105000	0.608500
C61	C6	0.562300	0.893000	0.458000
C71	C7	0.174200	0.391500	0.895000
C81	C8	0.437700	0.542000	0.107000
C91	C9	0.174200	0.105000	0.496500
C101	C10	0.437700	0.893000	0.435000
C111	C11	0.174200	0.503500	0.608500
C121	C12	0.437700	0.565000	0.458000
C131	C13	0.174200	0.496500	0.105000
C141	C14	0.437700	0.435000	0.893000
C151	C15	0.174200	0.608500	0.503500
C161	C16	0.437700	0.458000	0.565000
C171	C17	0.174200	0.895000	0.391500
C181	C18	0.437700	0.107000	0.542000
C191	C19	0.825800	0.608500	0.105000
C201	C20	0.562300	0.458000	0.893000
C211	C21	0.825800	0.895000	0.503500
C221	C22	0.562300	0.107000	0.565000
C231	C23	0.825800	0.496500	0.391500
C241	C24	0.562300	0.435000	0.542000
C251	C25	0.760500	0.546000	0.000000
C261	C26	0.626400	0.522300	0.000000
C271	C27	0.760500	0.454000	0.454000
C281	C28	0.626400	0.477700	0.477700
C291	C29	0.760500	0.000000	0.546000
C301	C30	0.626400	0.000000	0.522300
C311	C31	0.239500	0.454000	0.000000
C321	C32	0.373600	0.477700	0.000000
C331	C33	0.239500	0.000000	0.454000
C341	C34	0.373600	0.000000	0.477700
C351	C35	0.239500	0.546000	0.546000
C361	C36	0.373600	0.522300	0.522300
N11	N1	0.880000	0.467600	0.807000
N21	N2	0.880000	0.339400	0.532400
N31	N3	0.880000	0.193000	0.660600
N41	N4	0.120000	0.339400	0.807000
N51	N5	0.120000	0.193000	0.532400
N61	N6	0.120000	0.467600	0.660600
N71	N7	0.120000	0.532400	0.193000
N81	N8	0.120000	0.660600	0.467600
N91	N9	0.120000	0.807000	0.339400
N101	N10	0.880000	0.660600	0.193000
N111	N11	0.880000	0.807000	0.467600
N121	N12	0.880000	0.532400	0.339400
