data_FALBAX_manual_PM
_symmetry_space_group_name_H-M	'P1'
_cell_length_a	53.027400
_cell_length_b	53.027400
_cell_length_c	53.027400
_cell_angle_alpha	60.000000
_cell_angle_beta	60.000000
_cell_angle_gamma	60.000000
_symmetry_Int_Tables_number 1

loop_
_symmetry_equiv_pos_as_xyz
'x,y,z'

loop_
_atom_site_label
_atom_site_type_symbol
_atom_site_fract_x
_atom_site_fract_y
_atom_site_fract_z
S11	S1	0.050550	0.503970	0.643250
C11	C1	0.031930	0.495490	0.680690
N11	N1	0.019110	0.489570	0.706790
N21	N2	0.024470	0.436570	0.764210
C21	C2	0.016460	0.424760	0.753380
H11	H1	0.010100	0.437900	0.735700
C31	C3	0.016770	0.394810	0.766250
H21	H2	0.011000	0.387400	0.757600
C41	C4	0.025800	0.375560	0.792180
C51	C5	0.036060	0.386720	0.802420
H31	H3	0.043300	0.373900	0.819500
C61	C6	0.035770	0.416950	0.787530
H41	H4	0.043900	0.424100	0.794100
C71	C7	0.021500	0.345100	0.810280
N31	N3	0.017590	0.332330	0.796770
C81	C8	0.012580	0.305240	0.814900
N41	N4	0.010940	0.291060	0.844780
C91	C9	0.015660	0.306040	0.855400
N51	N5	0.021500	0.332540	0.839140
N61	N6	0.996500	0.265640	0.773480
C101	C10	0.005710	0.290290	0.757370
H51	H5	0.008500	0.299300	0.735900
C111	C11	0.011450	0.303550	0.769670
H61	H6	0.017900	0.321100	0.757100
C121	C12	0.007670	0.290610	0.800990
C131	C13	0.999140	0.264460	0.817820
H71	H7	0.997100	0.254500	0.839100
C141	C14	0.993710	0.252970	0.803350
H81	H8	0.987700	0.235100	0.815300
N71	N7	0.007130	0.268390	0.950670
C151	C15	0.016740	0.250400	0.934500
H91	H9	0.021700	0.228700	0.944900
C161	C16	0.019950	0.261210	0.904070
H101	H10	0.026600	0.247400	0.893800
C171	C17	0.013420	0.292800	0.888260
C181	C18	0.003730	0.312110	0.903950
H111	H11	0.999300	0.333700	0.893700
C191	C19	0.000560	0.299080	0.935280
H121	H12	0.993500	0.312300	0.946300
N81	N8	0.996610	0.210990	0.002550
C201	C20	0.993960	0.188380	0.010080
S21	S2	0.985470	0.155770	0.027070
N91	N9	0.991990	0.231530	0.048810
C211	C21	0.982750	0.247090	0.066350
H131	H13	0.978200	0.268800	0.057200
C221	C22	0.979080	0.234100	0.097060
H141	H14	0.972600	0.246800	0.108400
C231	C23	0.984680	0.202900	0.111620
C241	C24	0.994640	0.185860	0.093740
H151	H15	0.998300	0.164300	0.102700
C251	C25	0.999260	0.200580	0.062300
H161	H16	0.007800	0.188400	0.049800
C261	C26	0.983070	0.187010	0.143890
N101	N10	0.982460	0.202320	0.158300
S31	S3	0.503970	0.050550	0.302230
C271	C27	0.495490	0.031930	0.291890
N111	N11	0.489570	0.019110	0.284530
N121	N12	0.436570	0.024470	0.274750
C281	C28	0.424760	0.016460	0.305400
H171	H17	0.437900	0.010100	0.316300
C291	C29	0.394810	0.016770	0.322170
H181	H18	0.387400	0.011000	0.344000
C301	C30	0.375560	0.025800	0.306460
C311	C31	0.386720	0.036060	0.274800
H191	H19	0.373900	0.043300	0.263300
C321	C32	0.416950	0.035770	0.259750
H201	H20	0.424100	0.043900	0.237900
C331	C33	0.345100	0.021500	0.323120
N131	N13	0.332330	0.017590	0.353310
C341	C34	0.305240	0.012580	0.367280
N141	N14	0.291060	0.010940	0.353220
C351	C35	0.306040	0.015660	0.322900
N151	N15	0.332540	0.021500	0.306820
N161	N16	0.265640	0.996500	0.464380
C361	C36	0.290290	0.005710	0.446630
H211	H21	0.299300	0.008500	0.456300
C371	C37	0.303550	0.011450	0.415330
H221	H22	0.321100	0.017900	0.403900
C381	C38	0.290610	0.007670	0.400730
C391	C39	0.264460	0.999140	0.418580
H231	H23	0.254500	0.997100	0.409300
C401	C40	0.252970	0.993710	0.449970
H241	H24	0.235100	0.987700	0.461900
N171	N17	0.268390	0.007130	0.273810
C411	C41	0.250400	0.016740	0.298360
H251	H25	0.228700	0.021700	0.304700
C421	C42	0.261210	0.019950	0.314770
H261	H26	0.247400	0.026600	0.332200
C431	C43	0.292800	0.013420	0.305520
C441	C44	0.312110	0.003730	0.280210
H271	H27	0.333700	0.999300	0.273300
C451	C45	0.299080	0.000560	0.265080
H281	H28	0.312300	0.993500	0.247900
N181	N18	0.210990	0.996610	0.289850
C461	C46	0.188380	0.993960	0.307580
S41	S4	0.155770	0.985470	0.331690
N191	N19	0.231530	0.991990	0.227670
C471	C47	0.247090	0.982750	0.203810
H291	H29	0.268800	0.978200	0.195800
C481	C48	0.234100	0.979080	0.189760
H301	H30	0.246800	0.972600	0.172200
C491	C49	0.202900	0.984680	0.200800
C501	C50	0.185860	0.994640	0.225760
H311	H31	0.164300	0.998300	0.234700
C511	C51	0.200580	0.999260	0.237860
H321	H32	0.188400	0.007800	0.254000
C521	C52	0.187010	0.983070	0.186030
N201	N20	0.202320	0.982460	0.156920
S51	S5	0.643250	0.302230	0.050550
C531	C53	0.680690	0.291890	0.031930
N211	N21	0.706790	0.284530	0.019110
N221	N22	0.764210	0.274750	0.024470
C541	C54	0.753380	0.305400	0.016460
H331	H33	0.735700	0.316300	0.010100
C551	C55	0.766250	0.322170	0.016770
H341	H34	0.757600	0.344000	0.011000
C561	C56	0.792180	0.306460	0.025800
C571	C57	0.802420	0.274800	0.036060
H351	H35	0.819500	0.263300	0.043300
C581	C58	0.787530	0.259750	0.035770
H361	H36	0.794100	0.237900	0.043900
C591	C59	0.810280	0.323120	0.021500
N231	N23	0.796770	0.353310	0.017590
C601	C60	0.814900	0.367280	0.012580
N241	N24	0.844780	0.353220	0.010940
C611	C61	0.855400	0.322900	0.015660
N251	N25	0.839140	0.306820	0.021500
N261	N26	0.773480	0.464380	0.996500
C621	C62	0.757370	0.446630	0.005710
H371	H37	0.735900	0.456300	0.008500
C631	C63	0.769670	0.415330	0.011450
H381	H38	0.757100	0.403900	0.017900
C641	C64	0.800990	0.400730	0.007670
C651	C65	0.817820	0.418580	0.999140
H391	H39	0.839100	0.409300	0.997100
C661	C66	0.803350	0.449970	0.993710
H401	H40	0.815300	0.461900	0.987700
N271	N27	0.950670	0.273810	0.007130
C671	C67	0.934500	0.298360	0.016740
H411	H41	0.944900	0.304700	0.021700
C681	C68	0.904070	0.314770	0.019950
H421	H42	0.893800	0.332200	0.026600
C691	C69	0.888260	0.305520	0.013420
C701	C70	0.903950	0.280210	0.003730
H431	H43	0.893700	0.273300	0.999300
C711	C71	0.935280	0.265080	0.000560
H441	H44	0.946300	0.247900	0.993500
N281	N28	0.002550	0.289850	0.996610
C721	C72	0.010080	0.307580	0.993960
S61	S6	0.027070	0.331690	0.985470
N291	N29	0.048810	0.227670	0.991990
C731	C73	0.066350	0.203810	0.982750
H451	H45	0.057200	0.195800	0.978200
C741	C74	0.097060	0.189760	0.979080
H461	H46	0.108400	0.172200	0.972600
C751	C75	0.111620	0.200800	0.984680
C761	C76	0.093740	0.225760	0.994640
H471	H47	0.102700	0.234700	0.998300
C771	C77	0.062300	0.237860	0.999260
H481	H48	0.049800	0.254000	0.007800
C781	C78	0.143890	0.186030	0.983070
N301	N30	0.158300	0.156920	0.982460
S71	S7	0.302230	0.643250	0.503970
C791	C79	0.291890	0.680690	0.495490
N311	N31	0.284530	0.706790	0.489570
N321	N32	0.274750	0.764210	0.436570
C801	C80	0.305400	0.753380	0.424760
H491	H49	0.316300	0.735700	0.437900
C811	C81	0.322170	0.766250	0.394810
H501	H50	0.344000	0.757600	0.387400
C821	C82	0.306460	0.792180	0.375560
C831	C83	0.274800	0.802420	0.386720
H511	H51	0.263300	0.819500	0.373900
C841	C84	0.259750	0.787530	0.416950
H521	H52	0.237900	0.794100	0.424100
C851	C85	0.323120	0.810280	0.345100
N331	N33	0.353310	0.796770	0.332330
C861	C86	0.367280	0.814900	0.305240
N341	N34	0.353220	0.844780	0.291060
C871	C87	0.322900	0.855400	0.306040
N351	N35	0.306820	0.839140	0.332540
N361	N36	0.464380	0.773480	0.265640
C881	C88	0.446630	0.757370	0.290290
H531	H53	0.456300	0.735900	0.299300
C891	C89	0.415330	0.769670	0.303550
H541	H54	0.403900	0.757100	0.321100
C901	C90	0.400730	0.800990	0.290610
C911	C91	0.418580	0.817820	0.264460
H551	H55	0.409300	0.839100	0.254500
C921	C92	0.449970	0.803350	0.252970
H561	H56	0.461900	0.815300	0.235100
N371	N37	0.273810	0.950670	0.268390
C931	C93	0.298360	0.934500	0.250400
H571	H57	0.304700	0.944900	0.228700
C941	C94	0.314770	0.904070	0.261210
H581	H58	0.332200	0.893800	0.247400
C951	C95	0.305520	0.888260	0.292800
C961	C96	0.280210	0.903950	0.312110
H591	H59	0.273300	0.893700	0.333700
C971	C97	0.265080	0.935280	0.299080
H601	H60	0.247900	0.946300	0.312300
N381	N38	0.289850	0.002550	0.210990
C981	C98	0.307580	0.010080	0.188380
S81	S8	0.331690	0.027070	0.155770
N391	N39	0.227670	0.048810	0.231530
C991	C99	0.203810	0.066350	0.247090
H611	H61	0.195800	0.057200	0.268800
C1001	C100	0.189760	0.097060	0.234100
H621	H62	0.172200	0.108400	0.246800
C1011	C101	0.200800	0.111620	0.202900
C1021	C102	0.225760	0.093740	0.185860
H631	H63	0.234700	0.102700	0.164300
C1031	C103	0.237860	0.062300	0.200580
H641	H64	0.254000	0.049800	0.188400
C1041	C104	0.186030	0.143890	0.187010
N401	N40	0.156920	0.158300	0.202320
S91	S9	0.643250	0.050550	0.503970
C1051	C105	0.680690	0.031930	0.495490
N411	N41	0.706790	0.019110	0.489570
N421	N42	0.764210	0.024470	0.436570
C1061	C106	0.753380	0.016460	0.424760
H651	H65	0.735700	0.010100	0.437900
C1071	C107	0.766250	0.016770	0.394810
H661	H66	0.757600	0.011000	0.387400
C1081	C108	0.792180	0.025800	0.375560
C1091	C109	0.802420	0.036060	0.386720
H671	H67	0.819500	0.043300	0.373900
C1101	C110	0.787530	0.035770	0.416950
H681	H68	0.794100	0.043900	0.424100
C1111	C111	0.810280	0.021500	0.345100
N431	N43	0.796770	0.017590	0.332330
C1121	C112	0.814900	0.012580	0.305240
N441	N44	0.844780	0.010940	0.291060
C1131	C113	0.855400	0.015660	0.306040
N451	N45	0.839140	0.021500	0.332540
N461	N46	0.773480	0.996500	0.265640
C1141	C114	0.757370	0.005710	0.290290
H691	H69	0.735900	0.008500	0.299300
C1151	C115	0.769670	0.011450	0.303550
H701	H70	0.757100	0.017900	0.321100
C1161	C116	0.800990	0.007670	0.290610
C1171	C117	0.817820	0.999140	0.264460
H711	H71	0.839100	0.997100	0.254500
C1181	C118	0.803350	0.993710	0.252970
H721	H72	0.815300	0.987700	0.235100
N471	N47	0.950670	0.007130	0.268390
C1191	C119	0.934500	0.016740	0.250400
H731	H73	0.944900	0.021700	0.228700
C1201	C120	0.904070	0.019950	0.261210
H741	H74	0.893800	0.026600	0.247400
C1211	C121	0.888260	0.013420	0.292800
C1221	C122	0.903950	0.003730	0.312110
H751	H75	0.893700	0.999300	0.333700
C1231	C123	0.935280	0.000560	0.299080
H761	H76	0.946300	0.993500	0.312300
N481	N48	0.002550	0.996610	0.210990
C1241	C124	0.010080	0.993960	0.188380
S101	S10	0.027070	0.985470	0.155770
N491	N49	0.048810	0.991990	0.231530
C1251	C125	0.066350	0.982750	0.247090
H771	H77	0.057200	0.978200	0.268800
C1261	C126	0.097060	0.979080	0.234100
H781	H78	0.108400	0.972600	0.246800
C1271	C127	0.111620	0.984680	0.202900
C1281	C128	0.093740	0.994640	0.185860
H791	H79	0.102700	0.998300	0.164300
C1291	C129	0.062300	0.999260	0.200580
H801	H80	0.049800	0.007800	0.188400
C1301	C130	0.143890	0.983070	0.187010
N501	N50	0.158300	0.982460	0.202320
S111	S11	0.302230	0.503970	0.050550
C1311	C131	0.291890	0.495490	0.031930
N511	N51	0.284530	0.489570	0.019110
N521	N52	0.274750	0.436570	0.024470
C1321	C132	0.305400	0.424760	0.016460
H811	H81	0.316300	0.437900	0.010100
C1331	C133	0.322170	0.394810	0.016770
H821	H82	0.344000	0.387400	0.011000
C1341	C134	0.306460	0.375560	0.025800
C1351	C135	0.274800	0.386720	0.036060
H831	H83	0.263300	0.373900	0.043300
C1361	C136	0.259750	0.416950	0.035770
H841	H84	0.237900	0.424100	0.043900
C1371	C137	0.323120	0.345100	0.021500
N531	N53	0.353310	0.332330	0.017590
C1381	C138	0.367280	0.305240	0.012580
N541	N54	0.353220	0.291060	0.010940
C1391	C139	0.322900	0.306040	0.015660
N551	N55	0.306820	0.332540	0.021500
N561	N56	0.464380	0.265640	0.996500
C1401	C140	0.446630	0.290290	0.005710
H851	H85	0.456300	0.299300	0.008500
C1411	C141	0.415330	0.303550	0.011450
H861	H86	0.403900	0.321100	0.017900
C1421	C142	0.400730	0.290610	0.007670
C1431	C143	0.418580	0.264460	0.999140
H871	H87	0.409300	0.254500	0.997100
C1441	C144	0.449970	0.252970	0.993710
H881	H88	0.461900	0.235100	0.987700
N571	N57	0.273810	0.268390	0.007130
C1451	C145	0.298360	0.250400	0.016740
H891	H89	0.304700	0.228700	0.021700
C1461	C146	0.314770	0.261210	0.019950
H901	H90	0.332200	0.247400	0.026600
C1471	C147	0.305520	0.292800	0.013420
C1481	C148	0.280210	0.312110	0.003730
H911	H91	0.273300	0.333700	0.999300
C1491	C149	0.265080	0.299080	0.000560
H921	H92	0.247900	0.312300	0.993500
N581	N58	0.289850	0.210990	0.996610
C1501	C150	0.307580	0.188380	0.993960
S121	S12	0.331690	0.155770	0.985470
N591	N59	0.227670	0.231530	0.991990
C1511	C151	0.203810	0.247090	0.982750
H931	H93	0.195800	0.268800	0.978200
C1521	C152	0.189760	0.234100	0.979080
H941	H94	0.172200	0.246800	0.972600
C1531	C153	0.200800	0.202900	0.984680
C1541	C154	0.225760	0.185860	0.994640
H951	H95	0.234700	0.164300	0.998300
C1551	C155	0.237860	0.200580	0.999260
H961	H96	0.254000	0.188400	0.007800
C1561	C156	0.186030	0.187010	0.983070
N601	N60	0.156920	0.202320	0.982460
S131	S13	0.050550	0.643250	0.302230
C1571	C157	0.031930	0.680690	0.291890
N611	N61	0.019110	0.706790	0.284530
N621	N62	0.024470	0.764210	0.274750
C1581	C158	0.016460	0.753380	0.305400
H971	H97	0.010100	0.735700	0.316300
C1591	C159	0.016770	0.766250	0.322170
H981	H98	0.011000	0.757600	0.344000
C1601	C160	0.025800	0.792180	0.306460
C1611	C161	0.036060	0.802420	0.274800
H991	H99	0.043300	0.819500	0.263300
C1621	C162	0.035770	0.787530	0.259750
H1001	H100	0.043900	0.794100	0.237900
C1631	C163	0.021500	0.810280	0.323120
N631	N63	0.017590	0.796770	0.353310
C1641	C164	0.012580	0.814900	0.367280
N641	N64	0.010940	0.844780	0.353220
C1651	C165	0.015660	0.855400	0.322900
N651	N65	0.021500	0.839140	0.306820
N661	N66	0.996500	0.773480	0.464380
C1661	C166	0.005710	0.757370	0.446630
H1011	H101	0.008500	0.735900	0.456300
C1671	C167	0.011450	0.769670	0.415330
H1021	H102	0.017900	0.757100	0.403900
C1681	C168	0.007670	0.800990	0.400730
C1691	C169	0.999140	0.817820	0.418580
H1031	H103	0.997100	0.839100	0.409300
C1701	C170	0.993710	0.803350	0.449970
H1041	H104	0.987700	0.815300	0.461900
N671	N67	0.007130	0.950670	0.273810
C1711	C171	0.016740	0.934500	0.298360
H1051	H105	0.021700	0.944900	0.304700
C1721	C172	0.019950	0.904070	0.314770
H1061	H106	0.026600	0.893800	0.332200
C1731	C173	0.013420	0.888260	0.305520
C1741	C174	0.003730	0.903950	0.280210
H1071	H107	0.999300	0.893700	0.273300
C1751	C175	0.000560	0.935280	0.265080
H1081	H108	0.993500	0.946300	0.247900
N681	N68	0.996610	0.002550	0.289850
C1761	C176	0.993960	0.010080	0.307580
S141	S14	0.985470	0.027070	0.331690
N691	N69	0.991990	0.048810	0.227670
C1771	C177	0.982750	0.066350	0.203810
H1091	H109	0.978200	0.057200	0.195800
C1781	C178	0.979080	0.097060	0.189760
H1101	H110	0.972600	0.108400	0.172200
C1791	C179	0.984680	0.111620	0.200800
C1801	C180	0.994640	0.093740	0.225760
H1111	H111	0.998300	0.102700	0.234700
C1811	C181	0.999260	0.062300	0.237860
H1121	H112	0.007800	0.049800	0.254000
C1821	C182	0.983070	0.143890	0.186030
N701	N70	0.982460	0.158300	0.156920
S151	S15	0.503970	0.302230	0.643250
C1831	C183	0.495490	0.291890	0.680690
N711	N71	0.489570	0.284530	0.706790
N721	N72	0.436570	0.274750	0.764210
C1841	C184	0.424760	0.305400	0.753380
H1131	H113	0.437900	0.316300	0.735700
C1851	C185	0.394810	0.322170	0.766250
H1141	H114	0.387400	0.344000	0.757600
C1861	C186	0.375560	0.306460	0.792180
C1871	C187	0.386720	0.274800	0.802420
H1151	H115	0.373900	0.263300	0.819500
C1881	C188	0.416950	0.259750	0.787530
H1161	H116	0.424100	0.237900	0.794100
C1891	C189	0.345100	0.323120	0.810280
N731	N73	0.332330	0.353310	0.796770
C1901	C190	0.305240	0.367280	0.814900
N741	N74	0.291060	0.353220	0.844780
C1911	C191	0.306040	0.322900	0.855400
N751	N75	0.332540	0.306820	0.839140
N761	N76	0.265640	0.464380	0.773480
C1921	C192	0.290290	0.446630	0.757370
H1171	H117	0.299300	0.456300	0.735900
C1931	C193	0.303550	0.415330	0.769670
H1181	H118	0.321100	0.403900	0.757100
C1941	C194	0.290610	0.400730	0.800990
C1951	C195	0.264460	0.418580	0.817820
H1191	H119	0.254500	0.409300	0.839100
C1961	C196	0.252970	0.449970	0.803350
H1201	H120	0.235100	0.461900	0.815300
N771	N77	0.268390	0.273810	0.950670
C1971	C197	0.250400	0.298360	0.934500
H1211	H121	0.228700	0.304700	0.944900
C1981	C198	0.261210	0.314770	0.904070
H1221	H122	0.247400	0.332200	0.893800
C1991	C199	0.292800	0.305520	0.888260
C2001	C200	0.312110	0.280210	0.903950
H1231	H123	0.333700	0.273300	0.893700
C2011	C201	0.299080	0.265080	0.935280
H1241	H124	0.312300	0.247900	0.946300
N781	N78	0.210990	0.289850	0.002550
C2021	C202	0.188380	0.307580	0.010080
S161	S16	0.155770	0.331690	0.027070
N791	N79	0.231530	0.227670	0.048810
C2031	C203	0.247090	0.203810	0.066350
H1251	H125	0.268800	0.195800	0.057200
C2041	C204	0.234100	0.189760	0.097060
H1261	H126	0.246800	0.172200	0.108400
C2051	C205	0.202900	0.200800	0.111620
C2061	C206	0.185860	0.225760	0.093740
H1271	H127	0.164300	0.234700	0.102700
C2071	C207	0.200580	0.237860	0.062300
H1281	H128	0.188400	0.254000	0.049800
C2081	C208	0.187010	0.186030	0.143890
N801	N80	0.202320	0.156920	0.158300
S171	S17	0.503970	0.643250	0.050550
C2091	C209	0.495490	0.680690	0.031930
N811	N81	0.489570	0.706790	0.019110
N821	N82	0.436570	0.764210	0.024470
C2101	C210	0.424760	0.753380	0.016460
H1291	H129	0.437900	0.735700	0.010100
C2111	C211	0.394810	0.766250	0.016770
H1301	H130	0.387400	0.757600	0.011000
C2121	C212	0.375560	0.792180	0.025800
C2131	C213	0.386720	0.802420	0.036060
H1311	H131	0.373900	0.819500	0.043300
C2141	C214	0.416950	0.787530	0.035770
H1321	H132	0.424100	0.794100	0.043900
C2151	C215	0.345100	0.810280	0.021500
N831	N83	0.332330	0.796770	0.017590
C2161	C216	0.305240	0.814900	0.012580
N841	N84	0.291060	0.844780	0.010940
C2171	C217	0.306040	0.855400	0.015660
N851	N85	0.332540	0.839140	0.021500
N861	N86	0.265640	0.773480	0.996500
C2181	C218	0.290290	0.757370	0.005710
H1331	H133	0.299300	0.735900	0.008500
C2191	C219	0.303550	0.769670	0.011450
H1341	H134	0.321100	0.757100	0.017900
C2201	C220	0.290610	0.800990	0.007670
C2211	C221	0.264460	0.817820	0.999140
H1351	H135	0.254500	0.839100	0.997100
C2221	C222	0.252970	0.803350	0.993710
H1361	H136	0.235100	0.815300	0.987700
N871	N87	0.268390	0.950670	0.007130
C2231	C223	0.250400	0.934500	0.016740
H1371	H137	0.228700	0.944900	0.021700
C2241	C224	0.261210	0.904070	0.019950
H1381	H138	0.247400	0.893800	0.026600
C2251	C225	0.292800	0.888260	0.013420
C2261	C226	0.312110	0.903950	0.003730
H1391	H139	0.333700	0.893700	0.999300
C2271	C227	0.299080	0.935280	0.000560
H1401	H140	0.312300	0.946300	0.993500
N881	N88	0.210990	0.002550	0.996610
C2281	C228	0.188380	0.010080	0.993960
S181	S18	0.155770	0.027070	0.985470
N891	N89	0.231530	0.048810	0.991990
C2291	C229	0.247090	0.066350	0.982750
H1411	H141	0.268800	0.057200	0.978200
C2301	C230	0.234100	0.097060	0.979080
H1421	H142	0.246800	0.108400	0.972600
C2311	C231	0.202900	0.111620	0.984680
C2321	C232	0.185860	0.093740	0.994640
H1431	H143	0.164300	0.102700	0.998300
C2331	C233	0.200580	0.062300	0.999260
H1441	H144	0.188400	0.049800	0.007800
C2341	C234	0.187010	0.143890	0.983070
N901	N90	0.202320	0.158300	0.982460
S191	S19	0.050550	0.302230	0.503970
C2351	C235	0.031930	0.291890	0.495490
N911	N91	0.019110	0.284530	0.489570
N921	N92	0.024470	0.274750	0.436570
C2361	C236	0.016460	0.305400	0.424760
H1451	H145	0.010100	0.316300	0.437900
C2371	C237	0.016770	0.322170	0.394810
H1461	H146	0.011000	0.344000	0.387400
C2381	C238	0.025800	0.306460	0.375560
C2391	C239	0.036060	0.274800	0.386720
H1471	H147	0.043300	0.263300	0.373900
C2401	C240	0.035770	0.259750	0.416950
H1481	H148	0.043900	0.237900	0.424100
C2411	C241	0.021500	0.323120	0.345100
N931	N93	0.017590	0.353310	0.332330
C2421	C242	0.012580	0.367280	0.305240
N941	N94	0.010940	0.353220	0.291060
C2431	C243	0.015660	0.322900	0.306040
N951	N95	0.021500	0.306820	0.332540
N961	N96	0.996500	0.464380	0.265640
C2441	C244	0.005710	0.446630	0.290290
H1491	H149	0.008500	0.456300	0.299300
C2451	C245	0.011450	0.415330	0.303550
H1501	H150	0.017900	0.403900	0.321100
C2461	C246	0.007670	0.400730	0.290610
C2471	C247	0.999140	0.418580	0.264460
H1511	H151	0.997100	0.409300	0.254500
C2481	C248	0.993710	0.449970	0.252970
H1521	H152	0.987700	0.461900	0.235100
N971	N97	0.007130	0.273810	0.268390
C2491	C249	0.016740	0.298360	0.250400
H1531	H153	0.021700	0.304700	0.228700
C2501	C250	0.019950	0.314770	0.261210
H1541	H154	0.026600	0.332200	0.247400
C2511	C251	0.013420	0.305520	0.292800
C2521	C252	0.003730	0.280210	0.312110
H1551	H155	0.999300	0.273300	0.333700
C2531	C253	0.000560	0.265080	0.299080
H1561	H156	0.993500	0.247900	0.312300
N981	N98	0.996610	0.289850	0.210990
C2541	C254	0.993960	0.307580	0.188380
S201	S20	0.985470	0.331690	0.155770
N991	N99	0.991990	0.227670	0.231530
C2551	C255	0.982750	0.203810	0.247090
H1571	H157	0.978200	0.195800	0.268800
C2561	C256	0.979080	0.189760	0.234100
H1581	H158	0.972600	0.172200	0.246800
C2571	C257	0.984680	0.200800	0.202900
C2581	C258	0.994640	0.225760	0.185860
H1591	H159	0.998300	0.234700	0.164300
C2591	C259	0.999260	0.237860	0.200580
H1601	H160	0.007800	0.254000	0.188400
C2601	C260	0.983070	0.186030	0.187010
N1001	N100	0.982460	0.156920	0.202320
S211	S21	0.302230	0.050550	0.643250
C2611	C261	0.291890	0.031930	0.680690
N1011	N101	0.284530	0.019110	0.706790
N1021	N102	0.274750	0.024470	0.764210
C2621	C262	0.305400	0.016460	0.753380
H1611	H161	0.316300	0.010100	0.735700
C2631	C263	0.322170	0.016770	0.766250
H1621	H162	0.344000	0.011000	0.757600
C2641	C264	0.306460	0.025800	0.792180
C2651	C265	0.274800	0.036060	0.802420
H1631	H163	0.263300	0.043300	0.819500
C2661	C266	0.259750	0.035770	0.787530
H1641	H164	0.237900	0.043900	0.794100
C2671	C267	0.323120	0.021500	0.810280
N1031	N103	0.353310	0.017590	0.796770
C2681	C268	0.367280	0.012580	0.814900
N1041	N104	0.353220	0.010940	0.844780
C2691	C269	0.322900	0.015660	0.855400
N1051	N105	0.306820	0.021500	0.839140
N1061	N106	0.464380	0.996500	0.773480
C2701	C270	0.446630	0.005710	0.757370
H1651	H165	0.456300	0.008500	0.735900
C2711	C271	0.415330	0.011450	0.769670
H1661	H166	0.403900	0.017900	0.757100
C2721	C272	0.400730	0.007670	0.800990
C2731	C273	0.418580	0.999140	0.817820
H1671	H167	0.409300	0.997100	0.839100
C2741	C274	0.449970	0.993710	0.803350
H1681	H168	0.461900	0.987700	0.815300
N1071	N107	0.273810	0.007130	0.950670
C2751	C275	0.298360	0.016740	0.934500
H1691	H169	0.304700	0.021700	0.944900
C2761	C276	0.314770	0.019950	0.904070
H1701	H170	0.332200	0.026600	0.893800
C2771	C277	0.305520	0.013420	0.888260
C2781	C278	0.280210	0.003730	0.903950
H1711	H171	0.273300	0.999300	0.893700
C2791	C279	0.265080	0.000560	0.935280
H1721	H172	0.247900	0.993500	0.946300
N1081	N108	0.289850	0.996610	0.002550
C2801	C280	0.307580	0.993960	0.010080
S221	S22	0.331690	0.985470	0.027070
N1091	N109	0.227670	0.991990	0.048810
C2811	C281	0.203810	0.982750	0.066350
H1731	H173	0.195800	0.978200	0.057200
C2821	C282	0.189760	0.979080	0.097060
H1741	H174	0.172200	0.972600	0.108400
C2831	C283	0.200800	0.984680	0.111620
C2841	C284	0.225760	0.994640	0.093740
H1751	H175	0.234700	0.998300	0.102700
C2851	C285	0.237860	0.999260	0.062300
H1761	H176	0.254000	0.007800	0.049800
C2861	C286	0.186030	0.983070	0.143890
N1101	N110	0.156920	0.982460	0.158300
S231	S23	0.643250	0.503970	0.302230
C2871	C287	0.680690	0.495490	0.291890
N1111	N111	0.706790	0.489570	0.284530
N1121	N112	0.764210	0.436570	0.274750
C2881	C288	0.753380	0.424760	0.305400
H1771	H177	0.735700	0.437900	0.316300
C2891	C289	0.766250	0.394810	0.322170
H1781	H178	0.757600	0.387400	0.344000
C2901	C290	0.792180	0.375560	0.306460
C2911	C291	0.802420	0.386720	0.274800
H1791	H179	0.819500	0.373900	0.263300
C2921	C292	0.787530	0.416950	0.259750
H1801	H180	0.794100	0.424100	0.237900
C2931	C293	0.810280	0.345100	0.323120
N1131	N113	0.796770	0.332330	0.353310
C2941	C294	0.814900	0.305240	0.367280
N1141	N114	0.844780	0.291060	0.353220
C2951	C295	0.855400	0.306040	0.322900
N1151	N115	0.839140	0.332540	0.306820
N1161	N116	0.773480	0.265640	0.464380
C2961	C296	0.757370	0.290290	0.446630
H1811	H181	0.735900	0.299300	0.456300
C2971	C297	0.769670	0.303550	0.415330
H1821	H182	0.757100	0.321100	0.403900
C2981	C298	0.800990	0.290610	0.400730
C2991	C299	0.817820	0.264460	0.418580
H1831	H183	0.839100	0.254500	0.409300
C3001	C300	0.803350	0.252970	0.449970
H1841	H184	0.815300	0.235100	0.461900
N1171	N117	0.950670	0.268390	0.273810
C3011	C301	0.934500	0.250400	0.298360
H1851	H185	0.944900	0.228700	0.304700
C3021	C302	0.904070	0.261210	0.314770
H1861	H186	0.893800	0.247400	0.332200
C3031	C303	0.888260	0.292800	0.305520
C3041	C304	0.903950	0.312110	0.280210
H1871	H187	0.893700	0.333700	0.273300
C3051	C305	0.935280	0.299080	0.265080
H1881	H188	0.946300	0.312300	0.247900
N1181	N118	0.002550	0.210990	0.289850
C3061	C306	0.010080	0.188380	0.307580
S241	S24	0.027070	0.155770	0.331690
N1191	N119	0.048810	0.231530	0.227670
C3071	C307	0.066350	0.247090	0.203810
H1891	H189	0.057200	0.268800	0.195800
C3081	C308	0.097060	0.234100	0.189760
H1901	H190	0.108400	0.246800	0.172200
C3091	C309	0.111620	0.202900	0.200800
C3101	C310	0.093740	0.185860	0.225760
H1911	H191	0.102700	0.164300	0.234700
C3111	C311	0.062300	0.200580	0.237860
H1921	H192	0.049800	0.188400	0.254000
C3121	C312	0.143890	0.187010	0.186030
N1201	N120	0.158300	0.202320	0.156920
S251	S25	0.449450	0.996030	0.197770
C3131	C313	0.468070	0.004510	0.208110
N1211	N121	0.480890	0.010430	0.215470
N1221	N122	0.475530	0.063430	0.225250
C3141	C314	0.483540	0.075240	0.194600
H1931	H193	0.489900	0.062100	0.183700
C3151	C315	0.483230	0.105190	0.177830
H1941	H194	0.489000	0.112600	0.156000
C3161	C316	0.474200	0.124440	0.193540
C3171	C317	0.463940	0.113280	0.225200
H1951	H195	0.456700	0.126100	0.236700
C3181	C318	0.464230	0.083050	0.240250
H1961	H196	0.456100	0.075900	0.262100
C3191	C319	0.478500	0.154900	0.176880
N1231	N123	0.482410	0.167670	0.146690
C3201	C320	0.487420	0.194760	0.132720
N1241	N124	0.489060	0.208940	0.146780
C3211	C321	0.484340	0.193960	0.177100
N1251	N125	0.478500	0.167460	0.193180
N1261	N126	0.503500	0.234360	0.035620
C3221	C322	0.494290	0.209710	0.053370
H1971	H197	0.491500	0.200700	0.043700
C3231	C323	0.488550	0.196450	0.084670
H1981	H198	0.482100	0.178900	0.096100
C3241	C324	0.492330	0.209390	0.099270
C3251	C325	0.500860	0.235540	0.081420
H1991	H199	0.502900	0.245500	0.090700
C3261	C326	0.506290	0.247030	0.050030
H2001	H200	0.512300	0.264900	0.038100
N1271	N127	0.492870	0.231610	0.226190
C3271	C327	0.483260	0.249600	0.201640
H2011	H201	0.478300	0.271300	0.195300
C3281	C328	0.480050	0.238790	0.185230
H2021	H202	0.473400	0.252600	0.167800
C3291	C329	0.486580	0.207200	0.194480
C3301	C330	0.496270	0.187890	0.219790
H2031	H203	0.500700	0.166300	0.226700
C3311	C331	0.499440	0.200920	0.234920
H2041	H204	0.506500	0.187700	0.252100
N1281	N128	0.503390	0.289010	0.210150
C3321	C332	0.506040	0.311620	0.192420
S261	S26	0.514530	0.344230	0.168310
N1291	N129	0.508010	0.268470	0.272330
C3331	C333	0.517250	0.252910	0.296190
H2051	H205	0.521800	0.231200	0.304200
C3341	C334	0.520920	0.265900	0.310240
H2061	H206	0.527400	0.253200	0.327800
C3351	C335	0.515320	0.297100	0.299200
C3361	C336	0.505360	0.314140	0.274240
H2071	H207	0.501700	0.335700	0.265300
C3371	C337	0.500740	0.299420	0.262140
H2081	H208	0.492200	0.311600	0.246000
C3381	C338	0.516930	0.312990	0.313970
N1301	N130	0.517540	0.297680	0.343080
S271	S27	0.996030	0.449450	0.856750
C3391	C339	0.004510	0.468070	0.819310
N1311	N131	0.010430	0.480890	0.793210
N1321	N132	0.063430	0.475530	0.735790
C3401	C340	0.075240	0.483540	0.746620
H2091	H209	0.062100	0.489900	0.764300
C3411	C341	0.105190	0.483230	0.733750
H2101	H210	0.112600	0.489000	0.742400
C3421	C342	0.124440	0.474200	0.707820
C3431	C343	0.113280	0.463940	0.697580
H2111	H211	0.126100	0.456700	0.680500
C3441	C344	0.083050	0.464230	0.712470
H2121	H212	0.075900	0.456100	0.705900
C3451	C345	0.154900	0.478500	0.689720
N1331	N133	0.167670	0.482410	0.703230
C3461	C346	0.194760	0.487420	0.685100
N1341	N134	0.208940	0.489060	0.655220
C3471	C347	0.193960	0.484340	0.644600
N1351	N135	0.167460	0.478500	0.660860
N1361	N136	0.234360	0.503500	0.726520
C3481	C348	0.209710	0.494290	0.742630
H2131	H213	0.200700	0.491500	0.764100
C3491	C349	0.196450	0.488550	0.730330
H2141	H214	0.178900	0.482100	0.742900
C3501	C350	0.209390	0.492330	0.699010
C3511	C351	0.235540	0.500860	0.682180
H2151	H215	0.245500	0.502900	0.660900
C3521	C352	0.247030	0.506290	0.696650
H2161	H216	0.264900	0.512300	0.684700
N1371	N137	0.231610	0.492870	0.549330
C3531	C353	0.249600	0.483260	0.565500
H2171	H217	0.271300	0.478300	0.555100
C3541	C354	0.238790	0.480050	0.595930
H2181	H218	0.252600	0.473400	0.606200
C3551	C355	0.207200	0.486580	0.611740
C3561	C356	0.187890	0.496270	0.596050
H2191	H219	0.166300	0.500700	0.606300
C3571	C357	0.200920	0.499440	0.564720
H2201	H220	0.187700	0.506500	0.553700
N1381	N138	0.289010	0.503390	0.497450
C3581	C358	0.311620	0.506040	0.489920
S281	S28	0.344230	0.514530	0.472930
N1391	N139	0.268470	0.508010	0.451190
C3591	C359	0.252910	0.517250	0.433650
H2211	H221	0.231200	0.521800	0.442800
C3601	C360	0.265900	0.520920	0.402940
H2221	H222	0.253200	0.527400	0.391600
C3611	C361	0.297100	0.515320	0.388380
C3621	C362	0.314140	0.505360	0.406260
H2231	H223	0.335700	0.501700	0.397300
C3631	C363	0.299420	0.500740	0.437700
H2241	H224	0.311600	0.492200	0.450200
C3641	C364	0.312990	0.516930	0.356110
N1401	N140	0.297680	0.517540	0.341700
S291	S29	0.856750	0.197770	0.996030
C3651	C365	0.819310	0.208110	0.004510
N1411	N141	0.793210	0.215470	0.010430
N1421	N142	0.735790	0.225250	0.063430
C3661	C366	0.746620	0.194600	0.075240
H2251	H225	0.764300	0.183700	0.062100
C3671	C367	0.733750	0.177830	0.105190
H2261	H226	0.742400	0.156000	0.112600
C3681	C368	0.707820	0.193540	0.124440
C3691	C369	0.697580	0.225200	0.113280
H2271	H227	0.680500	0.236700	0.126100
C3701	C370	0.712470	0.240250	0.083050
H2281	H228	0.705900	0.262100	0.075900
C3711	C371	0.689720	0.176880	0.154900
N1431	N143	0.703230	0.146690	0.167670
C3721	C372	0.685100	0.132720	0.194760
N1441	N144	0.655220	0.146780	0.208940
C3731	C373	0.644600	0.177100	0.193960
N1451	N145	0.660860	0.193180	0.167460
N1461	N146	0.726520	0.035620	0.234360
C3741	C374	0.742630	0.053370	0.209710
H2291	H229	0.764100	0.043700	0.200700
C3751	C375	0.730330	0.084670	0.196450
H2301	H230	0.742900	0.096100	0.178900
C3761	C376	0.699010	0.099270	0.209390
C3771	C377	0.682180	0.081420	0.235540
H2311	H231	0.660900	0.090700	0.245500
C3781	C378	0.696650	0.050030	0.247030
H2321	H232	0.684700	0.038100	0.264900
N1471	N147	0.549330	0.226190	0.231610
C3791	C379	0.565500	0.201640	0.249600
H2331	H233	0.555100	0.195300	0.271300
C3801	C380	0.595930	0.185230	0.238790
H2341	H234	0.606200	0.167800	0.252600
C3811	C381	0.611740	0.194480	0.207200
C3821	C382	0.596050	0.219790	0.187890
H2351	H235	0.606300	0.226700	0.166300
C3831	C383	0.564720	0.234920	0.200920
H2361	H236	0.553700	0.252100	0.187700
N1481	N148	0.497450	0.210150	0.289010
C3841	C384	0.489920	0.192420	0.311620
S301	S30	0.472930	0.168310	0.344230
N1491	N149	0.451190	0.272330	0.268470
C3851	C385	0.433650	0.296190	0.252910
H2371	H237	0.442800	0.304200	0.231200
C3861	C386	0.402940	0.310240	0.265900
H2381	H238	0.391600	0.327800	0.253200
C3871	C387	0.388380	0.299200	0.297100
C3881	C388	0.406260	0.274240	0.314140
H2391	H239	0.397300	0.265300	0.335700
C3891	C389	0.437700	0.262140	0.299420
H2401	H240	0.450200	0.246000	0.311600
C3901	C390	0.356110	0.313970	0.312990
N1501	N150	0.341700	0.343080	0.297680
S311	S31	0.197770	0.856750	0.449450
C3911	C391	0.208110	0.819310	0.468070
N1511	N151	0.215470	0.793210	0.480890
N1521	N152	0.225250	0.735790	0.475530
C3921	C392	0.194600	0.746620	0.483540
H2411	H241	0.183700	0.764300	0.489900
C3931	C393	0.177830	0.733750	0.483230
H2421	H242	0.156000	0.742400	0.489000
C3941	C394	0.193540	0.707820	0.474200
C3951	C395	0.225200	0.697580	0.463940
H2431	H243	0.236700	0.680500	0.456700
C3961	C396	0.240250	0.712470	0.464230
H2441	H244	0.262100	0.705900	0.456100
C3971	C397	0.176880	0.689720	0.478500
N1531	N153	0.146690	0.703230	0.482410
C3981	C398	0.132720	0.685100	0.487420
N1541	N154	0.146780	0.655220	0.489060
C3991	C399	0.177100	0.644600	0.484340
N1551	N155	0.193180	0.660860	0.478500
N1561	N156	0.035620	0.726520	0.503500
C4001	C400	0.053370	0.742630	0.494290
H2451	H245	0.043700	0.764100	0.491500
C4011	C401	0.084670	0.730330	0.488550
H2461	H246	0.096100	0.742900	0.482100
C4021	C402	0.099270	0.699010	0.492330
C4031	C403	0.081420	0.682180	0.500860
H2471	H247	0.090700	0.660900	0.502900
C4041	C404	0.050030	0.696650	0.506290
H2481	H248	0.038100	0.684700	0.512300
N1571	N157	0.226190	0.549330	0.492870
C4051	C405	0.201640	0.565500	0.483260
H2491	H249	0.195300	0.555100	0.478300
C4061	C406	0.185230	0.595930	0.480050
H2501	H250	0.167800	0.606200	0.473400
C4071	C407	0.194480	0.611740	0.486580
C4081	C408	0.219790	0.596050	0.496270
H2511	H251	0.226700	0.606300	0.500700
C4091	C409	0.234920	0.564720	0.499440
H2521	H252	0.252100	0.553700	0.506500
N1581	N158	0.210150	0.497450	0.503390
C4101	C410	0.192420	0.489920	0.506040
S321	S32	0.168310	0.472930	0.514530
N1591	N159	0.272330	0.451190	0.508010
C4111	C411	0.296190	0.433650	0.517250
H2531	H253	0.304200	0.442800	0.521800
C4121	C412	0.310240	0.402940	0.520920
H2541	H254	0.327800	0.391600	0.527400
C4131	C413	0.299200	0.388380	0.515320
C4141	C414	0.274240	0.406260	0.505360
H2551	H255	0.265300	0.397300	0.501700
C4151	C415	0.262140	0.437700	0.500740
H2561	H256	0.246000	0.450200	0.492200
C4161	C416	0.313970	0.356110	0.516930
N1601	N160	0.343080	0.341700	0.517540
S331	S33	0.856750	0.449450	0.197770
C4171	C417	0.819310	0.468070	0.208110
N1611	N161	0.793210	0.480890	0.215470
N1621	N162	0.735790	0.475530	0.225250
C4181	C418	0.746620	0.483540	0.194600
H2571	H257	0.764300	0.489900	0.183700
C4191	C419	0.733750	0.483230	0.177830
H2581	H258	0.742400	0.489000	0.156000
C4201	C420	0.707820	0.474200	0.193540
C4211	C421	0.697580	0.463940	0.225200
H2591	H259	0.680500	0.456700	0.236700
C4221	C422	0.712470	0.464230	0.240250
H2601	H260	0.705900	0.456100	0.262100
C4231	C423	0.689720	0.478500	0.176880
N1631	N163	0.703230	0.482410	0.146690
C4241	C424	0.685100	0.487420	0.132720
N1641	N164	0.655220	0.489060	0.146780
C4251	C425	0.644600	0.484340	0.177100
N1651	N165	0.660860	0.478500	0.193180
N1661	N166	0.726520	0.503500	0.035620
C4261	C426	0.742630	0.494290	0.053370
H2611	H261	0.764100	0.491500	0.043700
C4271	C427	0.730330	0.488550	0.084670
H2621	H262	0.742900	0.482100	0.096100
C4281	C428	0.699010	0.492330	0.099270
C4291	C429	0.682180	0.500860	0.081420
H2631	H263	0.660900	0.502900	0.090700
C4301	C430	0.696650	0.506290	0.050030
H2641	H264	0.684700	0.512300	0.038100
N1671	N167	0.549330	0.492870	0.226190
C4311	C431	0.565500	0.483260	0.201640
H2651	H265	0.555100	0.478300	0.195300
C4321	C432	0.595930	0.480050	0.185230
H2661	H266	0.606200	0.473400	0.167800
C4331	C433	0.611740	0.486580	0.194480
C4341	C434	0.596050	0.496270	0.219790
H2671	H267	0.606300	0.500700	0.226700
C4351	C435	0.564720	0.499440	0.234920
H2681	H268	0.553700	0.506500	0.252100
N1681	N168	0.497450	0.503390	0.210150
C4361	C436	0.489920	0.506040	0.192420
S341	S34	0.472930	0.514530	0.168310
N1691	N169	0.451190	0.508010	0.272330
C4371	C437	0.433650	0.517250	0.296190
H2691	H269	0.442800	0.521800	0.304200
C4381	C438	0.402940	0.520920	0.310240
H2701	H270	0.391600	0.527400	0.327800
C4391	C439	0.388380	0.515320	0.299200
C4401	C440	0.406260	0.505360	0.274240
H2711	H271	0.397300	0.501700	0.265300
C4411	C441	0.437700	0.500740	0.262140
H2721	H272	0.450200	0.492200	0.246000
C4421	C442	0.356110	0.516930	0.313970
N1701	N170	0.341700	0.517540	0.343080
S351	S35	0.197770	0.996030	0.856750
C4431	C443	0.208110	0.004510	0.819310
N1711	N171	0.215470	0.010430	0.793210
N1721	N172	0.225250	0.063430	0.735790
C4441	C444	0.194600	0.075240	0.746620
H2731	H273	0.183700	0.062100	0.764300
C4451	C445	0.177830	0.105190	0.733750
H2741	H274	0.156000	0.112600	0.742400
C4461	C446	0.193540	0.124440	0.707820
C4471	C447	0.225200	0.113280	0.697580
H2751	H275	0.236700	0.126100	0.680500
C4481	C448	0.240250	0.083050	0.712470
H2761	H276	0.262100	0.075900	0.705900
C4491	C449	0.176880	0.154900	0.689720
N1731	N173	0.146690	0.167670	0.703230
C4501	C450	0.132720	0.194760	0.685100
N1741	N174	0.146780	0.208940	0.655220
C4511	C451	0.177100	0.193960	0.644600
N1751	N175	0.193180	0.167460	0.660860
N1761	N176	0.035620	0.234360	0.726520
C4521	C452	0.053370	0.209710	0.742630
H2771	H277	0.043700	0.200700	0.764100
C4531	C453	0.084670	0.196450	0.730330
H2781	H278	0.096100	0.178900	0.742900
C4541	C454	0.099270	0.209390	0.699010
C4551	C455	0.081420	0.235540	0.682180
H2791	H279	0.090700	0.245500	0.660900
C4561	C456	0.050030	0.247030	0.696650
H2801	H280	0.038100	0.264900	0.684700
N1771	N177	0.226190	0.231610	0.549330
C4571	C457	0.201640	0.249600	0.565500
H2811	H281	0.195300	0.271300	0.555100
C4581	C458	0.185230	0.238790	0.595930
H2821	H282	0.167800	0.252600	0.606200
C4591	C459	0.194480	0.207200	0.611740
C4601	C460	0.219790	0.187890	0.596050
H2831	H283	0.226700	0.166300	0.606300
C4611	C461	0.234920	0.200920	0.564720
H2841	H284	0.252100	0.187700	0.553700
N1781	N178	0.210150	0.289010	0.497450
C4621	C462	0.192420	0.311620	0.489920
S361	S36	0.168310	0.344230	0.472930
N1791	N179	0.272330	0.268470	0.451190
C4631	C463	0.296190	0.252910	0.433650
H2851	H285	0.304200	0.231200	0.442800
C4641	C464	0.310240	0.265900	0.402940
H2861	H286	0.327800	0.253200	0.391600
C4651	C465	0.299200	0.297100	0.388380
C4661	C466	0.274240	0.314140	0.406260
H2871	H287	0.265300	0.335700	0.397300
C4671	C467	0.262140	0.299420	0.437700
H2881	H288	0.246000	0.311600	0.450200
C4681	C468	0.313970	0.312990	0.356110
N1801	N180	0.343080	0.297680	0.341700
S371	S37	0.449450	0.856750	0.996030
C4691	C469	0.468070	0.819310	0.004510
N1811	N181	0.480890	0.793210	0.010430
N1821	N182	0.475530	0.735790	0.063430
C4701	C470	0.483540	0.746620	0.075240
H2891	H289	0.489900	0.764300	0.062100
C4711	C471	0.483230	0.733750	0.105190
H2901	H290	0.489000	0.742400	0.112600
C4721	C472	0.474200	0.707820	0.124440
C4731	C473	0.463940	0.697580	0.113280
H2911	H291	0.456700	0.680500	0.126100
C4741	C474	0.464230	0.712470	0.083050
H2921	H292	0.456100	0.705900	0.075900
C4751	C475	0.478500	0.689720	0.154900
N1831	N183	0.482410	0.703230	0.167670
C4761	C476	0.487420	0.685100	0.194760
N1841	N184	0.489060	0.655220	0.208940
C4771	C477	0.484340	0.644600	0.193960
N1851	N185	0.478500	0.660860	0.167460
N1861	N186	0.503500	0.726520	0.234360
C4781	C478	0.494290	0.742630	0.209710
H2931	H293	0.491500	0.764100	0.200700
C4791	C479	0.488550	0.730330	0.196450
H2941	H294	0.482100	0.742900	0.178900
C4801	C480	0.492330	0.699010	0.209390
C4811	C481	0.500860	0.682180	0.235540
H2951	H295	0.502900	0.660900	0.245500
C4821	C482	0.506290	0.696650	0.247030
H2961	H296	0.512300	0.684700	0.264900
N1871	N187	0.492870	0.549330	0.231610
C4831	C483	0.483260	0.565500	0.249600
H2971	H297	0.478300	0.555100	0.271300
C4841	C484	0.480050	0.595930	0.238790
H2981	H298	0.473400	0.606200	0.252600
C4851	C485	0.486580	0.611740	0.207200
C4861	C486	0.496270	0.596050	0.187890
H2991	H299	0.500700	0.606300	0.166300
C4871	C487	0.499440	0.564720	0.200920
H3001	H300	0.506500	0.553700	0.187700
N1881	N188	0.503390	0.497450	0.289010
C4881	C488	0.506040	0.489920	0.311620
S381	S38	0.514530	0.472930	0.344230
N1891	N189	0.508010	0.451190	0.268470
C4891	C489	0.517250	0.433650	0.252910
H3011	H301	0.521800	0.442800	0.231200
C4901	C490	0.520920	0.402940	0.265900
H3021	H302	0.527400	0.391600	0.253200
C4911	C491	0.515320	0.388380	0.297100
C4921	C492	0.505360	0.406260	0.314140
H3031	H303	0.501700	0.397300	0.335700
C4931	C493	0.500740	0.437700	0.299420
H3041	H304	0.492200	0.450200	0.311600
C4941	C494	0.516930	0.356110	0.312990
N1901	N190	0.517540	0.341700	0.297680
S391	S39	0.996030	0.197770	0.449450
C4951	C495	0.004510	0.208110	0.468070
N1911	N191	0.010430	0.215470	0.480890
N1921	N192	0.063430	0.225250	0.475530
C4961	C496	0.075240	0.194600	0.483540
H3051	H305	0.062100	0.183700	0.489900
C4971	C497	0.105190	0.177830	0.483230
H3061	H306	0.112600	0.156000	0.489000
C4981	C498	0.124440	0.193540	0.474200
C4991	C499	0.113280	0.225200	0.463940
H3071	H307	0.126100	0.236700	0.456700
C5001	C500	0.083050	0.240250	0.464230
H3081	H308	0.075900	0.262100	0.456100
C5011	C501	0.154900	0.176880	0.478500
N1931	N193	0.167670	0.146690	0.482410
C5021	C502	0.194760	0.132720	0.487420
N1941	N194	0.208940	0.146780	0.489060
C5031	C503	0.193960	0.177100	0.484340
N1951	N195	0.167460	0.193180	0.478500
N1961	N196	0.234360	0.035620	0.503500
C5041	C504	0.209710	0.053370	0.494290
H3091	H309	0.200700	0.043700	0.491500
C5051	C505	0.196450	0.084670	0.488550
H3101	H310	0.178900	0.096100	0.482100
C5061	C506	0.209390	0.099270	0.492330
C5071	C507	0.235540	0.081420	0.500860
H3111	H311	0.245500	0.090700	0.502900
C5081	C508	0.247030	0.050030	0.506290
H3121	H312	0.264900	0.038100	0.512300
N1971	N197	0.231610	0.226190	0.492870
C5091	C509	0.249600	0.201640	0.483260
H3131	H313	0.271300	0.195300	0.478300
C5101	C510	0.238790	0.185230	0.480050
H3141	H314	0.252600	0.167800	0.473400
C5111	C511	0.207200	0.194480	0.486580
C5121	C512	0.187890	0.219790	0.496270
H3151	H315	0.166300	0.226700	0.500700
C5131	C513	0.200920	0.234920	0.499440
H3161	H316	0.187700	0.252100	0.506500
N1981	N198	0.289010	0.210150	0.503390
C5141	C514	0.311620	0.192420	0.506040
S401	S40	0.344230	0.168310	0.514530
N1991	N199	0.268470	0.272330	0.508010
C5151	C515	0.252910	0.296190	0.517250
H3171	H317	0.231200	0.304200	0.521800
C5161	C516	0.265900	0.310240	0.520920
H3181	H318	0.253200	0.327800	0.527400
C5171	C517	0.297100	0.299200	0.515320
C5181	C518	0.314140	0.274240	0.505360
H3191	H319	0.335700	0.265300	0.501700
C5191	C519	0.299420	0.262140	0.500740
H3201	H320	0.311600	0.246000	0.492200
C5201	C520	0.312990	0.313970	0.516930
N2001	N200	0.297680	0.343080	0.517540
S411	S41	0.996030	0.856750	0.197770
C5211	C521	0.004510	0.819310	0.208110
N2011	N201	0.010430	0.793210	0.215470
N2021	N202	0.063430	0.735790	0.225250
C5221	C522	0.075240	0.746620	0.194600
H3211	H321	0.062100	0.764300	0.183700
C5231	C523	0.105190	0.733750	0.177830
H3221	H322	0.112600	0.742400	0.156000
C5241	C524	0.124440	0.707820	0.193540
C5251	C525	0.113280	0.697580	0.225200
H3231	H323	0.126100	0.680500	0.236700
C5261	C526	0.083050	0.712470	0.240250
H3241	H324	0.075900	0.705900	0.262100
C5271	C527	0.154900	0.689720	0.176880
N2031	N203	0.167670	0.703230	0.146690
C5281	C528	0.194760	0.685100	0.132720
N2041	N204	0.208940	0.655220	0.146780
C5291	C529	0.193960	0.644600	0.177100
N2051	N205	0.167460	0.660860	0.193180
N2061	N206	0.234360	0.726520	0.035620
C5301	C530	0.209710	0.742630	0.053370
H3251	H325	0.200700	0.764100	0.043700
C5311	C531	0.196450	0.730330	0.084670
H3261	H326	0.178900	0.742900	0.096100
C5321	C532	0.209390	0.699010	0.099270
C5331	C533	0.235540	0.682180	0.081420
H3271	H327	0.245500	0.660900	0.090700
C5341	C534	0.247030	0.696650	0.050030
H3281	H328	0.264900	0.684700	0.038100
N2071	N207	0.231610	0.549330	0.226190
C5351	C535	0.249600	0.565500	0.201640
H3291	H329	0.271300	0.555100	0.195300
C5361	C536	0.238790	0.595930	0.185230
H3301	H330	0.252600	0.606200	0.167800
C5371	C537	0.207200	0.611740	0.194480
C5381	C538	0.187890	0.596050	0.219790
H3311	H331	0.166300	0.606300	0.226700
C5391	C539	0.200920	0.564720	0.234920
H3321	H332	0.187700	0.553700	0.252100
N2081	N208	0.289010	0.497450	0.210150
C5401	C540	0.311620	0.489920	0.192420
S421	S42	0.344230	0.472930	0.168310
N2091	N209	0.268470	0.451190	0.272330
C5411	C541	0.252910	0.433650	0.296190
H3331	H333	0.231200	0.442800	0.304200
C5421	C542	0.265900	0.402940	0.310240
H3341	H334	0.253200	0.391600	0.327800
C5431	C543	0.297100	0.388380	0.299200
C5441	C544	0.314140	0.406260	0.274240
H3351	H335	0.335700	0.397300	0.265300
C5451	C545	0.299420	0.437700	0.262140
H3361	H336	0.311600	0.450200	0.246000
C5461	C546	0.312990	0.356110	0.313970
N2101	N210	0.297680	0.341700	0.343080
S431	S43	0.449450	0.197770	0.856750
C5471	C547	0.468070	0.208110	0.819310
N2111	N211	0.480890	0.215470	0.793210
N2121	N212	0.475530	0.225250	0.735790
C5481	C548	0.483540	0.194600	0.746620
H3371	H337	0.489900	0.183700	0.764300
C5491	C549	0.483230	0.177830	0.733750
H3381	H338	0.489000	0.156000	0.742400
C5501	C550	0.474200	0.193540	0.707820
C5511	C551	0.463940	0.225200	0.697580
H3391	H339	0.456700	0.236700	0.680500
C5521	C552	0.464230	0.240250	0.712470
H3401	H340	0.456100	0.262100	0.705900
C5531	C553	0.478500	0.176880	0.689720
N2131	N213	0.482410	0.146690	0.703230
C5541	C554	0.487420	0.132720	0.685100
N2141	N214	0.489060	0.146780	0.655220
C5551	C555	0.484340	0.177100	0.644600
N2151	N215	0.478500	0.193180	0.660860
N2161	N216	0.503500	0.035620	0.726520
C5561	C556	0.494290	0.053370	0.742630
H3411	H341	0.491500	0.043700	0.764100
C5571	C557	0.488550	0.084670	0.730330
H3421	H342	0.482100	0.096100	0.742900
C5581	C558	0.492330	0.099270	0.699010
C5591	C559	0.500860	0.081420	0.682180
H3431	H343	0.502900	0.090700	0.660900
C5601	C560	0.506290	0.050030	0.696650
H3441	H344	0.512300	0.038100	0.684700
N2171	N217	0.492870	0.226190	0.549330
C5611	C561	0.483260	0.201640	0.565500
H3451	H345	0.478300	0.195300	0.555100
C5621	C562	0.480050	0.185230	0.595930
H3461	H346	0.473400	0.167800	0.606200
C5631	C563	0.486580	0.194480	0.611740
C5641	C564	0.496270	0.219790	0.596050
H3471	H347	0.500700	0.226700	0.606300
C5651	C565	0.499440	0.234920	0.564720
H3481	H348	0.506500	0.252100	0.553700
N2181	N218	0.503390	0.210150	0.497450
C5661	C566	0.506040	0.192420	0.489920
S441	S44	0.514530	0.168310	0.472930
N2191	N219	0.508010	0.272330	0.451190
C5671	C567	0.517250	0.296190	0.433650
H3491	H349	0.521800	0.304200	0.442800
C5681	C568	0.520920	0.310240	0.402940
H3501	H350	0.527400	0.327800	0.391600
C5691	C569	0.515320	0.299200	0.388380
C5701	C570	0.505360	0.274240	0.406260
H3511	H351	0.501700	0.265300	0.397300
C5711	C571	0.500740	0.262140	0.437700
H3521	H352	0.492200	0.246000	0.450200
C5721	C572	0.516930	0.313970	0.356110
N2201	N220	0.517540	0.343080	0.341700
S451	S45	0.197770	0.449450	0.996030
C5731	C573	0.208110	0.468070	0.004510
N2211	N221	0.215470	0.480890	0.010430
N2221	N222	0.225250	0.475530	0.063430
C5741	C574	0.194600	0.483540	0.075240
H3531	H353	0.183700	0.489900	0.062100
C5751	C575	0.177830	0.483230	0.105190
H3541	H354	0.156000	0.489000	0.112600
C5761	C576	0.193540	0.474200	0.124440
C5771	C577	0.225200	0.463940	0.113280
H3551	H355	0.236700	0.456700	0.126100
C5781	C578	0.240250	0.464230	0.083050
H3561	H356	0.262100	0.456100	0.075900
C5791	C579	0.176880	0.478500	0.154900
N2231	N223	0.146690	0.482410	0.167670
C5801	C580	0.132720	0.487420	0.194760
N2241	N224	0.146780	0.489060	0.208940
C5811	C581	0.177100	0.484340	0.193960
N2251	N225	0.193180	0.478500	0.167460
N2261	N226	0.035620	0.503500	0.234360
C5821	C582	0.053370	0.494290	0.209710
H3571	H357	0.043700	0.491500	0.200700
C5831	C583	0.084670	0.488550	0.196450
H3581	H358	0.096100	0.482100	0.178900
C5841	C584	0.099270	0.492330	0.209390
C5851	C585	0.081420	0.500860	0.235540
H3591	H359	0.090700	0.502900	0.245500
C5861	C586	0.050030	0.506290	0.247030
H3601	H360	0.038100	0.512300	0.264900
N2271	N227	0.226190	0.492870	0.231610
C5871	C587	0.201640	0.483260	0.249600
H3611	H361	0.195300	0.478300	0.271300
C5881	C588	0.185230	0.480050	0.238790
H3621	H362	0.167800	0.473400	0.252600
C5891	C589	0.194480	0.486580	0.207200
C5901	C590	0.219790	0.496270	0.187890
H3631	H363	0.226700	0.500700	0.166300
C5911	C591	0.234920	0.499440	0.200920
H3641	H364	0.252100	0.506500	0.187700
N2281	N228	0.210150	0.503390	0.289010
C5921	C592	0.192420	0.506040	0.311620
S461	S46	0.168310	0.514530	0.344230
N2291	N229	0.272330	0.508010	0.268470
C5931	C593	0.296190	0.517250	0.252910
H3651	H365	0.304200	0.521800	0.231200
C5941	C594	0.310240	0.520920	0.265900
H3661	H366	0.327800	0.527400	0.253200
C5951	C595	0.299200	0.515320	0.297100
C5961	C596	0.274240	0.505360	0.314140
H3671	H367	0.265300	0.501700	0.335700
C5971	C597	0.262140	0.500740	0.299420
H3681	H368	0.246000	0.492200	0.311600
C5981	C598	0.313970	0.516930	0.312990
N2301	N230	0.343080	0.517540	0.297680
S471	S47	0.856750	0.996030	0.449450
C5991	C599	0.819310	0.004510	0.468070
N2311	N231	0.793210	0.010430	0.480890
N2321	N232	0.735790	0.063430	0.475530
C6001	C600	0.746620	0.075240	0.483540
H3691	H369	0.764300	0.062100	0.489900
C6011	C601	0.733750	0.105190	0.483230
H3701	H370	0.742400	0.112600	0.489000
C6021	C602	0.707820	0.124440	0.474200
C6031	C603	0.697580	0.113280	0.463940
H3711	H371	0.680500	0.126100	0.456700
C6041	C604	0.712470	0.083050	0.464230
H3721	H372	0.705900	0.075900	0.456100
C6051	C605	0.689720	0.154900	0.478500
N2331	N233	0.703230	0.167670	0.482410
C6061	C606	0.685100	0.194760	0.487420
N2341	N234	0.655220	0.208940	0.489060
C6071	C607	0.644600	0.193960	0.484340
N2351	N235	0.660860	0.167460	0.478500
N2361	N236	0.726520	0.234360	0.503500
C6081	C608	0.742630	0.209710	0.494290
H3731	H373	0.764100	0.200700	0.491500
C6091	C609	0.730330	0.196450	0.488550
H3741	H374	0.742900	0.178900	0.482100
C6101	C610	0.699010	0.209390	0.492330
C6111	C611	0.682180	0.235540	0.500860
H3751	H375	0.660900	0.245500	0.502900
C6121	C612	0.696650	0.247030	0.506290
H3761	H376	0.684700	0.264900	0.512300
N2371	N237	0.549330	0.231610	0.492870
C6131	C613	0.565500	0.249600	0.483260
H3771	H377	0.555100	0.271300	0.478300
C6141	C614	0.595930	0.238790	0.480050
H3781	H378	0.606200	0.252600	0.473400
C6151	C615	0.611740	0.207200	0.486580
C6161	C616	0.596050	0.187890	0.496270
H3791	H379	0.606300	0.166300	0.500700
C6171	C617	0.564720	0.200920	0.499440
H3801	H380	0.553700	0.187700	0.506500
N2381	N238	0.497450	0.289010	0.503390
C6181	C618	0.489920	0.311620	0.506040
S481	S48	0.472930	0.344230	0.514530
N2391	N239	0.451190	0.268470	0.508010
C6191	C619	0.433650	0.252910	0.517250
H3811	H381	0.442800	0.231200	0.521800
C6201	C620	0.402940	0.265900	0.520920
H3821	H382	0.391600	0.253200	0.527400
C6211	C621	0.388380	0.297100	0.515320
C6221	C622	0.406260	0.314140	0.505360
H3831	H383	0.397300	0.335700	0.501700
C6231	C623	0.437700	0.299420	0.500740
H3841	H384	0.450200	0.311600	0.492200
C6241	C624	0.356110	0.312990	0.516930
N2401	N240	0.341700	0.297680	0.517540
S491	S49	0.949450	0.496030	0.356750
C6251	C625	0.968070	0.504510	0.319310
N2411	N241	0.980890	0.510430	0.293210
N2421	N242	0.975530	0.563430	0.235790
C6261	C626	0.983540	0.575240	0.246620
H3851	H385	0.989900	0.562100	0.264300
C6271	C627	0.983230	0.605190	0.233750
H3861	H386	0.989000	0.612600	0.242400
C6281	C628	0.974200	0.624440	0.207820
C6291	C629	0.963940	0.613280	0.197580
H3871	H387	0.956700	0.626100	0.180500
C6301	C630	0.964230	0.583050	0.212470
H3881	H388	0.956100	0.575900	0.205900
C6311	C631	0.978500	0.654900	0.189720
N2431	N243	0.982410	0.667670	0.203230
C6321	C632	0.987420	0.694760	0.185100
N2441	N244	0.989060	0.708940	0.155220
C6331	C633	0.984340	0.693960	0.144600
N2451	N245	0.978500	0.667460	0.160860
N2461	N246	0.003500	0.734360	0.226520
C6341	C634	0.994290	0.709710	0.242630
H3891	H389	0.991500	0.700700	0.264100
C6351	C635	0.988550	0.696450	0.230330
H3901	H390	0.982100	0.678900	0.242900
C6361	C636	0.992330	0.709390	0.199010
C6371	C637	0.000860	0.735540	0.182180
H3911	H391	0.002900	0.745500	0.160900
C6381	C638	0.006290	0.747030	0.196650
H3921	H392	0.012300	0.764900	0.184700
N2471	N247	0.992870	0.731610	0.049330
C6391	C639	0.983260	0.749600	0.065500
H3931	H393	0.978300	0.771300	0.055100
C6401	C640	0.980050	0.738790	0.095930
H3941	H394	0.973400	0.752600	0.106200
C6411	C641	0.986580	0.707200	0.111740
C6421	C642	0.996270	0.687890	0.096050
H3951	H395	0.000700	0.666300	0.106300
C6431	C643	0.999440	0.700920	0.064720
H3961	H396	0.006500	0.687700	0.053700
N2481	N248	0.003390	0.789010	0.997450
C6441	C644	0.006040	0.811620	0.989920
S501	S50	0.014530	0.844230	0.972930
N2491	N249	0.008010	0.768470	0.951190
C6451	C645	0.017250	0.752910	0.933650
H3971	H397	0.021800	0.731200	0.942800
C6461	C646	0.020920	0.765900	0.902940
H3981	H398	0.027400	0.753200	0.891600
C6471	C647	0.015320	0.797100	0.888380
C6481	C648	0.005360	0.814140	0.906260
H3991	H399	0.001700	0.835700	0.897300
C6491	C649	0.000740	0.799420	0.937700
H4001	H400	0.992200	0.811600	0.950200
C6501	C650	0.016930	0.812990	0.856110
N2501	N250	0.017540	0.797680	0.841700
S511	S51	0.496030	0.949450	0.697770
C6511	C651	0.504510	0.968070	0.708110
N2511	N251	0.510430	0.980890	0.715470
N2521	N252	0.563430	0.975530	0.725250
C6521	C652	0.575240	0.983540	0.694600
H4011	H401	0.562100	0.989900	0.683700
C6531	C653	0.605190	0.983230	0.677830
H4021	H402	0.612600	0.989000	0.656000
C6541	C654	0.624440	0.974200	0.693540
C6551	C655	0.613280	0.963940	0.725200
H4031	H403	0.626100	0.956700	0.736700
C6561	C656	0.583050	0.964230	0.740250
H4041	H404	0.575900	0.956100	0.762100
C6571	C657	0.654900	0.978500	0.676880
N2531	N253	0.667670	0.982410	0.646690
C6581	C658	0.694760	0.987420	0.632720
N2541	N254	0.708940	0.989060	0.646780
C6591	C659	0.693960	0.984340	0.677100
N2551	N255	0.667460	0.978500	0.693180
N2561	N256	0.734360	0.003500	0.535620
C6601	C660	0.709710	0.994290	0.553370
H4051	H405	0.700700	0.991500	0.543700
C6611	C661	0.696450	0.988550	0.584670
H4061	H406	0.678900	0.982100	0.596100
C6621	C662	0.709390	0.992330	0.599270
C6631	C663	0.735540	0.000860	0.581420
H4071	H407	0.745500	0.002900	0.590700
C6641	C664	0.747030	0.006290	0.550030
H4081	H408	0.764900	0.012300	0.538100
N2571	N257	0.731610	0.992870	0.726190
C6651	C665	0.749600	0.983260	0.701640
H4091	H409	0.771300	0.978300	0.695300
C6661	C666	0.738790	0.980050	0.685230
H4101	H410	0.752600	0.973400	0.667800
C6671	C667	0.707200	0.986580	0.694480
C6681	C668	0.687890	0.996270	0.719790
H4111	H411	0.666300	0.000700	0.726700
C6691	C669	0.700920	0.999440	0.734920
H4121	H412	0.687700	0.006500	0.752100
N2581	N258	0.789010	0.003390	0.710150
C6701	C670	0.811620	0.006040	0.692420
S521	S52	0.844230	0.014530	0.668310
N2591	N259	0.768470	0.008010	0.772330
C6711	C671	0.752910	0.017250	0.796190
H4131	H413	0.731200	0.021800	0.804200
C6721	C672	0.765900	0.020920	0.810240
H4141	H414	0.753200	0.027400	0.827800
C6731	C673	0.797100	0.015320	0.799200
C6741	C674	0.814140	0.005360	0.774240
H4151	H415	0.835700	0.001700	0.765300
C6751	C675	0.799420	0.000740	0.762140
H4161	H416	0.811600	0.992200	0.746000
C6761	C676	0.812990	0.016930	0.813970
N2601	N260	0.797680	0.017540	0.843080
S531	S53	0.356750	0.697770	0.949450
C6771	C677	0.319310	0.708110	0.968070
N2611	N261	0.293210	0.715470	0.980890
N2621	N262	0.235790	0.725250	0.975530
C6781	C678	0.246620	0.694600	0.983540
H4171	H417	0.264300	0.683700	0.989900
C6791	C679	0.233750	0.677830	0.983230
H4181	H418	0.242400	0.656000	0.989000
C6801	C680	0.207820	0.693540	0.974200
C6811	C681	0.197580	0.725200	0.963940
H4191	H419	0.180500	0.736700	0.956700
C6821	C682	0.212470	0.740250	0.964230
H4201	H420	0.205900	0.762100	0.956100
C6831	C683	0.189720	0.676880	0.978500
N2631	N263	0.203230	0.646690	0.982410
C6841	C684	0.185100	0.632720	0.987420
N2641	N264	0.155220	0.646780	0.989060
C6851	C685	0.144600	0.677100	0.984340
N2651	N265	0.160860	0.693180	0.978500
N2661	N266	0.226520	0.535620	0.003500
C6861	C686	0.242630	0.553370	0.994290
H4211	H421	0.264100	0.543700	0.991500
C6871	C687	0.230330	0.584670	0.988550
H4221	H422	0.242900	0.596100	0.982100
C6881	C688	0.199010	0.599270	0.992330
C6891	C689	0.182180	0.581420	0.000860
H4231	H423	0.160900	0.590700	0.002900
C6901	C690	0.196650	0.550030	0.006290
H4241	H424	0.184700	0.538100	0.012300
N2671	N267	0.049330	0.726190	0.992870
C6911	C691	0.065500	0.701640	0.983260
H4251	H425	0.055100	0.695300	0.978300
C6921	C692	0.095930	0.685230	0.980050
H4261	H426	0.106200	0.667800	0.973400
C6931	C693	0.111740	0.694480	0.986580
C6941	C694	0.096050	0.719790	0.996270
H4271	H427	0.106300	0.726700	0.000700
C6951	C695	0.064720	0.734920	0.999440
H4281	H428	0.053700	0.752100	0.006500
N2681	N268	0.997450	0.710150	0.003390
C6961	C696	0.989920	0.692420	0.006040
S541	S54	0.972930	0.668310	0.014530
N2691	N269	0.951190	0.772330	0.008010
C6971	C697	0.933650	0.796190	0.017250
H4291	H429	0.942800	0.804200	0.021800
C6981	C698	0.902940	0.810240	0.020920
H4301	H430	0.891600	0.827800	0.027400
C6991	C699	0.888380	0.799200	0.015320
C7001	C700	0.906260	0.774240	0.005360
H4311	H431	0.897300	0.765300	0.001700
C7011	C701	0.937700	0.762140	0.000740
H4321	H432	0.950200	0.746000	0.992200
C7021	C702	0.856110	0.813970	0.016930
N2701	N270	0.841700	0.843080	0.017540
S551	S55	0.697770	0.356750	0.496030
C7031	C703	0.708110	0.319310	0.504510
N2711	N271	0.715470	0.293210	0.510430
N2721	N272	0.725250	0.235790	0.563430
C7041	C704	0.694600	0.246620	0.575240
H4331	H433	0.683700	0.264300	0.562100
C7051	C705	0.677830	0.233750	0.605190
H4341	H434	0.656000	0.242400	0.612600
C7061	C706	0.693540	0.207820	0.624440
C7071	C707	0.725200	0.197580	0.613280
H4351	H435	0.736700	0.180500	0.626100
C7081	C708	0.740250	0.212470	0.583050
H4361	H436	0.762100	0.205900	0.575900
C7091	C709	0.676880	0.189720	0.654900
N2731	N273	0.646690	0.203230	0.667670
C7101	C710	0.632720	0.185100	0.694760
N2741	N274	0.646780	0.155220	0.708940
C7111	C711	0.677100	0.144600	0.693960
N2751	N275	0.693180	0.160860	0.667460
N2761	N276	0.535620	0.226520	0.734360
C7121	C712	0.553370	0.242630	0.709710
H4371	H437	0.543700	0.264100	0.700700
C7131	C713	0.584670	0.230330	0.696450
H4381	H438	0.596100	0.242900	0.678900
C7141	C714	0.599270	0.199010	0.709390
C7151	C715	0.581420	0.182180	0.735540
H4391	H439	0.590700	0.160900	0.745500
C7161	C716	0.550030	0.196650	0.747030
H4401	H440	0.538100	0.184700	0.764900
N2771	N277	0.726190	0.049330	0.731610
C7171	C717	0.701640	0.065500	0.749600
H4411	H441	0.695300	0.055100	0.771300
C7181	C718	0.685230	0.095930	0.738790
H4421	H442	0.667800	0.106200	0.752600
C7191	C719	0.694480	0.111740	0.707200
C7201	C720	0.719790	0.096050	0.687890
H4431	H443	0.726700	0.106300	0.666300
C7211	C721	0.734920	0.064720	0.700920
H4441	H444	0.752100	0.053700	0.687700
N2781	N278	0.710150	0.997450	0.789010
C7221	C722	0.692420	0.989920	0.811620
S561	S56	0.668310	0.972930	0.844230
N2791	N279	0.772330	0.951190	0.768470
C7231	C723	0.796190	0.933650	0.752910
H4451	H445	0.804200	0.942800	0.731200
C7241	C724	0.810240	0.902940	0.765900
H4461	H446	0.827800	0.891600	0.753200
C7251	C725	0.799200	0.888380	0.797100
C7261	C726	0.774240	0.906260	0.814140
H4471	H447	0.765300	0.897300	0.835700
C7271	C727	0.762140	0.937700	0.799420
H4481	H448	0.746000	0.950200	0.811600
C7281	C728	0.813970	0.856110	0.812990
N2801	N280	0.843080	0.841700	0.797680
S571	S57	0.356750	0.949450	0.496030
C7291	C729	0.319310	0.968070	0.504510
N2811	N281	0.293210	0.980890	0.510430
N2821	N282	0.235790	0.975530	0.563430
C7301	C730	0.246620	0.983540	0.575240
H4491	H449	0.264300	0.989900	0.562100
C7311	C731	0.233750	0.983230	0.605190
H4501	H450	0.242400	0.989000	0.612600
C7321	C732	0.207820	0.974200	0.624440
C7331	C733	0.197580	0.963940	0.613280
H4511	H451	0.180500	0.956700	0.626100
C7341	C734	0.212470	0.964230	0.583050
H4521	H452	0.205900	0.956100	0.575900
C7351	C735	0.189720	0.978500	0.654900
N2831	N283	0.203230	0.982410	0.667670
C7361	C736	0.185100	0.987420	0.694760
N2841	N284	0.155220	0.989060	0.708940
C7371	C737	0.144600	0.984340	0.693960
N2851	N285	0.160860	0.978500	0.667460
N2861	N286	0.226520	0.003500	0.734360
C7381	C738	0.242630	0.994290	0.709710
H4531	H453	0.264100	0.991500	0.700700
C7391	C739	0.230330	0.988550	0.696450
H4541	H454	0.242900	0.982100	0.678900
C7401	C740	0.199010	0.992330	0.709390
C7411	C741	0.182180	0.000860	0.735540
H4551	H455	0.160900	0.002900	0.745500
C7421	C742	0.196650	0.006290	0.747030
H4561	H456	0.184700	0.012300	0.764900
N2871	N287	0.049330	0.992870	0.731610
C7431	C743	0.065500	0.983260	0.749600
H4571	H457	0.055100	0.978300	0.771300
C7441	C744	0.095930	0.980050	0.738790
H4581	H458	0.106200	0.973400	0.752600
C7451	C745	0.111740	0.986580	0.707200
C7461	C746	0.096050	0.996270	0.687890
H4591	H459	0.106300	0.000700	0.666300
C7471	C747	0.064720	0.999440	0.700920
H4601	H460	0.053700	0.006500	0.687700
N2881	N288	0.997450	0.003390	0.789010
C7481	C748	0.989920	0.006040	0.811620
S581	S58	0.972930	0.014530	0.844230
N2891	N289	0.951190	0.008010	0.768470
C7491	C749	0.933650	0.017250	0.752910
H4611	H461	0.942800	0.021800	0.731200
C7501	C750	0.902940	0.020920	0.765900
H4621	H462	0.891600	0.027400	0.753200
C7511	C751	0.888380	0.015320	0.797100
C7521	C752	0.906260	0.005360	0.814140
H4631	H463	0.897300	0.001700	0.835700
C7531	C753	0.937700	0.000740	0.799420
H4641	H464	0.950200	0.992200	0.811600
C7541	C754	0.856110	0.016930	0.812990
N2901	N290	0.841700	0.017540	0.797680
S591	S59	0.697770	0.496030	0.949450
C7551	C755	0.708110	0.504510	0.968070
N2911	N291	0.715470	0.510430	0.980890
N2921	N292	0.725250	0.563430	0.975530
C7561	C756	0.694600	0.575240	0.983540
H4651	H465	0.683700	0.562100	0.989900
C7571	C757	0.677830	0.605190	0.983230
H4661	H466	0.656000	0.612600	0.989000
C7581	C758	0.693540	0.624440	0.974200
C7591	C759	0.725200	0.613280	0.963940
H4671	H467	0.736700	0.626100	0.956700
C7601	C760	0.740250	0.583050	0.964230
H4681	H468	0.762100	0.575900	0.956100
C7611	C761	0.676880	0.654900	0.978500
N2931	N293	0.646690	0.667670	0.982410
C7621	C762	0.632720	0.694760	0.987420
N2941	N294	0.646780	0.708940	0.989060
C7631	C763	0.677100	0.693960	0.984340
N2951	N295	0.693180	0.667460	0.978500
N2961	N296	0.535620	0.734360	0.003500
C7641	C764	0.553370	0.709710	0.994290
H4691	H469	0.543700	0.700700	0.991500
C7651	C765	0.584670	0.696450	0.988550
H4701	H470	0.596100	0.678900	0.982100
C7661	C766	0.599270	0.709390	0.992330
C7671	C767	0.581420	0.735540	0.000860
H4711	H471	0.590700	0.745500	0.002900
C7681	C768	0.550030	0.747030	0.006290
H4721	H472	0.538100	0.764900	0.012300
N2971	N297	0.726190	0.731610	0.992870
C7691	C769	0.701640	0.749600	0.983260
H4731	H473	0.695300	0.771300	0.978300
C7701	C770	0.685230	0.738790	0.980050
H4741	H474	0.667800	0.752600	0.973400
C7711	C771	0.694480	0.707200	0.986580
C7721	C772	0.719790	0.687890	0.996270
H4751	H475	0.726700	0.666300	0.000700
C7731	C773	0.734920	0.700920	0.999440
H4761	H476	0.752100	0.687700	0.006500
N2981	N298	0.710150	0.789010	0.003390
C7741	C774	0.692420	0.811620	0.006040
S601	S60	0.668310	0.844230	0.014530
N2991	N299	0.772330	0.768470	0.008010
C7751	C775	0.796190	0.752910	0.017250
H4771	H477	0.804200	0.731200	0.021800
C7761	C776	0.810240	0.765900	0.020920
H4781	H478	0.827800	0.753200	0.027400
C7771	C777	0.799200	0.797100	0.015320
C7781	C778	0.774240	0.814140	0.005360
H4791	H479	0.765300	0.835700	0.001700
C7791	C779	0.762140	0.799420	0.000740
H4801	H480	0.746000	0.811600	0.992200
C7801	C780	0.813970	0.812990	0.016930
N3001	N300	0.843080	0.797680	0.017540
S611	S61	0.949450	0.356750	0.697770
C7811	C781	0.968070	0.319310	0.708110
N3011	N301	0.980890	0.293210	0.715470
N3021	N302	0.975530	0.235790	0.725250
C7821	C782	0.983540	0.246620	0.694600
H4811	H481	0.989900	0.264300	0.683700
C7831	C783	0.983230	0.233750	0.677830
H4821	H482	0.989000	0.242400	0.656000
C7841	C784	0.974200	0.207820	0.693540
C7851	C785	0.963940	0.197580	0.725200
H4831	H483	0.956700	0.180500	0.736700
C7861	C786	0.964230	0.212470	0.740250
H4841	H484	0.956100	0.205900	0.762100
C7871	C787	0.978500	0.189720	0.676880
N3031	N303	0.982410	0.203230	0.646690
C7881	C788	0.987420	0.185100	0.632720
N3041	N304	0.989060	0.155220	0.646780
C7891	C789	0.984340	0.144600	0.677100
N3051	N305	0.978500	0.160860	0.693180
N3061	N306	0.003500	0.226520	0.535620
C7901	C790	0.994290	0.242630	0.553370
H4851	H485	0.991500	0.264100	0.543700
C7911	C791	0.988550	0.230330	0.584670
H4861	H486	0.982100	0.242900	0.596100
C7921	C792	0.992330	0.199010	0.599270
C7931	C793	0.000860	0.182180	0.581420
H4871	H487	0.002900	0.160900	0.590700
C7941	C794	0.006290	0.196650	0.550030
H4881	H488	0.012300	0.184700	0.538100
N3071	N307	0.992870	0.049330	0.726190
C7951	C795	0.983260	0.065500	0.701640
H4891	H489	0.978300	0.055100	0.695300
C7961	C796	0.980050	0.095930	0.685230
H4901	H490	0.973400	0.106200	0.667800
C7971	C797	0.986580	0.111740	0.694480
C7981	C798	0.996270	0.096050	0.719790
H4911	H491	0.000700	0.106300	0.726700
C7991	C799	0.999440	0.064720	0.734920
H4921	H492	0.006500	0.053700	0.752100
N3081	N308	0.003390	0.997450	0.710150
C8001	C800	0.006040	0.989920	0.692420
S621	S62	0.014530	0.972930	0.668310
N3091	N309	0.008010	0.951190	0.772330
C8011	C801	0.017250	0.933650	0.796190
H4931	H493	0.021800	0.942800	0.804200
C8021	C802	0.020920	0.902940	0.810240
H4941	H494	0.027400	0.891600	0.827800
C8031	C803	0.015320	0.888380	0.799200
C8041	C804	0.005360	0.906260	0.774240
H4951	H495	0.001700	0.897300	0.765300
C8051	C805	0.000740	0.937700	0.762140
H4961	H496	0.992200	0.950200	0.746000
C8061	C806	0.016930	0.856110	0.813970
N3101	N310	0.017540	0.841700	0.843080
S631	S63	0.496030	0.697770	0.356750
C8071	C807	0.504510	0.708110	0.319310
N3111	N311	0.510430	0.715470	0.293210
N3121	N312	0.563430	0.725250	0.235790
C8081	C808	0.575240	0.694600	0.246620
H4971	H497	0.562100	0.683700	0.264300
C8091	C809	0.605190	0.677830	0.233750
H4981	H498	0.612600	0.656000	0.242400
C8101	C810	0.624440	0.693540	0.207820
C8111	C811	0.613280	0.725200	0.197580
H4991	H499	0.626100	0.736700	0.180500
C8121	C812	0.583050	0.740250	0.212470
H5001	H500	0.575900	0.762100	0.205900
C8131	C813	0.654900	0.676880	0.189720
N3131	N313	0.667670	0.646690	0.203230
C8141	C814	0.694760	0.632720	0.185100
N3141	N314	0.708940	0.646780	0.155220
C8151	C815	0.693960	0.677100	0.144600
N3151	N315	0.667460	0.693180	0.160860
N3161	N316	0.734360	0.535620	0.226520
C8161	C816	0.709710	0.553370	0.242630
H5011	H501	0.700700	0.543700	0.264100
C8171	C817	0.696450	0.584670	0.230330
H5021	H502	0.678900	0.596100	0.242900
C8181	C818	0.709390	0.599270	0.199010
C8191	C819	0.735540	0.581420	0.182180
H5031	H503	0.745500	0.590700	0.160900
C8201	C820	0.747030	0.550030	0.196650
H5041	H504	0.764900	0.538100	0.184700
N3171	N317	0.731610	0.726190	0.049330
C8211	C821	0.749600	0.701640	0.065500
H5051	H505	0.771300	0.695300	0.055100
C8221	C822	0.738790	0.685230	0.095930
H5061	H506	0.752600	0.667800	0.106200
C8231	C823	0.707200	0.694480	0.111740
C8241	C824	0.687890	0.719790	0.096050
H5071	H507	0.666300	0.726700	0.106300
C8251	C825	0.700920	0.734920	0.064720
H5081	H508	0.687700	0.752100	0.053700
N3181	N318	0.789010	0.710150	0.997450
C8261	C826	0.811620	0.692420	0.989920
S641	S64	0.844230	0.668310	0.972930
N3191	N319	0.768470	0.772330	0.951190
C8271	C827	0.752910	0.796190	0.933650
H5091	H509	0.731200	0.804200	0.942800
C8281	C828	0.765900	0.810240	0.902940
H5101	H510	0.753200	0.827800	0.891600
C8291	C829	0.797100	0.799200	0.888380
C8301	C830	0.814140	0.774240	0.906260
H5111	H511	0.835700	0.765300	0.897300
C8311	C831	0.799420	0.762140	0.937700
H5121	H512	0.811600	0.746000	0.950200
C8321	C832	0.812990	0.813970	0.856110
N3201	N320	0.797680	0.843080	0.841700
S651	S65	0.496030	0.356750	0.949450
C8331	C833	0.504510	0.319310	0.968070
N3211	N321	0.510430	0.293210	0.980890
N3221	N322	0.563430	0.235790	0.975530
C8341	C834	0.575240	0.246620	0.983540
H5131	H513	0.562100	0.264300	0.989900
C8351	C835	0.605190	0.233750	0.983230
H5141	H514	0.612600	0.242400	0.989000
C8361	C836	0.624440	0.207820	0.974200
C8371	C837	0.613280	0.197580	0.963940
H5151	H515	0.626100	0.180500	0.956700
C8381	C838	0.583050	0.212470	0.964230
H5161	H516	0.575900	0.205900	0.956100
C8391	C839	0.654900	0.189720	0.978500
N3231	N323	0.667670	0.203230	0.982410
C8401	C840	0.694760	0.185100	0.987420
N3241	N324	0.708940	0.155220	0.989060
C8411	C841	0.693960	0.144600	0.984340
N3251	N325	0.667460	0.160860	0.978500
N3261	N326	0.734360	0.226520	0.003500
C8421	C842	0.709710	0.242630	0.994290
H5171	H517	0.700700	0.264100	0.991500
C8431	C843	0.696450	0.230330	0.988550
H5181	H518	0.678900	0.242900	0.982100
C8441	C844	0.709390	0.199010	0.992330
C8451	C845	0.735540	0.182180	0.000860
H5191	H519	0.745500	0.160900	0.002900
C8461	C846	0.747030	0.196650	0.006290
H5201	H520	0.764900	0.184700	0.012300
N3271	N327	0.731610	0.049330	0.992870
C8471	C847	0.749600	0.065500	0.983260
H5211	H521	0.771300	0.055100	0.978300
C8481	C848	0.738790	0.095930	0.980050
H5221	H522	0.752600	0.106200	0.973400
C8491	C849	0.707200	0.111740	0.986580
C8501	C850	0.687890	0.096050	0.996270
H5231	H523	0.666300	0.106300	0.000700
C8511	C851	0.700920	0.064720	0.999440
H5241	H524	0.687700	0.053700	0.006500
N3281	N328	0.789010	0.997450	0.003390
C8521	C852	0.811620	0.989920	0.006040
S661	S66	0.844230	0.972930	0.014530
N3291	N329	0.768470	0.951190	0.008010
C8531	C853	0.752910	0.933650	0.017250
H5251	H525	0.731200	0.942800	0.021800
C8541	C854	0.765900	0.902940	0.020920
H5261	H526	0.753200	0.891600	0.027400
C8551	C855	0.797100	0.888380	0.015320
C8561	C856	0.814140	0.906260	0.005360
H5271	H527	0.835700	0.897300	0.001700
C8571	C857	0.799420	0.937700	0.000740
H5281	H528	0.811600	0.950200	0.992200
C8581	C858	0.812990	0.856110	0.016930
N3301	N330	0.797680	0.841700	0.017540
S671	S67	0.949450	0.697770	0.496030
C8591	C859	0.968070	0.708110	0.504510
N3311	N331	0.980890	0.715470	0.510430
N3321	N332	0.975530	0.725250	0.563430
C8601	C860	0.983540	0.694600	0.575240
H5291	H529	0.989900	0.683700	0.562100
C8611	C861	0.983230	0.677830	0.605190
H5301	H530	0.989000	0.656000	0.612600
C8621	C862	0.974200	0.693540	0.624440
C8631	C863	0.963940	0.725200	0.613280
H5311	H531	0.956700	0.736700	0.626100
C8641	C864	0.964230	0.740250	0.583050
H5321	H532	0.956100	0.762100	0.575900
C8651	C865	0.978500	0.676880	0.654900
N3331	N333	0.982410	0.646690	0.667670
C8661	C866	0.987420	0.632720	0.694760
N3341	N334	0.989060	0.646780	0.708940
C8671	C867	0.984340	0.677100	0.693960
N3351	N335	0.978500	0.693180	0.667460
N3361	N336	0.003500	0.535620	0.734360
C8681	C868	0.994290	0.553370	0.709710
H5331	H533	0.991500	0.543700	0.700700
C8691	C869	0.988550	0.584670	0.696450
H5341	H534	0.982100	0.596100	0.678900
C8701	C870	0.992330	0.599270	0.709390
C8711	C871	0.000860	0.581420	0.735540
H5351	H535	0.002900	0.590700	0.745500
C8721	C872	0.006290	0.550030	0.747030
H5361	H536	0.012300	0.538100	0.764900
N3371	N337	0.992870	0.726190	0.731610
C8731	C873	0.983260	0.701640	0.749600
H5371	H537	0.978300	0.695300	0.771300
C8741	C874	0.980050	0.685230	0.738790
H5381	H538	0.973400	0.667800	0.752600
C8751	C875	0.986580	0.694480	0.707200
C8761	C876	0.996270	0.719790	0.687890
H5391	H539	0.000700	0.726700	0.666300
C8771	C877	0.999440	0.734920	0.700920
H5401	H540	0.006500	0.752100	0.687700
N3381	N338	0.003390	0.710150	0.789010
C8781	C878	0.006040	0.692420	0.811620
S681	S68	0.014530	0.668310	0.844230
N3391	N339	0.008010	0.772330	0.768470
C8791	C879	0.017250	0.796190	0.752910
H5411	H541	0.021800	0.804200	0.731200
C8801	C880	0.020920	0.810240	0.765900
H5421	H542	0.027400	0.827800	0.753200
C8811	C881	0.015320	0.799200	0.797100
C8821	C882	0.005360	0.774240	0.814140
H5431	H543	0.001700	0.765300	0.835700
C8831	C883	0.000740	0.762140	0.799420
H5441	H544	0.992200	0.746000	0.811600
C8841	C884	0.016930	0.813970	0.812990
N3401	N340	0.017540	0.843080	0.797680
S691	S69	0.697770	0.949450	0.356750
C8851	C885	0.708110	0.968070	0.319310
N3411	N341	0.715470	0.980890	0.293210
N3421	N342	0.725250	0.975530	0.235790
C8861	C886	0.694600	0.983540	0.246620
H5451	H545	0.683700	0.989900	0.264300
C8871	C887	0.677830	0.983230	0.233750
H5461	H546	0.656000	0.989000	0.242400
C8881	C888	0.693540	0.974200	0.207820
C8891	C889	0.725200	0.963940	0.197580
H5471	H547	0.736700	0.956700	0.180500
C8901	C890	0.740250	0.964230	0.212470
H5481	H548	0.762100	0.956100	0.205900
C8911	C891	0.676880	0.978500	0.189720
N3431	N343	0.646690	0.982410	0.203230
C8921	C892	0.632720	0.987420	0.185100
N3441	N344	0.646780	0.989060	0.155220
C8931	C893	0.677100	0.984340	0.144600
N3451	N345	0.693180	0.978500	0.160860
N3461	N346	0.535620	0.003500	0.226520
C8941	C894	0.553370	0.994290	0.242630
H5491	H549	0.543700	0.991500	0.264100
C8951	C895	0.584670	0.988550	0.230330
H5501	H550	0.596100	0.982100	0.242900
C8961	C896	0.599270	0.992330	0.199010
C8971	C897	0.581420	0.000860	0.182180
H5511	H551	0.590700	0.002900	0.160900
C8981	C898	0.550030	0.006290	0.196650
H5521	H552	0.538100	0.012300	0.184700
N3471	N347	0.726190	0.992870	0.049330
C8991	C899	0.701640	0.983260	0.065500
H5531	H553	0.695300	0.978300	0.055100
C9001	C900	0.685230	0.980050	0.095930
H5541	H554	0.667800	0.973400	0.106200
C9011	C901	0.694480	0.986580	0.111740
C9021	C902	0.719790	0.996270	0.096050
H5551	H555	0.726700	0.000700	0.106300
C9031	C903	0.734920	0.999440	0.064720
H5561	H556	0.752100	0.006500	0.053700
N3481	N348	0.710150	0.003390	0.997450
C9041	C904	0.692420	0.006040	0.989920
S701	S70	0.668310	0.014530	0.972930
N3491	N349	0.772330	0.008010	0.951190
C9051	C905	0.796190	0.017250	0.933650
H5571	H557	0.804200	0.021800	0.942800
C9061	C906	0.810240	0.020920	0.902940
H5581	H558	0.827800	0.027400	0.891600
C9071	C907	0.799200	0.015320	0.888380
C9081	C908	0.774240	0.005360	0.906260
H5591	H559	0.765300	0.001700	0.897300
C9091	C909	0.762140	0.000740	0.937700
H5601	H560	0.746000	0.992200	0.950200
C9101	C910	0.813970	0.016930	0.856110
N3501	N350	0.843080	0.017540	0.841700
S711	S71	0.356750	0.496030	0.697770
C9111	C911	0.319310	0.504510	0.708110
N3511	N351	0.293210	0.510430	0.715470
N3521	N352	0.235790	0.563430	0.725250
C9121	C912	0.246620	0.575240	0.694600
H5611	H561	0.264300	0.562100	0.683700
C9131	C913	0.233750	0.605190	0.677830
H5621	H562	0.242400	0.612600	0.656000
C9141	C914	0.207820	0.624440	0.693540
C9151	C915	0.197580	0.613280	0.725200
H5631	H563	0.180500	0.626100	0.736700
C9161	C916	0.212470	0.583050	0.740250
H5641	H564	0.205900	0.575900	0.762100
C9171	C917	0.189720	0.654900	0.676880
N3531	N353	0.203230	0.667670	0.646690
C9181	C918	0.185100	0.694760	0.632720
N3541	N354	0.155220	0.708940	0.646780
C9191	C919	0.144600	0.693960	0.677100
N3551	N355	0.160860	0.667460	0.693180
N3561	N356	0.226520	0.734360	0.535620
C9201	C920	0.242630	0.709710	0.553370
H5651	H565	0.264100	0.700700	0.543700
C9211	C921	0.230330	0.696450	0.584670
H5661	H566	0.242900	0.678900	0.596100
C9221	C922	0.199010	0.709390	0.599270
C9231	C923	0.182180	0.735540	0.581420
H5671	H567	0.160900	0.745500	0.590700
C9241	C924	0.196650	0.747030	0.550030
H5681	H568	0.184700	0.764900	0.538100
N3571	N357	0.049330	0.731610	0.726190
C9251	C925	0.065500	0.749600	0.701640
H5691	H569	0.055100	0.771300	0.695300
C9261	C926	0.095930	0.738790	0.685230
H5701	H570	0.106200	0.752600	0.667800
C9271	C927	0.111740	0.707200	0.694480
C9281	C928	0.096050	0.687890	0.719790
H5711	H571	0.106300	0.666300	0.726700
C9291	C929	0.064720	0.700920	0.734920
H5721	H572	0.053700	0.687700	0.752100
N3581	N358	0.997450	0.789010	0.710150
C9301	C930	0.989920	0.811620	0.692420
S721	S72	0.972930	0.844230	0.668310
N3591	N359	0.951190	0.768470	0.772330
C9311	C931	0.933650	0.752910	0.796190
H5731	H573	0.942800	0.731200	0.804200
C9321	C932	0.902940	0.765900	0.810240
H5741	H574	0.891600	0.753200	0.827800
C9331	C933	0.888380	0.797100	0.799200
C9341	C934	0.906260	0.814140	0.774240
H5751	H575	0.897300	0.835700	0.765300
C9351	C935	0.937700	0.799420	0.762140
H5761	H576	0.950200	0.811600	0.746000
C9361	C936	0.856110	0.812990	0.813970
N3601	N360	0.841700	0.797680	0.843080
S731	S73	0.550550	0.003970	0.802230
C9371	C937	0.531930	0.995490	0.791890
N3611	N361	0.519110	0.989570	0.784530
N3621	N362	0.524470	0.936570	0.774750
C9381	C938	0.516460	0.924760	0.805400
H5771	H577	0.510100	0.937900	0.816300
C9391	C939	0.516770	0.894810	0.822170
H5781	H578	0.511000	0.887400	0.844000
C9401	C940	0.525800	0.875560	0.806460
C9411	C941	0.536060	0.886720	0.774800
H5791	H579	0.543300	0.873900	0.763300
C9421	C942	0.535770	0.916950	0.759750
H5801	H580	0.543900	0.924100	0.737900
C9431	C943	0.521500	0.845100	0.823120
N3631	N363	0.517590	0.832330	0.853310
C9441	C944	0.512580	0.805240	0.867280
N3641	N364	0.510940	0.791060	0.853220
C9451	C945	0.515660	0.806040	0.822900
N3651	N365	0.521500	0.832540	0.806820
N3661	N366	0.496500	0.765640	0.964380
C9461	C946	0.505710	0.790290	0.946630
H5811	H581	0.508500	0.799300	0.956300
C9471	C947	0.511450	0.803550	0.915330
H5821	H582	0.517900	0.821100	0.903900
C9481	C948	0.507670	0.790610	0.900730
C9491	C949	0.499140	0.764460	0.918580
H5831	H583	0.497100	0.754500	0.909300
C9501	C950	0.493710	0.752970	0.949970
H5841	H584	0.487700	0.735100	0.961900
N3671	N367	0.507130	0.768390	0.773810
C9511	C951	0.516740	0.750400	0.798360
H5851	H585	0.521700	0.728700	0.804700
C9521	C952	0.519950	0.761210	0.814770
H5861	H586	0.526600	0.747400	0.832200
C9531	C953	0.513420	0.792800	0.805520
C9541	C954	0.503730	0.812110	0.780210
H5871	H587	0.499300	0.833700	0.773300
C9551	C955	0.500560	0.799080	0.765080
H5881	H588	0.493500	0.812300	0.747900
N3681	N368	0.496610	0.710990	0.789850
C9561	C956	0.493960	0.688380	0.807580
S741	S74	0.485470	0.655770	0.831690
N3691	N369	0.491990	0.731530	0.727670
C9571	C957	0.482750	0.747090	0.703810
H5891	H589	0.478200	0.768800	0.695800
C9581	C958	0.479080	0.734100	0.689760
H5901	H590	0.472600	0.746800	0.672200
C9591	C959	0.484680	0.702900	0.700800
C9601	C960	0.494640	0.685860	0.725760
H5911	H591	0.498300	0.664300	0.734700
C9611	C961	0.499260	0.700580	0.737860
H5921	H592	0.507800	0.688400	0.754000
C9621	C962	0.483070	0.687010	0.686030
N3701	N370	0.482460	0.702320	0.656920
S751	S75	0.003970	0.550550	0.143250
C9631	C963	0.995490	0.531930	0.180690
N3711	N371	0.989570	0.519110	0.206790
N3721	N372	0.936570	0.524470	0.264210
C9641	C964	0.924760	0.516460	0.253380
H5931	H593	0.937900	0.510100	0.235700
C9651	C965	0.894810	0.516770	0.266250
H5941	H594	0.887400	0.511000	0.257600
C9661	C966	0.875560	0.525800	0.292180
C9671	C967	0.886720	0.536060	0.302420
H5951	H595	0.873900	0.543300	0.319500
C9681	C968	0.916950	0.535770	0.287530
H5961	H596	0.924100	0.543900	0.294100
C9691	C969	0.845100	0.521500	0.310280
N3731	N373	0.832330	0.517590	0.296770
C9701	C970	0.805240	0.512580	0.314900
N3741	N374	0.791060	0.510940	0.344780
C9711	C971	0.806040	0.515660	0.355400
N3751	N375	0.832540	0.521500	0.339140
N3761	N376	0.765640	0.496500	0.273480
C9721	C972	0.790290	0.505710	0.257370
H5971	H597	0.799300	0.508500	0.235900
C9731	C973	0.803550	0.511450	0.269670
H5981	H598	0.821100	0.517900	0.257100
C9741	C974	0.790610	0.507670	0.300990
C9751	C975	0.764460	0.499140	0.317820
H5991	H599	0.754500	0.497100	0.339100
C9761	C976	0.752970	0.493710	0.303350
H6001	H600	0.735100	0.487700	0.315300
N3771	N377	0.768390	0.507130	0.450670
C9771	C977	0.750400	0.516740	0.434500
H6011	H601	0.728700	0.521700	0.444900
C9781	C978	0.761210	0.519950	0.404070
H6021	H602	0.747400	0.526600	0.393800
C9791	C979	0.792800	0.513420	0.388260
C9801	C980	0.812110	0.503730	0.403950
H6031	H603	0.833700	0.499300	0.393700
C9811	C981	0.799080	0.500560	0.435280
H6041	H604	0.812300	0.493500	0.446300
N3781	N378	0.710990	0.496610	0.502550
C9821	C982	0.688380	0.493960	0.510080
S761	S76	0.655770	0.485470	0.527070
N3791	N379	0.731530	0.491990	0.548810
C9831	C983	0.747090	0.482750	0.566350
H6051	H605	0.768800	0.478200	0.557200
C9841	C984	0.734100	0.479080	0.597060
H6061	H606	0.746800	0.472600	0.608400
C9851	C985	0.702900	0.484680	0.611620
C9861	C986	0.685860	0.494640	0.593740
H6071	H607	0.664300	0.498300	0.602700
C9871	C987	0.700580	0.499260	0.562300
H6081	H608	0.688400	0.507800	0.549800
C9881	C988	0.687010	0.483070	0.643890
N3801	N380	0.702320	0.482460	0.658300
S771	S77	0.143250	0.802230	0.003970
C9891	C989	0.180690	0.791890	0.995490
N3811	N381	0.206790	0.784530	0.989570
N3821	N382	0.264210	0.774750	0.936570
C9901	C990	0.253380	0.805400	0.924760
H6091	H609	0.235700	0.816300	0.937900
C9911	C991	0.266250	0.822170	0.894810
H6101	H610	0.257600	0.844000	0.887400
C9921	C992	0.292180	0.806460	0.875560
C9931	C993	0.302420	0.774800	0.886720
H6111	H611	0.319500	0.763300	0.873900
C9941	C994	0.287530	0.759750	0.916950
H6121	H612	0.294100	0.737900	0.924100
C9951	C995	0.310280	0.823120	0.845100
N3831	N383	0.296770	0.853310	0.832330
C9961	C996	0.314900	0.867280	0.805240
N3841	N384	0.344780	0.853220	0.791060
C9971	C997	0.355400	0.822900	0.806040
N3851	N385	0.339140	0.806820	0.832540
N3861	N386	0.273480	0.964380	0.765640
C9981	C998	0.257370	0.946630	0.790290
H6131	H613	0.235900	0.956300	0.799300
C9991	C999	0.269670	0.915330	0.803550
H6141	H614	0.257100	0.903900	0.821100
C10001	C1000	0.300990	0.900730	0.790610
C10011	C1001	0.317820	0.918580	0.764460
H6151	H615	0.339100	0.909300	0.754500
C10021	C1002	0.303350	0.949970	0.752970
H6161	H616	0.315300	0.961900	0.735100
N3871	N387	0.450670	0.773810	0.768390
C10031	C1003	0.434500	0.798360	0.750400
H6171	H617	0.444900	0.804700	0.728700
C10041	C1004	0.404070	0.814770	0.761210
H6181	H618	0.393800	0.832200	0.747400
C10051	C1005	0.388260	0.805520	0.792800
C10061	C1006	0.403950	0.780210	0.812110
H6191	H619	0.393700	0.773300	0.833700
C10071	C1007	0.435280	0.765080	0.799080
H6201	H620	0.446300	0.747900	0.812300
N3881	N388	0.502550	0.789850	0.710990
C10081	C1008	0.510080	0.807580	0.688380
S781	S78	0.527070	0.831690	0.655770
N3891	N389	0.548810	0.727670	0.731530
C10091	C1009	0.566350	0.703810	0.747090
H6211	H621	0.557200	0.695800	0.768800
C10101	C1010	0.597060	0.689760	0.734100
H6221	H622	0.608400	0.672200	0.746800
C10111	C1011	0.611620	0.700800	0.702900
C10121	C1012	0.593740	0.725760	0.685860
H6231	H623	0.602700	0.734700	0.664300
C10131	C1013	0.562300	0.737860	0.700580
H6241	H624	0.549800	0.754000	0.688400
C10141	C1014	0.643890	0.686030	0.687010
N3901	N390	0.658300	0.656920	0.702320
S791	S79	0.802230	0.143250	0.550550
C10151	C1015	0.791890	0.180690	0.531930
N3911	N391	0.784530	0.206790	0.519110
N3921	N392	0.774750	0.264210	0.524470
C10161	C1016	0.805400	0.253380	0.516460
H6251	H625	0.816300	0.235700	0.510100
C10171	C1017	0.822170	0.266250	0.516770
H6261	H626	0.844000	0.257600	0.511000
C10181	C1018	0.806460	0.292180	0.525800
C10191	C1019	0.774800	0.302420	0.536060
H6271	H627	0.763300	0.319500	0.543300
C10201	C1020	0.759750	0.287530	0.535770
H6281	H628	0.737900	0.294100	0.543900
C10211	C1021	0.823120	0.310280	0.521500
N3931	N393	0.853310	0.296770	0.517590
C10221	C1022	0.867280	0.314900	0.512580
N3941	N394	0.853220	0.344780	0.510940
C10231	C1023	0.822900	0.355400	0.515660
N3951	N395	0.806820	0.339140	0.521500
N3961	N396	0.964380	0.273480	0.496500
C10241	C1024	0.946630	0.257370	0.505710
H6291	H629	0.956300	0.235900	0.508500
C10251	C1025	0.915330	0.269670	0.511450
H6301	H630	0.903900	0.257100	0.517900
C10261	C1026	0.900730	0.300990	0.507670
C10271	C1027	0.918580	0.317820	0.499140
H6311	H631	0.909300	0.339100	0.497100
C10281	C1028	0.949970	0.303350	0.493710
H6321	H632	0.961900	0.315300	0.487700
N3971	N397	0.773810	0.450670	0.507130
C10291	C1029	0.798360	0.434500	0.516740
H6331	H633	0.804700	0.444900	0.521700
C10301	C1030	0.814770	0.404070	0.519950
H6341	H634	0.832200	0.393800	0.526600
C10311	C1031	0.805520	0.388260	0.513420
C10321	C1032	0.780210	0.403950	0.503730
H6351	H635	0.773300	0.393700	0.499300
C10331	C1033	0.765080	0.435280	0.500560
H6361	H636	0.747900	0.446300	0.493500
N3981	N398	0.789850	0.502550	0.496610
C10341	C1034	0.807580	0.510080	0.493960
S801	S80	0.831690	0.527070	0.485470
N3991	N399	0.727670	0.548810	0.491990
C10351	C1035	0.703810	0.566350	0.482750
H6371	H637	0.695800	0.557200	0.478200
C10361	C1036	0.689760	0.597060	0.479080
H6381	H638	0.672200	0.608400	0.472600
C10371	C1037	0.700800	0.611620	0.484680
C10381	C1038	0.725760	0.593740	0.494640
H6391	H639	0.734700	0.602700	0.498300
C10391	C1039	0.737860	0.562300	0.499260
H6401	H640	0.754000	0.549800	0.507800
C10401	C1040	0.686030	0.643890	0.483070
N4001	N400	0.656920	0.658300	0.482460
S811	S81	0.143250	0.550550	0.802230
C10411	C1041	0.180690	0.531930	0.791890
N4011	N401	0.206790	0.519110	0.784530
N4021	N402	0.264210	0.524470	0.774750
C10421	C1042	0.253380	0.516460	0.805400
H6411	H641	0.235700	0.510100	0.816300
C10431	C1043	0.266250	0.516770	0.822170
H6421	H642	0.257600	0.511000	0.844000
C10441	C1044	0.292180	0.525800	0.806460
C10451	C1045	0.302420	0.536060	0.774800
H6431	H643	0.319500	0.543300	0.763300
C10461	C1046	0.287530	0.535770	0.759750
H6441	H644	0.294100	0.543900	0.737900
C10471	C1047	0.310280	0.521500	0.823120
N4031	N403	0.296770	0.517590	0.853310
C10481	C1048	0.314900	0.512580	0.867280
N4041	N404	0.344780	0.510940	0.853220
C10491	C1049	0.355400	0.515660	0.822900
N4051	N405	0.339140	0.521500	0.806820
N4061	N406	0.273480	0.496500	0.964380
C10501	C1050	0.257370	0.505710	0.946630
H6451	H645	0.235900	0.508500	0.956300
C10511	C1051	0.269670	0.511450	0.915330
H6461	H646	0.257100	0.517900	0.903900
C10521	C1052	0.300990	0.507670	0.900730
C10531	C1053	0.317820	0.499140	0.918580
H6471	H647	0.339100	0.497100	0.909300
C10541	C1054	0.303350	0.493710	0.949970
H6481	H648	0.315300	0.487700	0.961900
N4071	N407	0.450670	0.507130	0.773810
C10551	C1055	0.434500	0.516740	0.798360
H6491	H649	0.444900	0.521700	0.804700
C10561	C1056	0.404070	0.519950	0.814770
H6501	H650	0.393800	0.526600	0.832200
C10571	C1057	0.388260	0.513420	0.805520
C10581	C1058	0.403950	0.503730	0.780210
H6511	H651	0.393700	0.499300	0.773300
C10591	C1059	0.435280	0.500560	0.765080
H6521	H652	0.446300	0.493500	0.747900
N4081	N408	0.502550	0.496610	0.789850
C10601	C1060	0.510080	0.493960	0.807580
S821	S82	0.527070	0.485470	0.831690
N4091	N409	0.548810	0.491990	0.727670
C10611	C1061	0.566350	0.482750	0.703810
H6531	H653	0.557200	0.478200	0.695800
C10621	C1062	0.597060	0.479080	0.689760
H6541	H654	0.608400	0.472600	0.672200
C10631	C1063	0.611620	0.484680	0.700800
C10641	C1064	0.593740	0.494640	0.725760
H6551	H655	0.602700	0.498300	0.734700
C10651	C1065	0.562300	0.499260	0.737860
H6561	H656	0.549800	0.507800	0.754000
C10661	C1066	0.643890	0.483070	0.686030
N4101	N410	0.658300	0.482460	0.656920
S831	S83	0.802230	0.003970	0.143250
C10671	C1067	0.791890	0.995490	0.180690
N4111	N411	0.784530	0.989570	0.206790
N4121	N412	0.774750	0.936570	0.264210
C10681	C1068	0.805400	0.924760	0.253380
H6571	H657	0.816300	0.937900	0.235700
C10691	C1069	0.822170	0.894810	0.266250
H6581	H658	0.844000	0.887400	0.257600
C10701	C1070	0.806460	0.875560	0.292180
C10711	C1071	0.774800	0.886720	0.302420
H6591	H659	0.763300	0.873900	0.319500
C10721	C1072	0.759750	0.916950	0.287530
H6601	H660	0.737900	0.924100	0.294100
C10731	C1073	0.823120	0.845100	0.310280
N4131	N413	0.853310	0.832330	0.296770
C10741	C1074	0.867280	0.805240	0.314900
N4141	N414	0.853220	0.791060	0.344780
C10751	C1075	0.822900	0.806040	0.355400
N4151	N415	0.806820	0.832540	0.339140
N4161	N416	0.964380	0.765640	0.273480
C10761	C1076	0.946630	0.790290	0.257370
H6611	H661	0.956300	0.799300	0.235900
C10771	C1077	0.915330	0.803550	0.269670
H6621	H662	0.903900	0.821100	0.257100
C10781	C1078	0.900730	0.790610	0.300990
C10791	C1079	0.918580	0.764460	0.317820
H6631	H663	0.909300	0.754500	0.339100
C10801	C1080	0.949970	0.752970	0.303350
H6641	H664	0.961900	0.735100	0.315300
N4171	N417	0.773810	0.768390	0.450670
C10811	C1081	0.798360	0.750400	0.434500
H6651	H665	0.804700	0.728700	0.444900
C10821	C1082	0.814770	0.761210	0.404070
H6661	H666	0.832200	0.747400	0.393800
C10831	C1083	0.805520	0.792800	0.388260
C10841	C1084	0.780210	0.812110	0.403950
H6671	H667	0.773300	0.833700	0.393700
C10851	C1085	0.765080	0.799080	0.435280
H6681	H668	0.747900	0.812300	0.446300
N4181	N418	0.789850	0.710990	0.502550
C10861	C1086	0.807580	0.688380	0.510080
S841	S84	0.831690	0.655770	0.527070
N4191	N419	0.727670	0.731530	0.548810
C10871	C1087	0.703810	0.747090	0.566350
H6691	H669	0.695800	0.768800	0.557200
C10881	C1088	0.689760	0.734100	0.597060
H6701	H670	0.672200	0.746800	0.608400
C10891	C1089	0.700800	0.702900	0.611620
C10901	C1090	0.725760	0.685860	0.593740
H6711	H671	0.734700	0.664300	0.602700
C10911	C1091	0.737860	0.700580	0.562300
H6721	H672	0.754000	0.688400	0.549800
C10921	C1092	0.686030	0.687010	0.643890
N4201	N420	0.656920	0.702320	0.658300
S851	S85	0.550550	0.143250	0.003970
C10931	C1093	0.531930	0.180690	0.995490
N4211	N421	0.519110	0.206790	0.989570
N4221	N422	0.524470	0.264210	0.936570
C10941	C1094	0.516460	0.253380	0.924760
H6731	H673	0.510100	0.235700	0.937900
C10951	C1095	0.516770	0.266250	0.894810
H6741	H674	0.511000	0.257600	0.887400
C10961	C1096	0.525800	0.292180	0.875560
C10971	C1097	0.536060	0.302420	0.886720
H6751	H675	0.543300	0.319500	0.873900
C10981	C1098	0.535770	0.287530	0.916950
H6761	H676	0.543900	0.294100	0.924100
C10991	C1099	0.521500	0.310280	0.845100
N4231	N423	0.517590	0.296770	0.832330
C11001	C1100	0.512580	0.314900	0.805240
N4241	N424	0.510940	0.344780	0.791060
C11011	C1101	0.515660	0.355400	0.806040
N4251	N425	0.521500	0.339140	0.832540
N4261	N426	0.496500	0.273480	0.765640
C11021	C1102	0.505710	0.257370	0.790290
H6771	H677	0.508500	0.235900	0.799300
C11031	C1103	0.511450	0.269670	0.803550
H6781	H678	0.517900	0.257100	0.821100
C11041	C1104	0.507670	0.300990	0.790610
C11051	C1105	0.499140	0.317820	0.764460
H6791	H679	0.497100	0.339100	0.754500
C11061	C1106	0.493710	0.303350	0.752970
H6801	H680	0.487700	0.315300	0.735100
N4271	N427	0.507130	0.450670	0.768390
C11071	C1107	0.516740	0.434500	0.750400
H6811	H681	0.521700	0.444900	0.728700
C11081	C1108	0.519950	0.404070	0.761210
H6821	H682	0.526600	0.393800	0.747400
C11091	C1109	0.513420	0.388260	0.792800
C11101	C1110	0.503730	0.403950	0.812110
H6831	H683	0.499300	0.393700	0.833700
C11111	C1111	0.500560	0.435280	0.799080
H6841	H684	0.493500	0.446300	0.812300
N4281	N428	0.496610	0.502550	0.710990
C11121	C1112	0.493960	0.510080	0.688380
S861	S86	0.485470	0.527070	0.655770
N4291	N429	0.491990	0.548810	0.731530
C11131	C1113	0.482750	0.566350	0.747090
H6851	H685	0.478200	0.557200	0.768800
C11141	C1114	0.479080	0.597060	0.734100
H6861	H686	0.472600	0.608400	0.746800
C11151	C1115	0.484680	0.611620	0.702900
C11161	C1116	0.494640	0.593740	0.685860
H6871	H687	0.498300	0.602700	0.664300
C11171	C1117	0.499260	0.562300	0.700580
H6881	H688	0.507800	0.549800	0.688400
C11181	C1118	0.483070	0.643890	0.687010
N4301	N430	0.482460	0.658300	0.702320
S871	S87	0.003970	0.802230	0.550550
C11191	C1119	0.995490	0.791890	0.531930
N4311	N431	0.989570	0.784530	0.519110
N4321	N432	0.936570	0.774750	0.524470
C11201	C1120	0.924760	0.805400	0.516460
H6891	H689	0.937900	0.816300	0.510100
C11211	C1121	0.894810	0.822170	0.516770
H6901	H690	0.887400	0.844000	0.511000
C11221	C1122	0.875560	0.806460	0.525800
C11231	C1123	0.886720	0.774800	0.536060
H6911	H691	0.873900	0.763300	0.543300
C11241	C1124	0.916950	0.759750	0.535770
H6921	H692	0.924100	0.737900	0.543900
C11251	C1125	0.845100	0.823120	0.521500
N4331	N433	0.832330	0.853310	0.517590
C11261	C1126	0.805240	0.867280	0.512580
N4341	N434	0.791060	0.853220	0.510940
C11271	C1127	0.806040	0.822900	0.515660
N4351	N435	0.832540	0.806820	0.521500
N4361	N436	0.765640	0.964380	0.496500
C11281	C1128	0.790290	0.946630	0.505710
H6931	H693	0.799300	0.956300	0.508500
C11291	C1129	0.803550	0.915330	0.511450
H6941	H694	0.821100	0.903900	0.517900
C11301	C1130	0.790610	0.900730	0.507670
C11311	C1131	0.764460	0.918580	0.499140
H6951	H695	0.754500	0.909300	0.497100
C11321	C1132	0.752970	0.949970	0.493710
H6961	H696	0.735100	0.961900	0.487700
N4371	N437	0.768390	0.773810	0.507130
C11331	C1133	0.750400	0.798360	0.516740
H6971	H697	0.728700	0.804700	0.521700
C11341	C1134	0.761210	0.814770	0.519950
H6981	H698	0.747400	0.832200	0.526600
C11351	C1135	0.792800	0.805520	0.513420
C11361	C1136	0.812110	0.780210	0.503730
H6991	H699	0.833700	0.773300	0.499300
C11371	C1137	0.799080	0.765080	0.500560
H7001	H700	0.812300	0.747900	0.493500
N4381	N438	0.710990	0.789850	0.496610
C11381	C1138	0.688380	0.807580	0.493960
S881	S88	0.655770	0.831690	0.485470
N4391	N439	0.731530	0.727670	0.491990
C11391	C1139	0.747090	0.703810	0.482750
H7011	H701	0.768800	0.695800	0.478200
C11401	C1140	0.734100	0.689760	0.479080
H7021	H702	0.746800	0.672200	0.472600
C11411	C1141	0.702900	0.700800	0.484680
C11421	C1142	0.685860	0.725760	0.494640
H7031	H703	0.664300	0.734700	0.498300
C11431	C1143	0.700580	0.737860	0.499260
H7041	H704	0.688400	0.754000	0.507800
C11441	C1144	0.687010	0.686030	0.483070
N4401	N440	0.702320	0.656920	0.482460
S891	S89	0.003970	0.143250	0.802230
C11451	C1145	0.995490	0.180690	0.791890
N4411	N441	0.989570	0.206790	0.784530
N4421	N442	0.936570	0.264210	0.774750
C11461	C1146	0.924760	0.253380	0.805400
H7051	H705	0.937900	0.235700	0.816300
C11471	C1147	0.894810	0.266250	0.822170
H7061	H706	0.887400	0.257600	0.844000
C11481	C1148	0.875560	0.292180	0.806460
C11491	C1149	0.886720	0.302420	0.774800
H7071	H707	0.873900	0.319500	0.763300
C11501	C1150	0.916950	0.287530	0.759750
H7081	H708	0.924100	0.294100	0.737900
C11511	C1151	0.845100	0.310280	0.823120
N4431	N443	0.832330	0.296770	0.853310
C11521	C1152	0.805240	0.314900	0.867280
N4441	N444	0.791060	0.344780	0.853220
C11531	C1153	0.806040	0.355400	0.822900
N4451	N445	0.832540	0.339140	0.806820
N4461	N446	0.765640	0.273480	0.964380
C11541	C1154	0.790290	0.257370	0.946630
H7091	H709	0.799300	0.235900	0.956300
C11551	C1155	0.803550	0.269670	0.915330
H7101	H710	0.821100	0.257100	0.903900
C11561	C1156	0.790610	0.300990	0.900730
C11571	C1157	0.764460	0.317820	0.918580
H7111	H711	0.754500	0.339100	0.909300
C11581	C1158	0.752970	0.303350	0.949970
H7121	H712	0.735100	0.315300	0.961900
N4471	N447	0.768390	0.450670	0.773810
C11591	C1159	0.750400	0.434500	0.798360
H7131	H713	0.728700	0.444900	0.804700
C11601	C1160	0.761210	0.404070	0.814770
H7141	H714	0.747400	0.393800	0.832200
C11611	C1161	0.792800	0.388260	0.805520
C11621	C1162	0.812110	0.403950	0.780210
H7151	H715	0.833700	0.393700	0.773300
C11631	C1163	0.799080	0.435280	0.765080
H7161	H716	0.812300	0.446300	0.747900
N4481	N448	0.710990	0.502550	0.789850
C11641	C1164	0.688380	0.510080	0.807580
S901	S90	0.655770	0.527070	0.831690
N4491	N449	0.731530	0.548810	0.727670
C11651	C1165	0.747090	0.566350	0.703810
H7171	H717	0.768800	0.557200	0.695800
C11661	C1166	0.734100	0.597060	0.689760
H7181	H718	0.746800	0.608400	0.672200
C11671	C1167	0.702900	0.611620	0.700800
C11681	C1168	0.685860	0.593740	0.725760
H7191	H719	0.664300	0.602700	0.734700
C11691	C1169	0.700580	0.562300	0.737860
H7201	H720	0.688400	0.549800	0.754000
C11701	C1170	0.687010	0.643890	0.686030
N4501	N450	0.702320	0.658300	0.656920
S911	S91	0.550550	0.802230	0.143250
C11711	C1171	0.531930	0.791890	0.180690
N4511	N451	0.519110	0.784530	0.206790
N4521	N452	0.524470	0.774750	0.264210
C11721	C1172	0.516460	0.805400	0.253380
H7211	H721	0.510100	0.816300	0.235700
C11731	C1173	0.516770	0.822170	0.266250
H7221	H722	0.511000	0.844000	0.257600
C11741	C1174	0.525800	0.806460	0.292180
C11751	C1175	0.536060	0.774800	0.302420
H7231	H723	0.543300	0.763300	0.319500
C11761	C1176	0.535770	0.759750	0.287530
H7241	H724	0.543900	0.737900	0.294100
C11771	C1177	0.521500	0.823120	0.310280
N4531	N453	0.517590	0.853310	0.296770
C11781	C1178	0.512580	0.867280	0.314900
N4541	N454	0.510940	0.853220	0.344780
C11791	C1179	0.515660	0.822900	0.355400
N4551	N455	0.521500	0.806820	0.339140
N4561	N456	0.496500	0.964380	0.273480
C11801	C1180	0.505710	0.946630	0.257370
H7251	H725	0.508500	0.956300	0.235900
C11811	C1181	0.511450	0.915330	0.269670
H7261	H726	0.517900	0.903900	0.257100
C11821	C1182	0.507670	0.900730	0.300990
C11831	C1183	0.499140	0.918580	0.317820
H7271	H727	0.497100	0.909300	0.339100
C11841	C1184	0.493710	0.949970	0.303350
H7281	H728	0.487700	0.961900	0.315300
N4571	N457	0.507130	0.773810	0.450670
C11851	C1185	0.516740	0.798360	0.434500
H7291	H729	0.521700	0.804700	0.444900
C11861	C1186	0.519950	0.814770	0.404070
H7301	H730	0.526600	0.832200	0.393800
C11871	C1187	0.513420	0.805520	0.388260
C11881	C1188	0.503730	0.780210	0.403950
H7311	H731	0.499300	0.773300	0.393700
C11891	C1189	0.500560	0.765080	0.435280
H7321	H732	0.493500	0.747900	0.446300
N4581	N458	0.496610	0.789850	0.502550
C11901	C1190	0.493960	0.807580	0.510080
S921	S92	0.485470	0.831690	0.527070
N4591	N459	0.491990	0.727670	0.548810
C11911	C1191	0.482750	0.703810	0.566350
H7331	H733	0.478200	0.695800	0.557200
C11921	C1192	0.479080	0.689760	0.597060
H7341	H734	0.472600	0.672200	0.608400
C11931	C1193	0.484680	0.700800	0.611620
C11941	C1194	0.494640	0.725760	0.593740
H7351	H735	0.498300	0.734700	0.602700
C11951	C1195	0.499260	0.737860	0.562300
H7361	H736	0.507800	0.754000	0.549800
C11961	C1196	0.483070	0.686030	0.643890
N4601	N460	0.482460	0.656920	0.658300
S931	S93	0.802230	0.550550	0.003970
C11971	C1197	0.791890	0.531930	0.995490
N4611	N461	0.784530	0.519110	0.989570
N4621	N462	0.774750	0.524470	0.936570
C11981	C1198	0.805400	0.516460	0.924760
H7371	H737	0.816300	0.510100	0.937900
C11991	C1199	0.822170	0.516770	0.894810
H7381	H738	0.844000	0.511000	0.887400
C12001	C1200	0.806460	0.525800	0.875560
C12011	C1201	0.774800	0.536060	0.886720
H7391	H739	0.763300	0.543300	0.873900
C12021	C1202	0.759750	0.535770	0.916950
H7401	H740	0.737900	0.543900	0.924100
C12031	C1203	0.823120	0.521500	0.845100
N4631	N463	0.853310	0.517590	0.832330
C12041	C1204	0.867280	0.512580	0.805240
N4641	N464	0.853220	0.510940	0.791060
C12051	C1205	0.822900	0.515660	0.806040
N4651	N465	0.806820	0.521500	0.832540
N4661	N466	0.964380	0.496500	0.765640
C12061	C1206	0.946630	0.505710	0.790290
H7411	H741	0.956300	0.508500	0.799300
C12071	C1207	0.915330	0.511450	0.803550
H7421	H742	0.903900	0.517900	0.821100
C12081	C1208	0.900730	0.507670	0.790610
C12091	C1209	0.918580	0.499140	0.764460
H7431	H743	0.909300	0.497100	0.754500
C12101	C1210	0.949970	0.493710	0.752970
H7441	H744	0.961900	0.487700	0.735100
N4671	N467	0.773810	0.507130	0.768390
C12111	C1211	0.798360	0.516740	0.750400
H7451	H745	0.804700	0.521700	0.728700
C12121	C1212	0.814770	0.519950	0.761210
H7461	H746	0.832200	0.526600	0.747400
C12131	C1213	0.805520	0.513420	0.792800
C12141	C1214	0.780210	0.503730	0.812110
H7471	H747	0.773300	0.499300	0.833700
C12151	C1215	0.765080	0.500560	0.799080
H7481	H748	0.747900	0.493500	0.812300
N4681	N468	0.789850	0.496610	0.710990
C12161	C1216	0.807580	0.493960	0.688380
S941	S94	0.831690	0.485470	0.655770
N4691	N469	0.727670	0.491990	0.731530
C12171	C1217	0.703810	0.482750	0.747090
H7491	H749	0.695800	0.478200	0.768800
C12181	C1218	0.689760	0.479080	0.734100
H7501	H750	0.672200	0.472600	0.746800
C12191	C1219	0.700800	0.484680	0.702900
C12201	C1220	0.725760	0.494640	0.685860
H7511	H751	0.734700	0.498300	0.664300
C12211	C1221	0.737860	0.499260	0.700580
H7521	H752	0.754000	0.507800	0.688400
C12221	C1222	0.686030	0.483070	0.687010
N4701	N470	0.656920	0.482460	0.702320
S951	S95	0.143250	0.003970	0.550550
C12231	C1223	0.180690	0.995490	0.531930
N4711	N471	0.206790	0.989570	0.519110
N4721	N472	0.264210	0.936570	0.524470
C12241	C1224	0.253380	0.924760	0.516460
H7531	H753	0.235700	0.937900	0.510100
C12251	C1225	0.266250	0.894810	0.516770
H7541	H754	0.257600	0.887400	0.511000
C12261	C1226	0.292180	0.875560	0.525800
C12271	C1227	0.302420	0.886720	0.536060
H7551	H755	0.319500	0.873900	0.543300
C12281	C1228	0.287530	0.916950	0.535770
H7561	H756	0.294100	0.924100	0.543900
C12291	C1229	0.310280	0.845100	0.521500
N4731	N473	0.296770	0.832330	0.517590
C12301	C1230	0.314900	0.805240	0.512580
N4741	N474	0.344780	0.791060	0.510940
C12311	C1231	0.355400	0.806040	0.515660
N4751	N475	0.339140	0.832540	0.521500
N4761	N476	0.273480	0.765640	0.496500
C12321	C1232	0.257370	0.790290	0.505710
H7571	H757	0.235900	0.799300	0.508500
C12331	C1233	0.269670	0.803550	0.511450
H7581	H758	0.257100	0.821100	0.517900
C12341	C1234	0.300990	0.790610	0.507670
C12351	C1235	0.317820	0.764460	0.499140
H7591	H759	0.339100	0.754500	0.497100
C12361	C1236	0.303350	0.752970	0.493710
H7601	H760	0.315300	0.735100	0.487700
N4771	N477	0.450670	0.768390	0.507130
C12371	C1237	0.434500	0.750400	0.516740
H7611	H761	0.444900	0.728700	0.521700
C12381	C1238	0.404070	0.761210	0.519950
H7621	H762	0.393800	0.747400	0.526600
C12391	C1239	0.388260	0.792800	0.513420
C12401	C1240	0.403950	0.812110	0.503730
H7631	H763	0.393700	0.833700	0.499300
C12411	C1241	0.435280	0.799080	0.500560
H7641	H764	0.446300	0.812300	0.493500
N4781	N478	0.502550	0.710990	0.496610
C12421	C1242	0.510080	0.688380	0.493960
S961	S96	0.527070	0.655770	0.485470
N4791	N479	0.548810	0.731530	0.491990
C12431	C1243	0.566350	0.747090	0.482750
H7651	H765	0.557200	0.768800	0.478200
C12441	C1244	0.597060	0.734100	0.479080
H7661	H766	0.608400	0.746800	0.472600
C12451	C1245	0.611620	0.702900	0.484680
C12461	C1246	0.593740	0.685860	0.494640
H7671	H767	0.602700	0.664300	0.498300
C12471	C1247	0.562300	0.700580	0.499260
H7681	H768	0.549800	0.688400	0.507800
C12481	C1248	0.643890	0.687010	0.483070
N4801	N480	0.658300	0.702320	0.482460
Co11	Co1	0.014360	0.485640	0.750000
Co21	Co2	0.485640	0.014360	0.250000
Co31	Co3	0.750000	0.250000	0.014360
Co41	Co4	0.250000	0.750000	0.485640
Co51	Co5	0.750000	0.014360	0.485640
Co61	Co6	0.250000	0.485640	0.014360
Co71	Co7	0.014360	0.750000	0.250000
Co81	Co8	0.485640	0.250000	0.750000
Co91	Co9	0.485640	0.750000	0.014360
Co101	Co10	0.014360	0.250000	0.485640
Co111	Co11	0.250000	0.014360	0.750000
Co121	Co12	0.750000	0.485640	0.250000
Co131	Co13	0.985640	0.514360	0.250000
Co141	Co14	0.514360	0.985640	0.750000
Co151	Co15	0.250000	0.750000	0.985640
Co161	Co16	0.750000	0.250000	0.514360
Co171	Co17	0.250000	0.985640	0.514360
Co181	Co18	0.750000	0.514360	0.985640
Co191	Co19	0.985640	0.250000	0.750000
Co201	Co20	0.514360	0.750000	0.250000
Co211	Co21	0.514360	0.250000	0.985640
Co221	Co22	0.985640	0.750000	0.514360
Co231	Co23	0.750000	0.985640	0.250000
Co241	Co24	0.250000	0.514360	0.750000
Co251	Co25	0.999480	0.250520	0.999480
Co261	Co26	0.250520	0.999480	0.250520
Co271	Co27	0.999480	0.999480	0.250520
Co281	Co28	0.250520	0.250520	0.999480
Co291	Co29	0.250520	0.999480	0.999480
Co301	Co30	0.999480	0.250520	0.250520
Co311	Co31	0.500520	0.249480	0.249480
Co321	Co32	0.249480	0.500520	0.500520
Co331	Co33	0.500520	0.500520	0.249480
Co341	Co34	0.249480	0.249480	0.500520
Co351	Co35	0.249480	0.500520	0.249480
Co361	Co36	0.500520	0.249480	0.500520
Co371	Co37	0.000520	0.749480	0.000520
Co381	Co38	0.749480	0.000520	0.749480
Co391	Co39	0.000520	0.000520	0.749480
Co401	Co40	0.749480	0.749480	0.000520
Co411	Co41	0.749480	0.000520	0.000520
Co421	Co42	0.000520	0.749480	0.749480
Co431	Co43	0.499480	0.750520	0.750520
Co441	Co44	0.750520	0.499480	0.499480
Co451	Co45	0.499480	0.499480	0.750520
Co461	Co46	0.750520	0.750520	0.499480
Co471	Co47	0.750520	0.499480	0.750520
Co481	Co48	0.499480	0.750520	0.499480
