data_FALQOA_clean_PM
_symmetry_space_group_name_H-M	'P1'
_cell_length_a	7.381700
_cell_length_b	13.631900
_cell_length_c	13.631900
_cell_angle_alpha	120.000000
_cell_angle_beta	90.000000
_cell_angle_gamma	90.000000
_symmetry_Int_Tables_number 1

loop_
_symmetry_equiv_pos_as_xyz
'x,y,z'

loop_
_atom_site_label
_atom_site_type_symbol
_atom_site_fract_x
_atom_site_fract_y
_atom_site_fract_z
Nd11	Nd1	0.339920	0.333330	0.666660
Nd21	Nd2	0.660080	0.666670	0.333340
Cu11	Cu1	0.000000	0.500000	0.500000
Cu21	Cu2	0.000000	0.000000	0.500000
Cu31	Cu3	0.000000	0.500000	0.000000
H11	H1	0.860200	0.354300	0.325200
H21	H2	0.952100	0.204400	0.349200
H31	H3	0.766600	0.269500	0.451700
H41	H4	0.642400	0.214400	0.280500
H51	H5	0.539700	0.330300	0.330900
H61	H6	0.495100	0.246200	0.374500
H71	H7	0.997400	0.209700	0.208200
H81	H8	0.094600	0.128300	0.241500
H91	H9	0.199500	0.231800	0.249000
H101	H10	0.860200	0.970900	0.645700
H111	H11	0.952100	0.144800	0.795600
H121	H12	0.766600	0.182200	0.730500
H131	H13	0.642400	0.066100	0.785600
H141	H14	0.539700	0.000600	0.669700
H151	H15	0.495100	0.128300	0.753800
H161	H16	0.997400	0.998500	0.790300
H171	H17	0.094600	0.113200	0.871700
H181	H18	0.199500	0.017200	0.768200
H191	H19	0.860200	0.674800	0.029100
H201	H20	0.952100	0.650800	0.855200
H211	H21	0.766600	0.548300	0.817800
H221	H22	0.642400	0.719500	0.933900
H231	H23	0.539700	0.669100	0.999400
H241	H24	0.495100	0.625500	0.871700
H251	H25	0.997400	0.791800	0.001500
H261	H26	0.094600	0.758500	0.886800
H271	H27	0.199500	0.751000	0.982800
H281	H28	0.139800	0.645700	0.674800
H291	H29	0.047900	0.795600	0.650800
H301	H30	0.233400	0.730500	0.548300
H311	H31	0.357600	0.785600	0.719500
H321	H32	0.460300	0.669700	0.669100
H331	H33	0.504900	0.753800	0.625500
H341	H34	0.002600	0.790300	0.791800
H351	H35	0.905400	0.871700	0.758500
H361	H36	0.800500	0.768200	0.751000
H371	H37	0.139800	0.029100	0.354300
H381	H38	0.047900	0.855200	0.204400
H391	H39	0.233400	0.817800	0.269500
H401	H40	0.357600	0.933900	0.214400
H411	H41	0.460300	0.999400	0.330300
H421	H42	0.504900	0.871700	0.246200
H431	H43	0.002600	0.001500	0.209700
H441	H44	0.905400	0.886800	0.128300
H451	H45	0.800500	0.982800	0.231800
H461	H46	0.139800	0.325200	0.970900
H471	H47	0.047900	0.349200	0.144800
H481	H48	0.233400	0.451700	0.182200
H491	H49	0.357600	0.280500	0.066100
H501	H50	0.460300	0.330900	0.000600
H511	H51	0.504900	0.374500	0.128300
H521	H52	0.002600	0.208200	0.998500
H531	H53	0.905400	0.241500	0.113200
H541	H54	0.800500	0.249000	0.017200
C11	C1	0.138300	0.275700	0.455200
C21	C2	0.035300	0.261700	0.351900
C31	C3	0.730000	0.329400	0.436000
C41	C4	0.684300	0.428500	0.551500
C51	C5	0.589500	0.275300	0.347700
C61	C6	0.084000	0.205400	0.258500
C71	C7	0.138300	0.179500	0.724300
C81	C8	0.035300	0.090200	0.738300
C91	C9	0.730000	0.106600	0.670600
C101	C10	0.684300	0.123000	0.571500
C111	C11	0.589500	0.072400	0.724700
C121	C12	0.084000	0.053100	0.794600
C131	C13	0.138300	0.544800	0.820500
C141	C14	0.035300	0.648100	0.909800
C151	C15	0.730000	0.564000	0.893400
C161	C16	0.684300	0.448500	0.877000
C171	C17	0.589500	0.652300	0.927600
C181	C18	0.084000	0.741500	0.946900
C191	C19	0.861700	0.724300	0.544800
C201	C20	0.964700	0.738300	0.648100
C211	C21	0.270000	0.670600	0.564000
C221	C22	0.315700	0.571500	0.448500
C231	C23	0.410500	0.724700	0.652300
C241	C24	0.916000	0.794600	0.741500
C251	C25	0.861700	0.820500	0.275700
C261	C26	0.964700	0.909800	0.261700
C271	C27	0.270000	0.893400	0.329400
C281	C28	0.315700	0.877000	0.428500
C291	C29	0.410500	0.927600	0.275300
C301	C30	0.916000	0.946900	0.205400
C311	C31	0.861700	0.455200	0.179500
C321	C32	0.964700	0.351900	0.090200
C331	C33	0.270000	0.436000	0.106600
C341	C34	0.315700	0.551500	0.123000
C351	C35	0.410500	0.347700	0.072400
C361	C36	0.916000	0.258500	0.053100
N11	N1	0.894000	0.350260	0.387320
N21	N2	0.894000	0.037060	0.649740
N31	N3	0.894000	0.612680	0.962940
N41	N4	0.106000	0.649740	0.612680
N51	N5	0.106000	0.962940	0.350260
N61	N6	0.106000	0.387320	0.037060
O11	O1	0.242800	0.199660	0.444390
O21	O2	0.121100	0.365860	0.547670
O31	O3	0.787300	0.514280	0.592930
O41	O4	0.549600	0.419600	0.600700
O51	O5	0.242800	0.244730	0.800340
O61	O6	0.121100	0.181810	0.634140
O71	O7	0.787300	0.078650	0.485720
O81	O8	0.549600	0.181100	0.580400
O91	O9	0.242800	0.555610	0.755270
O101	O10	0.121100	0.452330	0.818190
O111	O11	0.787300	0.407070	0.921350
O121	O12	0.549600	0.399300	0.818900
O131	O13	0.757200	0.800340	0.555610
O141	O14	0.878900	0.634140	0.452330
O151	O15	0.212700	0.485720	0.407070
O161	O16	0.450400	0.580400	0.399300
O171	O17	0.757200	0.755270	0.199660
O181	O18	0.878900	0.818190	0.365860
O191	O19	0.212700	0.921350	0.514280
O201	O20	0.450400	0.818900	0.419600
O211	O21	0.757200	0.444390	0.244730
O221	O22	0.878900	0.547670	0.181810
O231	O23	0.212700	0.592930	0.078650
O241	O24	0.450400	0.600700	0.181100
