data_FALVUL01_clean_PM
_symmetry_space_group_name_H-M	'P1'
_cell_length_a	10.920000
_cell_length_b	19.792000
_cell_length_c	20.369000
_cell_angle_alpha	90.000000
_cell_angle_beta	90.000000
_cell_angle_gamma	99.590000
_symmetry_Int_Tables_number 1

loop_
_symmetry_equiv_pos_as_xyz
'x,y,z'

loop_
_atom_site_label
_atom_site_type_symbol
_atom_site_fract_x
_atom_site_fract_y
_atom_site_fract_z
Pr11	Pr1	0.462760	0.654840	0.872470
Pr21	Pr2	0.660620	0.418760	0.626350
Pr31	Pr3	0.037240	0.845160	0.372470
Pr41	Pr4	0.839380	0.081240	0.126350
Pr51	Pr5	0.537240	0.345160	0.127530
Pr61	Pr6	0.339380	0.581240	0.373650
Pr71	Pr7	0.962760	0.154840	0.627530
Pr81	Pr8	0.160620	0.918760	0.873650
Cu11	Cu1	0.421450	0.669750	0.673380
Cu21	Cu2	0.704930	0.410890	0.826900
Cu31	Cu3	0.078550	0.830250	0.173380
Cu41	Cu4	0.795070	0.089110	0.326900
Cu51	Cu5	0.578550	0.330250	0.326620
Cu61	Cu6	0.295070	0.589110	0.173100
Cu71	Cu7	0.921450	0.169750	0.826620
Cu81	Cu8	0.204930	0.910890	0.673100
H11	H1	0.232400	0.325400	0.681500
H21	H2	0.131200	0.505900	0.803600
H31	H3	0.082800	0.435300	0.077700
H41	H4	0.893600	0.753900	0.811400
H51	H5	0.988700	0.573300	0.687700
H61	H6	0.267600	0.174600	0.181500
H71	H7	0.368800	0.994100	0.303600
H81	H8	0.417200	0.064700	0.577700
H91	H9	0.606400	0.746100	0.311400
H101	H10	0.511300	0.926700	0.187700
H111	H11	0.767600	0.674600	0.318500
H121	H12	0.868800	0.494100	0.196400
H131	H13	0.917200	0.564700	0.922300
H141	H14	0.106400	0.246100	0.188600
H151	H15	0.011300	0.426700	0.312300
H161	H16	0.732400	0.825400	0.818500
H171	H17	0.631200	0.005900	0.696400
H181	H18	0.582800	0.935300	0.422300
H191	H19	0.393600	0.253900	0.688600
H201	H20	0.488700	0.073300	0.812300
C11	C1	0.255900	0.480020	0.739330
C21	C2	0.287900	0.425050	0.703350
C31	C3	0.213900	0.361190	0.707120
C41	C4	0.111800	0.350260	0.749140
C51	C5	0.079800	0.404630	0.785320
C61	C6	0.152400	0.469460	0.779800
C71	C7	0.326600	0.551210	0.732130
C81	C8	0.410400	0.430490	0.668700
C91	C9	0.044500	0.278850	0.758600
C101	C10	0.965600	0.395070	0.828310
C111	C11	0.127000	0.512620	0.012630
C121	C12	0.077300	0.551100	0.965760
C131	C13	0.049400	0.461420	0.046530
C141	C14	0.262200	0.523390	0.030170
C151	C15	0.157600	0.604200	0.925300
C161	C16	0.044200	0.673870	0.707370
C171	C17	0.014500	0.728860	0.743850
C181	C18	0.912100	0.717900	0.786000
C191	C19	0.837400	0.654090	0.790440
C201	C20	0.867100	0.599550	0.753040
C211	C21	0.969400	0.609740	0.712250
C221	C22	0.083500	0.799960	0.734190
C231	C23	0.716500	0.646760	0.828070
C241	C24	0.798200	0.527560	0.760040
C251	C25	0.159900	0.677710	0.666530
C261	C26	0.244100	0.019980	0.239330
C271	C27	0.212100	0.074950	0.203350
C281	C28	0.286100	0.138810	0.207120
C291	C29	0.388200	0.149740	0.249140
C301	C30	0.420200	0.095370	0.285320
C311	C31	0.347600	0.030540	0.279800
C321	C32	0.173400	0.948790	0.232130
C331	C33	0.089600	0.069510	0.168700
C341	C34	0.455500	0.221150	0.258600
C351	C35	0.534400	0.104930	0.328310
C361	C36	0.373000	0.987380	0.512630
C371	C37	0.422700	0.948900	0.465760
C381	C38	0.450600	0.038580	0.546530
C391	C39	0.237800	0.976610	0.530170
C401	C40	0.342400	0.895800	0.425300
C411	C41	0.455800	0.826130	0.207370
C421	C42	0.485500	0.771140	0.243850
C431	C43	0.587900	0.782100	0.286000
C441	C44	0.662600	0.845910	0.290440
C451	C45	0.632900	0.900450	0.253040
C461	C46	0.530600	0.890260	0.212250
C471	C47	0.416500	0.700040	0.234190
C481	C48	0.783500	0.853240	0.328070
C491	C49	0.701800	0.972440	0.260040
C501	C50	0.340100	0.822290	0.166530
C511	C51	0.744100	0.519980	0.260670
C521	C52	0.712100	0.574950	0.296650
C531	C53	0.786100	0.638810	0.292880
C541	C54	0.888200	0.649740	0.250860
C551	C55	0.920200	0.595370	0.214680
C561	C56	0.847600	0.530540	0.220200
C571	C57	0.673400	0.448790	0.267870
C581	C58	0.589600	0.569510	0.331300
C591	C59	0.955500	0.721150	0.241400
C601	C60	0.034400	0.604930	0.171690
C611	C61	0.873000	0.487380	0.987370
C621	C62	0.922700	0.448900	0.034240
C631	C63	0.950600	0.538580	0.953470
C641	C64	0.737800	0.476610	0.969830
C651	C65	0.842400	0.395800	0.074700
C661	C66	0.955800	0.326130	0.292630
C671	C67	0.985500	0.271140	0.256150
C681	C68	0.087900	0.282100	0.214000
C691	C69	0.162600	0.345910	0.209560
C701	C70	0.132900	0.400450	0.246960
C711	C71	0.030600	0.390260	0.287750
C721	C72	0.916500	0.200040	0.265810
C731	C73	0.283500	0.353240	0.171930
C741	C74	0.201800	0.472440	0.239960
C751	C75	0.840100	0.322290	0.333470
C761	C76	0.755900	0.980020	0.760670
C771	C77	0.787900	0.925050	0.796650
C781	C78	0.713900	0.861190	0.792880
C791	C79	0.611800	0.850260	0.750860
C801	C80	0.579800	0.904630	0.714680
C811	C81	0.652400	0.969460	0.720200
C821	C82	0.826600	0.051210	0.767870
C831	C83	0.910400	0.930490	0.831300
C841	C84	0.544500	0.778850	0.741400
C851	C85	0.465600	0.895070	0.671690
C861	C86	0.627000	0.012620	0.487370
C871	C87	0.577300	0.051100	0.534240
C881	C88	0.549400	0.961420	0.453470
C891	C89	0.762200	0.023390	0.469830
C901	C90	0.657600	0.104200	0.574700
C911	C91	0.544200	0.173870	0.792630
C921	C92	0.514500	0.228860	0.756150
C931	C93	0.412100	0.217900	0.714000
C941	C94	0.337400	0.154090	0.709560
C951	C95	0.367100	0.099550	0.746960
C961	C96	0.469400	0.109740	0.787750
C971	C97	0.583500	0.299960	0.765810
C981	C98	0.216500	0.146760	0.671930
C991	C99	0.298200	0.027560	0.739960
C1001	C100	0.659900	0.177710	0.833470
O11	O1	0.360700	0.585600	0.782100
O21	O2	0.343000	0.573590	0.674170
O31	O3	0.503200	0.468380	0.694140
O41	O4	0.421100	0.394810	0.618690
O51	O5	0.038000	0.237770	0.711610
O61	O6	0.001900	0.263850	0.814710
O71	O7	0.863800	0.386690	0.795590
O81	O8	0.975500	0.398220	0.887800
O91	O9	0.308300	0.574800	0.064290
O101	O10	0.323600	0.478310	0.010610
O111	O11	0.273800	0.603600	0.924950
O121	O12	0.107000	0.645700	0.892700
O131	O13	0.260800	0.696320	0.697370
O141	O14	0.151400	0.659070	0.608620
O151	O15	0.125400	0.814960	0.677490
O161	O16	0.092400	0.841360	0.781150
O171	O17	0.707800	0.677600	0.880290
O181	O18	0.622800	0.611050	0.800500
O191	O19	0.770700	0.492720	0.709090
O201	O20	0.778200	0.506500	0.817690
O211	O21	0.139300	0.914400	0.282100
O221	O22	0.157000	0.926410	0.174170
O231	O23	0.996800	0.031620	0.194140
O241	O24	0.078900	0.105190	0.118690
O251	O25	0.462000	0.262230	0.211610
O261	O26	0.498100	0.236150	0.314710
O271	O27	0.636200	0.113310	0.295590
O281	O28	0.524500	0.101780	0.387800
O291	O29	0.191700	0.925200	0.564290
O301	O30	0.176400	0.021690	0.510610
O311	O31	0.226200	0.896400	0.424950
O321	O32	0.393000	0.854300	0.392700
O331	O33	0.239200	0.803680	0.197370
O341	O34	0.348600	0.840930	0.108620
O351	O35	0.374600	0.685040	0.177490
O361	O36	0.407600	0.658640	0.281150
O371	O37	0.792200	0.822400	0.380290
O381	O38	0.877200	0.888950	0.300500
O391	O39	0.729300	0.007280	0.209090
O401	O40	0.721800	0.993500	0.317690
O411	O41	0.639300	0.414400	0.217900
O421	O42	0.657000	0.426410	0.325830
O431	O43	0.496800	0.531620	0.305860
O441	O44	0.578900	0.605190	0.381310
O451	O45	0.962000	0.762230	0.288390
O461	O46	0.998100	0.736150	0.185290
O471	O47	0.136200	0.613310	0.204410
O481	O48	0.024500	0.601780	0.112200
O491	O49	0.691700	0.425200	0.935710
O501	O50	0.676400	0.521690	0.989390
O511	O51	0.726200	0.396400	0.075050
O521	O52	0.893000	0.354300	0.107300
O531	O53	0.739200	0.303680	0.302630
O541	O54	0.848600	0.340930	0.391380
O551	O55	0.874600	0.185040	0.322510
O561	O56	0.907600	0.158640	0.218850
O571	O57	0.292200	0.322400	0.119710
O581	O58	0.377200	0.388950	0.199500
O591	O59	0.229300	0.507280	0.290910
O601	O60	0.221800	0.493500	0.182310
O611	O61	0.860700	0.085600	0.717900
O621	O62	0.843000	0.073590	0.825830
O631	O63	0.003200	0.968380	0.805860
O641	O64	0.921100	0.894810	0.881310
O651	O65	0.538000	0.737770	0.788390
O661	O66	0.501900	0.763850	0.685290
O671	O67	0.363800	0.886690	0.704410
O681	O68	0.475500	0.898220	0.612200
O691	O69	0.808300	0.074800	0.435710
O701	O70	0.823600	0.978310	0.489390
O711	O71	0.773800	0.103600	0.575050
O721	O72	0.607000	0.145700	0.607300
O731	O73	0.760800	0.196320	0.802630
O741	O74	0.651400	0.159070	0.891380
O751	O75	0.625400	0.314960	0.822510
O761	O76	0.592400	0.341360	0.718850
O771	O77	0.207800	0.177600	0.619710
O781	O78	0.122800	0.111050	0.699500
O791	O79	0.270700	0.992720	0.790910
O801	O80	0.278200	0.006500	0.682310
