data_FALVUL_clean_PM
_symmetry_space_group_name_H-M	'P1'
_cell_length_a	10.906000
_cell_length_b	19.769000
_cell_length_c	20.212000
_cell_angle_alpha	90.000000
_cell_angle_beta	90.000000
_cell_angle_gamma	99.220000
_symmetry_Int_Tables_number 1

loop_
_symmetry_equiv_pos_as_xyz
'x,y,z'

loop_
_atom_site_label
_atom_site_type_symbol
_atom_site_fract_x
_atom_site_fract_y
_atom_site_fract_z
Pr11	Pr1	0.467600	0.654940	0.873690
Pr21	Pr2	0.666960	0.417200	0.623940
Pr31	Pr3	0.032400	0.845060	0.373690
Pr41	Pr4	0.833040	0.082800	0.123940
Pr51	Pr5	0.532400	0.345060	0.126310
Pr61	Pr6	0.333040	0.582800	0.376060
Pr71	Pr7	0.967600	0.154940	0.626310
Pr81	Pr8	0.166960	0.917200	0.876060
Cu11	Cu1	0.427980	0.668280	0.672650
Cu21	Cu2	0.711540	0.410930	0.825350
Cu31	Cu3	0.072020	0.831720	0.172650
Cu41	Cu4	0.788460	0.089070	0.325350
Cu51	Cu5	0.572020	0.331720	0.327350
Cu61	Cu6	0.288460	0.589070	0.174650
Cu71	Cu7	0.927980	0.168280	0.827350
Cu81	Cu8	0.211540	0.910930	0.674650
H11	H1	0.238300	0.323500	0.680600
H21	H2	0.136000	0.504800	0.803900
H31	H3	0.082600	0.434300	0.078200
H41	H4	0.900800	0.752900	0.811900
H51	H5	0.993300	0.572800	0.684500
H61	H6	0.261700	0.176500	0.180600
H71	H7	0.364000	0.995200	0.303900
H81	H8	0.417400	0.065700	0.578200
H91	H9	0.599200	0.747100	0.311900
H101	H10	0.506700	0.927200	0.184500
H111	H11	0.761700	0.676500	0.319400
H121	H12	0.864000	0.495200	0.196100
H131	H13	0.917400	0.565700	0.921800
H141	H14	0.099200	0.247100	0.188100
H151	H15	0.006700	0.427200	0.315500
H161	H16	0.738300	0.823500	0.819400
H171	H17	0.636000	0.004800	0.696100
H181	H18	0.582600	0.934300	0.421800
H191	H19	0.400800	0.252900	0.688100
H201	H20	0.493300	0.072800	0.815500
C11	C1	0.261800	0.478500	0.739000
C21	C2	0.293800	0.423600	0.702800
C31	C3	0.219600	0.359300	0.706500
C41	C4	0.117900	0.348600	0.748800
C51	C5	0.085900	0.403100	0.785600
C61	C6	0.157700	0.468200	0.780100
C71	C7	0.332100	0.550000	0.731700
C81	C8	0.416000	0.428400	0.667100
C91	C9	0.051500	0.277300	0.758800
C101	C10	0.970100	0.394100	0.827800
C111	C11	0.126400	0.512900	0.013900
C121	C12	0.077600	0.552200	0.966000
C131	C13	0.049000	0.460700	0.047000
C141	C14	0.261700	0.524900	0.032000
C151	C15	0.159800	0.605800	0.925900
C161	C16	0.050600	0.673500	0.705700
C171	C17	0.020800	0.728200	0.743000
C181	C18	0.918400	0.717000	0.785700
C191	C19	0.842900	0.653800	0.789700
C201	C20	0.872700	0.599200	0.751600
C211	C21	0.974800	0.609100	0.709900
C221	C22	0.090400	0.799300	0.734800
C231	C23	0.723200	0.646300	0.828400
C241	C24	0.804300	0.527200	0.758400
C251	C25	0.168200	0.676900	0.664800
C261	C26	0.238200	0.021500	0.239000
C271	C27	0.206200	0.076400	0.202800
C281	C28	0.280400	0.140700	0.206500
C291	C29	0.382100	0.151400	0.248800
C301	C30	0.414100	0.096900	0.285600
C311	C31	0.342300	0.031800	0.280100
C321	C32	0.167900	0.950000	0.231700
C331	C33	0.084000	0.071600	0.167100
C341	C34	0.448500	0.222700	0.258800
C351	C35	0.529900	0.105900	0.327800
C361	C36	0.373600	0.987100	0.513900
C371	C37	0.422400	0.947800	0.466000
C381	C38	0.451000	0.039300	0.547000
C391	C39	0.238300	0.975100	0.532000
C401	C40	0.340200	0.894200	0.425900
C411	C41	0.449400	0.826500	0.205700
C421	C42	0.479200	0.771800	0.243000
C431	C43	0.581600	0.783000	0.285700
C441	C44	0.657100	0.846200	0.289700
C451	C45	0.627300	0.900800	0.251600
C461	C46	0.525200	0.890900	0.209900
C471	C47	0.409600	0.700700	0.234800
C481	C48	0.776800	0.853700	0.328400
C491	C49	0.695700	0.972800	0.258400
C501	C50	0.331800	0.823100	0.164800
C511	C51	0.738200	0.521500	0.261000
C521	C52	0.706200	0.576400	0.297200
C531	C53	0.780400	0.640700	0.293500
C541	C54	0.882100	0.651400	0.251200
C551	C55	0.914100	0.596900	0.214400
C561	C56	0.842300	0.531800	0.219900
C571	C57	0.667900	0.450000	0.268300
C581	C58	0.584000	0.571600	0.332900
C591	C59	0.948500	0.722700	0.241200
C601	C60	0.029900	0.605900	0.172200
C611	C61	0.873600	0.487100	0.986100
C621	C62	0.922400	0.447800	0.034000
C631	C63	0.951000	0.539300	0.953000
C641	C64	0.738300	0.475100	0.968000
C651	C65	0.840200	0.394200	0.074100
C661	C66	0.949400	0.326500	0.294300
C671	C67	0.979200	0.271800	0.257000
C681	C68	0.081600	0.283000	0.214300
C691	C69	0.157100	0.346200	0.210300
C701	C70	0.127300	0.400800	0.248400
C711	C71	0.025200	0.390900	0.290100
C721	C72	0.909600	0.200700	0.265200
C731	C73	0.276800	0.353700	0.171600
C741	C74	0.195700	0.472800	0.241600
C751	C75	0.831800	0.323100	0.335200
C761	C76	0.761800	0.978500	0.761000
C771	C77	0.793800	0.923600	0.797200
C781	C78	0.719600	0.859300	0.793500
C791	C79	0.617900	0.848600	0.751200
C801	C80	0.585900	0.903100	0.714400
C811	C81	0.657700	0.968200	0.719900
C821	C82	0.832100	0.050000	0.768300
C831	C83	0.916000	0.928400	0.832900
C841	C84	0.551500	0.777300	0.741200
C851	C85	0.470100	0.894100	0.672200
C861	C86	0.626400	0.012900	0.486100
C871	C87	0.577600	0.052200	0.534000
C881	C88	0.549000	0.960700	0.453000
C891	C89	0.761700	0.024900	0.468000
C901	C90	0.659800	0.105800	0.574100
C911	C91	0.550600	0.173500	0.794300
C921	C92	0.520800	0.228200	0.757000
C931	C93	0.418400	0.217000	0.714300
C941	C94	0.342900	0.153800	0.710300
C951	C95	0.372700	0.099200	0.748400
C961	C96	0.474800	0.109100	0.790100
C971	C97	0.590400	0.299300	0.765200
C981	C98	0.223200	0.146300	0.671600
C991	C99	0.304300	0.027200	0.741600
C1001	C100	0.668200	0.176900	0.835200
O11	O1	0.366400	0.584110	0.782720
O21	O2	0.346500	0.572710	0.673110
O31	O3	0.508800	0.466420	0.692070
O41	O4	0.426300	0.392100	0.617080
O51	O5	0.044500	0.235680	0.711910
O61	O6	0.009100	0.262730	0.815990
O71	O7	0.869000	0.385590	0.793490
O81	O8	0.976100	0.397900	0.888180
O91	O9	0.306500	0.575870	0.066370
O101	O10	0.323900	0.479750	0.012140
O111	O11	0.275400	0.603540	0.925540
O121	O12	0.108800	0.648400	0.894200
O131	O13	0.268500	0.696790	0.696620
O141	O14	0.161200	0.656400	0.607000
O151	O15	0.132400	0.815450	0.677250
O161	O16	0.098800	0.839720	0.783100
O171	O17	0.714900	0.678800	0.881070
O181	O18	0.629200	0.609290	0.802600
O191	O19	0.775800	0.492430	0.706950
O201	O20	0.787100	0.505900	0.817140
O211	O21	0.133600	0.915890	0.282720
O221	O22	0.153500	0.927290	0.173110
O231	O23	0.991200	0.033580	0.192070
O241	O24	0.073700	0.107900	0.117080
O251	O25	0.455500	0.264320	0.211910
O261	O26	0.490900	0.237270	0.315990
O271	O27	0.631000	0.114410	0.293490
O281	O28	0.523900	0.102100	0.388180
O291	O29	0.193500	0.924130	0.566370
O301	O30	0.176100	0.020250	0.512140
O311	O31	0.224600	0.896460	0.425540
O321	O32	0.391200	0.851600	0.394200
O331	O33	0.231500	0.803210	0.196620
O341	O34	0.338800	0.843600	0.107000
O351	O35	0.367600	0.684550	0.177250
O361	O36	0.401200	0.660280	0.283100
O371	O37	0.785100	0.821200	0.381070
O381	O38	0.870800	0.890710	0.302600
O391	O39	0.724200	0.007570	0.206950
O401	O40	0.712900	0.994100	0.317140
O411	O41	0.633600	0.415890	0.217280
O421	O42	0.653500	0.427290	0.326890
O431	O43	0.491200	0.533580	0.307930
O441	O44	0.573700	0.607900	0.382920
O451	O45	0.955500	0.764320	0.288090
O461	O46	0.990900	0.737270	0.184010
O471	O47	0.131000	0.614410	0.206510
O481	O48	0.023900	0.602100	0.111820
O491	O49	0.693500	0.424130	0.933630
O501	O50	0.676100	0.520250	0.987860
O511	O51	0.724600	0.396460	0.074460
O521	O52	0.891200	0.351600	0.105800
O531	O53	0.731500	0.303210	0.303380
O541	O54	0.838800	0.343600	0.393000
O551	O55	0.867600	0.184550	0.322750
O561	O56	0.901200	0.160280	0.216900
O571	O57	0.285100	0.321200	0.118930
O581	O58	0.370800	0.390710	0.197400
O591	O59	0.224200	0.507570	0.293050
O601	O60	0.212900	0.494100	0.182860
O611	O61	0.866400	0.084110	0.717280
O621	O62	0.846500	0.072710	0.826890
O631	O63	0.008800	0.966420	0.807930
O641	O64	0.926300	0.892100	0.882920
O651	O65	0.544500	0.735680	0.788090
O661	O66	0.509100	0.762730	0.684010
O671	O67	0.369000	0.885590	0.706510
O681	O68	0.476100	0.897900	0.611820
O691	O69	0.806500	0.075870	0.433630
O701	O70	0.823900	0.979750	0.487860
O711	O71	0.775400	0.103540	0.574460
O721	O72	0.608800	0.148400	0.605800
O731	O73	0.768500	0.196790	0.803380
O741	O74	0.661200	0.156400	0.893000
O751	O75	0.632400	0.315450	0.822750
O761	O76	0.598800	0.339720	0.716900
O771	O77	0.214900	0.178800	0.618930
O781	O78	0.129200	0.109290	0.697400
O791	O79	0.275800	0.992430	0.793050
O801	O80	0.287100	0.005900	0.682860
