data_FALZOI_clean_PM
_symmetry_space_group_name_H-M	'P1'
_cell_length_a	16.744400
_cell_length_b	16.744400
_cell_length_c	16.744400
_cell_angle_alpha	90.000000
_cell_angle_beta	90.000000
_cell_angle_gamma	90.000000
_symmetry_Int_Tables_number 1

loop_
_symmetry_equiv_pos_as_xyz
'x,y,z'

loop_
_atom_site_label
_atom_site_type_symbol
_atom_site_fract_x
_atom_site_fract_y
_atom_site_fract_z
O11	O1	0.091800	0.522610	0.805570
O21	O2	0.591800	0.022610	0.305570
O31	O3	0.908200	0.477390	0.805570
O41	O4	0.408200	0.977390	0.305570
O51	O5	0.908200	0.522610	0.194430
O61	O6	0.408200	0.022610	0.694430
O71	O7	0.091800	0.477390	0.194430
O81	O8	0.591800	0.977390	0.694430
O91	O9	0.805570	0.091800	0.522610
O101	O10	0.305570	0.591800	0.022610
O111	O11	0.805570	0.908200	0.477390
O121	O12	0.305570	0.408200	0.977390
O131	O13	0.194430	0.908200	0.522610
O141	O14	0.694430	0.408200	0.022610
O151	O15	0.194430	0.091800	0.477390
O161	O16	0.694430	0.591800	0.977390
O171	O17	0.522610	0.805570	0.091800
O181	O18	0.022610	0.305570	0.591800
O191	O19	0.477390	0.805570	0.908200
O201	O20	0.977390	0.305570	0.408200
O211	O21	0.522610	0.194430	0.908200
O221	O22	0.022610	0.694430	0.408200
O231	O23	0.477390	0.194430	0.091800
O241	O24	0.977390	0.694430	0.591800
O251	O25	0.522610	0.091800	0.805570
O261	O26	0.022610	0.591800	0.305570
O271	O27	0.477390	0.908200	0.805570
O281	O28	0.977390	0.408200	0.305570
O291	O29	0.522610	0.908200	0.194430
O301	O30	0.022610	0.408200	0.694430
O311	O31	0.477390	0.091800	0.194430
O321	O32	0.977390	0.591800	0.694430
O331	O33	0.091800	0.805570	0.522610
O341	O34	0.591800	0.305570	0.022610
O351	O35	0.908200	0.805570	0.477390
O361	O36	0.408200	0.305570	0.977390
O371	O37	0.908200	0.194430	0.522610
O381	O38	0.408200	0.694430	0.022610
O391	O39	0.091800	0.194430	0.477390
O401	O40	0.591800	0.694430	0.977390
O411	O41	0.805570	0.522610	0.091800
O421	O42	0.305570	0.022610	0.591800
O431	O43	0.805570	0.477390	0.908200
O441	O44	0.305570	0.977390	0.408200
O451	O45	0.194430	0.522610	0.908200
O461	O46	0.694430	0.022610	0.408200
O471	O47	0.194430	0.477390	0.091800
O481	O48	0.694430	0.977390	0.591800
Al11	Al1	0.000000	0.500000	0.000000
Al21	Al2	0.500000	0.000000	0.500000
Al31	Al3	0.000000	0.000000	0.500000
Al41	Al4	0.500000	0.500000	0.000000
Al51	Al5	0.500000	0.000000	0.000000
Al61	Al6	0.000000	0.500000	0.500000
Na11	Na1	0.000000	0.500000	0.750000
Na21	Na2	0.000000	0.500000	0.250000
Na31	Na3	0.750000	0.000000	0.500000
Na41	Na4	0.250000	0.000000	0.500000
Na51	Na5	0.500000	0.750000	0.000000
Na61	Na6	0.500000	0.250000	0.000000
Na71	Na7	0.500000	0.000000	0.750000
Na81	Na8	0.500000	0.000000	0.250000
Na91	Na9	0.000000	0.750000	0.500000
Na101	Na10	0.000000	0.250000	0.500000
Na111	Na11	0.750000	0.500000	0.000000
Na121	Na12	0.250000	0.500000	0.000000
P11	P1	0.121690	0.568720	0.878310
O491	O49	0.139250	0.655200	0.860750
O501	O50	0.057280	0.563300	0.942720
P21	P2	0.621690	0.068720	0.378310
O511	O51	0.639250	0.155200	0.360750
O521	O52	0.557280	0.063300	0.442720
P31	P3	0.878310	0.431280	0.878310
O531	O53	0.860750	0.344800	0.860750
O541	O54	0.942720	0.436700	0.942720
P41	P4	0.378310	0.931280	0.378310
O551	O55	0.360750	0.844800	0.360750
O561	O56	0.442720	0.936700	0.442720
P51	P5	0.878310	0.568720	0.121690
O571	O57	0.860750	0.655200	0.139250
O581	O58	0.942720	0.563300	0.057280
P61	P6	0.378310	0.068720	0.621690
O591	O59	0.360750	0.155200	0.639250
O601	O60	0.442720	0.063300	0.557280
P71	P7	0.121690	0.431280	0.121690
O611	O61	0.139250	0.344800	0.139250
O621	O62	0.057280	0.436700	0.057280
P81	P8	0.621690	0.931280	0.621690
O631	O63	0.639250	0.844800	0.639250
O641	O64	0.557280	0.936700	0.557280
P91	P9	0.878310	0.121690	0.568720
O651	O65	0.860750	0.139250	0.655200
O661	O66	0.942720	0.057280	0.563300
P101	P10	0.378310	0.621690	0.068720
O671	O67	0.360750	0.639250	0.155200
O681	O68	0.442720	0.557280	0.063300
P111	P11	0.878310	0.878310	0.431280
O691	O69	0.860750	0.860750	0.344800
O701	O70	0.942720	0.942720	0.436700
P121	P12	0.378310	0.378310	0.931280
O711	O71	0.360750	0.360750	0.844800
O721	O72	0.442720	0.442720	0.936700
P131	P13	0.121690	0.878310	0.568720
O731	O73	0.139250	0.860750	0.655200
O741	O74	0.057280	0.942720	0.563300
P141	P14	0.621690	0.378310	0.068720
O751	O75	0.639250	0.360750	0.155200
O761	O76	0.557280	0.442720	0.063300
P151	P15	0.121690	0.121690	0.431280
O771	O77	0.139250	0.139250	0.344800
O781	O78	0.057280	0.057280	0.436700
P161	P16	0.621690	0.621690	0.931280
O791	O79	0.639250	0.639250	0.844800
O801	O80	0.557280	0.557280	0.936700
P171	P17	0.568720	0.878310	0.121690
O811	O81	0.655200	0.860750	0.139250
O821	O82	0.563300	0.942720	0.057280
P181	P18	0.068720	0.378310	0.621690
O831	O83	0.155200	0.360750	0.639250
O841	O84	0.063300	0.442720	0.557280
P191	P19	0.431280	0.878310	0.878310
O851	O85	0.344800	0.860750	0.860750
O861	O86	0.436700	0.942720	0.942720
P201	P20	0.931280	0.378310	0.378310
O871	O87	0.844800	0.360750	0.360750
O881	O88	0.936700	0.442720	0.442720
P211	P21	0.568720	0.121690	0.878310
O891	O89	0.655200	0.139250	0.860750
O901	O90	0.563300	0.057280	0.942720
P221	P22	0.068720	0.621690	0.378310
O911	O91	0.155200	0.639250	0.360750
O921	O92	0.063300	0.557280	0.442720
P231	P23	0.431280	0.121690	0.121690
O931	O93	0.344800	0.139250	0.139250
O941	O94	0.436700	0.057280	0.057280
P241	P24	0.931280	0.621690	0.621690
O951	O95	0.844800	0.639250	0.639250
O961	O96	0.936700	0.557280	0.557280
