data_FAMHAE_clean_PM
_symmetry_space_group_name_H-M	'P1'
_cell_length_a	12.367000
_cell_length_b	12.367000
_cell_length_c	5.293400
_cell_angle_alpha	90.000000
_cell_angle_beta	90.000000
_cell_angle_gamma	90.000000
_symmetry_Int_Tables_number 1

loop_
_symmetry_equiv_pos_as_xyz
'x,y,z'

loop_
_atom_site_label
_atom_site_type_symbol
_atom_site_fract_x
_atom_site_fract_y
_atom_site_fract_z
Co11	Co1	0.678800	0.015200	0.537300
S11	S1	0.560860	0.693050	0.473200
N11	N1	0.617000	0.873600	0.721800
C11	C1	0.654400	0.681500	0.728200
H11	H1	0.617700	0.660400	0.882400
H21	H2	0.709700	0.628300	0.690100
C21	C2	0.703700	0.793500	0.754900
H31	H3	0.733900	0.800900	0.925100
C31	C3	0.793300	0.813400	0.560900
C41	C4	0.526000	0.831100	0.568900
H41	H4	0.460600	0.829100	0.673400
C51	C5	0.503400	0.895600	0.334400
O11	O1	0.867800	0.742900	0.536200
O21	O2	0.792900	0.899800	0.434000
O31	O3	0.570300	0.967800	0.268800
O41	O4	0.419500	0.872300	0.216600
H51	H5	0.599800	0.877300	0.870000
Co21	Co2	0.321200	0.984800	0.037300
S21	S2	0.439140	0.306950	0.973200
N21	N2	0.383000	0.126400	0.221800
C61	C6	0.345600	0.318500	0.228200
H61	H6	0.382300	0.339600	0.382400
H71	H7	0.290300	0.371700	0.190100
C71	C7	0.296300	0.206500	0.254900
H81	H8	0.266100	0.199100	0.425100
C81	C8	0.206700	0.186600	0.060900
C91	C9	0.474000	0.168900	0.068900
H91	H9	0.539400	0.170900	0.173400
C101	C10	0.496600	0.104400	0.834400
O51	O5	0.132200	0.257100	0.036200
O61	O6	0.207100	0.100200	0.934000
O71	O7	0.429700	0.032200	0.768800
O81	O8	0.580500	0.127700	0.716600
H101	H10	0.400200	0.122700	0.370000
Co31	Co3	0.984800	0.678800	0.787300
S31	S3	0.306950	0.560860	0.723200
N31	N3	0.126400	0.617000	0.971800
C111	C11	0.318500	0.654400	0.978200
H111	H11	0.339600	0.617700	0.132400
H121	H12	0.371700	0.709700	0.940100
C121	C12	0.206500	0.703700	0.004900
H131	H13	0.199100	0.733900	0.175100
C131	C13	0.186600	0.793300	0.810900
C141	C14	0.168900	0.526000	0.818900
H141	H14	0.170900	0.460600	0.923400
C151	C15	0.104400	0.503400	0.584400
O91	O9	0.257100	0.867800	0.786200
O101	O10	0.100200	0.792900	0.684000
O111	O11	0.032200	0.570300	0.518800
O121	O12	0.127700	0.419500	0.466600
H151	H15	0.122700	0.599800	0.120000
Co41	Co4	0.015200	0.321200	0.287300
S41	S4	0.693050	0.439140	0.223200
N41	N4	0.873600	0.383000	0.471800
C161	C16	0.681500	0.345600	0.478200
H161	H16	0.660400	0.382300	0.632400
H171	H17	0.628300	0.290300	0.440100
C171	C17	0.793500	0.296300	0.504900
H181	H18	0.800900	0.266100	0.675100
C181	C18	0.813400	0.206700	0.310900
C191	C19	0.831100	0.474000	0.318900
H191	H19	0.829100	0.539400	0.423400
C201	C20	0.895600	0.496600	0.084400
O131	O13	0.742900	0.132200	0.286200
O141	O14	0.899800	0.207100	0.184000
O151	O15	0.967800	0.429700	0.018800
O161	O16	0.872300	0.580500	0.966600
H201	H20	0.877300	0.400200	0.620000
