data_FAMHAE01_clean_PM
_symmetry_space_group_name_H-M	'P1'
_cell_length_a	12.264000
_cell_length_b	12.264000
_cell_length_c	5.253500
_cell_angle_alpha	90.000000
_cell_angle_beta	90.000000
_cell_angle_gamma	90.000000
_symmetry_Int_Tables_number 1

loop_
_symmetry_equiv_pos_as_xyz
'x,y,z'

loop_
_atom_site_label
_atom_site_type_symbol
_atom_site_fract_x
_atom_site_fract_y
_atom_site_fract_z
Co11	Co1	0.178710	0.515300	0.217530
S11	S1	0.060930	0.192720	0.152900
N11	N1	0.115900	0.373600	0.401900
H11	H1	0.090900	0.395700	0.526700
C11	C1	0.024400	0.330200	0.252900
H21	H2	0.958500	0.327900	0.358500
C21	C2	0.003000	0.396200	0.016400
C31	C3	0.203500	0.293600	0.435000
H31	H3	0.234100	0.302400	0.606100
C41	C4	0.293100	0.313900	0.242800
C51	C5	0.154500	0.181200	0.415600
H41	H4	0.116600	0.161700	0.571100
H51	H5	0.210200	0.127000	0.381100
O11	O1	0.918200	0.372100	0.897400
O21	O2	0.069800	0.467700	0.946000
O31	O3	0.292700	0.398800	0.114000
O41	O4	0.367400	0.243400	0.220800
Co21	Co2	0.821290	0.484700	0.717530
S21	S2	0.939070	0.807280	0.652900
N21	N2	0.884100	0.626400	0.901900
H61	H6	0.909100	0.604300	0.026700
C61	C6	0.975600	0.669800	0.752900
H71	H7	0.041500	0.672100	0.858500
C71	C7	0.997000	0.603800	0.516400
C81	C8	0.796500	0.706400	0.935000
H81	H8	0.765900	0.697600	0.106100
C91	C9	0.706900	0.686100	0.742800
C101	C10	0.845500	0.818800	0.915600
H91	H9	0.883400	0.838300	0.071100
H101	H10	0.789800	0.873000	0.881100
O51	O5	0.081800	0.627900	0.397400
O61	O6	0.930200	0.532300	0.446000
O71	O7	0.707300	0.601200	0.614000
O81	O8	0.632600	0.756600	0.720800
Co31	Co3	0.484700	0.178710	0.467530
S31	S3	0.807280	0.060930	0.402900
N31	N3	0.626400	0.115900	0.651900
H111	H11	0.604300	0.090900	0.776700
C111	C11	0.669800	0.024400	0.502900
H121	H12	0.672100	0.958500	0.608500
C121	C12	0.603800	0.003000	0.266400
C131	C13	0.706400	0.203500	0.685000
H131	H13	0.697600	0.234100	0.856100
C141	C14	0.686100	0.293100	0.492800
C151	C15	0.818800	0.154500	0.665600
H141	H14	0.838300	0.116600	0.821100
H151	H15	0.873000	0.210200	0.631100
O91	O9	0.627900	0.918200	0.147400
O101	O10	0.532300	0.069800	0.196000
O111	O11	0.601200	0.292700	0.364000
O121	O12	0.756600	0.367400	0.470800
Co41	Co4	0.515300	0.821290	0.967530
S41	S4	0.192720	0.939070	0.902900
N41	N4	0.373600	0.884100	0.151900
H161	H16	0.395700	0.909100	0.276700
C161	C16	0.330200	0.975600	0.002900
H171	H17	0.327900	0.041500	0.108500
C171	C17	0.396200	0.997000	0.766400
C181	C18	0.293600	0.796500	0.185000
H181	H18	0.302400	0.765900	0.356100
C191	C19	0.313900	0.706900	0.992800
C201	C20	0.181200	0.845500	0.165600
H191	H19	0.161700	0.883400	0.321100
H201	H20	0.127000	0.789800	0.131100
O131	O13	0.372100	0.081800	0.647400
O141	O14	0.467700	0.930200	0.696000
O151	O15	0.398800	0.707300	0.864000
O161	O16	0.243400	0.632600	0.970800
