data_FAMPUH_clean_PM
_symmetry_space_group_name_H-M	'P1'
_cell_length_a	18.668000
_cell_length_b	18.668000
_cell_length_c	34.825000
_cell_angle_alpha	90.000000
_cell_angle_beta	90.000000
_cell_angle_gamma	90.000000
_symmetry_Int_Tables_number 1

loop_
_symmetry_equiv_pos_as_xyz
'x,y,z'

loop_
_atom_site_label
_atom_site_type_symbol
_atom_site_fract_x
_atom_site_fract_y
_atom_site_fract_z
C11	C1	0.023300	0.431900	0.033600
C21	C2	0.047500	0.363700	0.033600
H11	H1	0.015000	0.455300	0.056700
C31	C3	0.060900	0.324900	0.072100
O11	O1	0.106000	0.274000	0.071500
N11	N1	0.008000	0.329000	0.097100
H21	H2	0.973000	0.357000	0.091000
C41	C4	0.013500	0.313300	0.141200
C51	C5	0.950000	0.307500	0.160500
C61	C6	0.949200	0.282800	0.197400
C71	C7	0.011800	0.263900	0.215100
C81	C8	0.075300	0.269800	0.195800
C91	C9	0.076100	0.294500	0.158800
H31	H3	0.907400	0.320300	0.148500
H41	H4	0.011200	0.247100	0.240200
H51	H5	0.119300	0.298400	0.145700
C101	C10	0.883400	0.276700	0.217400
O21	O2	0.822800	0.295000	0.204100
O31	O3	0.876500	0.252000	0.251200
C111	C11	0.140100	0.250200	0.214100
O41	O4	0.202200	0.267000	0.202400
O51	O5	0.145000	0.213000	0.244500
Cu11	Cu1	0.737900	0.296800	0.222300
C121	C12	0.976700	0.568100	0.033600
C131	C13	0.952500	0.636300	0.033600
H61	H6	0.985000	0.544700	0.056700
C141	C14	0.939100	0.675100	0.072100
O61	O6	0.894000	0.726000	0.071500
N21	N2	0.992000	0.671000	0.097100
H71	H7	0.027000	0.643000	0.091000
C151	C15	0.986500	0.686700	0.141200
C161	C16	0.050000	0.692500	0.160500
C171	C17	0.050800	0.717200	0.197400
C181	C18	0.988200	0.736100	0.215100
C191	C19	0.924700	0.730200	0.195800
C201	C20	0.923900	0.705500	0.158800
H81	H8	0.092600	0.679700	0.148500
H91	H9	0.988800	0.752900	0.240200
H101	H10	0.880700	0.701600	0.145700
C211	C21	0.116600	0.723300	0.217400
O71	O7	0.177200	0.705000	0.204100
O81	O8	0.123500	0.748000	0.251200
C221	C22	0.859900	0.749800	0.214100
O91	O9	0.797800	0.733000	0.202400
O101	O10	0.855000	0.787000	0.244500
Cu21	Cu2	0.262100	0.703200	0.222300
C231	C23	0.568100	0.023300	0.033600
C241	C24	0.636300	0.047500	0.033600
H111	H11	0.544700	0.015000	0.056700
C251	C25	0.675100	0.060900	0.072100
O111	O11	0.726000	0.106000	0.071500
N31	N3	0.671000	0.008000	0.097100
H121	H12	0.643000	0.973000	0.091000
C261	C26	0.686700	0.013500	0.141200
C271	C27	0.692500	0.950000	0.160500
C281	C28	0.717200	0.949200	0.197400
C291	C29	0.736100	0.011800	0.215100
C301	C30	0.730200	0.075300	0.195800
C311	C31	0.705500	0.076100	0.158800
H131	H13	0.679700	0.907400	0.148500
H141	H14	0.752900	0.011200	0.240200
H151	H15	0.701600	0.119300	0.145700
C321	C32	0.723300	0.883400	0.217400
O121	O12	0.705000	0.822800	0.204100
O131	O13	0.748000	0.876500	0.251200
C331	C33	0.749800	0.140100	0.214100
O141	O14	0.733000	0.202200	0.202400
O151	O15	0.787000	0.145000	0.244500
Cu31	Cu3	0.703200	0.737900	0.222300
C341	C34	0.431900	0.976700	0.033600
C351	C35	0.363700	0.952500	0.033600
H161	H16	0.455300	0.985000	0.056700
C361	C36	0.324900	0.939100	0.072100
O161	O16	0.274000	0.894000	0.071500
N41	N4	0.329000	0.992000	0.097100
H171	H17	0.357000	0.027000	0.091000
C371	C37	0.313300	0.986500	0.141200
C381	C38	0.307500	0.050000	0.160500
C391	C39	0.282800	0.050800	0.197400
C401	C40	0.263900	0.988200	0.215100
C411	C41	0.269800	0.924700	0.195800
C421	C42	0.294500	0.923900	0.158800
H181	H18	0.320300	0.092600	0.148500
H191	H19	0.247100	0.988800	0.240200
H201	H20	0.298400	0.880700	0.145700
C431	C43	0.276700	0.116600	0.217400
O171	O17	0.295000	0.177200	0.204100
O181	O18	0.252000	0.123500	0.251200
C441	C44	0.250200	0.859900	0.214100
O191	O19	0.267000	0.797800	0.202400
O201	O20	0.213000	0.855000	0.244500
Cu41	Cu4	0.296800	0.262100	0.222300
C451	C45	0.476700	0.931900	0.466400
C461	C46	0.452500	0.863700	0.466400
H211	H21	0.485000	0.955300	0.443300
C471	C47	0.439100	0.824900	0.427900
O211	O21	0.394000	0.774000	0.428500
N51	N5	0.492000	0.829000	0.402900
H221	H22	0.527000	0.857000	0.409000
C481	C48	0.486500	0.813300	0.358800
C491	C49	0.550000	0.807500	0.339500
C501	C50	0.550800	0.782800	0.302600
C511	C51	0.488200	0.763900	0.284900
C521	C52	0.424700	0.769800	0.304200
C531	C53	0.423900	0.794500	0.341200
H231	H23	0.592600	0.820300	0.351500
H241	H24	0.488800	0.747100	0.259800
H251	H25	0.380700	0.798400	0.354300
C541	C54	0.616600	0.776700	0.282600
O221	O22	0.677200	0.795000	0.295900
O231	O23	0.623500	0.752000	0.248800
C551	C55	0.359900	0.750200	0.285900
O241	O24	0.297800	0.767000	0.297600
O251	O25	0.355000	0.713000	0.255500
Cu51	Cu5	0.762100	0.796800	0.277700
C561	C56	0.523300	0.068100	0.466400
C571	C57	0.547500	0.136300	0.466400
H261	H26	0.515000	0.044700	0.443300
C581	C58	0.560900	0.175100	0.427900
O261	O26	0.606000	0.226000	0.428500
N61	N6	0.508000	0.171000	0.402900
H271	H27	0.473000	0.143000	0.409000
C591	C59	0.513500	0.186700	0.358800
C601	C60	0.450000	0.192500	0.339500
C611	C61	0.449200	0.217200	0.302600
C621	C62	0.511800	0.236100	0.284900
C631	C63	0.575300	0.230200	0.304200
C641	C64	0.576100	0.205500	0.341200
H281	H28	0.407400	0.179700	0.351500
H291	H29	0.511200	0.252900	0.259800
H301	H30	0.619300	0.201600	0.354300
C651	C65	0.383400	0.223300	0.282600
O271	O27	0.322800	0.205000	0.295900
O281	O28	0.376500	0.248000	0.248800
C661	C66	0.640100	0.249800	0.285900
O291	O29	0.702200	0.233000	0.297600
O301	O30	0.645000	0.287000	0.255500
Cu61	Cu6	0.237900	0.203200	0.277700
C671	C67	0.931900	0.523300	0.466400
C681	C68	0.863700	0.547500	0.466400
H311	H31	0.955300	0.515000	0.443300
C691	C69	0.824900	0.560900	0.427900
O311	O31	0.774000	0.606000	0.428500
N71	N7	0.829000	0.508000	0.402900
H321	H32	0.857000	0.473000	0.409000
C701	C70	0.813300	0.513500	0.358800
C711	C71	0.807500	0.450000	0.339500
C721	C72	0.782800	0.449200	0.302600
C731	C73	0.763900	0.511800	0.284900
C741	C74	0.769800	0.575300	0.304200
C751	C75	0.794500	0.576100	0.341200
H331	H33	0.820300	0.407400	0.351500
H341	H34	0.747100	0.511200	0.259800
H351	H35	0.798400	0.619300	0.354300
C761	C76	0.776700	0.383400	0.282600
O321	O32	0.795000	0.322800	0.295900
O331	O33	0.752000	0.376500	0.248800
C771	C77	0.750200	0.640100	0.285900
O341	O34	0.767000	0.702200	0.297600
O351	O35	0.713000	0.645000	0.255500
Cu71	Cu7	0.796800	0.237900	0.277700
C781	C78	0.068100	0.476700	0.466400
C791	C79	0.136300	0.452500	0.466400
H361	H36	0.044700	0.485000	0.443300
C801	C80	0.175100	0.439100	0.427900
O361	O36	0.226000	0.394000	0.428500
N81	N8	0.171000	0.492000	0.402900
H371	H37	0.143000	0.527000	0.409000
C811	C81	0.186700	0.486500	0.358800
C821	C82	0.192500	0.550000	0.339500
C831	C83	0.217200	0.550800	0.302600
C841	C84	0.236100	0.488200	0.284900
C851	C85	0.230200	0.424700	0.304200
C861	C86	0.205500	0.423900	0.341200
H381	H38	0.179700	0.592600	0.351500
H391	H39	0.252900	0.488800	0.259800
H401	H40	0.201600	0.380700	0.354300
C871	C87	0.223300	0.616600	0.282600
O371	O37	0.205000	0.677200	0.295900
O381	O38	0.248000	0.623500	0.248800
C881	C88	0.249800	0.359900	0.285900
O391	O39	0.233000	0.297800	0.297600
O401	O40	0.287000	0.355000	0.255500
Cu81	Cu8	0.203200	0.762100	0.277700
C891	C89	0.976700	0.568100	0.966400
C901	C90	0.952500	0.636300	0.966400
H411	H41	0.985000	0.544700	0.943300
C911	C91	0.939100	0.675100	0.927900
O411	O41	0.894000	0.726000	0.928500
N91	N9	0.992000	0.671000	0.902900
H421	H42	0.027000	0.643000	0.909000
C921	C92	0.986500	0.686700	0.858800
C931	C93	0.050000	0.692500	0.839500
C941	C94	0.050800	0.717200	0.802600
C951	C95	0.988200	0.736100	0.784900
C961	C96	0.924700	0.730200	0.804200
C971	C97	0.923900	0.705500	0.841200
H431	H43	0.092600	0.679700	0.851500
H441	H44	0.988800	0.752900	0.759800
H451	H45	0.880700	0.701600	0.854300
C981	C98	0.116600	0.723300	0.782600
O421	O42	0.177200	0.705000	0.795900
O431	O43	0.123500	0.748000	0.748800
C991	C99	0.859900	0.749800	0.785900
O441	O44	0.797800	0.733000	0.797600
O451	O45	0.855000	0.787000	0.755500
Cu91	Cu9	0.262100	0.703200	0.777700
C1001	C100	0.023300	0.431900	0.966400
C1011	C101	0.047500	0.363700	0.966400
H461	H46	0.015000	0.455300	0.943300
C1021	C102	0.060900	0.324900	0.927900
O461	O46	0.106000	0.274000	0.928500
N101	N10	0.008000	0.329000	0.902900
H471	H47	0.973000	0.357000	0.909000
C1031	C103	0.013500	0.313300	0.858800
C1041	C104	0.950000	0.307500	0.839500
C1051	C105	0.949200	0.282800	0.802600
C1061	C106	0.011800	0.263900	0.784900
C1071	C107	0.075300	0.269800	0.804200
C1081	C108	0.076100	0.294500	0.841200
H481	H48	0.907400	0.320300	0.851500
H491	H49	0.011200	0.247100	0.759800
H501	H50	0.119300	0.298400	0.854300
C1091	C109	0.883400	0.276700	0.782600
O471	O47	0.822800	0.295000	0.795900
O481	O48	0.876500	0.252000	0.748800
C1101	C110	0.140100	0.250200	0.785900
O491	O49	0.202200	0.267000	0.797600
O501	O50	0.145000	0.213000	0.755500
Cu101	Cu10	0.737900	0.296800	0.777700
C1111	C111	0.431900	0.976700	0.966400
C1121	C112	0.363700	0.952500	0.966400
H511	H51	0.455300	0.985000	0.943300
C1131	C113	0.324900	0.939100	0.927900
O511	O51	0.274000	0.894000	0.928500
N111	N11	0.329000	0.992000	0.902900
H521	H52	0.357000	0.027000	0.909000
C1141	C114	0.313300	0.986500	0.858800
C1151	C115	0.307500	0.050000	0.839500
C1161	C116	0.282800	0.050800	0.802600
C1171	C117	0.263900	0.988200	0.784900
C1181	C118	0.269800	0.924700	0.804200
C1191	C119	0.294500	0.923900	0.841200
H531	H53	0.320300	0.092600	0.851500
H541	H54	0.247100	0.988800	0.759800
H551	H55	0.298400	0.880700	0.854300
C1201	C120	0.276700	0.116600	0.782600
O521	O52	0.295000	0.177200	0.795900
O531	O53	0.252000	0.123500	0.748800
C1211	C121	0.250200	0.859900	0.785900
O541	O54	0.267000	0.797800	0.797600
O551	O55	0.213000	0.855000	0.755500
Cu111	Cu11	0.296800	0.262100	0.777700
C1221	C122	0.568100	0.023300	0.966400
C1231	C123	0.636300	0.047500	0.966400
H561	H56	0.544700	0.015000	0.943300
C1241	C124	0.675100	0.060900	0.927900
O561	O56	0.726000	0.106000	0.928500
N121	N12	0.671000	0.008000	0.902900
H571	H57	0.643000	0.973000	0.909000
C1251	C125	0.686700	0.013500	0.858800
C1261	C126	0.692500	0.950000	0.839500
C1271	C127	0.717200	0.949200	0.802600
C1281	C128	0.736100	0.011800	0.784900
C1291	C129	0.730200	0.075300	0.804200
C1301	C130	0.705500	0.076100	0.841200
H581	H58	0.679700	0.907400	0.851500
H591	H59	0.752900	0.011200	0.759800
H601	H60	0.701600	0.119300	0.854300
C1311	C131	0.723300	0.883400	0.782600
O571	O57	0.705000	0.822800	0.795900
O581	O58	0.748000	0.876500	0.748800
C1321	C132	0.749800	0.140100	0.785900
O591	O59	0.733000	0.202200	0.797600
O601	O60	0.787000	0.145000	0.755500
Cu121	Cu12	0.703200	0.737900	0.777700
C1331	C133	0.523300	0.068100	0.533600
C1341	C134	0.547500	0.136300	0.533600
H611	H61	0.515000	0.044700	0.556700
C1351	C135	0.560900	0.175100	0.572100
O611	O61	0.606000	0.226000	0.571500
N131	N13	0.508000	0.171000	0.597100
H621	H62	0.473000	0.143000	0.591000
C1361	C136	0.513500	0.186700	0.641200
C1371	C137	0.450000	0.192500	0.660500
C1381	C138	0.449200	0.217200	0.697400
C1391	C139	0.511800	0.236100	0.715100
C1401	C140	0.575300	0.230200	0.695800
C1411	C141	0.576100	0.205500	0.658800
H631	H63	0.407400	0.179700	0.648500
H641	H64	0.511200	0.252900	0.740200
H651	H65	0.619300	0.201600	0.645700
C1421	C142	0.383400	0.223300	0.717400
O621	O62	0.322800	0.205000	0.704100
O631	O63	0.376500	0.248000	0.751200
C1431	C143	0.640100	0.249800	0.714100
O641	O64	0.702200	0.233000	0.702400
O651	O65	0.645000	0.287000	0.744500
Cu131	Cu13	0.237900	0.203200	0.722300
C1441	C144	0.476700	0.931900	0.533600
C1451	C145	0.452500	0.863700	0.533600
H661	H66	0.485000	0.955300	0.556700
C1461	C146	0.439100	0.824900	0.572100
O661	O66	0.394000	0.774000	0.571500
N141	N14	0.492000	0.829000	0.597100
H671	H67	0.527000	0.857000	0.591000
C1471	C147	0.486500	0.813300	0.641200
C1481	C148	0.550000	0.807500	0.660500
C1491	C149	0.550800	0.782800	0.697400
C1501	C150	0.488200	0.763900	0.715100
C1511	C151	0.424700	0.769800	0.695800
C1521	C152	0.423900	0.794500	0.658800
H681	H68	0.592600	0.820300	0.648500
H691	H69	0.488800	0.747100	0.740200
H701	H70	0.380700	0.798400	0.645700
C1531	C153	0.616600	0.776700	0.717400
O671	O67	0.677200	0.795000	0.704100
O681	O68	0.623500	0.752000	0.751200
C1541	C154	0.359900	0.750200	0.714100
O691	O69	0.297800	0.767000	0.702400
O701	O70	0.355000	0.713000	0.744500
Cu141	Cu14	0.762100	0.796800	0.722300
C1551	C155	0.068100	0.476700	0.533600
C1561	C156	0.136300	0.452500	0.533600
H711	H71	0.044700	0.485000	0.556700
C1571	C157	0.175100	0.439100	0.572100
O711	O71	0.226000	0.394000	0.571500
N151	N15	0.171000	0.492000	0.597100
H721	H72	0.143000	0.527000	0.591000
C1581	C158	0.186700	0.486500	0.641200
C1591	C159	0.192500	0.550000	0.660500
C1601	C160	0.217200	0.550800	0.697400
C1611	C161	0.236100	0.488200	0.715100
C1621	C162	0.230200	0.424700	0.695800
C1631	C163	0.205500	0.423900	0.658800
H731	H73	0.179700	0.592600	0.648500
H741	H74	0.252900	0.488800	0.740200
H751	H75	0.201600	0.380700	0.645700
C1641	C164	0.223300	0.616600	0.717400
O721	O72	0.205000	0.677200	0.704100
O731	O73	0.248000	0.623500	0.751200
C1651	C165	0.249800	0.359900	0.714100
O741	O74	0.233000	0.297800	0.702400
O751	O75	0.287000	0.355000	0.744500
Cu151	Cu15	0.203200	0.762100	0.722300
C1661	C166	0.931900	0.523300	0.533600
C1671	C167	0.863700	0.547500	0.533600
H761	H76	0.955300	0.515000	0.556700
C1681	C168	0.824900	0.560900	0.572100
O761	O76	0.774000	0.606000	0.571500
N161	N16	0.829000	0.508000	0.597100
H771	H77	0.857000	0.473000	0.591000
C1691	C169	0.813300	0.513500	0.641200
C1701	C170	0.807500	0.450000	0.660500
C1711	C171	0.782800	0.449200	0.697400
C1721	C172	0.763900	0.511800	0.715100
C1731	C173	0.769800	0.575300	0.695800
C1741	C174	0.794500	0.576100	0.658800
H781	H78	0.820300	0.407400	0.648500
H791	H79	0.747100	0.511200	0.740200
H801	H80	0.798400	0.619300	0.645700
C1751	C175	0.776700	0.383400	0.717400
O771	O77	0.795000	0.322800	0.704100
O781	O78	0.752000	0.376500	0.751200
C1761	C176	0.750200	0.640100	0.714100
O791	O79	0.767000	0.702200	0.702400
O801	O80	0.713000	0.645000	0.744500
Cu161	Cu16	0.796800	0.237900	0.722300
C1771	C177	0.011200	0.465900	0.000000
C1781	C178	0.059500	0.329600	0.000000
H811	H81	0.076000	0.282600	0.000000
C1791	C179	0.988800	0.534100	0.000000
C1801	C180	0.940500	0.670400	0.000000
H821	H82	0.924000	0.717400	0.000000
C1811	C181	0.534100	0.011200	0.000000
C1821	C182	0.670400	0.059500	0.000000
H831	H83	0.717400	0.076000	0.000000
C1831	C183	0.465900	0.988800	0.000000
C1841	C184	0.329600	0.940500	0.000000
H841	H84	0.282600	0.924000	0.000000
C1851	C185	0.488800	0.965900	0.500000
C1861	C186	0.440500	0.829600	0.500000
H851	H85	0.424000	0.782600	0.500000
C1871	C187	0.511200	0.034100	0.500000
C1881	C188	0.559500	0.170400	0.500000
H861	H86	0.576000	0.217400	0.500000
C1891	C189	0.965900	0.511200	0.500000
C1901	C190	0.829600	0.559500	0.500000
H871	H87	0.782600	0.576000	0.500000
C1911	C191	0.034100	0.488800	0.500000
C1921	C192	0.170400	0.440500	0.500000
H881	H88	0.217400	0.424000	0.500000
