data_FANCIJ_clean_PM
_symmetry_space_group_name_H-M	'P1'
_cell_length_a	9.475500
_cell_length_b	13.072900
_cell_length_c	18.458200
_cell_angle_alpha	107.506000
_cell_angle_beta	96.574000
_cell_angle_gamma	98.231000
_symmetry_Int_Tables_number 1

loop_
_symmetry_equiv_pos_as_xyz
'x,y,z'

loop_
_atom_site_label
_atom_site_type_symbol
_atom_site_fract_x
_atom_site_fract_y
_atom_site_fract_z
Yb11	Yb1	0.765720	0.494060	0.997200
O11	O1	0.564700	0.463200	0.911800
O21	O2	0.326000	0.445300	0.889910
O31	O3	0.131500	0.450900	0.097900
O41	O4	0.889400	0.416800	0.073600
O51	O5	0.196300	0.661100	0.096500
O61	O6	0.956800	0.624200	0.068900
N11	N1	0.443400	0.329100	0.627600
N21	N2	0.998700	0.360400	0.324500
N31	N3	0.046100	0.907000	0.323800
C11	C1	0.446000	0.440800	0.869400
C21	C2	0.446300	0.403700	0.783500
C31	C3	0.320000	0.384400	0.732300
H11	H1	0.234500	0.397000	0.750500
C41	C4	0.320500	0.346400	0.653900
H21	H2	0.235100	0.332800	0.619400
C51	C5	0.568000	0.349100	0.675900
H31	H3	0.652500	0.337700	0.656100
C61	C6	0.573000	0.386300	0.754600
H41	H4	0.660000	0.399500	0.787900
C71	C7	0.450200	0.290100	0.541600
H51	H5	0.497900	0.350400	0.527500
H61	H6	0.507600	0.233100	0.531000
C81	C8	0.301900	0.246700	0.493000
C91	C9	0.225000	0.318800	0.469300
C101	C10	0.087900	0.275800	0.423600
C111	C11	0.997500	0.353900	0.404800
H71	H7	0.898500	0.331000	0.410400
H81	H8	0.033200	0.426200	0.441800
C121	C12	0.877100	0.368800	0.284500
H91	H9	0.791400	0.362800	0.304300
C131	C13	0.876000	0.386000	0.214800
H101	H10	0.790300	0.391100	0.187200
C141	C14	0.004200	0.395700	0.185900
C151	C15	0.008900	0.423700	0.112100
C161	C16	0.130000	0.385700	0.228600
H111	H11	0.217400	0.391900	0.210500
C171	C17	0.123500	0.366500	0.297100
H121	H12	0.206500	0.357700	0.325000
C181	C18	0.029300	0.164400	0.399900
C191	C19	0.107500	0.094200	0.424100
C201	C20	0.034900	0.976400	0.403300
H131	H13	0.077700	0.945600	0.440300
H141	H14	0.933400	0.973500	0.407700
C211	C21	0.174400	0.899200	0.302200
H151	H15	0.256800	0.944100	0.334800
C221	C22	0.189100	0.827600	0.233600
H161	H16	0.279900	0.822100	0.220100
C231	C23	0.064400	0.763000	0.184400
C241	C24	0.073800	0.676500	0.110000
C251	C25	0.932600	0.775300	0.206000
H171	H17	0.847900	0.735400	0.173000
C261	C26	0.926200	0.847000	0.276700
H181	H18	0.836800	0.853800	0.291800
C271	C27	0.244200	0.134600	0.471300
C281	C28	0.330100	0.059100	0.498400
H191	H19	0.333400	0.074200	0.552800
H201	H20	0.426700	0.070900	0.487600
H211	H21	0.284300	0.984500	0.471800
C291	C29	0.883200	0.122500	0.350800
H221	H22	0.848200	0.049600	0.350200
H231	H23	0.889900	0.122200	0.299300
H241	H24	0.817600	0.168900	0.371500
C301	C30	0.287100	0.438900	0.495300
H251	H25	0.325600	0.457300	0.453900
H261	H26	0.362900	0.456400	0.538700
H271	H27	0.212500	0.479700	0.509800
Yb21	Yb2	0.234280	0.505940	0.002800
O71	O7	0.435300	0.536800	0.088200
O81	O8	0.674000	0.554700	0.110090
O91	O9	0.868500	0.549100	0.902100
O101	O10	0.110600	0.583200	0.926400
O111	O11	0.803700	0.338900	0.903500
O121	O12	0.043200	0.375800	0.931100
N41	N4	0.556600	0.670900	0.372400
N51	N5	0.001300	0.639600	0.675500
N61	N6	0.953900	0.093000	0.676200
C311	C31	0.554000	0.559200	0.130600
C321	C32	0.553700	0.596300	0.216500
C331	C33	0.680000	0.615600	0.267700
H281	H28	0.765500	0.603000	0.249500
C341	C34	0.679500	0.653600	0.346100
H291	H29	0.764900	0.667200	0.380600
C351	C35	0.432000	0.650900	0.324100
H301	H30	0.347500	0.662300	0.343900
C361	C36	0.427000	0.613700	0.245400
H311	H31	0.340000	0.600500	0.212100
C371	C37	0.549800	0.709900	0.458400
H321	H32	0.502100	0.649600	0.472500
H331	H33	0.492400	0.766900	0.469000
C381	C38	0.698100	0.753300	0.507000
C391	C39	0.775000	0.681200	0.530700
C401	C40	0.912100	0.724200	0.576400
C411	C41	0.002500	0.646100	0.595200
H341	H34	0.101500	0.669000	0.589600
H351	H35	0.966800	0.573800	0.558200
C421	C42	0.122900	0.631200	0.715500
H361	H36	0.208600	0.637200	0.695700
C431	C43	0.124000	0.614000	0.785200
H371	H37	0.209700	0.608900	0.812800
C441	C44	0.995800	0.604300	0.814100
C451	C45	0.991100	0.576300	0.887900
C461	C46	0.870000	0.614300	0.771400
H381	H38	0.782600	0.608100	0.789500
C471	C47	0.876500	0.633500	0.702900
H391	H39	0.793500	0.642300	0.675000
C481	C48	0.970700	0.835600	0.600100
C491	C49	0.892500	0.905800	0.575900
C501	C50	0.965100	0.023600	0.596700
H401	H40	0.922300	0.054400	0.559700
H411	H41	0.066600	0.026500	0.592300
C511	C51	0.825600	0.100800	0.697800
H421	H42	0.743200	0.055900	0.665200
C521	C52	0.810900	0.172400	0.766400
H431	H43	0.720100	0.177900	0.779900
C531	C53	0.935600	0.237000	0.815600
C541	C54	0.926200	0.323500	0.890000
C551	C55	0.067400	0.224700	0.794000
H441	H44	0.152100	0.264600	0.827000
C561	C56	0.073800	0.153000	0.723300
H451	H45	0.163200	0.146200	0.708200
C571	C57	0.755800	0.865400	0.528700
C581	C58	0.669900	0.940900	0.501600
H461	H46	0.666600	0.925800	0.447200
H471	H47	0.573300	0.929100	0.512400
H481	H48	0.715700	0.015500	0.528200
C591	C59	0.116800	0.877500	0.649200
H491	H49	0.151800	0.950400	0.649800
H501	H50	0.110100	0.877800	0.700700
H511	H51	0.182400	0.831100	0.628500
C601	C60	0.712900	0.561100	0.504700
H521	H52	0.674400	0.542700	0.546100
H531	H53	0.637100	0.543600	0.461300
H541	H54	0.787500	0.520300	0.490200
