data_FANCOP_clean_PM
_symmetry_space_group_name_H-M	'P1'
_cell_length_a	9.528500
_cell_length_b	12.760000
_cell_length_c	18.896000
_cell_angle_alpha	106.720000
_cell_angle_beta	98.910000
_cell_angle_gamma	98.590000
_symmetry_Int_Tables_number 1

loop_
_symmetry_equiv_pos_as_xyz
'x,y,z'

loop_
_atom_site_label
_atom_site_type_symbol
_atom_site_fract_x
_atom_site_fract_y
_atom_site_fract_z
Pr11	Pr1	0.767700	0.986110	0.497060
O11	O1	0.545300	0.961400	0.411390
O21	O2	0.312300	0.959200	0.382270
O31	O3	0.143700	0.942600	0.600990
O41	O4	0.904000	0.894700	0.570770
O51	O5	0.988500	0.116500	0.571770
O61	O6	0.223300	0.181900	0.606300
N11	N1	0.432500	0.825500	0.132000
N21	N2	0.009600	0.863400	0.825000
N31	N3	0.042500	0.403800	0.819800
C11	C1	0.431600	0.945600	0.364800
C21	C2	0.557500	0.847600	0.182900
H11	H1	0.642500	0.835600	0.166400
C31	C3	0.560500	0.887400	0.257900
H21	H2	0.647300	0.902700	0.292700
C41	C4	0.433700	0.905100	0.282600
C51	C5	0.308400	0.884600	0.229700
H31	H3	0.222500	0.897500	0.244900
C61	C6	0.310500	0.845000	0.154300
H41	H4	0.225700	0.831700	0.118400
C71	C7	0.024600	0.911000	0.613200
C81	C8	0.890700	0.875400	0.784200
H51	H5	0.806200	0.876400	0.803000
C91	C9	0.891800	0.886500	0.714200
H61	H6	0.806800	0.890600	0.684400
C101	C10	0.019400	0.891700	0.688100
C111	C11	0.141800	0.879900	0.731900
H71	H7	0.228200	0.881200	0.714800
C121	C12	0.136000	0.866200	0.800800
H81	H8	0.218700	0.859000	0.830800
C131	C13	0.095800	0.183500	0.615000
C141	C14	0.170200	0.402100	0.805500
H91	H9	0.250200	0.447900	0.841600
C151	C15	0.192000	0.334700	0.738500
H101	H10	0.285100	0.336300	0.729100
C161	C16	0.075100	0.265500	0.685800
C171	C17	0.939600	0.272500	0.700800
H111	H11	0.857700	0.229800	0.664800
C181	C18	0.924100	0.340300	0.766900
H121	H12	0.831700	0.343700	0.776400
C191	C19	0.294300	0.741100	0.997900
C201	C20	0.231200	0.626200	0.973500
C211	C21	0.095600	0.588000	0.922400
C221	C22	0.025800	0.663200	0.895800
C231	C23	0.090000	0.776400	0.923600
C241	C24	0.224300	0.816300	0.973000
C251	C25	0.306700	0.548800	0.002300
H131	H13	0.372200	0.522900	0.970500
H141	H14	0.236600	0.486200	0.001900
H151	H15	0.360200	0.587100	0.052900
C261	C26	0.022700	0.468700	0.896400
H161	H16	0.919700	0.463900	0.895100
H171	H17	0.060100	0.434200	0.932900
C271	C27	0.885100	0.622000	0.840300
H181	H18	0.898700	0.572600	0.794000
H191	H19	0.850000	0.684300	0.830600
H201	H20	0.815800	0.582600	0.860400
C281	C28	0.007800	0.860200	0.903500
H211	H21	0.908000	0.841400	0.908200
H221	H22	0.050500	0.934000	0.939200
C291	C29	0.296000	0.939500	0.001300
H231	H23	0.323600	0.962100	0.960200
H241	H24	0.380500	0.952900	0.040200
H251	H25	0.227700	0.981800	0.021300
C301	C30	0.438400	0.784300	0.048900
H261	H26	0.489500	0.845400	0.035700
H271	H27	0.493800	0.725500	0.040900
Pr21	Pr2	0.232300	0.013890	0.502940
O71	O7	0.454700	0.038600	0.588610
O81	O8	0.687700	0.040800	0.617730
O91	O9	0.856300	0.057400	0.399010
O101	O10	0.096000	0.105300	0.429230
O111	O11	0.011500	0.883500	0.428230
O121	O12	0.776700	0.818100	0.393700
N41	N4	0.567500	0.174500	0.868000
N51	N5	0.990400	0.136600	0.175000
N61	N6	0.957500	0.596200	0.180200
C311	C31	0.568400	0.054400	0.635200
C321	C32	0.442500	0.152400	0.817100
H281	H28	0.357500	0.164400	0.833600
C331	C33	0.439500	0.112600	0.742100
H291	H29	0.352700	0.097300	0.707300
C341	C34	0.566300	0.094900	0.717400
C351	C35	0.691600	0.115400	0.770300
H301	H30	0.777500	0.102500	0.755100
C361	C36	0.689500	0.155000	0.845700
H311	H31	0.774300	0.168300	0.881600
C371	C37	0.975400	0.089000	0.386800
C381	C38	0.109300	0.124600	0.215800
H321	H32	0.193800	0.123600	0.197000
C391	C39	0.108200	0.113500	0.285800
H331	H33	0.193200	0.109400	0.315600
C401	C40	0.980600	0.108300	0.311900
C411	C41	0.858200	0.120100	0.268100
H341	H34	0.771800	0.118800	0.285200
C421	C42	0.864000	0.133800	0.199200
H351	H35	0.781300	0.141000	0.169200
C431	C43	0.904200	0.816500	0.385000
C441	C44	0.829800	0.597900	0.194500
H361	H36	0.749800	0.552100	0.158400
C451	C45	0.808000	0.665300	0.261500
H371	H37	0.714900	0.663700	0.270900
C461	C46	0.924900	0.734500	0.314200
C471	C47	0.060400	0.727500	0.299200
H381	H38	0.142300	0.770200	0.335200
C481	C48	0.075900	0.659700	0.233100
H391	H39	0.168300	0.656300	0.223600
C491	C49	0.705700	0.258900	0.002100
C501	C50	0.768800	0.373800	0.026500
C511	C51	0.904400	0.412000	0.077600
C521	C52	0.974200	0.336800	0.104200
C531	C53	0.910000	0.223600	0.076400
C541	C54	0.775700	0.183700	0.027000
C551	C55	0.693300	0.451200	0.997700
H401	H40	0.627800	0.477100	0.029500
H411	H41	0.763400	0.513800	0.998100
H421	H42	0.639800	0.412900	0.947100
C561	C56	0.977300	0.531300	0.103600
H431	H43	0.080300	0.536100	0.104900
H441	H44	0.939900	0.565800	0.067100
C571	C57	0.114900	0.378000	0.159700
H451	H45	0.101300	0.427400	0.206000
H461	H46	0.150000	0.315700	0.169400
H471	H47	0.184200	0.417400	0.139600
C581	C58	0.992200	0.139800	0.096500
H481	H48	0.092000	0.158600	0.091800
H491	H49	0.949500	0.066000	0.060800
C591	C59	0.704000	0.060500	0.998700
H501	H50	0.676400	0.037900	0.039800
H511	H51	0.619500	0.047100	0.959800
H521	H52	0.772300	0.018200	0.978700
C601	C60	0.561600	0.215700	0.951100
H531	H53	0.510500	0.154600	0.964300
H541	H54	0.506200	0.274500	0.959100
