data_FANQER_clean_PM
_symmetry_space_group_name_H-M	'P1'
_cell_length_a	7.247000
_cell_length_b	14.983000
_cell_length_c	22.489000
_cell_angle_alpha	90.000000
_cell_angle_beta	90.905000
_cell_angle_gamma	90.000000
_symmetry_Int_Tables_number 1

loop_
_symmetry_equiv_pos_as_xyz
'x,y,z'

loop_
_atom_site_label
_atom_site_type_symbol
_atom_site_fract_x
_atom_site_fract_y
_atom_site_fract_z
Mn11	Mn1	0.753350	0.526760	0.766770
Mn21	Mn2	0.746650	0.026760	0.733230
Mn31	Mn3	0.246650	0.473240	0.233230
Mn41	Mn4	0.253350	0.973240	0.266770
Mn51	Mn5	0.500000	0.500000	0.500000
Mn61	Mn6	0.000000	0.000000	0.000000
H11	H1	0.678600	0.489000	0.629700
H21	H2	0.623100	0.702200	0.529900
H31	H3	0.709700	0.791000	0.610300
H41	H4	0.758300	0.722700	0.703500
H51	H5	0.821400	0.989000	0.870300
H61	H6	0.876900	0.202200	0.970100
H71	H7	0.790300	0.291000	0.889700
H81	H8	0.741700	0.222700	0.796500
H91	H9	0.321400	0.511000	0.370300
H101	H10	0.376900	0.297800	0.470100
H111	H11	0.290300	0.209000	0.389700
H121	H12	0.241700	0.277300	0.296500
H131	H13	0.178600	0.011000	0.129700
H141	H14	0.123100	0.797800	0.029900
H151	H15	0.209700	0.709000	0.110300
H161	H16	0.258300	0.777300	0.203500
W11	W1	0.237780	0.286230	0.678200
W21	W2	0.262220	0.786230	0.821800
W31	W3	0.762220	0.713770	0.321800
W41	W4	0.737780	0.213770	0.178200
C11	C1	0.457200	0.369400	0.713100
C21	C2	0.457700	0.191300	0.693400
C31	C3	0.074600	0.169000	0.696500
C41	C4	0.086100	0.397200	0.714400
C51	C5	0.316800	0.379200	0.609500
C61	C6	0.271200	0.209500	0.597400
C71	C7	0.983900	0.302500	0.627400
C81	C8	0.242000	0.265900	0.773500
C91	C9	0.679900	0.552200	0.626100
C101	C10	0.650400	0.675400	0.567300
C111	C11	0.698200	0.728200	0.614700
C121	C12	0.729800	0.687200	0.669600
C131	C13	0.042800	0.869400	0.786900
C141	C14	0.042300	0.691300	0.806600
C151	C15	0.425400	0.669000	0.803500
C161	C16	0.413900	0.897200	0.785600
C171	C17	0.183200	0.879200	0.890500
C181	C18	0.228800	0.709500	0.902600
C191	C19	0.516100	0.802500	0.872600
C201	C20	0.258000	0.765900	0.726500
C211	C21	0.820100	0.052200	0.873900
C221	C22	0.849600	0.175400	0.932700
C231	C23	0.801800	0.228200	0.885300
C241	C24	0.770200	0.187200	0.830400
C251	C25	0.542800	0.630600	0.286900
C261	C26	0.542300	0.808700	0.306600
C271	C27	0.925400	0.831000	0.303500
C281	C28	0.913900	0.602800	0.285600
C291	C29	0.683200	0.620800	0.390500
C301	C30	0.728800	0.790500	0.402600
C311	C31	0.016100	0.697500	0.372600
C321	C32	0.758000	0.734100	0.226500
C331	C33	0.320100	0.447800	0.373900
C341	C34	0.349600	0.324600	0.432700
C351	C35	0.301800	0.271800	0.385300
C361	C36	0.270200	0.312800	0.330400
C371	C37	0.957200	0.130600	0.213100
C381	C38	0.957700	0.308700	0.193400
C391	C39	0.574600	0.331000	0.196500
C401	C40	0.586100	0.102800	0.214400
C411	C41	0.816800	0.120800	0.109500
C421	C42	0.771200	0.290500	0.097400
C431	C43	0.483900	0.197500	0.127400
C441	C44	0.742000	0.234100	0.273500
C451	C45	0.179900	0.947800	0.126100
C461	C46	0.150400	0.824600	0.067300
C471	C47	0.198200	0.771800	0.114700
C481	C48	0.229800	0.812800	0.169600
N11	N1	0.568600	0.417600	0.732100
N21	N2	0.933100	0.639400	0.795800
N31	N3	0.513200	0.606900	0.793600
N41	N4	0.997200	0.454300	0.733900
N51	N5	0.362400	0.425700	0.572500
N61	N6	0.287200	0.169800	0.554700
N71	N7	0.850400	0.313300	0.601500
N81	N8	0.247400	0.252200	0.823900
N91	N9	0.720900	0.598600	0.674900
N101	N10	0.641300	0.586100	0.572900
N111	N11	0.931400	0.917600	0.767900
N121	N12	0.566900	0.139400	0.704200
N131	N13	0.986800	0.106900	0.706400
N141	N14	0.502800	0.954300	0.766100
N151	N15	0.137600	0.925700	0.927500
N161	N16	0.212800	0.669800	0.945300
N171	N17	0.649600	0.813300	0.898500
N181	N18	0.252600	0.752200	0.676100
N191	N19	0.779100	0.098600	0.825100
N201	N20	0.858700	0.086100	0.927100
N211	N21	0.431400	0.582400	0.267900
N221	N22	0.066900	0.360600	0.204200
N231	N23	0.486800	0.393100	0.206400
N241	N24	0.002800	0.545700	0.266100
N251	N25	0.637600	0.574300	0.427500
N261	N26	0.712800	0.830200	0.445300
N271	N27	0.149600	0.686700	0.398500
N281	N28	0.752600	0.747800	0.176100
N291	N29	0.279100	0.401400	0.325100
N301	N30	0.358700	0.413900	0.427100
N311	N31	0.068600	0.082400	0.232100
N321	N32	0.433100	0.860600	0.295800
N331	N33	0.013200	0.893100	0.293600
N341	N34	0.497200	0.045700	0.233900
N351	N35	0.862400	0.074300	0.072500
N361	N36	0.787200	0.330200	0.054700
N371	N37	0.350400	0.186700	0.101500
N381	N38	0.747400	0.247800	0.323900
N391	N39	0.220900	0.901400	0.174900
N401	N40	0.141300	0.913900	0.072900
