data_FAQGIP_clean_PM
_symmetry_space_group_name_H-M	'P1'
_cell_length_a	16.345500
_cell_length_b	16.345500
_cell_length_c	21.860900
_cell_angle_alpha	68.046600
_cell_angle_beta	68.046600
_cell_angle_gamma	60.000000
_symmetry_Int_Tables_number 1

loop_
_symmetry_equiv_pos_as_xyz
'x,y,z'

loop_
_atom_site_label
_atom_site_type_symbol
_atom_site_fract_x
_atom_site_fract_y
_atom_site_fract_z
Mn11	Mn1	0.045300	0.309240	0.782110
Mn21	Mn2	0.309240	0.863350	0.782110
Mn31	Mn3	0.863350	0.045300	0.782110
Mn41	Mn4	0.454700	0.636650	0.717890
Mn51	Mn5	0.190760	0.454700	0.717890
Mn61	Mn6	0.636650	0.190760	0.717890
Mn71	Mn7	0.954700	0.690760	0.217890
Mn81	Mn8	0.690760	0.136650	0.217890
Mn91	Mn9	0.136650	0.954700	0.217890
Mn101	Mn10	0.545300	0.363350	0.282110
Mn111	Mn11	0.809240	0.545300	0.282110
Mn121	Mn12	0.363350	0.809240	0.282110
H11	H1	0.306100	0.305800	0.914500
H21	H2	0.320100	0.215300	0.030600
H31	H3	0.163200	0.097800	0.744700
H41	H4	0.193000	0.085000	0.809200
H51	H5	0.067700	0.127700	0.910900
H61	H6	0.957800	0.169900	0.911200
H71	H7	0.305800	0.473600	0.914500
H81	H8	0.215300	0.434000	0.030600
H91	H9	0.097800	0.994300	0.744700
H101	H10	0.085000	0.912800	0.809200
H111	H11	0.127700	0.893700	0.910900
H121	H12	0.169900	0.961100	0.911200
H131	H13	0.473600	0.306100	0.914500
H141	H14	0.434000	0.320100	0.030600
H151	H15	0.994300	0.163200	0.744700
H161	H16	0.912800	0.193000	0.809200
H171	H17	0.893700	0.067700	0.910900
H181	H18	0.961100	0.957800	0.911200
H191	H19	0.193900	0.026400	0.585500
H201	H20	0.179900	0.066000	0.469400
H211	H21	0.336800	0.505700	0.755300
H221	H22	0.307000	0.587200	0.690800
H231	H23	0.432300	0.606300	0.589100
H241	H24	0.542200	0.538900	0.588800
H251	H25	0.194200	0.193900	0.585500
H261	H26	0.284700	0.179900	0.469400
H271	H27	0.402200	0.336800	0.755300
H281	H28	0.415000	0.307000	0.690800
H291	H29	0.372300	0.432300	0.589100
H301	H30	0.330100	0.542200	0.588800
H311	H31	0.026400	0.194200	0.585500
H321	H32	0.066000	0.284700	0.469400
H331	H33	0.505700	0.402200	0.755300
H341	H34	0.587200	0.415000	0.690800
H351	H35	0.606300	0.372300	0.589100
H361	H36	0.538900	0.330100	0.588800
H371	H37	0.693900	0.694200	0.085500
H381	H38	0.679900	0.784700	0.969400
H391	H39	0.836800	0.902200	0.255300
H401	H40	0.807000	0.915000	0.190800
H411	H41	0.932300	0.872300	0.089100
H421	H42	0.042200	0.830100	0.088800
H431	H43	0.694200	0.526400	0.085500
H441	H44	0.784700	0.566000	0.969400
H451	H45	0.902200	0.005700	0.255300
H461	H46	0.915000	0.087200	0.190800
H471	H47	0.872300	0.106300	0.089100
H481	H48	0.830100	0.038900	0.088800
H491	H49	0.526400	0.693900	0.085500
H501	H50	0.566000	0.679900	0.969400
H511	H51	0.005700	0.836800	0.255300
H521	H52	0.087200	0.807000	0.190800
H531	H53	0.106300	0.932300	0.089100
H541	H54	0.038900	0.042200	0.088800
H551	H55	0.806100	0.973600	0.414500
H561	H56	0.820100	0.934000	0.530600
H571	H57	0.663200	0.494300	0.244700
H581	H58	0.693000	0.412800	0.309200
H591	H59	0.567700	0.393700	0.410900
H601	H60	0.457800	0.461100	0.411200
H611	H61	0.805800	0.806100	0.414500
H621	H62	0.715300	0.820100	0.530600
H631	H63	0.597800	0.663200	0.244700
H641	H64	0.585000	0.693000	0.309200
H651	H65	0.627700	0.567700	0.410900
H661	H66	0.669900	0.457800	0.411200
H671	H67	0.973600	0.805800	0.414500
H681	H68	0.934000	0.715300	0.530600
H691	H69	0.494300	0.597800	0.244700
H701	H70	0.412800	0.585000	0.309200
H711	H71	0.393700	0.627700	0.410900
H721	H72	0.461100	0.669900	0.411200
C11	C1	0.195920	0.288470	0.850600
C21	C2	0.219010	0.248160	0.918880
C31	C3	0.275700	0.264450	0.940960
C41	C4	0.283790	0.212260	0.008130
C51	C5	0.232390	0.157320	0.035760
C61	C6	0.223940	0.093160	0.105780
C71	C7	0.146460	0.081440	0.793960
C81	C8	0.022690	0.124660	0.893770
C91	C9	0.288470	0.665010	0.850600
C101	C10	0.248160	0.613950	0.918880
C111	C11	0.264450	0.518890	0.940960
C121	C12	0.212260	0.495820	0.008130
C131	C13	0.157320	0.574530	0.035760
C141	C14	0.093160	0.577120	0.105780
C151	C15	0.081440	0.978140	0.793960
C161	C16	0.124660	0.958880	0.893770
C171	C17	0.665010	0.195920	0.850600
C181	C18	0.613950	0.219010	0.918880
C191	C19	0.518890	0.275700	0.940960
C201	C20	0.495820	0.283790	0.008130
C211	C21	0.574530	0.232390	0.035760
C221	C22	0.577120	0.223940	0.105780
C231	C23	0.978140	0.146460	0.793960
C241	C24	0.958880	0.022690	0.893770
C251	C25	0.304080	0.834990	0.649400
C261	C26	0.280990	0.886050	0.581120
C271	C27	0.224300	0.981110	0.559040
C281	C28	0.216210	0.004180	0.491870
C291	C29	0.267610	0.925470	0.464240
C301	C30	0.276060	0.922880	0.394220
C311	C31	0.353540	0.521860	0.706040
C321	C32	0.477310	0.541120	0.606230
C331	C33	0.211530	0.304080	0.649400
C341	C34	0.251840	0.280990	0.581120
C351	C35	0.235550	0.224300	0.559040
C361	C36	0.287740	0.216210	0.491870
C371	C37	0.342680	0.267610	0.464240
C381	C38	0.406840	0.276060	0.394220
C391	C39	0.418560	0.353540	0.706040
C401	C40	0.375340	0.477310	0.606230
C411	C41	0.834990	0.211530	0.649400
C421	C42	0.886050	0.251840	0.581120
C431	C43	0.981110	0.235550	0.559040
C441	C44	0.004180	0.287740	0.491870
C451	C45	0.925470	0.342680	0.464240
C461	C46	0.922880	0.406840	0.394220
C471	C47	0.521860	0.418560	0.706040
C481	C48	0.541120	0.375340	0.606230
C491	C49	0.804080	0.711530	0.149400
C501	C50	0.780990	0.751840	0.081120
C511	C51	0.724300	0.735550	0.059040
C521	C52	0.716210	0.787740	0.991870
C531	C53	0.767610	0.842680	0.964240
C541	C54	0.776060	0.906840	0.894220
C551	C55	0.853540	0.918560	0.206040
C561	C56	0.977310	0.875340	0.106230
C571	C57	0.711530	0.334990	0.149400
C581	C58	0.751840	0.386050	0.081120
C591	C59	0.735550	0.481110	0.059040
C601	C60	0.787740	0.504180	0.991870
C611	C61	0.842680	0.425470	0.964240
C621	C62	0.906840	0.422880	0.894220
C631	C63	0.918560	0.021860	0.206040
C641	C64	0.875340	0.041120	0.106230
C651	C65	0.334990	0.804080	0.149400
C661	C66	0.386050	0.780990	0.081120
C671	C67	0.481110	0.724300	0.059040
C681	C68	0.504180	0.716210	0.991870
C691	C69	0.425470	0.767610	0.964240
C701	C70	0.422880	0.776060	0.894220
C711	C71	0.021860	0.853540	0.206040
C721	C72	0.041120	0.977310	0.106230
C731	C73	0.695920	0.165010	0.350600
C741	C74	0.719010	0.113950	0.418880
C751	C75	0.775700	0.018890	0.440960
C761	C76	0.783790	0.995820	0.508130
C771	C77	0.732390	0.074530	0.535760
C781	C78	0.723940	0.077120	0.605780
C791	C79	0.646460	0.478140	0.293960
C801	C80	0.522690	0.458880	0.393770
C811	C81	0.788470	0.695920	0.350600
C821	C82	0.748160	0.719010	0.418880
C831	C83	0.764450	0.775700	0.440960
C841	C84	0.712260	0.783790	0.508130
C851	C85	0.657320	0.732390	0.535760
C861	C86	0.593160	0.723940	0.605780
C871	C87	0.581440	0.646460	0.293960
C881	C88	0.624660	0.522690	0.393770
C891	C89	0.165010	0.788470	0.350600
C901	C90	0.113950	0.748160	0.418880
C911	C91	0.018890	0.764450	0.440960
C921	C92	0.995820	0.712260	0.508130
C931	C93	0.074530	0.657320	0.535760
C941	C94	0.077120	0.593160	0.605780
C951	C95	0.478140	0.581440	0.293960
C961	C96	0.458880	0.624660	0.393770
S11	S1	0.172650	0.169820	0.980890
S21	S2	0.169820	0.676640	0.980890
S31	S3	0.676640	0.172650	0.980890
S41	S4	0.327350	0.823360	0.519110
S51	S5	0.330180	0.327350	0.519110
S61	S6	0.823360	0.330180	0.519110
S71	S7	0.827350	0.830180	0.019110
S81	S8	0.830180	0.323360	0.019110
S91	S9	0.323360	0.827350	0.019110
S101	S10	0.672650	0.176640	0.480890
S111	S11	0.669820	0.672650	0.480890
S121	S12	0.176640	0.669820	0.480890
N11	N1	0.046950	0.154400	0.818470
N21	N2	0.154400	0.980180	0.818470
N31	N3	0.980180	0.046950	0.818470
N41	N4	0.453050	0.519820	0.681530
N51	N5	0.345600	0.453050	0.681530
N61	N6	0.519820	0.345600	0.681530
N71	N7	0.953050	0.845600	0.181530
N81	N8	0.845600	0.019820	0.181530
N91	N9	0.019820	0.953050	0.181530
N101	N10	0.546950	0.480180	0.318470
N111	N11	0.654400	0.546950	0.318470
N121	N12	0.480180	0.654400	0.318470
N131	N13	0.027130	0.027130	0.918610
N141	N14	0.472870	0.472870	0.581390
N151	N15	0.972870	0.972870	0.081390
N161	N16	0.527130	0.527130	0.418610
O11	O1	0.224250	0.352320	0.811270
O21	O2	0.149820	0.254950	0.839890
O31	O3	0.283500	0.074300	0.136830
O41	O4	0.157430	0.064980	0.127440
O51	O5	0.352320	0.612160	0.811270
O61	O6	0.254950	0.755340	0.839890
O71	O7	0.074300	0.505370	0.136830
O81	O8	0.064980	0.650150	0.127440
O91	O9	0.612160	0.224250	0.811270
O101	O10	0.755340	0.149820	0.839890
O111	O11	0.505370	0.283500	0.136830
O121	O12	0.650150	0.157430	0.127440
O131	O13	0.275750	0.887840	0.688730
O141	O14	0.350180	0.744660	0.660110
O151	O15	0.216500	0.994630	0.363170
O161	O16	0.342570	0.849850	0.372560
O171	O17	0.147680	0.275750	0.688730
O181	O18	0.245050	0.350180	0.660110
O191	O19	0.425700	0.216500	0.363170
O201	O20	0.435020	0.342570	0.372560
O211	O21	0.887840	0.147680	0.688730
O221	O22	0.744660	0.245050	0.660110
O231	O23	0.994630	0.425700	0.363170
O241	O24	0.849850	0.435020	0.372560
O251	O25	0.775750	0.647680	0.188730
O261	O26	0.850180	0.745050	0.160110
O271	O27	0.716500	0.925700	0.863170
O281	O28	0.842570	0.935020	0.872560
O291	O29	0.647680	0.387840	0.188730
O301	O30	0.745050	0.244660	0.160110
O311	O31	0.925700	0.494630	0.863170
O321	O32	0.935020	0.349850	0.872560
O331	O33	0.387840	0.775750	0.188730
O341	O34	0.244660	0.850180	0.160110
O351	O35	0.494630	0.716500	0.863170
O361	O36	0.349850	0.842570	0.872560
O371	O37	0.724250	0.112160	0.311270
O381	O38	0.649820	0.255340	0.339890
O391	O39	0.783500	0.005370	0.636830
O401	O40	0.657430	0.150150	0.627440
O411	O41	0.852320	0.724250	0.311270
O421	O42	0.754950	0.649820	0.339890
O431	O43	0.574300	0.783500	0.636830
O441	O44	0.564980	0.657430	0.627440
O451	O45	0.112160	0.852320	0.311270
O461	O46	0.255340	0.754950	0.339890
O471	O47	0.005370	0.574300	0.636830
O481	O48	0.150150	0.564980	0.627440
O491	O49	0.042570	0.457430	0.750000
O501	O50	0.457430	0.750000	0.750000
O511	O51	0.750000	0.042570	0.750000
O521	O52	0.957430	0.542570	0.250000
O531	O53	0.542570	0.250000	0.250000
O541	O54	0.250000	0.957430	0.250000
