data_FAQYUR_clean_PM
_symmetry_space_group_name_H-M	'P1'
_cell_length_a	8.117300
_cell_length_b	8.608800
_cell_length_c	19.880300
_cell_angle_alpha	88.227400
_cell_angle_beta	86.238100
_cell_angle_gamma	61.871100
_symmetry_Int_Tables_number 1

loop_
_symmetry_equiv_pos_as_xyz
'x,y,z'

loop_
_atom_site_label
_atom_site_type_symbol
_atom_site_fract_x
_atom_site_fract_y
_atom_site_fract_z
Nd11	Nd1	0.283300	0.924600	0.511900
Nd21	Nd2	0.792100	0.924600	0.988100
Nd31	Nd3	0.716700	0.075400	0.488100
Nd41	Nd4	0.207900	0.075400	0.011900
H11	H1	0.262800	0.245600	0.302300
H21	H2	0.403800	0.287600	0.338200
H31	H3	0.098900	0.543200	0.325400
H41	H4	0.014600	0.456200	0.377900
H51	H5	0.202700	0.470600	0.460400
H61	H6	0.285300	0.558800	0.408000
H71	H7	0.390300	0.553800	0.707700
H81	H8	0.225200	0.534800	0.679400
H91	H9	0.181500	0.807200	0.766500
H101	H10	0.491600	0.245600	0.197700
H111	H11	0.308600	0.287600	0.161800
H121	H12	0.357900	0.543200	0.174600
H131	H13	0.529200	0.456200	0.122100
H141	H14	0.326700	0.470600	0.039600
H151	H15	0.155900	0.558800	0.092000
H161	H16	0.055900	0.553800	0.792300
H171	H17	0.240000	0.534800	0.820600
H181	H18	0.011300	0.807200	0.733500
H191	H19	0.737200	0.754400	0.697700
H201	H20	0.596200	0.712400	0.661800
H211	H21	0.901100	0.456800	0.674600
H221	H22	0.985400	0.543800	0.622100
H231	H23	0.797300	0.529400	0.539600
H241	H24	0.714700	0.441200	0.592000
H251	H25	0.609700	0.446200	0.292300
H261	H26	0.774800	0.465200	0.320600
H271	H27	0.818500	0.192800	0.233500
H281	H28	0.508400	0.754400	0.802300
H291	H29	0.691400	0.712400	0.838200
H301	H30	0.642100	0.456800	0.825400
H311	H31	0.470800	0.543800	0.877900
H321	H32	0.673300	0.529400	0.960400
H331	H33	0.844100	0.441200	0.908000
H341	H34	0.944100	0.446200	0.207700
H351	H35	0.760000	0.465200	0.179400
H361	H36	0.988700	0.192800	0.266500
C11	C1	0.305600	0.148400	0.398500
C21	C2	0.287300	0.282000	0.344600
C31	C3	0.126200	0.466400	0.364400
C41	C4	0.173800	0.548800	0.421800
C51	C5	0.979800	0.271800	0.556800
C61	C6	0.271300	0.724200	0.629900
C71	C7	0.264900	0.619400	0.692000
C81	C8	0.546000	0.148400	0.101500
C91	C9	0.430700	0.282000	0.155400
C101	C10	0.407400	0.466400	0.135600
C111	C11	0.277400	0.548800	0.078200
C121	C12	0.748400	0.271800	0.943200
C131	C13	0.004500	0.724200	0.870100
C141	C14	0.115700	0.619400	0.808000
C151	C15	0.694400	0.851600	0.601500
C161	C16	0.712700	0.718000	0.655400
C171	C17	0.873800	0.533600	0.635600
C181	C18	0.826200	0.451200	0.578200
C191	C19	0.020200	0.728200	0.443200
C201	C20	0.728700	0.275800	0.370100
C211	C21	0.735100	0.380600	0.308000
C221	C22	0.454000	0.851600	0.898500
C231	C23	0.569300	0.718000	0.844600
C241	C24	0.592600	0.533600	0.864400
C251	C25	0.722600	0.451200	0.921800
C261	C26	0.251600	0.728200	0.056800
C271	C27	0.995500	0.275800	0.129900
C281	C28	0.884300	0.380600	0.192000
C291	C29	0.134000	0.732000	0.750000
C301	C30	0.866000	0.268000	0.250000
O11	O1	0.441000	0.089600	0.438400
O21	O2	0.182300	0.099200	0.405700
O31	O3	0.935300	0.159400	0.534400
O41	O4	0.150300	0.231600	0.559900
O51	O5	0.208500	0.889800	0.633500
O61	O6	0.345700	0.644400	0.574200
O71	O7	0.469400	0.089600	0.061600
O81	O8	0.718500	0.099200	0.094300
O91	O9	0.905300	0.159400	0.965600
O101	O10	0.618100	0.231600	0.940100
O111	O11	0.901700	0.889800	0.866500
O121	O12	0.009900	0.644400	0.925800
O131	O13	0.559000	0.910400	0.561600
O141	O14	0.817700	0.900800	0.594300
O151	O15	0.064700	0.840600	0.465600
O161	O16	0.849700	0.768400	0.440100
O171	O17	0.791500	0.110200	0.366500
O181	O18	0.654300	0.355600	0.425800
O191	O19	0.530600	0.910400	0.938400
O201	O20	0.281500	0.900800	0.905700
O211	O21	0.094700	0.840600	0.034400
O221	O22	0.381900	0.768400	0.059900
O231	O23	0.098300	0.110200	0.133500
O241	O24	0.990100	0.355600	0.074200
