data_FARHIR_ion_b_PM
_symmetry_space_group_name_H-M	'P1'
_cell_length_a	13.510700
_cell_length_b	23.380000
_cell_length_c	5.872700
_cell_angle_alpha	90.000000
_cell_angle_beta	90.000000
_cell_angle_gamma	90.000000
_symmetry_Int_Tables_number 1

loop_
_symmetry_equiv_pos_as_xyz
'x,y,z'

loop_
_atom_site_label
_atom_site_type_symbol
_atom_site_fract_x
_atom_site_fract_y
_atom_site_fract_z
O11	O1	0.628000	0.679100	0.409000
O21	O2	0.618900	0.659200	0.774800
C41	C4	0.593500	0.652600	0.576600
C51	C5	0.510600	0.611100	0.527800
C61	C6	0.478100	0.573400	0.691600
H71	H7	0.509600	0.572100	0.832300
C81	C8	0.398600	0.537200	0.648800
H91	H9	0.376500	0.512300	0.761000
C101	C10	0.353500	0.538500	0.442000
C111	C11	0.384900	0.575600	0.269100
H121	H12	0.353000	0.576500	0.128800
C131	C13	0.465000	0.610800	0.313800
H141	H14	0.488900	0.634700	0.199800
O151	O15	0.872000	0.820900	0.409000
O161	O16	0.881100	0.840800	0.774800
C181	C18	0.906500	0.847400	0.576600
C191	C19	0.989400	0.888900	0.527800
C201	C20	0.021900	0.926600	0.691600
H211	H21	0.990400	0.927900	0.832300
C221	C22	0.101400	0.962800	0.648800
H231	H23	0.123500	0.987700	0.761000
C241	C24	0.146500	0.961500	0.442000
C251	C25	0.115100	0.924400	0.269100
H261	H26	0.147000	0.923500	0.128800
C271	C27	0.035000	0.889200	0.313800
H281	H28	0.011100	0.865300	0.199800
O291	O29	0.372000	0.179100	0.591000
O301	O30	0.381100	0.159200	0.225200
C321	C32	0.406500	0.152600	0.423400
C331	C33	0.489400	0.111100	0.472200
C341	C34	0.521900	0.073400	0.308400
H351	H35	0.490400	0.072100	0.167700
C361	C36	0.601400	0.037200	0.351200
H371	H37	0.623500	0.012300	0.239000
C381	C38	0.646500	0.038500	0.558000
C391	C39	0.615100	0.075600	0.730900
H401	H40	0.647000	0.076500	0.871200
C411	C41	0.535000	0.110800	0.686200
H421	H42	0.511100	0.134700	0.800200
O431	O43	0.128000	0.320900	0.591000
O441	O44	0.118900	0.340800	0.225200
C461	C46	0.093500	0.347400	0.423400
C471	C47	0.010600	0.388900	0.472200
C481	C48	0.978100	0.426600	0.308400
H491	H49	0.009600	0.427900	0.167700
C501	C50	0.898600	0.462800	0.351200
H511	H51	0.876500	0.487700	0.239000
C521	C52	0.853500	0.461500	0.558000
C531	C53	0.884900	0.424400	0.730900
H541	H54	0.853000	0.423500	0.871200
C551	C55	0.965000	0.389200	0.686200
H561	H56	0.988900	0.365300	0.800200
O571	O57	0.372000	0.320900	0.591000
O581	O58	0.381100	0.340800	0.225200
C601	C60	0.406500	0.347400	0.423400
C611	C61	0.489400	0.388900	0.472200
C621	C62	0.521900	0.426600	0.308400
H631	H63	0.490400	0.427900	0.167700
C641	C64	0.601400	0.462800	0.351200
H651	H65	0.623500	0.487700	0.239000
C661	C66	0.646500	0.461500	0.558000
C671	C67	0.615100	0.424400	0.730900
H681	H68	0.647000	0.423500	0.871200
C691	C69	0.535000	0.389200	0.686200
H701	H70	0.511100	0.365300	0.800200
O711	O71	0.128000	0.179100	0.591000
O721	O72	0.118900	0.159200	0.225200
C741	C74	0.093500	0.152600	0.423400
C751	C75	0.010600	0.111100	0.472200
C761	C76	0.978100	0.073400	0.308400
H771	H77	0.009600	0.072100	0.167700
C781	C78	0.898600	0.037200	0.351200
H791	H79	0.876500	0.012300	0.239000
C801	C80	0.853500	0.038500	0.558000
C811	C81	0.884900	0.075600	0.730900
H821	H82	0.853000	0.076500	0.871200
C831	C83	0.965000	0.110800	0.686200
H841	H84	0.988900	0.134700	0.800200
O851	O85	0.628000	0.820900	0.409000
O861	O86	0.618900	0.840800	0.774800
C881	C88	0.593500	0.847400	0.576600
C891	C89	0.510600	0.888900	0.527800
C901	C90	0.478100	0.926600	0.691600
H911	H91	0.509600	0.927900	0.832300
C921	C92	0.398600	0.962800	0.648800
H931	H93	0.376500	0.987700	0.761000
C941	C94	0.353500	0.961500	0.442000
C951	C95	0.384900	0.924400	0.269100
H961	H96	0.353000	0.923500	0.128800
C971	C97	0.465000	0.889200	0.313800
H981	H98	0.488900	0.865300	0.199800
O991	O99	0.872000	0.679100	0.409000
O1001	O100	0.881100	0.659200	0.774800
C1021	C102	0.906500	0.652600	0.576600
C1031	C103	0.989400	0.611100	0.527800
C1041	C104	0.021900	0.573400	0.691600
H1051	H105	0.990400	0.572100	0.832300
C1061	C106	0.101400	0.537200	0.648800
H1071	H107	0.123500	0.512300	0.761000
C1081	C108	0.146500	0.538500	0.442000
C1091	C109	0.115100	0.575600	0.269100
H1101	H110	0.147000	0.576500	0.128800
C1111	C111	0.035000	0.610800	0.313800
H1121	H112	0.011100	0.634700	0.199800
Pb1131	Pb113	0.750000	0.750000	0.669870
O1141	O114	0.750000	0.750000	0.090700
Pb1151	Pb115	0.250000	0.250000	0.330130
O1161	O116	0.250000	0.250000	0.909300
K1171	K117	0.250000	0.373120	0.908200
S1181	S118	0.250000	0.494110	0.387300
O1191	O119	0.250000	0.480700	0.146400
O1201	O120	0.250000	0.449100	0.553700
K1221	K122	0.250000	0.126880	0.908200
S1231	S123	0.250000	0.005890	0.387300
O1241	O124	0.250000	0.019300	0.146400
O1251	O125	0.250000	0.050900	0.553700
K1271	K127	0.750000	0.873120	0.091800
S1281	S128	0.750000	0.994110	0.612700
O1291	O129	0.750000	0.980700	0.853600
O1301	O130	0.750000	0.949100	0.446300
K1321	K132	0.750000	0.626880	0.091800
S1331	S133	0.750000	0.505890	0.612700
O1341	O134	0.750000	0.519300	0.853600
O1351	O135	0.750000	0.550900	0.446300
