data_FARYAA_clean_PM
_symmetry_space_group_name_H-M	'P1'
_cell_length_a	13.339900
_cell_length_b	13.339900
_cell_length_c	20.777300
_cell_angle_alpha	90.000000
_cell_angle_beta	90.000000
_cell_angle_gamma	108.342000
_symmetry_Int_Tables_number 1

loop_
_symmetry_equiv_pos_as_xyz
'x,y,z'

loop_
_atom_site_label
_atom_site_type_symbol
_atom_site_fract_x
_atom_site_fract_y
_atom_site_fract_z
K11	K1	0.126900	0.126900	0.000000
K21	K2	0.873100	0.873100	0.500000
K31	K3	0.873100	0.873100	0.000000
K41	K4	0.126900	0.126900	0.500000
Nd11	Nd1	0.628750	0.881650	0.250000
Nd21	Nd2	0.371250	0.118350	0.750000
Nd31	Nd3	0.118350	0.371250	0.250000
Nd41	Nd4	0.881650	0.628750	0.750000
Re11	Re1	0.256550	0.559890	0.950250
Re21	Re2	0.743450	0.440110	0.450250
Re31	Re3	0.440110	0.743450	0.549750
Re41	Re4	0.559890	0.256550	0.049750
Re51	Re5	0.743450	0.440110	0.049750
Re61	Re6	0.256550	0.559890	0.549750
Re71	Re7	0.559890	0.256550	0.450250
Re81	Re8	0.440110	0.743450	0.950250
Re91	Re9	0.297500	0.702500	0.057700
Re101	Re10	0.234640	0.765360	0.933860
Re111	Re11	0.702500	0.297500	0.557700
Re121	Re12	0.765360	0.234640	0.433860
Re131	Re13	0.297500	0.702500	0.442300
Re141	Re14	0.234640	0.765360	0.566140
Re151	Re15	0.702500	0.297500	0.942300
Re161	Re16	0.765360	0.234640	0.066140
Te11	Te1	0.108320	0.620540	0.008060
Te21	Te2	0.891680	0.379460	0.508060
Te31	Te3	0.379460	0.891680	0.491940
Te41	Te4	0.620540	0.108320	0.991940
Te51	Te5	0.891680	0.379460	0.991940
Te61	Te6	0.108320	0.620540	0.491940
Te71	Te7	0.620540	0.108320	0.508060
Te81	Te8	0.379460	0.891680	0.008060
Te91	Te9	0.323260	0.676740	0.847440
Te101	Te10	0.416240	0.583760	0.030310
Te111	Te11	0.676740	0.323260	0.347440
Te121	Te12	0.583760	0.416240	0.530310
Te131	Te13	0.323260	0.676740	0.652560
Te141	Te14	0.416240	0.583760	0.469690
Te151	Te15	0.676740	0.323260	0.152560
Te161	Te16	0.583760	0.416240	0.969690
C11	C1	0.415200	0.763800	0.128400
C21	C2	0.131100	0.478700	0.889500
C31	C3	0.325500	0.457900	0.902500
C41	C4	0.186900	0.419700	0.001900
C51	C5	0.284000	0.893400	0.869100
C61	C6	0.584800	0.236200	0.628400
C71	C7	0.868900	0.521300	0.389500
C81	C8	0.674500	0.542100	0.402500
C91	C9	0.813100	0.580300	0.501900
C101	C10	0.716000	0.106600	0.369100
C111	C11	0.236200	0.584800	0.371600
C121	C12	0.521300	0.868900	0.610500
C131	C13	0.542100	0.674500	0.597500
C141	C14	0.580300	0.813100	0.498100
C151	C15	0.106600	0.716000	0.630900
C161	C16	0.763800	0.415200	0.871600
C171	C17	0.478700	0.131100	0.110500
C181	C18	0.457900	0.325500	0.097500
C191	C19	0.419700	0.186900	0.998100
C201	C20	0.893400	0.284000	0.130900
C211	C21	0.584800	0.236200	0.871600
C221	C22	0.868900	0.521300	0.110500
C231	C23	0.674500	0.542100	0.097500
C241	C24	0.813100	0.580300	0.998100
C251	C25	0.716000	0.106600	0.130900
C261	C26	0.415200	0.763800	0.371600
C271	C27	0.131100	0.478700	0.610500
C281	C28	0.325500	0.457900	0.597500
C291	C29	0.186900	0.419700	0.498100
C301	C30	0.284000	0.893400	0.630900
C311	C31	0.763800	0.415200	0.628400
C321	C32	0.478700	0.131100	0.389500
C331	C33	0.457900	0.325500	0.402500
C341	C34	0.419700	0.186900	0.501900
C351	C35	0.893400	0.284000	0.369100
C361	C36	0.236200	0.584800	0.128400
C371	C37	0.521300	0.868900	0.889500
C381	C38	0.542100	0.674500	0.902500
C391	C39	0.580300	0.813100	0.001900
C401	C40	0.106600	0.716000	0.869100
C411	C41	0.218300	0.781700	0.116200
C421	C42	0.142800	0.857200	0.969200
C431	C43	0.781700	0.218300	0.616200
C441	C44	0.857200	0.142800	0.469200
C451	C45	0.218300	0.781700	0.383800
C461	C46	0.142800	0.857200	0.530800
C471	C47	0.781700	0.218300	0.883800
C481	C48	0.857200	0.142800	0.030800
N11	N1	0.480600	0.797800	0.165700
N21	N2	0.063400	0.431400	0.857900
N31	N3	0.362700	0.404300	0.875300
N41	N4	0.145800	0.341000	0.026400
N51	N5	0.311500	0.963500	0.834300
N61	N6	0.519400	0.202200	0.665700
N71	N7	0.936600	0.568600	0.357900
N81	N8	0.637300	0.595700	0.375300
N91	N9	0.854200	0.659000	0.526400
N101	N10	0.688500	0.036500	0.334300
N111	N11	0.202200	0.519400	0.334300
N121	N12	0.568600	0.936600	0.642100
N131	N13	0.595700	0.637300	0.624700
N141	N14	0.659000	0.854200	0.473600
N151	N15	0.036500	0.688500	0.665700
N161	N16	0.797800	0.480600	0.834300
N171	N17	0.431400	0.063400	0.142100
N181	N18	0.404300	0.362700	0.124700
N191	N19	0.341000	0.145800	0.973600
N201	N20	0.963500	0.311500	0.165700
N211	N21	0.519400	0.202200	0.834300
N221	N22	0.936600	0.568600	0.142100
N231	N23	0.637300	0.595700	0.124700
N241	N24	0.854200	0.659000	0.973600
N251	N25	0.688500	0.036500	0.165700
N261	N26	0.480600	0.797800	0.334300
N271	N27	0.063400	0.431400	0.642100
N281	N28	0.362700	0.404300	0.624700
N291	N29	0.145800	0.341000	0.473600
N301	N30	0.311500	0.963500	0.665700
N311	N31	0.797800	0.480600	0.665700
N321	N32	0.431400	0.063400	0.357900
N331	N33	0.404300	0.362700	0.375300
N341	N34	0.341000	0.145800	0.526400
N351	N35	0.963500	0.311500	0.334300
N361	N36	0.202200	0.519400	0.165700
N371	N37	0.568600	0.936600	0.857900
N381	N38	0.595700	0.637300	0.875300
N391	N39	0.659000	0.854200	0.026400
N401	N40	0.036500	0.688500	0.834300
N411	N41	0.176100	0.823900	0.148500
N421	N42	0.092800	0.907200	0.984200
N431	N43	0.823900	0.176100	0.648500
N441	N44	0.907200	0.092800	0.484200
N451	N45	0.176100	0.823900	0.351500
N461	N46	0.092800	0.907200	0.515800
N471	N47	0.823900	0.176100	0.851500
N481	N48	0.907200	0.092800	0.015800
