data_FASFOX_clean_PM
_symmetry_space_group_name_H-M	'P1'
_cell_length_a	15.440000
_cell_length_b	15.440000
_cell_length_c	10.021000
_cell_angle_alpha	90.000000
_cell_angle_beta	90.000000
_cell_angle_gamma	90.000000
_symmetry_Int_Tables_number 1

loop_
_symmetry_equiv_pos_as_xyz
'x,y,z'

loop_
_atom_site_label
_atom_site_type_symbol
_atom_site_fract_x
_atom_site_fract_y
_atom_site_fract_z
O11	O1	0.531630	0.633000	0.117900
C11	C1	0.386400	0.758200	0.881000
H11	H1	0.411400	0.741600	0.800400
C21	C2	0.310100	0.806300	0.883100
H21	H2	0.284600	0.822000	0.802600
O21	O2	0.468370	0.367000	0.117900
C31	C3	0.613600	0.241800	0.881000
H31	H3	0.588600	0.258400	0.800400
C41	C4	0.689900	0.193700	0.883100
H41	H4	0.715400	0.178000	0.802600
O31	O3	0.367000	0.531630	0.117900
C51	C5	0.241800	0.386400	0.881000
H51	H5	0.258400	0.411400	0.800400
C61	C6	0.193700	0.310100	0.883100
H61	H6	0.178000	0.284600	0.802600
O41	O4	0.633000	0.468370	0.117900
C71	C7	0.758200	0.613600	0.881000
H71	H7	0.741600	0.588600	0.800400
C81	C8	0.806300	0.689900	0.883100
H81	H8	0.822000	0.715400	0.802600
O51	O5	0.468370	0.633000	0.382100
C91	C9	0.613600	0.758200	0.619000
H91	H9	0.588600	0.741600	0.699600
C101	C10	0.689900	0.806300	0.616900
H101	H10	0.715400	0.822000	0.697400
O61	O6	0.531630	0.367000	0.382100
C111	C11	0.386400	0.241800	0.619000
H111	H11	0.411400	0.258400	0.699600
C121	C12	0.310100	0.193700	0.616900
H121	H12	0.284600	0.178000	0.697400
O71	O7	0.633000	0.531630	0.382100
C131	C13	0.758200	0.386400	0.619000
H131	H13	0.741600	0.411400	0.699600
C141	C14	0.806300	0.310100	0.616900
H141	H14	0.822000	0.284600	0.697400
O81	O8	0.367000	0.468370	0.382100
C151	C15	0.241800	0.613600	0.619000
H151	H15	0.258400	0.588600	0.699600
C161	C16	0.193700	0.689900	0.616900
H161	H16	0.178000	0.715400	0.697400
O91	O9	0.468370	0.367000	0.882100
C171	C17	0.613600	0.241800	0.119000
H171	H17	0.588600	0.258400	0.199600
C181	C18	0.689900	0.193700	0.116900
H181	H18	0.715400	0.178000	0.197400
O101	O10	0.531630	0.633000	0.882100
C191	C19	0.386400	0.758200	0.119000
H191	H19	0.411400	0.741600	0.199600
C201	C20	0.310100	0.806300	0.116900
H201	H20	0.284600	0.822000	0.197400
O111	O11	0.633000	0.468370	0.882100
C211	C21	0.758200	0.613600	0.119000
H211	H21	0.741600	0.588600	0.199600
C221	C22	0.806300	0.689900	0.116900
H221	H22	0.822000	0.715400	0.197400
O121	O12	0.367000	0.531630	0.882100
C231	C23	0.241800	0.386400	0.119000
H231	H23	0.258400	0.411400	0.199600
C241	C24	0.193700	0.310100	0.116900
H241	H24	0.178000	0.284600	0.197400
O131	O13	0.531630	0.367000	0.617900
C251	C25	0.386400	0.241800	0.381000
H251	H25	0.411400	0.258400	0.300400
C261	C26	0.310100	0.193700	0.383100
H261	H26	0.284600	0.178000	0.302600
O141	O14	0.468370	0.633000	0.617900
C271	C27	0.613600	0.758200	0.381000
H271	H27	0.588600	0.741600	0.300400
C281	C28	0.689900	0.806300	0.383100
H281	H28	0.715400	0.822000	0.302600
O151	O15	0.367000	0.468370	0.617900
C291	C29	0.241800	0.613600	0.381000
H291	H29	0.258400	0.588600	0.300400
C301	C30	0.193700	0.689900	0.383100
H301	H30	0.178000	0.715400	0.302600
O161	O16	0.633000	0.531630	0.617900
C311	C31	0.758200	0.386400	0.381000
H311	H31	0.741600	0.411400	0.300400
C321	C32	0.806300	0.310100	0.383100
H321	H32	0.822000	0.284600	0.302600
La11	La1	0.500000	0.500000	0.250000
La21	La2	0.500000	0.500000	0.750000
S11	S1	0.526330	0.685050	0.000000
N11	N1	0.129000	0.030500	0.000000
O171	O17	0.588150	0.753510	0.000000
C331	C33	0.424100	0.735900	0.000000
C341	C34	0.271200	0.831100	0.000000
C351	C35	0.189800	0.881900	0.000000
C361	C36	0.197300	0.971900	0.000000
C371	C37	0.275700	0.020300	0.000000
H331	H33	0.331300	0.997100	0.000000
C381	C38	0.256200	0.104900	0.000000
H341	H34	0.295700	0.150400	0.000000
C391	C39	0.165200	0.112600	0.000000
S21	S2	0.473670	0.314950	0.000000
N21	N2	0.871000	0.969500	0.000000
O181	O18	0.411850	0.246490	0.000000
C401	C40	0.575900	0.264100	0.000000
C411	C41	0.728800	0.168900	0.000000
C421	C42	0.810200	0.118100	0.000000
C431	C43	0.802700	0.028100	0.000000
C441	C44	0.724300	0.979700	0.000000
H351	H35	0.668700	0.002900	0.000000
C451	C45	0.743800	0.895100	0.000000
H361	H36	0.704300	0.849600	0.000000
C461	C46	0.834800	0.887400	0.000000
S31	S3	0.314950	0.526330	0.000000
N31	N3	0.969500	0.129000	0.000000
O191	O19	0.246490	0.588150	0.000000
C471	C47	0.264100	0.424100	0.000000
C481	C48	0.168900	0.271200	0.000000
C491	C49	0.118100	0.189800	0.000000
C501	C50	0.028100	0.197300	0.000000
C511	C51	0.979700	0.275700	0.000000
H371	H37	0.002900	0.331300	0.000000
C521	C52	0.895100	0.256200	0.000000
H381	H38	0.849600	0.295700	0.000000
C531	C53	0.887400	0.165200	0.000000
S41	S4	0.685050	0.473670	0.000000
N41	N4	0.030500	0.871000	0.000000
O201	O20	0.753510	0.411850	0.000000
C541	C54	0.735900	0.575900	0.000000
C551	C55	0.831100	0.728800	0.000000
C561	C56	0.881900	0.810200	0.000000
C571	C57	0.971900	0.802700	0.000000
C581	C58	0.020300	0.724300	0.000000
H391	H39	0.997100	0.668700	0.000000
C591	C59	0.104900	0.743800	0.000000
H401	H40	0.150400	0.704300	0.000000
C601	C60	0.112600	0.834800	0.000000
S51	S5	0.473670	0.685050	0.500000
N51	N5	0.871000	0.030500	0.500000
O211	O21	0.411850	0.753510	0.500000
C611	C61	0.575900	0.735900	0.500000
C621	C62	0.728800	0.831100	0.500000
C631	C63	0.810200	0.881900	0.500000
C641	C64	0.802700	0.971900	0.500000
C651	C65	0.724300	0.020300	0.500000
H411	H41	0.668700	0.997100	0.500000
C661	C66	0.743800	0.104900	0.500000
H421	H42	0.704300	0.150400	0.500000
C671	C67	0.834800	0.112600	0.500000
S61	S6	0.526330	0.314950	0.500000
N61	N6	0.129000	0.969500	0.500000
O221	O22	0.588150	0.246490	0.500000
C681	C68	0.424100	0.264100	0.500000
C691	C69	0.271200	0.168900	0.500000
C701	C70	0.189800	0.118100	0.500000
C711	C71	0.197300	0.028100	0.500000
C721	C72	0.275700	0.979700	0.500000
H431	H43	0.331300	0.002900	0.500000
C731	C73	0.256200	0.895100	0.500000
H441	H44	0.295700	0.849600	0.500000
C741	C74	0.165200	0.887400	0.500000
S71	S7	0.685050	0.526330	0.500000
N71	N7	0.030500	0.129000	0.500000
O231	O23	0.753510	0.588150	0.500000
C751	C75	0.735900	0.424100	0.500000
C761	C76	0.831100	0.271200	0.500000
C771	C77	0.881900	0.189800	0.500000
C781	C78	0.971900	0.197300	0.500000
C791	C79	0.020300	0.275700	0.500000
H451	H45	0.997100	0.331300	0.500000
C801	C80	0.104900	0.256200	0.500000
H461	H46	0.150400	0.295700	0.500000
C811	C81	0.112600	0.165200	0.500000
S81	S8	0.314950	0.473670	0.500000
N81	N8	0.969500	0.871000	0.500000
O241	O24	0.246490	0.411850	0.500000
C821	C82	0.264100	0.575900	0.500000
C831	C83	0.168900	0.728800	0.500000
C841	C84	0.118100	0.810200	0.500000
C851	C85	0.028100	0.802700	0.500000
C861	C86	0.979700	0.724300	0.500000
H471	H47	0.002900	0.668700	0.500000
C871	C87	0.895100	0.743800	0.500000
H481	H48	0.849600	0.704300	0.500000
C881	C88	0.887400	0.834800	0.500000
