data_FASHOX_clean_PM
_symmetry_space_group_name_H-M	'P1'
_cell_length_a	9.327800
_cell_length_b	15.552900
_cell_length_c	9.647400
_cell_angle_alpha	90.000000
_cell_angle_beta	93.266000
_cell_angle_gamma	90.000000
_symmetry_Int_Tables_number 1

loop_
_symmetry_equiv_pos_as_xyz
'x,y,z'

loop_
_atom_site_label
_atom_site_type_symbol
_atom_site_fract_x
_atom_site_fract_y
_atom_site_fract_z
U11	U1	0.142000	0.017000	0.029000
U21	U2	0.238500	0.022800	0.634900
U31	U3	0.133700	0.489200	0.001300
U41	U4	0.228500	0.470700	0.605500
U51	U5	0.716600	0.251200	0.811200
P11	P1	0.480000	0.436900	0.838300
P21	P2	0.878600	0.473900	0.775000
P31	P3	0.488800	0.063800	0.862200
P41	P4	0.886400	0.030000	0.799200
O11	O1	0.324200	0.056300	0.878000
O21	O2	0.049700	0.042500	0.783500
O31	O3	0.040100	0.460600	0.755200
O41	O4	0.314000	0.444500	0.853700
O51	O5	0.488600	0.460600	0.681500
O61	O6	0.557900	0.504700	0.928000
O71	O7	0.815100	0.539300	0.665000
O81	O8	0.881000	0.517500	0.920200
O91	O9	0.824000	0.960300	0.698600
O101	O10	0.567300	0.000800	0.956900
O111	O11	0.797000	0.391400	0.768900
O121	O12	0.889000	0.993000	0.949300
O131	O13	0.806600	0.112600	0.782900
O141	O14	0.498500	0.032700	0.710500
O151	O15	0.529300	0.347400	0.868100
O161	O16	0.537400	0.153800	0.883500
U61	U6	0.642000	0.983000	0.529000
U71	U7	0.738500	0.977200	0.134900
U81	U8	0.633700	0.510800	0.501300
U91	U9	0.728500	0.529300	0.105500
U101	U10	0.216600	0.748800	0.311200
P51	P5	0.980000	0.563100	0.338300
P61	P6	0.378600	0.526100	0.275000
P71	P7	0.988800	0.936200	0.362200
P81	P8	0.386400	0.970000	0.299200
O171	O17	0.824200	0.943700	0.378000
O181	O18	0.549700	0.957500	0.283500
O191	O19	0.540100	0.539400	0.255200
O201	O20	0.814000	0.555500	0.353700
O211	O21	0.988600	0.539400	0.181500
O221	O22	0.057900	0.495300	0.428000
O231	O23	0.315100	0.460700	0.165000
O241	O24	0.381000	0.482500	0.420200
O251	O25	0.324000	0.039700	0.198600
O261	O26	0.067300	0.999200	0.456900
O271	O27	0.297000	0.608600	0.268900
O281	O28	0.389000	0.007000	0.449300
O291	O29	0.306600	0.887400	0.282900
O301	O30	0.998500	0.967300	0.210500
O311	O31	0.029300	0.652600	0.368100
O321	O32	0.037400	0.846200	0.383500
