data_FASHAK_clean_PM
_symmetry_space_group_name_H-M	'P1'
_cell_length_a	14.002200
_cell_length_b	14.002200
_cell_length_c	14.002200
_cell_angle_alpha	104.649000
_cell_angle_beta	104.649000
_cell_angle_gamma	119.618000
_symmetry_Int_Tables_number 1

loop_
_symmetry_equiv_pos_as_xyz
'x,y,z'

loop_
_atom_site_label
_atom_site_type_symbol
_atom_site_fract_x
_atom_site_fract_y
_atom_site_fract_z
Pr11	Pr1	0.983800	0.837550	0.548750
Pr21	Pr2	0.288800	0.435050	0.451250
Pr31	Pr3	0.685050	0.733800	0.646250
Pr41	Pr4	0.087550	0.038800	0.353750
H11	H1	0.688700	0.740200	0.406900
H21	H2	0.362700	0.658000	0.223100
H31	H3	0.662700	0.882500	0.194200
H41	H4	0.369900	0.023900	0.438200
H51	H5	0.333300	0.281800	0.593100
H61	H6	0.434900	0.139600	0.776900
H71	H7	0.688300	0.468500	0.805800
H81	H8	0.585700	0.931700	0.561800
H91	H9	0.531800	0.438700	0.448500
H101	H10	0.389600	0.112700	0.204700
H111	H11	0.718500	0.412700	0.280200
H121	H12	0.181700	0.119900	0.846000
H131	H13	0.990200	0.083300	0.551500
H141	H14	0.908000	0.184900	0.795300
H151	H15	0.132500	0.438300	0.719800
H161	H16	0.273900	0.335700	0.154000
H171	H17	0.230800	0.730800	0.500000
H181	H18	0.980800	0.980800	0.000000
C11	C1	0.696400	0.821500	0.305700
C21	C2	0.641700	0.748200	0.353900
C31	C3	0.516600	0.687000	0.323000
C41	C4	0.446400	0.699000	0.243800
C51	C5	0.501100	0.772300	0.195600
C61	C6	0.626100	0.833500	0.226400
C71	C7	0.829100	0.888500	0.335800
C81	C8	0.455000	0.608300	0.372300
C91	C9	0.281670	0.873900	0.462970
C101	C10	0.380270	0.972500	0.462970
C111	C11	0.159900	0.853300	0.422400
C121	C12	0.515800	0.390700	0.694300
C131	C13	0.394300	0.287800	0.646100
C141	C14	0.364000	0.193600	0.677000
C151	C15	0.455200	0.202600	0.756200
C161	C16	0.576700	0.305500	0.804400
C171	C17	0.607100	0.399700	0.773600
C181	C18	0.552700	0.493300	0.664200
C191	C19	0.236000	0.082700	0.627700
C201	C20	0.410930	0.818700	0.537030
C211	C21	0.509530	0.917300	0.537030
C221	C22	0.430900	0.737500	0.577600
C231	C23	0.640700	0.446400	0.374900
C241	C24	0.537800	0.391700	0.393500
C251	C25	0.443600	0.266600	0.329600
C261	C26	0.452600	0.196400	0.247400
C271	C27	0.555500	0.251100	0.228800
C281	C28	0.649700	0.376100	0.292600
C291	C29	0.743300	0.579100	0.440600
C301	C30	0.332700	0.205000	0.346700
C311	C31	0.068700	0.031670	0.907770
C321	C32	0.167300	0.130270	0.907770
C331	C33	0.987500	0.909900	0.806600
C341	C34	0.071500	0.265800	0.625100
C351	C35	0.998200	0.144300	0.606500
C361	C36	0.937000	0.114000	0.670400
C371	C37	0.949000	0.205200	0.752600
C381	C38	0.022300	0.326700	0.771200
C391	C39	0.083500	0.357100	0.707400
C401	C40	0.138500	0.302700	0.559400
C411	C41	0.858300	0.986000	0.653300
C421	C42	0.123900	0.160930	0.092230
C431	C43	0.222500	0.259530	0.092230
C441	C44	0.103300	0.180900	0.193400
C451	C45	0.494500	0.994500	0.500000
C461	C46	0.296800	0.796800	0.500000
C471	C47	0.244500	0.244500	0.000000
C481	C48	0.046800	0.046800	0.000000
O11	O1	0.892900	0.865900	0.389800
O21	O2	0.875700	0.969900	0.304600
O31	O3	0.516300	0.605900	0.453400
O41	O4	0.337800	0.541600	0.332200
O51	O5	0.435700	0.785300	0.119400
O61	O6	0.080600	0.788600	0.444400
O71	O7	0.148400	0.905700	0.367700
O81	O8	0.476100	0.503100	0.610200
O91	O9	0.665300	0.571100	0.695400
O101	O10	0.152500	0.062900	0.546600
O111	O11	0.209400	0.005600	0.667800
O121	O12	0.665900	0.316300	0.880600
O131	O13	0.344200	0.636200	0.555600
O141	O14	0.538000	0.780700	0.632300
O151	O15	0.753100	0.642900	0.527000
O161	O16	0.821100	0.625700	0.405800
O171	O17	0.312900	0.266300	0.410400
O181	O18	0.255600	0.087800	0.296200
O191	O19	0.566300	0.185700	0.150400
O201	O20	0.886200	0.830600	0.792000
O211	O21	0.030700	0.898400	0.742700
O221	O22	0.115900	0.226100	0.473000
O231	O23	0.219900	0.415300	0.594200
O241	O24	0.855900	0.902500	0.589600
O251	O25	0.791600	0.959400	0.703800
O261	O26	0.035300	0.415900	0.849600
O271	O27	0.038600	0.094200	0.208000
O281	O28	0.155700	0.288000	0.257300
O291	O29	0.588600	0.088600	0.500000
O301	O30	0.338600	0.338600	0.000000
