data_FATKIV_clean_PM
_symmetry_space_group_name_H-M	'P1'
_cell_length_a	20.345000
_cell_length_b	30.591700
_cell_length_c	30.591700
_cell_angle_alpha	64.768000
_cell_angle_beta	77.192100
_cell_angle_gamma	102.808000
_symmetry_Int_Tables_number 1

loop_
_symmetry_equiv_pos_as_xyz
'x,y,z'

loop_
_atom_site_label
_atom_site_type_symbol
_atom_site_fract_x
_atom_site_fract_y
_atom_site_fract_z
Mn11	Mn1	0.611010	0.555570	0.822470
Mn21	Mn2	0.609680	0.391750	0.951900
Mn31	Mn3	0.426120	0.616370	0.881530
Mn41	Mn4	0.433480	0.822470	0.621960
Mn51	Mn5	0.561580	0.951900	0.656350
Mn61	Mn6	0.307650	0.881530	0.502100
Mn71	Mn7	0.055440	0.621960	0.555570
Mn81	Mn8	0.217930	0.656350	0.391750
Mn91	Mn9	0.809750	0.502100	0.616370
Mn101	Mn10	0.388990	0.444430	0.177530
Mn111	Mn11	0.390320	0.608250	0.048100
Mn121	Mn12	0.573880	0.383630	0.118470
Mn131	Mn13	0.566520	0.177530	0.378040
Mn141	Mn14	0.438420	0.048100	0.343650
Mn151	Mn15	0.692350	0.118470	0.497900
Mn161	Mn16	0.944560	0.378040	0.444430
Mn171	Mn17	0.782070	0.343650	0.608250
Mn181	Mn18	0.190250	0.497900	0.383630
H11	H1	0.511300	0.516700	0.726300
H21	H2	0.490700	0.446500	0.713700
H31	H3	0.510300	0.372100	0.770100
H41	H4	0.556200	0.374000	0.832000
H51	H5	0.645400	0.527800	0.969300
H61	H6	0.680500	0.486100	0.968700
H71	H7	0.738100	0.589700	0.917200
H81	H8	0.757000	0.550000	0.960900
H91	H9	0.804600	0.571600	0.863700
H101	H10	0.830000	0.542200	0.909600
H111	H11	0.868000	0.652800	0.853400
H121	H12	0.922000	0.622400	0.849700
H131	H13	0.856200	0.626200	0.944400
H141	H14	0.905200	0.591900	0.943700
H151	H15	0.962700	0.703900	0.879000
H161	H16	0.009900	0.667800	0.885800
H171	H17	0.941800	0.687300	0.966800
H181	H18	0.985700	0.648600	0.975800
H191	H19	0.090400	0.719200	0.909900
H201	H20	0.045500	0.757000	0.906000
H211	H21	0.030900	0.741300	0.983900
H221	H22	0.057600	0.692700	0.997100
H231	H23	0.135500	0.794100	0.920300
H241	H24	0.162100	0.746400	0.928400
H251	H25	0.203500	0.761800	0.984600
H261	H26	0.121400	0.730300	0.023300
H271	H27	0.150900	0.792200	0.991300
H281	H28	0.750600	0.632200	0.802800
H291	H29	0.870000	0.678200	0.751600
H301	H30	0.839400	0.616600	0.663900
H311	H31	0.722800	0.567900	0.722300
H321	H32	0.978900	0.660800	0.673000
H331	H33	0.953300	0.696700	0.629400
H341	H34	0.827100	0.393500	0.897100
H351	H35	0.913900	0.387700	0.934800
H361	H36	0.889000	0.376500	0.018100
H371	H37	0.780700	0.379700	0.058800
H381	H38	0.405300	0.390800	0.038100
H391	H39	0.435000	0.393300	0.081700
H401	H40	0.376700	0.299500	0.079100
H411	H41	0.411700	0.300700	0.120800
H421	H42	0.284400	0.323800	0.113000
H431	H43	0.320400	0.328100	0.153300
H441	H44	0.255800	0.232700	0.155700
H451	H45	0.297100	0.235900	0.193700
H461	H46	0.209800	0.263400	0.230200
H471	H47	0.168100	0.259000	0.192800
H481	H48	0.142300	0.169100	0.234000
H491	H49	0.184600	0.173400	0.271000
H501	H50	0.060400	0.199800	0.270700
H511	H51	0.099200	0.194300	0.311700
H521	H52	0.016000	0.109500	0.306100
H531	H53	0.059800	0.102600	0.344500
H541	H54	0.939800	0.135800	0.348900
H551	H55	0.987500	0.137800	0.383600
H561	H56	0.901100	0.045100	0.391100
H571	H57	0.954900	0.044600	0.421800
H581	H58	0.882800	0.069400	0.470300
H591	H59	0.841900	0.014500	0.477200
H601	H60	0.827300	0.064700	0.441300
H611	H61	0.506100	0.783700	0.781800
H621	H62	0.605800	0.838500	0.705800
H631	H63	0.691700	0.807200	0.678400
H641	H64	0.676500	0.719400	0.728000
H651	H65	0.439600	0.460100	0.963100
H661	H66	0.469100	0.461600	0.909400
H671	H67	0.351800	0.397600	0.966600
H681	H68	0.322000	0.444400	0.955500
H691	H69	0.360400	0.472700	0.868000
H701	H70	0.400100	0.431800	0.875100
H711	H71	0.247800	0.404900	0.915400
H721	H72	0.286400	0.363600	0.924500
H731	H73	0.284500	0.430000	0.826500
H741	H74	0.315900	0.384000	0.839300
H751	H75	0.151400	0.834500	0.515800
H761	H76	0.048300	0.761800	0.569700
H771	H77	0.106200	0.753500	0.686200
H781	H78	0.221700	0.810000	0.624800
H791	H79	0.948000	0.746900	0.671200
H801	H80	0.986700	0.714600	0.706400
H811	H81	0.237600	0.726300	0.757000
H821	H82	0.204400	0.713700	0.839800
H831	H83	0.280400	0.770100	0.857800
H841	H84	0.388200	0.832000	0.794000
H851	H85	0.614700	0.969300	0.502900
H861	H86	0.649200	0.968700	0.545200
H871	H87	0.655300	0.917200	0.493100
H881	H88	0.717900	0.960900	0.489100
H891	H89	0.668300	0.863700	0.564700
H901	H90	0.739600	0.909600	0.548200
H911	H91	0.721400	0.853400	0.493800
H921	H92	0.771700	0.849700	0.527900
H931	H93	0.800600	0.944400	0.429400
H941	H94	0.848900	0.943700	0.464400
H951	H95	0.841700	0.879000	0.417100
H961	H96	0.895700	0.885800	0.446400
H971	H97	0.908600	0.966800	0.345900
H981	H98	0.961500	0.975800	0.375600
H991	H99	0.000300	0.909900	0.370900
H1001	H100	0.951500	0.906000	0.337000
H1011	H101	0.014800	0.983900	0.274800
H1021	H102	0.054700	0.997100	0.310200
H1031	H103	0.055800	0.920300	0.285600
H1041	H104	0.090500	0.928400	0.325200
H1051	H105	0.188100	0.984600	0.253600
H1061	H106	0.144700	0.023300	0.246400
H1071	H107	0.142200	0.991300	0.216500
H1081	H108	0.553400	0.802800	0.565000
H1091	H109	0.621600	0.751600	0.570200
H1101	H110	0.503300	0.663900	0.719500
H1111	H111	0.445100	0.722300	0.709800
H1121	H112	0.651900	0.673000	0.666200
H1131	H113	0.582700	0.629400	0.673900
H1141	H114	0.724200	0.897100	0.709400
H1151	H115	0.848700	0.934800	0.677500
H1161	H116	0.907100	0.018100	0.605400
H1171	H117	0.839500	0.058800	0.561500
H1181	H118	0.443400	0.038100	0.571100
H1191	H119	0.516700	0.081700	0.525000
H1201	H120	0.455800	0.079100	0.621400
H1211	H121	0.532500	0.120800	0.578500
H1221	H122	0.397400	0.113000	0.563200
H1231	H123	0.473700	0.153300	0.518600
H1241	H124	0.411500	0.155700	0.611600
H1251	H125	0.490800	0.193700	0.570400
H1261	H126	0.440000	0.230200	0.506400
H1271	H127	0.360900	0.192800	0.548200
H1281	H128	0.376300	0.234000	0.596900
H1291	H129	0.455600	0.271000	0.555600
H1301	H130	0.331100	0.270700	0.529500
H1311	H131	0.410900	0.311700	0.494000
H1321	H132	0.322100	0.306100	0.584400
H1331	H133	0.404300	0.344500	0.552900
H1341	H134	0.288700	0.348900	0.515300
H1351	H135	0.371100	0.383600	0.478600
H1361	H136	0.292200	0.391100	0.563800
H1371	H137	0.376700	0.421800	0.533600
H1381	H138	0.353100	0.470300	0.460300
H1391	H139	0.319100	0.477200	0.508300
H1401	H140	0.268600	0.441300	0.494000
H1411	H141	0.287900	0.781800	0.434500
H1421	H142	0.311600	0.705800	0.455700
H1431	H143	0.370100	0.678400	0.514400
H1441	H144	0.404500	0.728000	0.552600
H1451	H145	0.402700	0.963100	0.576800
H1461	H146	0.378500	0.909400	0.629000
H1471	H147	0.318400	0.966600	0.635800
H1481	H148	0.277500	0.955500	0.600100
H1491	H149	0.228400	0.868000	0.659300
H1501	H150	0.275200	0.875100	0.693100
H1511	H151	0.163200	0.915400	0.679700
H1521	H152	0.210900	0.924500	0.711900
H1531	H153	0.111000	0.826500	0.743500
H1541	H154	0.155200	0.839300	0.776700
H1551	H155	0.667200	0.515800	0.649700
H1561	H156	0.618000	0.569700	0.668500
H1571	H157	0.792400	0.686200	0.560300
H1581	H158	0.846500	0.624800	0.565200
H1591	H159	0.619200	0.671200	0.581900
H1601	H160	0.693100	0.706400	0.579000
H1611	H161	0.994600	0.757000	0.516700
H1621	H162	0.044200	0.839800	0.446500
H1631	H163	0.138200	0.857800	0.372100
H1641	H164	0.182200	0.794000	0.374000
H1651	H165	0.117600	0.502900	0.527800
H1661	H166	0.194400	0.545200	0.486100
H1671	H167	0.148400	0.493100	0.589700
H1681	H168	0.207000	0.489100	0.550000
H1691	H169	0.233000	0.564700	0.571600
H1701	H170	0.287800	0.548200	0.542200
H1711	H171	0.215200	0.493800	0.652800
H1721	H172	0.299600	0.527900	0.622400
H1731	H173	0.230000	0.429400	0.626200
H1741	H174	0.313300	0.464400	0.591900
H1751	H175	0.258800	0.417100	0.703900
H1761	H176	0.342100	0.446400	0.667800
H1771	H177	0.254500	0.345900	0.687300
H1781	H178	0.337100	0.375600	0.648600
H1791	H179	0.371200	0.370900	0.719200
H1801	H180	0.288500	0.337000	0.757000
H1811	H181	0.289600	0.274800	0.741300
H1821	H182	0.364900	0.310200	0.692700
H1831	H183	0.341400	0.285600	0.794100
H1841	H184	0.415700	0.325200	0.746400
H1851	H185	0.441700	0.253600	0.761800
H1861	H186	0.391100	0.246400	0.730300
H1871	H187	0.358700	0.216500	0.792200
H1881	H188	0.118400	0.565000	0.632200
H1891	H189	0.191800	0.570200	0.678200
H1901	H190	0.222800	0.719500	0.616600
H1911	H191	0.154900	0.709800	0.567900
H1921	H192	0.318100	0.666200	0.660800
H1931	H193	0.256600	0.673900	0.696700
H1941	H194	0.433600	0.709400	0.393500
H1951	H195	0.526200	0.677500	0.387700
H1961	H196	0.512500	0.605400	0.376500
H1971	H197	0.401000	0.561500	0.379700
H1981	H198	0.014500	0.571100	0.390800
H1991	H199	0.041700	0.525000	0.393300
H2001	H200	0.077200	0.621400	0.299500
H2011	H201	0.111000	0.578500	0.300700
H2021	H202	0.960600	0.563200	0.323800
H2031	H203	0.992300	0.518600	0.328100
H2041	H204	0.023100	0.611600	0.232700
H2051	H205	0.061200	0.570400	0.235900
H2061	H206	0.946400	0.506400	0.263400
H2071	H207	0.909100	0.548200	0.259000
H2081	H208	0.973200	0.596900	0.169100
H2091	H209	0.011200	0.555600	0.173400
H2101	H210	0.860600	0.529500	0.199800
H2111	H211	0.904900	0.494000	0.194300
H2121	H212	0.906500	0.584400	0.109500
H2131	H213	0.957200	0.552900	0.102600
H2141	H214	0.804000	0.515300	0.135800
H2151	H215	0.849700	0.478600	0.137800
H2161	H216	0.856000	0.563800	0.045100
H2171	H217	0.910300	0.533600	0.044600
H2181	H218	0.813400	0.460300	0.069400
H2191	H219	0.827400	0.508300	0.014500
H2201	H220	0.762600	0.494000	0.064700
H2211	H221	0.722400	0.434500	0.783700
H2221	H222	0.767300	0.455700	0.838500
H2231	H223	0.884500	0.514400	0.807200
H2241	H224	0.957100	0.552600	0.719400
H2251	H225	0.979500	0.576800	0.460100
H2261	H226	0.007500	0.629000	0.461600
H2271	H227	0.954200	0.635800	0.397600
H2281	H228	0.877600	0.600100	0.444400
H2291	H229	0.887700	0.659300	0.472700
H2301	H230	0.968300	0.693100	0.431800
H2311	H231	0.842900	0.679700	0.404900
H2321	H232	0.922800	0.711900	0.363600
H2331	H233	0.854500	0.743500	0.430000
H2341	H234	0.931900	0.776700	0.384000
H2351	H235	0.316900	0.649700	0.834500
H2361	H236	0.286500	0.668500	0.761800
H2371	H237	0.352700	0.560300	0.753500
H2381	H238	0.411700	0.565200	0.810000
H2391	H239	0.201100	0.581900	0.746900
H2401	H240	0.272100	0.579000	0.714600
H2411	H241	0.488700	0.483300	0.273700
H2421	H242	0.509300	0.553500	0.286300
H2431	H243	0.489700	0.627900	0.229900
H2441	H244	0.443800	0.626000	0.168000
H2451	H245	0.354600	0.472200	0.030700
H2461	H246	0.319500	0.513900	0.031300
H2471	H247	0.261900	0.410300	0.082800
H2481	H248	0.243000	0.450000	0.039100
H2491	H249	0.195400	0.428400	0.136300
H2501	H250	0.170000	0.457800	0.090400
H2511	H251	0.132000	0.347200	0.146600
H2521	H252	0.078000	0.377600	0.150300
H2531	H253	0.143800	0.373800	0.055600
H2541	H254	0.094800	0.408100	0.056300
H2551	H255	0.037300	0.296100	0.121000
H2561	H256	0.990100	0.332200	0.114200
H2571	H257	0.058200	0.312700	0.033200
H2581	H258	0.014300	0.351400	0.024200
H2591	H259	0.909600	0.280800	0.090100
H2601	H260	0.954500	0.243000	0.094000
H2611	H261	0.969100	0.258700	0.016100
H2621	H262	0.942400	0.307300	0.002900
H2631	H263	0.864500	0.205900	0.079700
H2641	H264	0.837900	0.253600	0.071600
H2651	H265	0.796500	0.238200	0.015400
H2661	H266	0.878600	0.269700	0.976700
H2671	H267	0.849100	0.207800	0.008700
H2681	H268	0.249400	0.367800	0.197200
H2691	H269	0.130000	0.321800	0.248400
H2701	H270	0.160600	0.383400	0.336100
H2711	H271	0.277200	0.432100	0.277700
H2721	H272	0.021100	0.339200	0.327000
H2731	H273	0.046700	0.303300	0.370600
H2741	H274	0.172900	0.606500	0.102900
H2751	H275	0.086100	0.612300	0.065200
H2761	H276	0.111000	0.623500	0.981900
H2771	H277	0.219300	0.620300	0.941200
H2781	H278	0.594700	0.609200	0.961900
H2791	H279	0.565000	0.606700	0.918300
H2801	H280	0.623300	0.700500	0.920900
H2811	H281	0.588300	0.699300	0.879200
H2821	H282	0.715600	0.676200	0.887000
H2831	H283	0.679600	0.671900	0.846700
H2841	H284	0.744200	0.767300	0.844300
H2851	H285	0.702900	0.764100	0.806300
H2861	H286	0.790200	0.736600	0.769800
H2871	H287	0.831900	0.741000	0.807200
H2881	H288	0.857700	0.830900	0.766000
H2891	H289	0.815400	0.826600	0.729000
H2901	H290	0.939600	0.800200	0.729300
H2911	H291	0.900800	0.805700	0.688300
H2921	H292	0.984000	0.890500	0.693900
H2931	H293	0.940200	0.897400	0.655500
H2941	H294	0.060200	0.864200	0.651100
H2951	H295	0.012500	0.862200	0.616400
H2961	H296	0.098900	0.954900	0.608900
H2971	H297	0.045100	0.955400	0.578200
H2981	H298	0.117200	0.930600	0.529700
H2991	H299	0.158100	0.985500	0.522800
H3001	H300	0.172700	0.935300	0.558700
H3011	H301	0.493900	0.216300	0.218200
H3021	H302	0.394200	0.161500	0.294200
H3031	H303	0.308300	0.192800	0.321600
H3041	H304	0.323500	0.280600	0.272000
H3051	H305	0.560400	0.539900	0.036900
H3061	H306	0.530900	0.538400	0.090600
H3071	H307	0.648200	0.602400	0.033400
H3081	H308	0.678000	0.555600	0.044500
H3091	H309	0.639600	0.527300	0.132000
H3101	H310	0.599900	0.568200	0.124900
H3111	H311	0.752200	0.595100	0.084600
H3121	H312	0.713600	0.636400	0.075500
H3131	H313	0.715500	0.570000	0.173500
H3141	H314	0.684100	0.616000	0.160700
H3151	H315	0.848600	0.165500	0.484200
H3161	H316	0.951700	0.238200	0.430300
H3171	H317	0.893800	0.246500	0.313800
H3181	H318	0.778300	0.190000	0.375200
H3191	H319	0.052000	0.253100	0.328800
H3201	H320	0.013300	0.285400	0.293600
H3211	H321	0.762400	0.273700	0.243000
H3221	H322	0.795600	0.286300	0.160200
H3231	H323	0.719600	0.229900	0.142200
H3241	H324	0.611800	0.168000	0.206000
H3251	H325	0.385300	0.030700	0.497100
H3261	H326	0.350800	0.031300	0.454800
H3271	H327	0.344700	0.082800	0.506900
H3281	H328	0.282100	0.039100	0.510900
H3291	H329	0.331700	0.136300	0.435300
H3301	H330	0.260400	0.090400	0.451800
H3311	H331	0.278600	0.146600	0.506200
H3321	H332	0.228300	0.150300	0.472100
H3331	H333	0.199400	0.055600	0.570600
H3341	H334	0.151100	0.056300	0.535600
H3351	H335	0.158300	0.121000	0.582900
H3361	H336	0.104300	0.114200	0.553600
H3371	H337	0.091400	0.033200	0.654100
H3381	H338	0.038500	0.024200	0.624400
H3391	H339	0.999700	0.090100	0.629100
H3401	H340	0.048500	0.094000	0.663000
H3411	H341	0.985200	0.016100	0.725200
H3421	H342	0.945300	0.002900	0.689800
H3431	H343	0.944200	0.079700	0.714400
H3441	H344	0.909500	0.071600	0.674800
H3451	H345	0.811900	0.015400	0.746400
H3461	H346	0.855300	0.976700	0.753600
H3471	H347	0.857800	0.008700	0.783500
H3481	H348	0.446600	0.197200	0.435000
H3491	H349	0.378400	0.248400	0.429800
H3501	H350	0.496700	0.336100	0.280500
H3511	H351	0.554900	0.277700	0.290200
H3521	H352	0.348100	0.327000	0.333800
H3531	H353	0.417300	0.370600	0.326100
H3541	H354	0.275800	0.102900	0.290600
H3551	H355	0.151300	0.065200	0.322500
H3561	H356	0.092900	0.981900	0.394600
H3571	H357	0.160500	0.941200	0.438500
H3581	H358	0.556600	0.961900	0.428900
H3591	H359	0.483300	0.918300	0.475000
H3601	H360	0.544200	0.920900	0.378600
H3611	H361	0.467500	0.879200	0.421500
H3621	H362	0.602600	0.887000	0.436800
H3631	H363	0.526300	0.846700	0.481400
H3641	H364	0.588500	0.844300	0.388400
H3651	H365	0.509200	0.806300	0.429600
H3661	H366	0.560000	0.769800	0.493600
H3671	H367	0.639100	0.807200	0.451800
H3681	H368	0.623700	0.766000	0.403100
H3691	H369	0.544400	0.729000	0.444400
H3701	H370	0.668900	0.729300	0.470500
H3711	H371	0.589100	0.688300	0.506000
H3721	H372	0.677900	0.693900	0.415600
H3731	H373	0.595700	0.655500	0.447100
H3741	H374	0.711300	0.651100	0.484700
H3751	H375	0.628900	0.616400	0.521400
H3761	H376	0.707800	0.608900	0.436200
H3771	H377	0.623300	0.578200	0.466400
H3781	H378	0.646900	0.529700	0.539700
H3791	H379	0.680900	0.522800	0.491700
H3801	H380	0.731400	0.558700	0.506000
H3811	H381	0.712100	0.218200	0.565500
H3821	H382	0.688400	0.294200	0.544300
H3831	H383	0.629900	0.321600	0.485600
H3841	H384	0.595500	0.272000	0.447400
H3851	H385	0.597300	0.036900	0.423200
H3861	H386	0.621500	0.090600	0.371000
H3871	H387	0.681600	0.033400	0.364200
H3881	H388	0.722500	0.044500	0.399900
H3891	H389	0.771600	0.132000	0.340700
H3901	H390	0.724800	0.124900	0.306900
H3911	H391	0.836800	0.084600	0.320300
H3921	H392	0.789100	0.075500	0.288100
H3931	H393	0.889000	0.173500	0.256500
H3941	H394	0.844800	0.160700	0.223300
H3951	H395	0.332800	0.484200	0.350300
H3961	H396	0.382000	0.430300	0.331500
H3971	H397	0.207600	0.313800	0.439700
H3981	H398	0.153500	0.375200	0.434800
H3991	H399	0.380800	0.328800	0.418100
H4001	H400	0.306900	0.293600	0.421000
H4011	H401	0.005400	0.243000	0.483300
H4021	H402	0.955800	0.160200	0.553500
H4031	H403	0.861800	0.142200	0.627900
H4041	H404	0.817800	0.206000	0.626000
H4051	H405	0.882400	0.497100	0.472200
H4061	H406	0.805600	0.454800	0.513900
H4071	H407	0.851600	0.506900	0.410300
H4081	H408	0.793000	0.510900	0.450000
H4091	H409	0.767000	0.435300	0.428400
H4101	H410	0.712200	0.451800	0.457800
H4111	H411	0.784800	0.506200	0.347200
H4121	H412	0.700400	0.472100	0.377600
H4131	H413	0.770000	0.570600	0.373800
H4141	H414	0.686700	0.535600	0.408100
H4151	H415	0.741200	0.582900	0.296100
H4161	H416	0.657900	0.553600	0.332200
H4171	H417	0.745500	0.654100	0.312700
H4181	H418	0.662900	0.624400	0.351400
H4191	H419	0.628800	0.629100	0.280800
H4201	H420	0.711500	0.663000	0.243000
H4211	H421	0.710400	0.725200	0.258700
H4221	H422	0.635100	0.689800	0.307300
H4231	H423	0.658600	0.714400	0.205900
H4241	H424	0.584300	0.674800	0.253600
H4251	H425	0.558300	0.746400	0.238200
H4261	H426	0.608900	0.753600	0.269700
H4271	H427	0.641300	0.783500	0.207800
H4281	H428	0.881600	0.435000	0.367800
H4291	H429	0.808200	0.429800	0.321800
H4301	H430	0.777200	0.280500	0.383400
H4311	H431	0.845100	0.290200	0.432100
H4321	H432	0.681900	0.333800	0.339200
H4331	H433	0.743400	0.326100	0.303300
H4341	H434	0.566400	0.290600	0.606500
H4351	H435	0.473800	0.322500	0.612300
H4361	H436	0.487500	0.394600	0.623500
H4371	H437	0.599000	0.438500	0.620300
H4381	H438	0.985500	0.428900	0.609200
H4391	H439	0.958300	0.475000	0.606700
H4401	H440	0.922800	0.378600	0.700500
H4411	H441	0.889000	0.421500	0.699300
H4421	H442	0.039400	0.436800	0.676200
H4431	H443	0.007700	0.481400	0.671900
H4441	H444	0.976900	0.388400	0.767300
H4451	H445	0.938800	0.429600	0.764100
H4461	H446	0.053600	0.493600	0.736600
H4471	H447	0.090900	0.451800	0.741000
H4481	H448	0.026800	0.403100	0.830900
H4491	H449	0.988800	0.444400	0.826600
H4501	H450	0.139400	0.470500	0.800200
H4511	H451	0.095100	0.506000	0.805700
H4521	H452	0.093500	0.415600	0.890500
H4531	H453	0.042800	0.447100	0.897400
H4541	H454	0.196000	0.484700	0.864200
H4551	H455	0.150300	0.521400	0.862200
H4561	H456	0.144000	0.436200	0.954900
H4571	H457	0.089700	0.466400	0.955400
H4581	H458	0.186600	0.539700	0.930600
H4591	H459	0.172600	0.491700	0.985500
H4601	H460	0.237400	0.506000	0.935300
H4611	H461	0.277600	0.565500	0.216300
H4621	H462	0.232700	0.544300	0.161500
H4631	H463	0.115500	0.485600	0.192800
H4641	H464	0.042900	0.447400	0.280600
H4651	H465	0.020500	0.423200	0.539900
H4661	H466	0.992500	0.371000	0.538400
H4671	H467	0.045800	0.364200	0.602400
H4681	H468	0.122400	0.399900	0.555600
H4691	H469	0.112300	0.340700	0.527300
H4701	H470	0.031700	0.306900	0.568200
H4711	H471	0.157100	0.320300	0.595100
H4721	H472	0.077200	0.288100	0.636400
H4731	H473	0.145500	0.256500	0.570000
H4741	H474	0.068100	0.223300	0.616000
H4751	H475	0.683100	0.350300	0.165500
H4761	H476	0.713500	0.331500	0.238200
H4771	H477	0.647300	0.439700	0.246500
H4781	H478	0.588300	0.434800	0.190000
H4791	H479	0.798900	0.418100	0.253100
H4801	H480	0.727900	0.421000	0.285400
C11	C1	0.555040	0.491930	0.781210
C21	C2	0.523300	0.488200	0.746700
C31	C3	0.508600	0.446100	0.740000
C41	C4	0.521100	0.402400	0.773100
C51	C5	0.548630	0.403790	0.809500
C61	C6	0.566100	0.447380	0.814480
C71	C7	0.592370	0.444030	0.856520
C81	C8	0.652080	0.519440	0.906400
C91	C9	0.679640	0.520810	0.946890
C101	C10	0.747300	0.556900	0.928800
C111	C11	0.812900	0.571200	0.894500
C121	C12	0.879400	0.622000	0.873300
C131	C13	0.897900	0.624300	0.922400
C141	C14	0.967400	0.672100	0.904200
C151	C15	0.982500	0.680600	0.949600
C161	C16	0.050100	0.724400	0.929500
C171	C17	0.062900	0.727000	0.969300
C181	C18	0.131400	0.759300	0.946100
C191	C19	0.153800	0.761000	0.990400
C201	C20	0.770400	0.627100	0.774900
C211	C21	0.841200	0.655400	0.743800
C221	C22	0.871150	0.651800	0.701950
C231	C23	0.824000	0.619600	0.693900
C241	C24	0.753500	0.590700	0.728900
C251	C25	0.950200	0.683600	0.665800
C261	C26	0.751480	0.390230	0.955090
C271	C27	0.817200	0.390400	0.930300
C281	C28	0.868400	0.386400	0.953000
C291	C29	0.854500	0.380800	0.001700
C301	C30	0.789300	0.381500	0.026100
C311	C31	0.736330	0.384570	0.005080
C321	C32	0.668780	0.384190	0.034550
C331	C33	0.502910	0.382720	0.030590
C341	C34	0.430400	0.375290	0.061590
C351	C35	0.384780	0.316960	0.099320
C361	C36	0.312400	0.309200	0.134400
C371	C37	0.267600	0.251300	0.174300
C381	C38	0.197900	0.244200	0.212200
C391	C39	0.154400	0.188300	0.252000
C401	C40	0.086300	0.179700	0.290200
C411	C41	0.033600	0.123600	0.326800
C421	C42	0.969900	0.119000	0.366600
C431	C43	0.922500	0.062100	0.408400
C441	C44	0.863800	0.051800	0.453000
C451	C45	0.527490	0.716380	0.798210
C461	C46	0.539540	0.770380	0.769860
C471	C47	0.599500	0.803100	0.725300
C481	C48	0.650400	0.784600	0.708900
C491	C49	0.640300	0.731700	0.738200
C501	C50	0.578460	0.697820	0.781240
C511	C51	0.569560	0.642760	0.805680
C521	C52	0.445880	0.525700	0.901260
C531	C53	0.432280	0.468660	0.930020
C541	C54	0.360000	0.433800	0.941000
C551	C55	0.357600	0.437500	0.891600
C561	C56	0.289400	0.398300	0.899200
C571	C57	0.279000	0.395400	0.853700
C581	C58	0.145500	0.815700	0.551300
C591	C59	0.077100	0.777200	0.583600
C601	C60	0.055000	0.763700	0.629200
C611	C61	0.114800	0.770800	0.650100
C621	C62	0.182500	0.803800	0.613500
C631	C63	0.981100	0.727500	0.672200
C641	C64	0.336250	0.781210	0.726860
C651	C65	0.270000	0.746700	0.765100
C661	C66	0.248600	0.740000	0.813900
C671	C67	0.294200	0.773100	0.824500
C681	C68	0.358130	0.809500	0.786710
C691	C69	0.380580	0.814480	0.738140
C701	C70	0.448890	0.856520	0.699450
C711	C71	0.558480	0.906400	0.574160
C721	C72	0.626530	0.946890	0.532300
C731	C73	0.676100	0.928800	0.514300
C741	C74	0.707400	0.894500	0.534300
C751	C75	0.752700	0.873300	0.504700
C761	C76	0.820300	0.922400	0.453300
C771	C77	0.871600	0.904200	0.423700
C781	C78	0.932100	0.949600	0.369800
C791	C79	0.979600	0.929500	0.346100
C801	C80	0.032200	0.969300	0.303700
C811	C81	0.077500	0.946100	0.294600
C821	C82	0.144200	0.990400	0.248600
C831	C83	0.545300	0.774900	0.598000
C841	C84	0.585000	0.743800	0.600800
C851	C85	0.573100	0.701950	0.646250
C861	C86	0.517900	0.693900	0.686500
C871	C87	0.482400	0.728900	0.680400
C881	C88	0.616000	0.665800	0.650600
C891	C89	0.706570	0.955090	0.654680
C901	C90	0.747500	0.930300	0.679300
C911	C91	0.821400	0.953000	0.660600
C921	C92	0.856200	0.001700	0.617500
C931	C93	0.815400	0.026100	0.592400
C941	C94	0.741410	0.005080	0.610350
C951	C95	0.703330	0.034550	0.581260
C961	C96	0.533500	0.030590	0.586690
C971	C97	0.491990	0.061590	0.563120
C981	C98	0.484100	0.099320	0.583720
C991	C99	0.446800	0.134400	0.556400
C1001	C100	0.441900	0.174300	0.574400
C1011	C101	0.410100	0.212200	0.543600
C1021	C102	0.406400	0.252000	0.559700
C1031	C103	0.376500	0.290200	0.530100
C1041	C104	0.360400	0.326800	0.549600
C1051	C105	0.336500	0.366600	0.514400
C1061	C106	0.330900	0.408400	0.529500
C1071	C107	0.316800	0.453000	0.495200
C1081	C108	0.325700	0.798210	0.485410
C1091	C109	0.309400	0.769860	0.459760
C1101	C110	0.324800	0.725300	0.471600
C1111	C111	0.359300	0.708900	0.506500
C1121	C112	0.378500	0.738200	0.530100
C1131	C113	0.359700	0.781240	0.520940
C1141	C114	0.375240	0.805680	0.551560
C1151	C115	0.347140	0.901260	0.573040
C1161	C116	0.362300	0.930020	0.601320
C1171	C117	0.301000	0.941000	0.625200
C1181	C118	0.249200	0.891600	0.670900
C1191	C119	0.188600	0.899200	0.702500
C1201	C120	0.132700	0.853700	0.750900
C1211	C121	0.696800	0.551300	0.633000
C1221	C122	0.660700	0.583600	0.639200
C1231	C123	0.684200	0.629200	0.607100
C1241	C124	0.764900	0.650100	0.579100
C1251	C125	0.796000	0.613500	0.582700
C1261	C126	0.653300	0.672200	0.600300
C1271	C127	0.063110	0.726860	0.491930
C1281	C128	0.035100	0.765100	0.488200
C1291	C129	0.062500	0.813900	0.446100
C1301	C130	0.118700	0.824500	0.402400
C1311	C131	0.144840	0.786710	0.403790
C1321	C132	0.118720	0.738140	0.447380
C1331	C133	0.148340	0.699450	0.444030
C1341	C134	0.132640	0.574160	0.519440
C1351	C135	0.158830	0.532300	0.520810
C1361	C136	0.190400	0.514300	0.556900
C1371	C137	0.241700	0.534300	0.571200
C1381	C138	0.257400	0.504700	0.622000
C1391	C139	0.273600	0.453300	0.624300
C1401	C140	0.295300	0.423700	0.672100
C1411	C141	0.301900	0.369800	0.680600
C1421	C142	0.325700	0.346100	0.724400
C1431	C143	0.335900	0.303700	0.727000
C1441	C144	0.372100	0.294600	0.759300
C1451	C145	0.392800	0.248600	0.761000
C1461	C146	0.143300	0.598000	0.627100
C1471	C147	0.185800	0.600800	0.655400
C1481	C148	0.219350	0.646250	0.651800
C1491	C149	0.204400	0.686500	0.619600
C1501	C150	0.162800	0.680400	0.590700
C1511	C151	0.266600	0.650600	0.683600
C1521	C152	0.361250	0.654680	0.390230
C1531	C153	0.426800	0.679300	0.390400
C1541	C154	0.482000	0.660600	0.386400
C1551	C155	0.473700	0.617500	0.380800
C1561	C156	0.407800	0.592400	0.381500
C1571	C157	0.351760	0.610350	0.384570
C1581	C158	0.284590	0.581260	0.384190
C1591	C159	0.120190	0.586690	0.382720
C1601	C160	0.055110	0.563120	0.375290
C1611	C161	0.067820	0.583720	0.316960
C1621	C162	0.003200	0.556400	0.309200
C1631	C163	0.016300	0.574400	0.251300
C1641	C164	0.953700	0.543600	0.244200
C1651	C165	0.966100	0.559700	0.188300
C1661	C166	0.906600	0.530100	0.179700
C1671	C167	0.910000	0.549600	0.123600
C1681	C168	0.850900	0.514400	0.119000
C1691	C169	0.860400	0.529500	0.062100
C1701	C170	0.812000	0.495200	0.051800
C1711	C171	0.811110	0.485410	0.716380
C1721	C172	0.769160	0.459760	0.770380
C1731	C173	0.796400	0.471600	0.803100
C1741	C174	0.865800	0.506500	0.784600
C1751	C175	0.908600	0.530100	0.731700
C1761	C176	0.880640	0.520940	0.697820
C1771	C177	0.926800	0.551560	0.642760
C1781	C178	0.920180	0.573040	0.525700
C1791	C179	0.963620	0.601320	0.468660
C1801	C180	0.926200	0.625200	0.433800
C1811	C181	0.920100	0.670900	0.437500
C1821	C182	0.891100	0.702500	0.398300
C1831	C183	0.883600	0.750900	0.395400
C1841	C184	0.329800	0.633000	0.815700
C1851	C185	0.299900	0.639200	0.777200
C1861	C186	0.291300	0.607100	0.763700
C1871	C187	0.344000	0.579100	0.770800
C1881	C188	0.378700	0.582700	0.803800
C1891	C189	0.253600	0.600300	0.727500
C1901	C190	0.444960	0.508070	0.218790
C1911	C191	0.476700	0.511800	0.253300
C1921	C192	0.491400	0.553900	0.260000
C1931	C193	0.478900	0.597600	0.226900
C1941	C194	0.451370	0.596210	0.190500
C1951	C195	0.433900	0.552620	0.185520
C1961	C196	0.407630	0.555970	0.143480
C1971	C197	0.347920	0.480560	0.093600
C1981	C198	0.320360	0.479190	0.053110
C1991	C199	0.252700	0.443100	0.071200
C2001	C200	0.187100	0.428800	0.105500
C2011	C201	0.120600	0.378000	0.126700
C2021	C202	0.102100	0.375700	0.077600
C2031	C203	0.032600	0.327900	0.095800
C2041	C204	0.017500	0.319400	0.050400
C2051	C205	0.949900	0.275600	0.070500
C2061	C206	0.937100	0.273000	0.030700
C2071	C207	0.868600	0.240700	0.053900
C2081	C208	0.846200	0.239000	0.009600
C2091	C209	0.229600	0.372900	0.225100
C2101	C210	0.158800	0.344600	0.256200
C2111	C211	0.128850	0.348200	0.298050
C2121	C212	0.176000	0.380400	0.306100
C2131	C213	0.246500	0.409300	0.271100
C2141	C214	0.049800	0.316400	0.334200
C2151	C215	0.248520	0.609770	0.044910
C2161	C216	0.182800	0.609600	0.069700
C2171	C217	0.131600	0.613600	0.047000
C2181	C218	0.145500	0.619200	0.998300
C2191	C219	0.210700	0.618500	0.973900
C2201	C220	0.263670	0.615430	0.994920
C2211	C221	0.331220	0.615810	0.965450
C2221	C222	0.497090	0.617280	0.969410
C2231	C223	0.569600	0.624710	0.938410
C2241	C224	0.615220	0.683040	0.900680
C2251	C225	0.687600	0.690800	0.865600
C2261	C226	0.732400	0.748700	0.825700
C2271	C227	0.802100	0.755800	0.787800
C2281	C228	0.845600	0.811700	0.748000
C2291	C229	0.913700	0.820300	0.709800
C2301	C230	0.966400	0.876400	0.673200
C2311	C231	0.030100	0.881000	0.633400
C2321	C232	0.077500	0.937900	0.591600
C2331	C233	0.136200	0.948200	0.547000
C2341	C234	0.472510	0.283620	0.201790
C2351	C235	0.460460	0.229620	0.230140
C2361	C236	0.400500	0.196900	0.274700
C2371	C237	0.349600	0.215400	0.291100
C2381	C238	0.359700	0.268300	0.261800
C2391	C239	0.421540	0.302180	0.218760
C2401	C240	0.430440	0.357240	0.194320
C2411	C241	0.554120	0.474300	0.098740
C2421	C242	0.567720	0.531340	0.069980
C2431	C243	0.640000	0.566200	0.059000
C2441	C244	0.642400	0.562500	0.108400
C2451	C245	0.710600	0.601700	0.100800
C2461	C246	0.721000	0.604600	0.146300
C2471	C247	0.854500	0.184300	0.448700
C2481	C248	0.922900	0.222800	0.416400
C2491	C249	0.945000	0.236300	0.370800
C2501	C250	0.885200	0.229200	0.349900
C2511	C251	0.817500	0.196200	0.386500
C2521	C252	0.018900	0.272500	0.327800
C2531	C253	0.663750	0.218790	0.273140
C2541	C254	0.730000	0.253300	0.234900
C2551	C255	0.751400	0.260000	0.186100
C2561	C256	0.705800	0.226900	0.175500
C2571	C257	0.641870	0.190500	0.213290
C2581	C258	0.619420	0.185520	0.261860
C2591	C259	0.551110	0.143480	0.300550
C2601	C260	0.441520	0.093600	0.425840
C2611	C261	0.373470	0.053110	0.467700
C2621	C262	0.323900	0.071200	0.485700
C2631	C263	0.292600	0.105500	0.465700
C2641	C264	0.247300	0.126700	0.495300
C2651	C265	0.179700	0.077600	0.546700
C2661	C266	0.128400	0.095800	0.576300
C2671	C267	0.067900	0.050400	0.630200
C2681	C268	0.020400	0.070500	0.653900
C2691	C269	0.967800	0.030700	0.696300
C2701	C270	0.922500	0.053900	0.705400
C2711	C271	0.855800	0.009600	0.751400
C2721	C272	0.454700	0.225100	0.402000
C2731	C273	0.415000	0.256200	0.399200
C2741	C274	0.426900	0.298050	0.353750
C2751	C275	0.482100	0.306100	0.313500
C2761	C276	0.517600	0.271100	0.319600
C2771	C277	0.384000	0.334200	0.349400
C2781	C278	0.293430	0.044910	0.345320
C2791	C279	0.252500	0.069700	0.320700
C2801	C280	0.178600	0.047000	0.339400
C2811	C281	0.143800	0.998300	0.382500
C2821	C282	0.184600	0.973900	0.407600
C2831	C283	0.258590	0.994920	0.389650
C2841	C284	0.296670	0.965450	0.418740
C2851	C285	0.466500	0.969410	0.413310
C2861	C286	0.508010	0.938410	0.436880
C2871	C287	0.515900	0.900680	0.416280
C2881	C288	0.553200	0.865600	0.443600
C2891	C289	0.558100	0.825700	0.425600
C2901	C290	0.589900	0.787800	0.456400
C2911	C291	0.593600	0.748000	0.440300
C2921	C292	0.623500	0.709800	0.469900
C2931	C293	0.639600	0.673200	0.450400
C2941	C294	0.663500	0.633400	0.485600
C2951	C295	0.669100	0.591600	0.470500
C2961	C296	0.683200	0.547000	0.504800
C2971	C297	0.674300	0.201790	0.514590
C2981	C298	0.690600	0.230140	0.540240
C2991	C299	0.675200	0.274700	0.528400
C3001	C300	0.640700	0.291100	0.493500
C3011	C301	0.621500	0.261800	0.469900
C3021	C302	0.640300	0.218760	0.479060
C3031	C303	0.624760	0.194320	0.448440
C3041	C304	0.652860	0.098740	0.426960
C3051	C305	0.637700	0.069980	0.398680
C3061	C306	0.699000	0.059000	0.374800
C3071	C307	0.750800	0.108400	0.329100
C3081	C308	0.811400	0.100800	0.297500
C3091	C309	0.867300	0.146300	0.249100
C3101	C310	0.303200	0.448700	0.367000
C3111	C311	0.339300	0.416400	0.360800
C3121	C312	0.315800	0.370800	0.392900
C3131	C313	0.235100	0.349900	0.420900
C3141	C314	0.204000	0.386500	0.417300
C3151	C315	0.346700	0.327800	0.399700
C3161	C316	0.936890	0.273140	0.508070
C3171	C317	0.964900	0.234900	0.511800
C3181	C318	0.937500	0.186100	0.553900
C3191	C319	0.881300	0.175500	0.597600
C3201	C320	0.855160	0.213290	0.596210
C3211	C321	0.881280	0.261860	0.552620
C3221	C322	0.851660	0.300550	0.555970
C3231	C323	0.867360	0.425840	0.480560
C3241	C324	0.841170	0.467700	0.479190
C3251	C325	0.809600	0.485700	0.443100
C3261	C326	0.758300	0.465700	0.428800
C3271	C327	0.742600	0.495300	0.378000
C3281	C328	0.726400	0.546700	0.375700
C3291	C329	0.704700	0.576300	0.327900
C3301	C330	0.698100	0.630200	0.319400
C3311	C331	0.674300	0.653900	0.275600
C3321	C332	0.664100	0.696300	0.273000
C3331	C333	0.627900	0.705400	0.240700
C3341	C334	0.607200	0.751400	0.239000
C3351	C335	0.856700	0.402000	0.372900
C3361	C336	0.814200	0.399200	0.344600
C3371	C337	0.780650	0.353750	0.348200
C3381	C338	0.795600	0.313500	0.380400
C3391	C339	0.837200	0.319600	0.409300
C3401	C340	0.733400	0.349400	0.316400
C3411	C341	0.638750	0.345320	0.609770
C3421	C342	0.573200	0.320700	0.609600
C3431	C343	0.518000	0.339400	0.613600
C3441	C344	0.526300	0.382500	0.619200
C3451	C345	0.592200	0.407600	0.618500
C3461	C346	0.648240	0.389650	0.615430
C3471	C347	0.715410	0.418740	0.615810
C3481	C348	0.879810	0.413310	0.617280
C3491	C349	0.944890	0.436880	0.624710
C3501	C350	0.932180	0.416280	0.683040
C3511	C351	0.996800	0.443600	0.690800
C3521	C352	0.983700	0.425600	0.748700
C3531	C353	0.046300	0.456400	0.755800
C3541	C354	0.033900	0.440300	0.811700
C3551	C355	0.093400	0.469900	0.820300
C3561	C356	0.090000	0.450400	0.876400
C3571	C357	0.149100	0.485600	0.881000
C3581	C358	0.139600	0.470500	0.937900
C3591	C359	0.188000	0.504800	0.948200
C3601	C360	0.188890	0.514590	0.283620
C3611	C361	0.230840	0.540240	0.229620
C3621	C362	0.203600	0.528400	0.196900
C3631	C363	0.134200	0.493500	0.215400
C3641	C364	0.091400	0.469900	0.268300
C3651	C365	0.119360	0.479060	0.302180
C3661	C366	0.073200	0.448440	0.357240
C3671	C367	0.079820	0.426960	0.474300
C3681	C368	0.036380	0.398680	0.531340
C3691	C369	0.073800	0.374800	0.566200
C3701	C370	0.079900	0.329100	0.562500
C3711	C371	0.108900	0.297500	0.601700
C3721	C372	0.116400	0.249100	0.604600
C3731	C373	0.670200	0.367000	0.184300
C3741	C374	0.700100	0.360800	0.222800
C3751	C375	0.708700	0.392900	0.236300
C3761	C376	0.656000	0.420900	0.229200
C3771	C377	0.621300	0.417300	0.196200
C3781	C378	0.746400	0.399700	0.272500
N11	N1	0.611280	0.485760	0.861620
N21	N2	0.635420	0.477290	0.903430
N31	N3	0.728630	0.593230	0.768240
N41	N4	0.616600	0.386360	0.016260
N51	N5	0.553560	0.383680	0.049400
N61	N6	0.509820	0.608640	0.845480
N71	N7	0.505990	0.556370	0.864100
N81	N8	0.194930	0.828300	0.560510
N91	N9	0.472900	0.861620	0.652620
N101	N10	0.538850	0.903430	0.619280
N111	N11	0.496870	0.768240	0.638530
N121	N12	0.632860	0.016260	0.597380
N131	N13	0.602960	0.049400	0.566920
N141	N14	0.355300	0.845480	0.545880
N151	N15	0.370090	0.864100	0.579530
N161	N16	0.755440	0.560510	0.611190
N171	N17	0.125520	0.652620	0.485760
N181	N18	0.158130	0.619280	0.477290
N191	N19	0.135400	0.638530	0.593230
N201	N20	0.230240	0.597380	0.386360
N211	N21	0.169880	0.566920	0.383680
N221	N22	0.901180	0.545880	0.608640
N231	N23	0.949620	0.579530	0.556370
N241	N24	0.366630	0.611190	0.828300
N251	N25	0.388720	0.514240	0.138380
N261	N26	0.364580	0.522710	0.096570
N271	N27	0.271370	0.406770	0.231760
N281	N28	0.383400	0.613640	0.983740
N291	N29	0.446440	0.616320	0.950600
N301	N30	0.490180	0.391360	0.154520
N311	N31	0.494010	0.443630	0.135900
N321	N32	0.805070	0.171700	0.439490
N331	N33	0.527100	0.138380	0.347380
N341	N34	0.461150	0.096570	0.380720
N351	N35	0.503130	0.231760	0.361470
N361	N36	0.367140	0.983740	0.402620
N371	N37	0.397040	0.950600	0.433080
N381	N38	0.644700	0.154520	0.454120
N391	N39	0.629910	0.135900	0.420470
N401	N40	0.244560	0.439490	0.388810
N411	N41	0.874480	0.347380	0.514240
N421	N42	0.841870	0.380720	0.522710
N431	N43	0.864600	0.361470	0.406770
N441	N44	0.769760	0.402620	0.613640
N451	N45	0.830120	0.433080	0.616320
N461	N46	0.098820	0.454120	0.391360
N471	N47	0.050380	0.420470	0.443630
N481	N48	0.633370	0.388810	0.171700
O11	O1	0.574730	0.537560	0.779470
O21	O2	0.594500	0.400900	0.888000
O31	O3	0.645280	0.561500	0.874360
O41	O4	0.704000	0.393700	0.931200
O51	O5	0.662700	0.381950	0.078450
O61	O6	0.512560	0.385630	0.985050
O71	O7	0.466410	0.687500	0.839470
O81	O8	0.617680	0.628800	0.786860
O91	O9	0.395790	0.541030	0.917760
O101	O10	0.354200	0.779470	0.682970
O111	O11	0.482500	0.888000	0.711100
O121	O12	0.519640	0.874360	0.564140
O131	O13	0.635200	0.931200	0.675100
O141	O14	0.741150	0.078450	0.539600
O151	O15	0.497610	0.985050	0.629320
O161	O16	0.305880	0.839470	0.473030
O171	O17	0.404540	0.786860	0.584340
O181	O18	0.313550	0.917760	0.541210
O191	O19	0.037170	0.682970	0.537560
O201	O20	0.193600	0.711100	0.400900
O211	O21	0.083780	0.564140	0.561500
O221	O22	0.310300	0.675100	0.393700
O231	O23	0.280750	0.539600	0.381950
O241	O24	0.126930	0.629320	0.385630
O251	O25	0.778910	0.473030	0.687500
O261	O26	0.988880	0.584340	0.628800
O271	O27	0.854760	0.541210	0.541030
O281	O28	0.425270	0.462440	0.220530
O291	O29	0.405500	0.599100	0.112000
O301	O30	0.354720	0.438500	0.125640
O311	O31	0.296000	0.606300	0.068800
O321	O32	0.337300	0.618050	0.921550
O331	O33	0.487440	0.614370	0.014950
O341	O34	0.533590	0.312500	0.160530
O351	O35	0.382320	0.371200	0.213140
O361	O36	0.604210	0.458970	0.082240
O371	O37	0.645800	0.220530	0.317030
O381	O38	0.517500	0.112000	0.288900
O391	O39	0.480360	0.125640	0.435860
O401	O40	0.364800	0.068800	0.324900
O411	O41	0.258850	0.921550	0.460400
O421	O42	0.502390	0.014950	0.370680
O431	O43	0.694120	0.160530	0.526970
O441	O44	0.595460	0.213140	0.415660
O451	O45	0.686450	0.082240	0.458790
O461	O46	0.962830	0.317030	0.462440
O471	O47	0.806400	0.288900	0.599100
O481	O48	0.916220	0.435860	0.438500
O491	O49	0.689700	0.324900	0.606300
O501	O50	0.719250	0.460400	0.618050
O511	O51	0.873070	0.370680	0.614370
O521	O52	0.221090	0.526970	0.312500
O531	O53	0.011120	0.415660	0.371200
O541	O54	0.145240	0.458790	0.458970
