data_FATKUI_clean_PM
_symmetry_space_group_name_H-M	'P1'
_cell_length_a	10.416000
_cell_length_b	11.440000
_cell_length_c	22.457000
_cell_angle_alpha	90.000000
_cell_angle_beta	97.695000
_cell_angle_gamma	90.000000
_symmetry_Int_Tables_number 1

loop_
_symmetry_equiv_pos_as_xyz
'x,y,z'

loop_
_atom_site_label
_atom_site_type_symbol
_atom_site_fract_x
_atom_site_fract_y
_atom_site_fract_z
Ce11	Ce1	0.392280	0.307020	0.774810
Ce21	Ce2	0.736880	0.580000	0.934950
Ce31	Ce3	0.107720	0.807020	0.725190
Ce41	Ce4	0.763120	0.080000	0.565050
Ce51	Ce5	0.607720	0.692980	0.225190
Ce61	Ce6	0.263120	0.420000	0.065050
Ce71	Ce7	0.892280	0.192980	0.274810
Ce81	Ce8	0.236880	0.920000	0.434950
H11	H1	0.886300	0.375600	0.837900
H21	H2	0.663600	0.521200	0.663200
H31	H3	0.023000	0.281900	0.710500
H41	H4	0.887800	0.310200	0.730400
H51	H5	0.976200	0.411900	0.712700
H61	H6	0.905600	0.634200	0.590700
H71	H7	0.762000	0.591500	0.575600
H81	H8	0.791700	0.724500	0.587000
H91	H9	0.613700	0.875600	0.662100
H101	H10	0.836400	0.021200	0.836800
H111	H11	0.477000	0.781900	0.789500
H121	H12	0.612200	0.810200	0.769600
H131	H13	0.523800	0.911900	0.787300
H141	H14	0.594400	0.134200	0.909300
H151	H15	0.738000	0.091500	0.924400
H161	H16	0.708300	0.224500	0.913000
H171	H17	0.113700	0.624400	0.162100
H181	H18	0.336400	0.478800	0.336800
H191	H19	0.977000	0.718100	0.289500
H201	H20	0.112200	0.689800	0.269600
H211	H21	0.023800	0.588100	0.287300
H221	H22	0.094400	0.365800	0.409300
H231	H23	0.238000	0.408500	0.424400
H241	H24	0.208300	0.275500	0.413000
H251	H25	0.386300	0.124400	0.337900
H261	H26	0.163600	0.978800	0.163200
H271	H27	0.523000	0.218100	0.210500
H281	H28	0.387800	0.189800	0.230400
H291	H29	0.476200	0.088100	0.212700
H301	H30	0.405600	0.865800	0.090700
H311	H31	0.262000	0.908500	0.075600
H321	H32	0.291700	0.775500	0.087000
C11	C1	0.995800	0.382800	0.951250
C21	C2	0.052400	0.368700	0.894240
C31	C3	0.173000	0.350200	0.877500
C41	C4	0.304200	0.348300	0.913040
C51	C5	0.037300	0.345500	0.795460
C61	C6	0.975600	0.336600	0.731530
C71	C7	0.916600	0.677700	0.819300
C81	C8	0.846000	0.637900	0.760760
C91	C9	0.741700	0.564300	0.746850
C101	C10	0.660400	0.487300	0.780510
C111	C11	0.810900	0.629500	0.663740
C121	C12	0.818200	0.646400	0.598440
C131	C13	0.296100	0.585700	0.776760
C141	C14	0.234400	0.539700	0.714160
C151	C15	0.504200	0.882800	0.548750
C161	C16	0.447600	0.868700	0.605760
C171	C17	0.327000	0.850200	0.622500
C181	C18	0.195800	0.848300	0.586960
C191	C19	0.462700	0.845500	0.704540
C201	C20	0.524400	0.836600	0.768470
C211	C21	0.583400	0.177700	0.680700
C221	C22	0.654000	0.137900	0.739240
C231	C23	0.758300	0.064300	0.753150
C241	C24	0.839600	0.987300	0.719490
C251	C25	0.689100	0.129500	0.836260
C261	C26	0.681800	0.146400	0.901560
C271	C27	0.203900	0.085700	0.723240
C281	C28	0.265600	0.039700	0.785840
C291	C29	0.004200	0.617200	0.048750
C301	C30	0.947600	0.631300	0.105760
C311	C31	0.827000	0.649800	0.122500
C321	C32	0.695800	0.651700	0.086960
C331	C33	0.962700	0.654500	0.204540
C341	C34	0.024400	0.663400	0.268470
C351	C35	0.083400	0.322300	0.180700
C361	C36	0.154000	0.362100	0.239240
C371	C37	0.258300	0.435700	0.253150
C381	C38	0.339600	0.512700	0.219490
C391	C39	0.189100	0.370500	0.336260
C401	C40	0.181800	0.353600	0.401560
C411	C41	0.703900	0.414300	0.223240
C421	C42	0.765600	0.460300	0.285840
C431	C43	0.495800	0.117200	0.451250
C441	C44	0.552400	0.131300	0.394240
C451	C45	0.673000	0.149800	0.377500
C461	C46	0.804200	0.151700	0.413040
C471	C47	0.537300	0.154500	0.295460
C481	C48	0.475600	0.163400	0.231530
C491	C49	0.416600	0.822300	0.319300
C501	C50	0.346000	0.862100	0.260760
C511	C51	0.241700	0.935700	0.246850
C521	C52	0.160400	0.012700	0.280510
C531	C53	0.310900	0.870500	0.163740
C541	C54	0.318200	0.853600	0.098440
C551	C55	0.796100	0.914300	0.276760
C561	C56	0.734400	0.960300	0.214160
N11	N1	0.968800	0.365900	0.841220
N21	N2	0.162100	0.336000	0.815720
N31	N3	0.888700	0.677800	0.708710
N41	N4	0.722600	0.560900	0.684860
N51	N5	0.531200	0.865900	0.658780
N61	N6	0.337900	0.836000	0.684280
N71	N7	0.611300	0.177800	0.791290
N81	N8	0.777400	0.060900	0.815140
N91	N9	0.031200	0.634100	0.158780
N101	N10	0.837900	0.664000	0.184280
N111	N11	0.111300	0.322200	0.291290
N121	N12	0.277400	0.439100	0.315140
N131	N13	0.468800	0.134100	0.341220
N141	N14	0.662100	0.164000	0.315720
N151	N15	0.388700	0.822200	0.208710
N161	N16	0.222600	0.939100	0.184860
O11	O1	0.876800	0.407300	0.945100
O21	O2	0.063300	0.366200	0.000500
O31	O3	0.398000	0.319340	0.885680
O41	O4	0.319200	0.377100	0.966890
O51	O5	0.020600	0.731600	0.817590
O61	O6	0.870900	0.658800	0.866630
O71	O7	0.685100	0.478300	0.836640
O81	O8	0.573800	0.433000	0.748330
O91	O9	0.368800	0.516500	0.808870
O101	O10	0.269800	0.687650	0.790180
O111	O11	0.156800	0.606360	0.683840
O121	O12	0.267100	0.439100	0.699150
O131	O13	0.623200	0.907300	0.554900
O141	O14	0.436700	0.866200	0.499500
O151	O15	0.102000	0.819340	0.614320
O161	O16	0.180800	0.877100	0.533110
O171	O17	0.479400	0.231600	0.682410
O181	O18	0.629100	0.158800	0.633370
O191	O19	0.814900	0.978300	0.663360
O201	O20	0.926200	0.933000	0.751670
O211	O21	0.131200	0.016500	0.691130
O221	O22	0.230200	0.187650	0.709820
O231	O23	0.343200	0.106360	0.816160
O241	O24	0.232900	0.939100	0.800850
O251	O25	0.123200	0.592700	0.054900
O261	O26	0.936700	0.633800	0.999500
O271	O27	0.602000	0.680660	0.114320
O281	O28	0.680800	0.622900	0.033110
O291	O29	0.979400	0.268400	0.182410
O301	O30	0.129100	0.341200	0.133370
O311	O31	0.314900	0.521700	0.163360
O321	O32	0.426200	0.567000	0.251670
O331	O33	0.631200	0.483500	0.191130
O341	O34	0.730200	0.312350	0.209820
O351	O35	0.843200	0.393640	0.316160
O361	O36	0.732900	0.560900	0.300850
O371	O37	0.376800	0.092700	0.445100
O381	O38	0.563300	0.133800	0.500500
O391	O39	0.898000	0.180660	0.385680
O401	O40	0.819200	0.122900	0.466890
O411	O41	0.520600	0.768400	0.317590
O421	O42	0.370900	0.841200	0.366630
O431	O43	0.185100	0.021700	0.336640
O441	O44	0.073800	0.067000	0.248330
O451	O45	0.868800	0.983500	0.308870
O461	O46	0.769800	0.812350	0.290180
O471	O47	0.656800	0.893640	0.183840
O481	O48	0.767100	0.060900	0.199150
