data_FATKES_clean_PM
_symmetry_space_group_name_H-M	'P1'
_cell_length_a	10.324600
_cell_length_b	11.335900
_cell_length_c	22.316000
_cell_angle_alpha	90.000000
_cell_angle_beta	97.290000
_cell_angle_gamma	90.000000
_symmetry_Int_Tables_number 1

loop_
_symmetry_equiv_pos_as_xyz
'x,y,z'

loop_
_atom_site_label
_atom_site_type_symbol
_atom_site_fract_x
_atom_site_fract_y
_atom_site_fract_z
Nd11	Nd1	0.890900	0.309630	0.774570
Nd21	Nd2	0.238390	0.582590	0.935500
Nd31	Nd3	0.609100	0.809630	0.725430
Nd41	Nd4	0.261610	0.082590	0.564500
Nd51	Nd5	0.109100	0.690370	0.225430
Nd61	Nd6	0.761610	0.417410	0.064500
Nd71	Nd7	0.390900	0.190370	0.274570
Nd81	Nd8	0.738390	0.917410	0.435500
H11	H1	0.384600	0.376700	0.838300
H21	H2	0.163700	0.522800	0.664700
H31	H3	0.520600	0.281000	0.710200
H41	H4	0.385500	0.316600	0.729900
H51	H5	0.480300	0.414300	0.711400
H61	H6	0.378400	0.588700	0.585600
H71	H7	0.234900	0.636900	0.576100
H81	H8	0.352300	0.724400	0.590600
H91	H9	0.115400	0.876700	0.661700
H101	H10	0.336300	0.022800	0.835300
H111	H11	0.979400	0.781000	0.789800
H121	H12	0.114500	0.816600	0.770100
H131	H13	0.019700	0.914300	0.788600
H141	H14	0.121600	0.088700	0.914400
H151	H15	0.265100	0.136900	0.923900
H161	H16	0.147700	0.224400	0.909400
H171	H17	0.615400	0.623300	0.161700
H181	H18	0.836300	0.477200	0.335300
H191	H19	0.479400	0.719000	0.289800
H201	H20	0.614500	0.683400	0.270100
H211	H21	0.519700	0.585700	0.288600
H221	H22	0.621600	0.411300	0.414400
H231	H23	0.765100	0.363100	0.423900
H241	H24	0.647700	0.275600	0.409400
H251	H25	0.884600	0.123300	0.338300
H261	H26	0.663700	0.977200	0.164700
H271	H27	0.020600	0.219000	0.210200
H281	H28	0.885500	0.183400	0.229900
H291	H29	0.980300	0.085700	0.211400
H301	H30	0.878400	0.911300	0.085600
H311	H31	0.734900	0.863100	0.076100
H321	H32	0.852300	0.775600	0.090600
C11	C1	0.673800	0.350800	0.876700
C21	C2	0.551500	0.370000	0.893800
C31	C3	0.537300	0.348300	0.795300
C41	C4	0.805000	0.348900	0.912800
C51	C5	0.493900	0.383800	0.951300
C61	C6	0.475300	0.339200	0.730900
C71	C7	0.735600	0.541900	0.715000
C81	C8	0.795800	0.587900	0.776900
C91	C9	0.347200	0.641200	0.761600
C101	C10	0.242000	0.568200	0.747200
C111	C11	0.312400	0.633500	0.664000
C121	C12	0.418200	0.681900	0.819600
C131	C13	0.160700	0.489600	0.782000
C141	C14	0.320200	0.647100	0.598200
C151	C15	0.826200	0.850800	0.623300
C161	C16	0.948500	0.870000	0.606200
C171	C17	0.962700	0.848300	0.704700
C181	C18	0.695000	0.848900	0.587200
C191	C19	0.006100	0.883800	0.548700
C201	C20	0.024700	0.839200	0.769100
C211	C21	0.764400	0.041900	0.785000
C221	C22	0.704200	0.087900	0.723100
C231	C23	0.152800	0.141200	0.738400
C241	C24	0.258000	0.068200	0.752800
C251	C25	0.187600	0.133500	0.836000
C261	C26	0.081800	0.181900	0.680400
C271	C27	0.339300	0.989600	0.718000
C281	C28	0.179800	0.147100	0.901800
C291	C29	0.326200	0.649200	0.123300
C301	C30	0.448500	0.630000	0.106200
C311	C31	0.462700	0.651700	0.204700
C321	C32	0.195000	0.651100	0.087200
C331	C33	0.506100	0.616200	0.048700
C341	C34	0.524700	0.660800	0.269100
C351	C35	0.264400	0.458100	0.285000
C361	C36	0.204200	0.412100	0.223100
C371	C37	0.652800	0.358800	0.238400
C381	C38	0.758000	0.431800	0.252800
C391	C39	0.687600	0.366500	0.336000
C401	C40	0.581800	0.318100	0.180400
C411	C41	0.839300	0.510400	0.218000
C421	C42	0.679800	0.352900	0.401800
C431	C43	0.173800	0.149200	0.376700
C441	C44	0.051500	0.130000	0.393800
C451	C45	0.037300	0.151700	0.295300
C461	C46	0.305000	0.151100	0.412800
C471	C47	0.993900	0.116200	0.451300
C481	C48	0.975300	0.160800	0.230900
C491	C49	0.235600	0.958100	0.215000
C501	C50	0.295800	0.912100	0.276900
C511	C51	0.847200	0.858800	0.261600
C521	C52	0.742000	0.931800	0.247200
C531	C53	0.812400	0.866500	0.164000
C541	C54	0.918200	0.818100	0.319600
C551	C55	0.660700	0.010400	0.282000
C561	C56	0.820200	0.852900	0.098200
N11	N1	0.662900	0.337000	0.815500
N21	N2	0.467800	0.367500	0.841400
N31	N3	0.390500	0.681200	0.709100
N41	N4	0.222900	0.563500	0.686000
N51	N5	0.837100	0.837000	0.684500
N61	N6	0.032200	0.867500	0.658600
N71	N7	0.109500	0.181200	0.790900
N81	N8	0.277100	0.063500	0.814000
N91	N9	0.337100	0.663000	0.184500
N101	N10	0.532200	0.632500	0.158600
N111	N11	0.609500	0.318800	0.290900
N121	N12	0.777100	0.436500	0.314000
N131	N13	0.162900	0.163000	0.315500
N141	N14	0.967800	0.132500	0.341400
N151	N15	0.890500	0.818800	0.209100
N161	N16	0.722900	0.936500	0.186000
O11	O1	0.900100	0.321100	0.884560
O21	O2	0.819800	0.374800	0.967640
O31	O3	0.562700	0.365700	0.001230
O41	O4	0.375500	0.410500	0.945610
O51	O5	0.768100	0.441400	0.698930
O61	O6	0.657800	0.609200	0.684280
O71	O7	0.868300	0.518800	0.809610
O81	O8	0.768900	0.691400	0.790470
O91	O9	0.521900	0.737700	0.817850
O101	O10	0.375100	0.658700	0.868400
O111	O11	0.185400	0.481200	0.838170
O121	O12	0.073600	0.435600	0.750310
O131	O13	0.599900	0.821100	0.615440
O141	O14	0.680200	0.874800	0.532360
O151	O15	0.937300	0.865700	0.498770
O161	O16	0.124500	0.910500	0.554390
O171	O17	0.731900	0.941400	0.801070
O181	O18	0.842200	0.109200	0.815720
O191	O19	0.631700	0.018800	0.690390
O201	O20	0.731100	0.191400	0.709530
O211	O21	0.978100	0.237700	0.682150
O221	O22	0.124900	0.158700	0.631600
O231	O23	0.314600	0.981200	0.661830
O241	O24	0.426400	0.935600	0.749690
O251	O25	0.099900	0.678900	0.115440
O261	O26	0.180200	0.625200	0.032360
O271	O27	0.437300	0.634300	0.998770
O281	O28	0.624500	0.589500	0.054390
O291	O29	0.231900	0.558600	0.301070
O301	O30	0.342200	0.390800	0.315720
O311	O31	0.131700	0.481200	0.190390
O321	O32	0.231100	0.308600	0.209530
O331	O33	0.478100	0.262300	0.182150
O341	O34	0.624900	0.341300	0.131600
O351	O35	0.814600	0.518800	0.161830
O361	O36	0.926400	0.564400	0.249690
O371	O37	0.400100	0.178900	0.384560
O381	O38	0.319800	0.125200	0.467640
O391	O39	0.062700	0.134300	0.501230
O401	O40	0.875500	0.089500	0.445610
O411	O41	0.268100	0.058600	0.198930
O421	O42	0.157800	0.890800	0.184280
O431	O43	0.368300	0.981200	0.309610
O441	O44	0.268900	0.808600	0.290470
O451	O45	0.021900	0.762300	0.317850
O461	O46	0.875100	0.841300	0.368400
O471	O47	0.685400	0.018800	0.338170
O481	O48	0.573600	0.064400	0.250310
