data_FATQID_clean_PM
_symmetry_space_group_name_H-M	'P1'
_cell_length_a	31.236000
_cell_length_b	31.236000
_cell_length_c	28.194000
_cell_angle_alpha	90.000000
_cell_angle_beta	90.000000
_cell_angle_gamma	90.000000
_symmetry_Int_Tables_number 1

loop_
_symmetry_equiv_pos_as_xyz
'x,y,z'

loop_
_atom_site_label
_atom_site_type_symbol
_atom_site_fract_x
_atom_site_fract_y
_atom_site_fract_z
C11	C1	0.902300	0.200300	0.435600
C21	C2	0.926100	0.220820	0.396000
C31	C3	0.912900	0.259900	0.378100
H11	H1	0.889200	0.273300	0.391300
C41	C4	0.934300	0.279400	0.340900
H21	H2	0.925000	0.305700	0.329300
C51	C5	0.983400	0.221700	0.338900
H31	H3	0.007300	0.208200	0.326200
C61	C6	0.961300	0.202600	0.376900
H41	H4	0.971100	0.176800	0.389100
C71	C7	0.970200	0.259300	0.320700
C81	C8	0.996300	0.324200	0.277900
H51	H5	0.983600	0.340700	0.301600
C91	C9	0.992700	0.279690	0.280400
C101	C10	0.012200	0.255600	0.244600
H61	H6	0.010700	0.225900	0.245500
C111	C11	0.034200	0.276000	0.207400
C121	C12	0.035000	0.320440	0.208300
H71	H7	0.048700	0.334700	0.183700
C131	C13	0.056700	0.251710	0.170200
C141	C14	0.040700	0.213800	0.155300
H81	H8	0.015900	0.203200	0.169200
C151	C15	0.061000	0.189800	0.118900
H91	H9	0.049200	0.164200	0.108400
C161	C16	0.099000	0.205200	0.099300
C171	C17	0.114000	0.243200	0.115000
H101	H10	0.138900	0.254400	0.101700
C181	C18	0.093300	0.265900	0.150500
H111	H11	0.105000	0.291500	0.161100
C191	C19	0.121800	0.180200	0.063200
O11	O1	0.156950	0.195100	0.048840
O21	O2	0.104780	0.146010	0.049090
Cu11	Cu1	0.021580	0.408590	0.245610
N11	N1	0.017030	0.344080	0.242860
O31	O3	0.869180	0.217960	0.450750
O41	O4	0.917330	0.165390	0.450270
O51	O5	0.034380	0.400160	0.314340
O61	O6	0.025860	0.468130	0.351920
O71	O7	0.093500	0.447600	0.319310
O81	O8	0.067430	0.413860	0.388860
O91	O9	0.958940	0.419000	0.220800
O101	O10	0.918600	0.382530	0.281800
S11	S1	0.056000	0.432110	0.344160
C201	C20	0.097700	0.799700	0.435600
C211	C21	0.073900	0.779180	0.396000
C221	C22	0.087100	0.740100	0.378100
H121	H12	0.110800	0.726700	0.391300
C231	C23	0.065700	0.720600	0.340900
H131	H13	0.075000	0.694300	0.329300
C241	C24	0.016600	0.778300	0.338900
H141	H14	0.992700	0.791800	0.326200
C251	C25	0.038700	0.797400	0.376900
H151	H15	0.028900	0.823200	0.389100
C261	C26	0.029800	0.740700	0.320700
C271	C27	0.003700	0.675800	0.277900
H161	H16	0.016400	0.659300	0.301600
C281	C28	0.007300	0.720310	0.280400
C291	C29	0.987800	0.744400	0.244600
H171	H17	0.989300	0.774100	0.245500
C301	C30	0.965800	0.724000	0.207400
C311	C31	0.965000	0.679560	0.208300
H181	H18	0.951300	0.665300	0.183700
C321	C32	0.943300	0.748290	0.170200
C331	C33	0.959300	0.786200	0.155300
H191	H19	0.984100	0.796800	0.169200
C341	C34	0.939000	0.810200	0.118900
H201	H20	0.950800	0.835800	0.108400
C351	C35	0.901000	0.794800	0.099300
C361	C36	0.886000	0.756800	0.115000
H211	H21	0.861100	0.745600	0.101700
C371	C37	0.906700	0.734100	0.150500
H221	H22	0.895000	0.708500	0.161100
C381	C38	0.878200	0.819800	0.063200
O111	O11	0.843050	0.804900	0.048840
O121	O12	0.895220	0.853990	0.049090
Cu21	Cu2	0.978420	0.591410	0.245610
N21	N2	0.982970	0.655920	0.242860
O131	O13	0.130820	0.782040	0.450750
O141	O14	0.082670	0.834610	0.450270
O151	O15	0.965620	0.599840	0.314340
O161	O16	0.974140	0.531870	0.351920
O171	O17	0.906500	0.552400	0.319310
O181	O18	0.932570	0.586140	0.388860
O191	O19	0.041060	0.581000	0.220800
O201	O20	0.081400	0.617470	0.281800
S21	S2	0.944000	0.567890	0.344160
C391	C39	0.799700	0.902300	0.935600
C401	C40	0.779180	0.926100	0.896000
C411	C41	0.740100	0.912900	0.878100
H231	H23	0.726700	0.889200	0.891300
C421	C42	0.720600	0.934300	0.840900
H241	H24	0.694300	0.925000	0.829300
C431	C43	0.778300	0.983400	0.838900
H251	H25	0.791800	0.007300	0.826200
C441	C44	0.797400	0.961300	0.876900
H261	H26	0.823200	0.971100	0.889100
C451	C45	0.740700	0.970200	0.820700
C461	C46	0.675800	0.996300	0.777900
H271	H27	0.659300	0.983600	0.801600
C471	C47	0.720310	0.992700	0.780400
C481	C48	0.744400	0.012200	0.744600
H281	H28	0.774100	0.010700	0.745500
C491	C49	0.724000	0.034200	0.707400
C501	C50	0.679560	0.035000	0.708300
H291	H29	0.665300	0.048700	0.683700
C511	C51	0.748290	0.056700	0.670200
C521	C52	0.786200	0.040700	0.655300
H301	H30	0.796800	0.015900	0.669200
C531	C53	0.810200	0.061000	0.618900
H311	H31	0.835800	0.049200	0.608400
C541	C54	0.794800	0.099000	0.599300
C551	C55	0.756800	0.114000	0.615000
H321	H32	0.745600	0.138900	0.601700
C561	C56	0.734100	0.093300	0.650500
H331	H33	0.708500	0.105000	0.661100
C571	C57	0.819800	0.121800	0.563200
O211	O21	0.804900	0.156950	0.548840
O221	O22	0.853990	0.104780	0.549090
Cu31	Cu3	0.591410	0.021580	0.745610
N31	N3	0.655920	0.017030	0.742860
O231	O23	0.782040	0.869180	0.950750
O241	O24	0.834610	0.917330	0.950270
O251	O25	0.599840	0.034380	0.814340
O261	O26	0.531870	0.025860	0.851920
O271	O27	0.552400	0.093500	0.819310
O281	O28	0.586140	0.067430	0.888860
O291	O29	0.581000	0.958940	0.720800
O301	O30	0.617470	0.918600	0.781800
S31	S3	0.567890	0.056000	0.844160
C581	C58	0.200300	0.097700	0.935600
C591	C59	0.220820	0.073900	0.896000
C601	C60	0.259900	0.087100	0.878100
H341	H34	0.273300	0.110800	0.891300
C611	C61	0.279400	0.065700	0.840900
H351	H35	0.305700	0.075000	0.829300
C621	C62	0.221700	0.016600	0.838900
H361	H36	0.208200	0.992700	0.826200
C631	C63	0.202600	0.038700	0.876900
H371	H37	0.176800	0.028900	0.889100
C641	C64	0.259300	0.029800	0.820700
C651	C65	0.324200	0.003700	0.777900
H381	H38	0.340700	0.016400	0.801600
C661	C66	0.279690	0.007300	0.780400
C671	C67	0.255600	0.987800	0.744600
H391	H39	0.225900	0.989300	0.745500
C681	C68	0.276000	0.965800	0.707400
C691	C69	0.320440	0.965000	0.708300
H401	H40	0.334700	0.951300	0.683700
C701	C70	0.251710	0.943300	0.670200
C711	C71	0.213800	0.959300	0.655300
H411	H41	0.203200	0.984100	0.669200
C721	C72	0.189800	0.939000	0.618900
H421	H42	0.164200	0.950800	0.608400
C731	C73	0.205200	0.901000	0.599300
C741	C74	0.243200	0.886000	0.615000
H431	H43	0.254400	0.861100	0.601700
C751	C75	0.265900	0.906700	0.650500
H441	H44	0.291500	0.895000	0.661100
C761	C76	0.180200	0.878200	0.563200
O311	O31	0.195100	0.843050	0.548840
O321	O32	0.146010	0.895220	0.549090
Cu41	Cu4	0.408590	0.978420	0.745610
N41	N4	0.344080	0.982970	0.742860
O331	O33	0.217960	0.130820	0.950750
O341	O34	0.165390	0.082670	0.950270
O351	O35	0.400160	0.965620	0.814340
O361	O36	0.468130	0.974140	0.851920
O371	O37	0.447600	0.906500	0.819310
O381	O38	0.413860	0.932570	0.888860
O391	O39	0.419000	0.041060	0.720800
O401	O40	0.382530	0.081400	0.781800
S41	S4	0.432110	0.944000	0.844160
C771	C77	0.597700	0.700300	0.564400
C781	C78	0.573900	0.720820	0.604000
C791	C79	0.587100	0.759900	0.621900
H451	H45	0.610800	0.773300	0.608700
C801	C80	0.565700	0.779400	0.659100
H461	H46	0.575000	0.805700	0.670700
C811	C81	0.516600	0.721700	0.661100
H471	H47	0.492700	0.708200	0.673800
C821	C82	0.538700	0.702600	0.623100
H481	H48	0.528900	0.676800	0.610900
C831	C83	0.529800	0.759300	0.679300
C841	C84	0.503700	0.824200	0.722100
H491	H49	0.516400	0.840700	0.698400
C851	C85	0.507300	0.779690	0.719600
C861	C86	0.487800	0.755600	0.755400
H501	H50	0.489300	0.725900	0.754500
C871	C87	0.465800	0.776000	0.792600
C881	C88	0.465000	0.820440	0.791700
H511	H51	0.451300	0.834700	0.816300
C891	C89	0.443300	0.751710	0.829800
C901	C90	0.459300	0.713800	0.844700
H521	H52	0.484100	0.703200	0.830800
C911	C91	0.439000	0.689800	0.881100
H531	H53	0.450800	0.664200	0.891600
C921	C92	0.401000	0.705200	0.900700
C931	C93	0.386000	0.743200	0.885000
H541	H54	0.361100	0.754400	0.898300
C941	C94	0.406700	0.765900	0.849500
H551	H55	0.395000	0.791500	0.838900
C951	C95	0.378200	0.680200	0.936800
O411	O41	0.343050	0.695100	0.951160
O421	O42	0.395220	0.646010	0.950910
Cu51	Cu5	0.478420	0.908590	0.754390
N51	N5	0.482970	0.844080	0.757140
O431	O43	0.630820	0.717960	0.549250
O441	O44	0.582670	0.665390	0.549730
O451	O45	0.465620	0.900160	0.685660
O461	O46	0.474140	0.968130	0.648080
O471	O47	0.406500	0.947600	0.680690
O481	O48	0.432570	0.913860	0.611140
O491	O49	0.541060	0.919000	0.779200
O501	O50	0.581400	0.882530	0.718200
S51	S5	0.444000	0.932110	0.655840
C961	C96	0.402300	0.299700	0.564400
C971	C97	0.426100	0.279180	0.604000
C981	C98	0.412900	0.240100	0.621900
H561	H56	0.389200	0.226700	0.608700
C991	C99	0.434300	0.220600	0.659100
H571	H57	0.425000	0.194300	0.670700
C1001	C100	0.483400	0.278300	0.661100
H581	H58	0.507300	0.291800	0.673800
C1011	C101	0.461300	0.297400	0.623100
H591	H59	0.471100	0.323200	0.610900
C1021	C102	0.470200	0.240700	0.679300
C1031	C103	0.496300	0.175800	0.722100
H601	H60	0.483600	0.159300	0.698400
C1041	C104	0.492700	0.220310	0.719600
C1051	C105	0.512200	0.244400	0.755400
H611	H61	0.510700	0.274100	0.754500
C1061	C106	0.534200	0.224000	0.792600
C1071	C107	0.535000	0.179560	0.791700
H621	H62	0.548700	0.165300	0.816300
C1081	C108	0.556700	0.248290	0.829800
C1091	C109	0.540700	0.286200	0.844700
H631	H63	0.515900	0.296800	0.830800
C1101	C110	0.561000	0.310200	0.881100
H641	H64	0.549200	0.335800	0.891600
C1111	C111	0.599000	0.294800	0.900700
C1121	C112	0.614000	0.256800	0.885000
H651	H65	0.638900	0.245600	0.898300
C1131	C113	0.593300	0.234100	0.849500
H661	H66	0.605000	0.208500	0.838900
C1141	C114	0.621800	0.319800	0.936800
O511	O51	0.656950	0.304900	0.951160
O521	O52	0.604780	0.353990	0.950910
Cu61	Cu6	0.521580	0.091410	0.754390
N61	N6	0.517030	0.155920	0.757140
O531	O53	0.369180	0.282040	0.549250
O541	O54	0.417330	0.334610	0.549730
O551	O55	0.534380	0.099840	0.685660
O561	O56	0.525860	0.031870	0.648080
O571	O57	0.593500	0.052400	0.680690
O581	O58	0.567430	0.086140	0.611140
O591	O59	0.458940	0.081000	0.779200
O601	O60	0.418600	0.117470	0.718200
S61	S6	0.556000	0.067890	0.655840
C1151	C115	0.700300	0.402300	0.064400
C1161	C116	0.720820	0.426100	0.104000
C1171	C117	0.759900	0.412900	0.121900
H671	H67	0.773300	0.389200	0.108700
C1181	C118	0.779400	0.434300	0.159100
H681	H68	0.805700	0.425000	0.170700
C1191	C119	0.721700	0.483400	0.161100
H691	H69	0.708200	0.507300	0.173800
C1201	C120	0.702600	0.461300	0.123100
H701	H70	0.676800	0.471100	0.110900
C1211	C121	0.759300	0.470200	0.179300
C1221	C122	0.824200	0.496300	0.222100
H711	H71	0.840700	0.483600	0.198400
C1231	C123	0.779690	0.492700	0.219600
C1241	C124	0.755600	0.512200	0.255400
H721	H72	0.725900	0.510700	0.254500
C1251	C125	0.776000	0.534200	0.292600
C1261	C126	0.820440	0.535000	0.291700
H731	H73	0.834700	0.548700	0.316300
C1271	C127	0.751710	0.556700	0.329800
C1281	C128	0.713800	0.540700	0.344700
H741	H74	0.703200	0.515900	0.330800
C1291	C129	0.689800	0.561000	0.381100
H751	H75	0.664200	0.549200	0.391600
C1301	C130	0.705200	0.599000	0.400700
C1311	C131	0.743200	0.614000	0.385000
H761	H76	0.754400	0.638900	0.398300
C1321	C132	0.765900	0.593300	0.349500
H771	H77	0.791500	0.605000	0.338900
C1331	C133	0.680200	0.621800	0.436800
O611	O61	0.695100	0.656950	0.451160
O621	O62	0.646010	0.604780	0.450910
Cu71	Cu7	0.908590	0.521580	0.254390
N71	N7	0.844080	0.517030	0.257140
O631	O63	0.717960	0.369180	0.049250
O641	O64	0.665390	0.417330	0.049730
O651	O65	0.900160	0.534380	0.185660
O661	O66	0.968130	0.525860	0.148080
O671	O67	0.947600	0.593500	0.180690
O681	O68	0.913860	0.567430	0.111140
O691	O69	0.919000	0.458940	0.279200
O701	O70	0.882530	0.418600	0.218200
S71	S7	0.932110	0.556000	0.155840
C1341	C134	0.299700	0.597700	0.064400
C1351	C135	0.279180	0.573900	0.104000
C1361	C136	0.240100	0.587100	0.121900
H781	H78	0.226700	0.610800	0.108700
C1371	C137	0.220600	0.565700	0.159100
H791	H79	0.194300	0.575000	0.170700
C1381	C138	0.278300	0.516600	0.161100
H801	H80	0.291800	0.492700	0.173800
C1391	C139	0.297400	0.538700	0.123100
H811	H81	0.323200	0.528900	0.110900
C1401	C140	0.240700	0.529800	0.179300
C1411	C141	0.175800	0.503700	0.222100
H821	H82	0.159300	0.516400	0.198400
C1421	C142	0.220310	0.507300	0.219600
C1431	C143	0.244400	0.487800	0.255400
H831	H83	0.274100	0.489300	0.254500
C1441	C144	0.224000	0.465800	0.292600
C1451	C145	0.179560	0.465000	0.291700
H841	H84	0.165300	0.451300	0.316300
C1461	C146	0.248290	0.443300	0.329800
C1471	C147	0.286200	0.459300	0.344700
H851	H85	0.296800	0.484100	0.330800
C1481	C148	0.310200	0.439000	0.381100
H861	H86	0.335800	0.450800	0.391600
C1491	C149	0.294800	0.401000	0.400700
C1501	C150	0.256800	0.386000	0.385000
H871	H87	0.245600	0.361100	0.398300
C1511	C151	0.234100	0.406700	0.349500
H881	H88	0.208500	0.395000	0.338900
C1521	C152	0.319800	0.378200	0.436800
O711	O71	0.304900	0.343050	0.451160
O721	O72	0.353990	0.395220	0.450910
Cu81	Cu8	0.091410	0.478420	0.254390
N81	N8	0.155920	0.482970	0.257140
O731	O73	0.282040	0.630820	0.049250
O741	O74	0.334610	0.582670	0.049730
O751	O75	0.099840	0.465620	0.185660
O761	O76	0.031870	0.474140	0.148080
O771	O77	0.052400	0.406500	0.180690
O781	O78	0.086140	0.432570	0.111140
O791	O79	0.081000	0.541060	0.279200
O801	O80	0.117470	0.581400	0.218200
S81	S8	0.067890	0.444000	0.155840
C1531	C153	0.097700	0.799700	0.564400
C1541	C154	0.073900	0.779180	0.604000
C1551	C155	0.087100	0.740100	0.621900
H891	H89	0.110800	0.726700	0.608700
C1561	C156	0.065700	0.720600	0.659100
H901	H90	0.075000	0.694300	0.670700
C1571	C157	0.016600	0.778300	0.661100
H911	H91	0.992700	0.791800	0.673800
C1581	C158	0.038700	0.797400	0.623100
H921	H92	0.028900	0.823200	0.610900
C1591	C159	0.029800	0.740700	0.679300
C1601	C160	0.003700	0.675800	0.722100
H931	H93	0.016400	0.659300	0.698400
C1611	C161	0.007300	0.720310	0.719600
C1621	C162	0.987800	0.744400	0.755400
H941	H94	0.989300	0.774100	0.754500
C1631	C163	0.965800	0.724000	0.792600
C1641	C164	0.965000	0.679560	0.791700
H951	H95	0.951300	0.665300	0.816300
C1651	C165	0.943300	0.748290	0.829800
C1661	C166	0.959300	0.786200	0.844700
H961	H96	0.984100	0.796800	0.830800
C1671	C167	0.939000	0.810200	0.881100
H971	H97	0.950800	0.835800	0.891600
C1681	C168	0.901000	0.794800	0.900700
C1691	C169	0.886000	0.756800	0.885000
H981	H98	0.861100	0.745600	0.898300
C1701	C170	0.906700	0.734100	0.849500
H991	H99	0.895000	0.708500	0.838900
C1711	C171	0.878200	0.819800	0.936800
O811	O81	0.843050	0.804900	0.951160
O821	O82	0.895220	0.853990	0.950910
Cu91	Cu9	0.978420	0.591410	0.754390
N91	N9	0.982970	0.655920	0.757140
O831	O83	0.130820	0.782040	0.549250
O841	O84	0.082670	0.834610	0.549730
O851	O85	0.965620	0.599840	0.685660
O861	O86	0.974140	0.531870	0.648080
O871	O87	0.906500	0.552400	0.680690
O881	O88	0.932570	0.586140	0.611140
O891	O89	0.041060	0.581000	0.779200
O901	O90	0.081400	0.617470	0.718200
S91	S9	0.944000	0.567890	0.655840
C1721	C172	0.902300	0.200300	0.564400
C1731	C173	0.926100	0.220820	0.604000
C1741	C174	0.912900	0.259900	0.621900
H1001	H100	0.889200	0.273300	0.608700
C1751	C175	0.934300	0.279400	0.659100
H1011	H101	0.925000	0.305700	0.670700
C1761	C176	0.983400	0.221700	0.661100
H1021	H102	0.007300	0.208200	0.673800
C1771	C177	0.961300	0.202600	0.623100
H1031	H103	0.971100	0.176800	0.610900
C1781	C178	0.970200	0.259300	0.679300
C1791	C179	0.996300	0.324200	0.722100
H1041	H104	0.983600	0.340700	0.698400
C1801	C180	0.992700	0.279690	0.719600
C1811	C181	0.012200	0.255600	0.755400
H1051	H105	0.010700	0.225900	0.754500
C1821	C182	0.034200	0.276000	0.792600
C1831	C183	0.035000	0.320440	0.791700
H1061	H106	0.048700	0.334700	0.816300
C1841	C184	0.056700	0.251710	0.829800
C1851	C185	0.040700	0.213800	0.844700
H1071	H107	0.015900	0.203200	0.830800
C1861	C186	0.061000	0.189800	0.881100
H1081	H108	0.049200	0.164200	0.891600
C1871	C187	0.099000	0.205200	0.900700
C1881	C188	0.114000	0.243200	0.885000
H1091	H109	0.138900	0.254400	0.898300
C1891	C189	0.093300	0.265900	0.849500
H1101	H110	0.105000	0.291500	0.838900
C1901	C190	0.121800	0.180200	0.936800
O911	O91	0.156950	0.195100	0.951160
O921	O92	0.104780	0.146010	0.950910
Cu101	Cu10	0.021580	0.408590	0.754390
N101	N10	0.017030	0.344080	0.757140
O931	O93	0.869180	0.217960	0.549250
O941	O94	0.917330	0.165390	0.549730
O951	O95	0.034380	0.400160	0.685660
O961	O96	0.025860	0.468130	0.648080
O971	O97	0.093500	0.447600	0.680690
O981	O98	0.067430	0.413860	0.611140
O991	O99	0.958940	0.419000	0.779200
O1001	O100	0.918600	0.382530	0.718200
S101	S10	0.056000	0.432110	0.655840
C1911	C191	0.200300	0.097700	0.064400
C1921	C192	0.220820	0.073900	0.104000
C1931	C193	0.259900	0.087100	0.121900
H1111	H111	0.273300	0.110800	0.108700
C1941	C194	0.279400	0.065700	0.159100
H1121	H112	0.305700	0.075000	0.170700
C1951	C195	0.221700	0.016600	0.161100
H1131	H113	0.208200	0.992700	0.173800
C1961	C196	0.202600	0.038700	0.123100
H1141	H114	0.176800	0.028900	0.110900
C1971	C197	0.259300	0.029800	0.179300
C1981	C198	0.324200	0.003700	0.222100
H1151	H115	0.340700	0.016400	0.198400
C1991	C199	0.279690	0.007300	0.219600
C2001	C200	0.255600	0.987800	0.255400
H1161	H116	0.225900	0.989300	0.254500
C2011	C201	0.276000	0.965800	0.292600
C2021	C202	0.320440	0.965000	0.291700
H1171	H117	0.334700	0.951300	0.316300
C2031	C203	0.251710	0.943300	0.329800
C2041	C204	0.213800	0.959300	0.344700
H1181	H118	0.203200	0.984100	0.330800
C2051	C205	0.189800	0.939000	0.381100
H1191	H119	0.164200	0.950800	0.391600
C2061	C206	0.205200	0.901000	0.400700
C2071	C207	0.243200	0.886000	0.385000
H1201	H120	0.254400	0.861100	0.398300
C2081	C208	0.265900	0.906700	0.349500
H1211	H121	0.291500	0.895000	0.338900
C2091	C209	0.180200	0.878200	0.436800
O1011	O101	0.195100	0.843050	0.451160
O1021	O102	0.146010	0.895220	0.450910
Cu111	Cu11	0.408590	0.978420	0.254390
N111	N11	0.344080	0.982970	0.257140
O1031	O103	0.217960	0.130820	0.049250
O1041	O104	0.165390	0.082670	0.049730
O1051	O105	0.400160	0.965620	0.185660
O1061	O106	0.468130	0.974140	0.148080
O1071	O107	0.447600	0.906500	0.180690
O1081	O108	0.413860	0.932570	0.111140
O1091	O109	0.419000	0.041060	0.279200
O1101	O110	0.382530	0.081400	0.218200
S111	S11	0.432110	0.944000	0.155840
C2101	C210	0.799700	0.902300	0.064400
C2111	C211	0.779180	0.926100	0.104000
C2121	C212	0.740100	0.912900	0.121900
H1221	H122	0.726700	0.889200	0.108700
C2131	C213	0.720600	0.934300	0.159100
H1231	H123	0.694300	0.925000	0.170700
C2141	C214	0.778300	0.983400	0.161100
H1241	H124	0.791800	0.007300	0.173800
C2151	C215	0.797400	0.961300	0.123100
H1251	H125	0.823200	0.971100	0.110900
C2161	C216	0.740700	0.970200	0.179300
C2171	C217	0.675800	0.996300	0.222100
H1261	H126	0.659300	0.983600	0.198400
C2181	C218	0.720310	0.992700	0.219600
C2191	C219	0.744400	0.012200	0.255400
H1271	H127	0.774100	0.010700	0.254500
C2201	C220	0.724000	0.034200	0.292600
C2211	C221	0.679560	0.035000	0.291700
H1281	H128	0.665300	0.048700	0.316300
C2221	C222	0.748290	0.056700	0.329800
C2231	C223	0.786200	0.040700	0.344700
H1291	H129	0.796800	0.015900	0.330800
C2241	C224	0.810200	0.061000	0.381100
H1301	H130	0.835800	0.049200	0.391600
C2251	C225	0.794800	0.099000	0.400700
C2261	C226	0.756800	0.114000	0.385000
H1311	H131	0.745600	0.138900	0.398300
C2271	C227	0.734100	0.093300	0.349500
H1321	H132	0.708500	0.105000	0.338900
C2281	C228	0.819800	0.121800	0.436800
O1111	O111	0.804900	0.156950	0.451160
O1121	O112	0.853990	0.104780	0.450910
Cu121	Cu12	0.591410	0.021580	0.254390
N121	N12	0.655920	0.017030	0.257140
O1131	O113	0.782040	0.869180	0.049250
O1141	O114	0.834610	0.917330	0.049730
O1151	O115	0.599840	0.034380	0.185660
O1161	O116	0.531870	0.025860	0.148080
O1171	O117	0.552400	0.093500	0.180690
O1181	O118	0.586140	0.067430	0.111140
O1191	O119	0.581000	0.958940	0.279200
O1201	O120	0.617470	0.918600	0.218200
S121	S12	0.567890	0.056000	0.155840
C2291	C229	0.402300	0.299700	0.435600
C2301	C230	0.426100	0.279180	0.396000
C2311	C231	0.412900	0.240100	0.378100
H1331	H133	0.389200	0.226700	0.391300
C2321	C232	0.434300	0.220600	0.340900
H1341	H134	0.425000	0.194300	0.329300
C2331	C233	0.483400	0.278300	0.338900
H1351	H135	0.507300	0.291800	0.326200
C2341	C234	0.461300	0.297400	0.376900
H1361	H136	0.471100	0.323200	0.389100
C2351	C235	0.470200	0.240700	0.320700
C2361	C236	0.496300	0.175800	0.277900
H1371	H137	0.483600	0.159300	0.301600
C2371	C237	0.492700	0.220310	0.280400
C2381	C238	0.512200	0.244400	0.244600
H1381	H138	0.510700	0.274100	0.245500
C2391	C239	0.534200	0.224000	0.207400
C2401	C240	0.535000	0.179560	0.208300
H1391	H139	0.548700	0.165300	0.183700
C2411	C241	0.556700	0.248290	0.170200
C2421	C242	0.540700	0.286200	0.155300
H1401	H140	0.515900	0.296800	0.169200
C2431	C243	0.561000	0.310200	0.118900
H1411	H141	0.549200	0.335800	0.108400
C2441	C244	0.599000	0.294800	0.099300
C2451	C245	0.614000	0.256800	0.115000
H1421	H142	0.638900	0.245600	0.101700
C2461	C246	0.593300	0.234100	0.150500
H1431	H143	0.605000	0.208500	0.161100
C2471	C247	0.621800	0.319800	0.063200
O1211	O121	0.656950	0.304900	0.048840
O1221	O122	0.604780	0.353990	0.049090
Cu131	Cu13	0.521580	0.091410	0.245610
N131	N13	0.517030	0.155920	0.242860
O1231	O123	0.369180	0.282040	0.450750
O1241	O124	0.417330	0.334610	0.450270
O1251	O125	0.534380	0.099840	0.314340
O1261	O126	0.525860	0.031870	0.351920
O1271	O127	0.593500	0.052400	0.319310
O1281	O128	0.567430	0.086140	0.388860
O1291	O129	0.458940	0.081000	0.220800
O1301	O130	0.418600	0.117470	0.281800
S131	S13	0.556000	0.067890	0.344160
C2481	C248	0.597700	0.700300	0.435600
C2491	C249	0.573900	0.720820	0.396000
C2501	C250	0.587100	0.759900	0.378100
H1441	H144	0.610800	0.773300	0.391300
C2511	C251	0.565700	0.779400	0.340900
H1451	H145	0.575000	0.805700	0.329300
C2521	C252	0.516600	0.721700	0.338900
H1461	H146	0.492700	0.708200	0.326200
C2531	C253	0.538700	0.702600	0.376900
H1471	H147	0.528900	0.676800	0.389100
C2541	C254	0.529800	0.759300	0.320700
C2551	C255	0.503700	0.824200	0.277900
H1481	H148	0.516400	0.840700	0.301600
C2561	C256	0.507300	0.779690	0.280400
C2571	C257	0.487800	0.755600	0.244600
H1491	H149	0.489300	0.725900	0.245500
C2581	C258	0.465800	0.776000	0.207400
C2591	C259	0.465000	0.820440	0.208300
H1501	H150	0.451300	0.834700	0.183700
C2601	C260	0.443300	0.751710	0.170200
C2611	C261	0.459300	0.713800	0.155300
H1511	H151	0.484100	0.703200	0.169200
C2621	C262	0.439000	0.689800	0.118900
H1521	H152	0.450800	0.664200	0.108400
C2631	C263	0.401000	0.705200	0.099300
C2641	C264	0.386000	0.743200	0.115000
H1531	H153	0.361100	0.754400	0.101700
C2651	C265	0.406700	0.765900	0.150500
H1541	H154	0.395000	0.791500	0.161100
C2661	C266	0.378200	0.680200	0.063200
O1311	O131	0.343050	0.695100	0.048840
O1321	O132	0.395220	0.646010	0.049090
Cu141	Cu14	0.478420	0.908590	0.245610
N141	N14	0.482970	0.844080	0.242860
O1331	O133	0.630820	0.717960	0.450750
O1341	O134	0.582670	0.665390	0.450270
O1351	O135	0.465620	0.900160	0.314340
O1361	O136	0.474140	0.968130	0.351920
O1371	O137	0.406500	0.947600	0.319310
O1381	O138	0.432570	0.913860	0.388860
O1391	O139	0.541060	0.919000	0.220800
O1401	O140	0.581400	0.882530	0.281800
S141	S14	0.444000	0.932110	0.344160
C2671	C267	0.299700	0.597700	0.935600
C2681	C268	0.279180	0.573900	0.896000
C2691	C269	0.240100	0.587100	0.878100
H1551	H155	0.226700	0.610800	0.891300
C2701	C270	0.220600	0.565700	0.840900
H1561	H156	0.194300	0.575000	0.829300
C2711	C271	0.278300	0.516600	0.838900
H1571	H157	0.291800	0.492700	0.826200
C2721	C272	0.297400	0.538700	0.876900
H1581	H158	0.323200	0.528900	0.889100
C2731	C273	0.240700	0.529800	0.820700
C2741	C274	0.175800	0.503700	0.777900
H1591	H159	0.159300	0.516400	0.801600
C2751	C275	0.220310	0.507300	0.780400
C2761	C276	0.244400	0.487800	0.744600
H1601	H160	0.274100	0.489300	0.745500
C2771	C277	0.224000	0.465800	0.707400
C2781	C278	0.179560	0.465000	0.708300
H1611	H161	0.165300	0.451300	0.683700
C2791	C279	0.248290	0.443300	0.670200
C2801	C280	0.286200	0.459300	0.655300
H1621	H162	0.296800	0.484100	0.669200
C2811	C281	0.310200	0.439000	0.618900
H1631	H163	0.335800	0.450800	0.608400
C2821	C282	0.294800	0.401000	0.599300
C2831	C283	0.256800	0.386000	0.615000
H1641	H164	0.245600	0.361100	0.601700
C2841	C284	0.234100	0.406700	0.650500
H1651	H165	0.208500	0.395000	0.661100
C2851	C285	0.319800	0.378200	0.563200
O1411	O141	0.304900	0.343050	0.548840
O1421	O142	0.353990	0.395220	0.549090
Cu151	Cu15	0.091410	0.478420	0.745610
N151	N15	0.155920	0.482970	0.742860
O1431	O143	0.282040	0.630820	0.950750
O1441	O144	0.334610	0.582670	0.950270
O1451	O145	0.099840	0.465620	0.814340
O1461	O146	0.031870	0.474140	0.851920
O1471	O147	0.052400	0.406500	0.819310
O1481	O148	0.086140	0.432570	0.888860
O1491	O149	0.081000	0.541060	0.720800
O1501	O150	0.117470	0.581400	0.781800
S151	S15	0.067890	0.444000	0.844160
C2861	C286	0.700300	0.402300	0.935600
C2871	C287	0.720820	0.426100	0.896000
C2881	C288	0.759900	0.412900	0.878100
H1661	H166	0.773300	0.389200	0.891300
C2891	C289	0.779400	0.434300	0.840900
H1671	H167	0.805700	0.425000	0.829300
C2901	C290	0.721700	0.483400	0.838900
H1681	H168	0.708200	0.507300	0.826200
C2911	C291	0.702600	0.461300	0.876900
H1691	H169	0.676800	0.471100	0.889100
C2921	C292	0.759300	0.470200	0.820700
C2931	C293	0.824200	0.496300	0.777900
H1701	H170	0.840700	0.483600	0.801600
C2941	C294	0.779690	0.492700	0.780400
C2951	C295	0.755600	0.512200	0.744600
H1711	H171	0.725900	0.510700	0.745500
C2961	C296	0.776000	0.534200	0.707400
C2971	C297	0.820440	0.535000	0.708300
H1721	H172	0.834700	0.548700	0.683700
C2981	C298	0.751710	0.556700	0.670200
C2991	C299	0.713800	0.540700	0.655300
H1731	H173	0.703200	0.515900	0.669200
C3001	C300	0.689800	0.561000	0.618900
H1741	H174	0.664200	0.549200	0.608400
C3011	C301	0.705200	0.599000	0.599300
C3021	C302	0.743200	0.614000	0.615000
H1751	H175	0.754400	0.638900	0.601700
C3031	C303	0.765900	0.593300	0.650500
H1761	H176	0.791500	0.605000	0.661100
C3041	C304	0.680200	0.621800	0.563200
O1511	O151	0.695100	0.656950	0.548840
O1521	O152	0.646010	0.604780	0.549090
Cu161	Cu16	0.908590	0.521580	0.745610
N161	N16	0.844080	0.517030	0.742860
O1531	O153	0.717960	0.369180	0.950750
O1541	O154	0.665390	0.417330	0.950270
O1551	O155	0.900160	0.534380	0.814340
O1561	O156	0.968130	0.525860	0.851920
O1571	O157	0.947600	0.593500	0.819310
O1581	O158	0.913860	0.567430	0.888860
O1591	O159	0.919000	0.458940	0.720800
O1601	O160	0.882530	0.418600	0.781800
S161	S16	0.932110	0.556000	0.844160
Cu171	Cu17	0.833020	0.192470	0.500000
Cu181	Cu18	0.890260	0.130600	0.500000
Cu191	Cu19	0.166980	0.807530	0.500000
Cu201	Cu20	0.109740	0.869400	0.500000
Cu211	Cu21	0.807530	0.833020	0.000000
Cu221	Cu22	0.869400	0.890260	0.000000
Cu231	Cu23	0.192470	0.166980	0.000000
Cu241	Cu24	0.130600	0.109740	0.000000
Cu251	Cu25	0.666980	0.692470	0.500000
Cu261	Cu26	0.609740	0.630600	0.500000
Cu271	Cu27	0.333020	0.307530	0.500000
Cu281	Cu28	0.390260	0.369400	0.500000
Cu291	Cu29	0.692470	0.333020	0.000000
Cu301	Cu30	0.630600	0.390260	0.000000
Cu311	Cu31	0.307530	0.666980	0.000000
Cu321	Cu32	0.369400	0.609740	0.000000
Cu331	Cu33	0.000000	0.500000	0.299640
Cu341	Cu34	0.500000	0.000000	0.799640
Cu351	Cu35	0.500000	0.000000	0.700360
Cu361	Cu36	0.000000	0.500000	0.200360
Cu371	Cu37	0.000000	0.500000	0.700360
Cu381	Cu38	0.500000	0.000000	0.200360
Cu391	Cu39	0.500000	0.000000	0.299640
Cu401	Cu40	0.000000	0.500000	0.799640
O1611	O161	0.029910	0.470090	0.250000
O1621	O162	0.970090	0.529910	0.250000
O1631	O163	0.529910	0.029910	0.750000
O1641	O164	0.470090	0.970090	0.750000
O1651	O165	0.970090	0.529910	0.750000
O1661	O166	0.029910	0.470090	0.750000
O1671	O167	0.470090	0.970090	0.250000
O1681	O168	0.529910	0.029910	0.250000
S171	S17	0.919450	0.419450	0.250000
S181	S18	0.080550	0.580550	0.250000
S191	S19	0.580550	0.919450	0.750000
S201	S20	0.419450	0.080550	0.750000
S211	S21	0.080550	0.580550	0.750000
S221	S22	0.919450	0.419450	0.750000
S231	S23	0.419450	0.080550	0.250000
S241	S24	0.580550	0.919450	0.250000
