data_FAVFUG_clean_PM
_symmetry_space_group_name_H-M	'P1'
_cell_length_a	30.413300
_cell_length_b	34.588000
_cell_length_c	27.592100
_cell_angle_alpha	90.000000
_cell_angle_beta	90.000000
_cell_angle_gamma	90.000000
_symmetry_Int_Tables_number 1

loop_
_symmetry_equiv_pos_as_xyz
'x,y,z'

loop_
_atom_site_label
_atom_site_type_symbol
_atom_site_fract_x
_atom_site_fract_y
_atom_site_fract_z
Cd11	Cd1	0.747060	0.393720	0.368710
Cd21	Cd2	0.839110	0.497820	0.553170
K11	K1	0.789070	0.444950	0.462990
O11	O1	0.602880	0.292910	0.738800
O21	O2	0.726000	0.432600	0.434400
O31	O3	0.939200	0.197320	0.642700
O41	O4	0.779100	0.502860	0.457800
O51	O5	0.794000	0.352410	0.398900
O61	O6	0.765300	0.444280	0.532600
O71	O7	0.791100	0.468240	0.601900
O81	O8	0.641000	0.306400	0.803800
O91	O9	0.800100	0.387130	0.467700
O101	O10	0.534500	0.613000	0.554500
O111	O11	0.958300	0.177300	0.568900
O121	O12	0.790300	0.539760	0.523600
O131	O13	0.563200	0.597500	0.625200
O141	O14	0.694000	0.447100	0.365000
O151	O15	0.649000	0.705400	0.289400
C11	C1	0.652000	0.345800	0.683100
H11	H1	0.632600	0.329600	0.666800
O161	O16	0.622400	0.716800	0.361600
C21	C2	0.655900	0.343700	0.733400
C31	C3	0.937200	0.200100	0.598400
C41	C4	0.677700	0.372600	0.657600
C51	C5	0.632200	0.313300	0.761300
C61	C6	0.677600	0.373600	0.605900
H21	H2	0.659400	0.356500	0.589400
C71	C7	0.734100	0.422400	0.606000
C81	C8	0.912400	0.232000	0.576200
C91	C9	0.907800	0.234800	0.526300
H31	H3	0.920900	0.216400	0.506400
C101	C10	0.646400	0.512800	0.507800
C111	C11	0.702000	0.397500	0.580500
H41	H4	0.699100	0.398700	0.547000
C121	C12	0.853900	0.297700	0.434900
H51	H5	0.849100	0.298700	0.401700
C131	C13	0.733300	0.422800	0.653900
H61	H6	0.751100	0.440500	0.670100
C141	C14	0.672800	0.483900	0.435000
C151	C15	0.835200	0.325800	0.464600
C161	C16	0.673000	0.485100	0.483200
H71	H7	0.690400	0.468000	0.500800
C171	C17	0.766100	0.447300	0.577400
C181	C18	0.807800	0.358400	0.442400
C191	C19	0.706600	0.397400	0.681900
C201	C20	0.863200	0.292900	0.535500
C211	C21	0.838300	0.323700	0.512200
H81	H8	0.824400	0.342300	0.531200
C221	C22	0.593900	0.564700	0.506300
H91	H9	0.576000	0.581100	0.488300
C231	C23	0.621400	0.539000	0.481500
C241	C24	0.879000	0.268600	0.453600
H101	H10	0.893000	0.251200	0.433000
C251	C25	0.592300	0.566600	0.555100
C261	C26	0.699300	0.452800	0.409500
C271	C27	0.708400	0.395400	0.733100
H111	H11	0.726200	0.412900	0.749600
C281	C28	0.749000	0.566000	0.460900
C291	C29	0.890900	0.261000	0.606700
H121	H12	0.893200	0.259400	0.640200
C301	C30	0.619400	0.541800	0.582400
H131	H13	0.618800	0.542700	0.616100
C311	C31	0.561800	0.594800	0.579200
C321	C32	0.883700	0.265100	0.505300
C331	C33	0.774500	0.533600	0.481300
C341	C34	0.648400	0.509400	0.407800
H141	H14	0.649300	0.508200	0.374100
C351	C35	0.646700	0.516400	0.559000
H151	H15	0.665800	0.501200	0.577100
C361	C36	0.685600	0.369700	0.758900
H161	H16	0.688700	0.368300	0.792400
C371	C37	0.703200	0.628800	0.425800
C381	C38	0.868300	0.289500	0.586700
H171	H17	0.855200	0.307800	0.606600
C391	C39	0.647100	0.698800	0.330900
C401	C40	0.623400	0.535900	0.429900
H181	H18	0.606800	0.552800	0.411100
C411	C41	0.726700	0.592800	0.492100
H191	H19	0.726300	0.588900	0.525400
C421	C42	0.744200	0.568500	0.411900
H201	H20	0.756100	0.550100	0.391200
C431	C43	0.719900	0.601400	0.393800
C441	C44	0.705300	0.625400	0.471700
H211	H21	0.692800	0.644100	0.491600
C451	C45	0.676300	0.665900	0.356400
C461	C46	0.692700	0.639300	0.324400
H221	H22	0.688100	0.641300	0.291100
C471	C47	0.718300	0.606900	0.345700
H231	H23	0.733500	0.590100	0.325400
C481	C48	0.677600	0.662400	0.403200
H241	H24	0.663100	0.680200	0.422900
Cd31	Cd3	0.747060	0.893720	0.868710
Cd41	Cd4	0.839110	0.997820	0.053170
K21	K2	0.789070	0.944950	0.962990
O171	O17	0.602880	0.792910	0.238800
O181	O18	0.726000	0.932600	0.934400
O191	O19	0.939200	0.697320	0.142700
O201	O20	0.779100	0.002860	0.957800
O211	O21	0.794000	0.852410	0.898900
O221	O22	0.765300	0.944280	0.032600
O231	O23	0.791100	0.968240	0.101900
O241	O24	0.641000	0.806400	0.303800
O251	O25	0.800100	0.887130	0.967700
O261	O26	0.534500	0.113000	0.054500
O271	O27	0.958300	0.677300	0.068900
O281	O28	0.790300	0.039760	0.023600
O291	O29	0.563200	0.097500	0.125200
O301	O30	0.694000	0.947100	0.865000
O311	O31	0.649000	0.205400	0.789400
C491	C49	0.652000	0.845800	0.183100
H251	H25	0.632600	0.829600	0.166800
O321	O32	0.622400	0.216800	0.861600
C501	C50	0.655900	0.843700	0.233400
C511	C51	0.937200	0.700100	0.098400
C521	C52	0.677700	0.872600	0.157600
C531	C53	0.632200	0.813300	0.261300
C541	C54	0.677600	0.873600	0.105900
H261	H26	0.659400	0.856500	0.089400
C551	C55	0.734100	0.922400	0.106000
C561	C56	0.912400	0.732000	0.076200
C571	C57	0.907800	0.734800	0.026300
H271	H27	0.920900	0.716400	0.006400
C581	C58	0.646400	0.012800	0.007800
C591	C59	0.702000	0.897500	0.080500
H281	H28	0.699100	0.898700	0.047000
C601	C60	0.853900	0.797700	0.934900
H291	H29	0.849100	0.798700	0.901700
C611	C61	0.733300	0.922800	0.153900
H301	H30	0.751100	0.940500	0.170100
C621	C62	0.672800	0.983900	0.935000
C631	C63	0.835200	0.825800	0.964600
C641	C64	0.673000	0.985100	0.983200
H311	H31	0.690400	0.968000	0.000800
C651	C65	0.766100	0.947300	0.077400
C661	C66	0.807800	0.858400	0.942400
C671	C67	0.706600	0.897400	0.181900
C681	C68	0.863200	0.792900	0.035500
C691	C69	0.838300	0.823700	0.012200
H321	H32	0.824400	0.842300	0.031200
C701	C70	0.593900	0.064700	0.006300
H331	H33	0.576000	0.081100	0.988300
C711	C71	0.621400	0.039000	0.981500
C721	C72	0.879000	0.768600	0.953600
H341	H34	0.893000	0.751200	0.933000
C731	C73	0.592300	0.066600	0.055100
C741	C74	0.699300	0.952800	0.909500
C751	C75	0.708400	0.895400	0.233100
H351	H35	0.726200	0.912900	0.249600
C761	C76	0.749000	0.066000	0.960900
C771	C77	0.890900	0.761000	0.106700
H361	H36	0.893200	0.759400	0.140200
C781	C78	0.619400	0.041800	0.082400
H371	H37	0.618800	0.042700	0.116100
C791	C79	0.561800	0.094800	0.079200
C801	C80	0.883700	0.765100	0.005300
C811	C81	0.774500	0.033600	0.981300
C821	C82	0.648400	0.009400	0.907800
H381	H38	0.649300	0.008200	0.874100
C831	C83	0.646700	0.016400	0.059000
H391	H39	0.665800	0.001200	0.077100
C841	C84	0.685600	0.869700	0.258900
H401	H40	0.688700	0.868300	0.292400
C851	C85	0.703200	0.128800	0.925800
C861	C86	0.868300	0.789500	0.086700
H411	H41	0.855200	0.807800	0.106600
C871	C87	0.647100	0.198800	0.830900
C881	C88	0.623400	0.035900	0.929900
H421	H42	0.606800	0.052800	0.911100
C891	C89	0.726700	0.092800	0.992100
H431	H43	0.726300	0.088900	0.025400
C901	C90	0.744200	0.068500	0.911900
H441	H44	0.756100	0.050100	0.891200
C911	C91	0.719900	0.101400	0.893800
C921	C92	0.705300	0.125400	0.971700
H451	H45	0.692800	0.144100	0.991600
C931	C93	0.676300	0.165900	0.856400
C941	C94	0.692700	0.139300	0.824400
H461	H46	0.688100	0.141300	0.791100
C951	C95	0.718300	0.106900	0.845700
H471	H47	0.733500	0.090100	0.825400
C961	C96	0.677600	0.162400	0.903200
H481	H48	0.663100	0.180200	0.922900
Cd51	Cd5	0.247060	0.393720	0.868710
Cd61	Cd6	0.339110	0.497820	0.053170
K31	K3	0.289070	0.444950	0.962990
O331	O33	0.102880	0.292910	0.238800
O341	O34	0.226000	0.432600	0.934400
O351	O35	0.439200	0.197320	0.142700
O361	O36	0.279100	0.502860	0.957800
O371	O37	0.294000	0.352410	0.898900
O381	O38	0.265300	0.444280	0.032600
O391	O39	0.291100	0.468240	0.101900
O401	O40	0.141000	0.306400	0.303800
O411	O41	0.300100	0.387130	0.967700
O421	O42	0.034500	0.613000	0.054500
O431	O43	0.458300	0.177300	0.068900
O441	O44	0.290300	0.539760	0.023600
O451	O45	0.063200	0.597500	0.125200
O461	O46	0.194000	0.447100	0.865000
O471	O47	0.149000	0.705400	0.789400
C971	C97	0.152000	0.345800	0.183100
H491	H49	0.132600	0.329600	0.166800
O481	O48	0.122400	0.716800	0.861600
C981	C98	0.155900	0.343700	0.233400
C991	C99	0.437200	0.200100	0.098400
C1001	C100	0.177700	0.372600	0.157600
C1011	C101	0.132200	0.313300	0.261300
C1021	C102	0.177600	0.373600	0.105900
H501	H50	0.159400	0.356500	0.089400
C1031	C103	0.234100	0.422400	0.106000
C1041	C104	0.412400	0.232000	0.076200
C1051	C105	0.407800	0.234800	0.026300
H511	H51	0.420900	0.216400	0.006400
C1061	C106	0.146400	0.512800	0.007800
C1071	C107	0.202000	0.397500	0.080500
H521	H52	0.199100	0.398700	0.047000
C1081	C108	0.353900	0.297700	0.934900
H531	H53	0.349100	0.298700	0.901700
C1091	C109	0.233300	0.422800	0.153900
H541	H54	0.251100	0.440500	0.170100
C1101	C110	0.172800	0.483900	0.935000
C1111	C111	0.335200	0.325800	0.964600
C1121	C112	0.173000	0.485100	0.983200
H551	H55	0.190400	0.468000	0.000800
C1131	C113	0.266100	0.447300	0.077400
C1141	C114	0.307800	0.358400	0.942400
C1151	C115	0.206600	0.397400	0.181900
C1161	C116	0.363200	0.292900	0.035500
C1171	C117	0.338300	0.323700	0.012200
H561	H56	0.324400	0.342300	0.031200
C1181	C118	0.093900	0.564700	0.006300
H571	H57	0.076000	0.581100	0.988300
C1191	C119	0.121400	0.539000	0.981500
C1201	C120	0.379000	0.268600	0.953600
H581	H58	0.393000	0.251200	0.933000
C1211	C121	0.092300	0.566600	0.055100
C1221	C122	0.199300	0.452800	0.909500
C1231	C123	0.208400	0.395400	0.233100
H591	H59	0.226200	0.412900	0.249600
C1241	C124	0.249000	0.566000	0.960900
C1251	C125	0.390900	0.261000	0.106700
H601	H60	0.393200	0.259400	0.140200
C1261	C126	0.119400	0.541800	0.082400
H611	H61	0.118800	0.542700	0.116100
C1271	C127	0.061800	0.594800	0.079200
C1281	C128	0.383700	0.265100	0.005300
C1291	C129	0.274500	0.533600	0.981300
C1301	C130	0.148400	0.509400	0.907800
H621	H62	0.149300	0.508200	0.874100
C1311	C131	0.146700	0.516400	0.059000
H631	H63	0.165800	0.501200	0.077100
C1321	C132	0.185600	0.369700	0.258900
H641	H64	0.188700	0.368300	0.292400
C1331	C133	0.203200	0.628800	0.925800
C1341	C134	0.368300	0.289500	0.086700
H651	H65	0.355200	0.307800	0.106600
C1351	C135	0.147100	0.698800	0.830900
C1361	C136	0.123400	0.535900	0.929900
H661	H66	0.106800	0.552800	0.911100
C1371	C137	0.226700	0.592800	0.992100
H671	H67	0.226300	0.588900	0.025400
C1381	C138	0.244200	0.568500	0.911900
H681	H68	0.256100	0.550100	0.891200
C1391	C139	0.219900	0.601400	0.893800
C1401	C140	0.205300	0.625400	0.971700
H691	H69	0.192800	0.644100	0.991600
C1411	C141	0.176300	0.665900	0.856400
C1421	C142	0.192700	0.639300	0.824400
H701	H70	0.188100	0.641300	0.791100
C1431	C143	0.218300	0.606900	0.845700
H711	H71	0.233500	0.590100	0.825400
C1441	C144	0.177600	0.662400	0.903200
H721	H72	0.163100	0.680200	0.922900
Cd71	Cd7	0.247060	0.893720	0.368710
Cd81	Cd8	0.339110	0.997820	0.553170
K41	K4	0.289070	0.944950	0.462990
O491	O49	0.102880	0.792910	0.738800
O501	O50	0.226000	0.932600	0.434400
O511	O51	0.439200	0.697320	0.642700
O521	O52	0.279100	0.002860	0.457800
O531	O53	0.294000	0.852410	0.398900
O541	O54	0.265300	0.944280	0.532600
O551	O55	0.291100	0.968240	0.601900
O561	O56	0.141000	0.806400	0.803800
O571	O57	0.300100	0.887130	0.467700
O581	O58	0.034500	0.113000	0.554500
O591	O59	0.458300	0.677300	0.568900
O601	O60	0.290300	0.039760	0.523600
O611	O61	0.063200	0.097500	0.625200
O621	O62	0.194000	0.947100	0.365000
O631	O63	0.149000	0.205400	0.289400
C1451	C145	0.152000	0.845800	0.683100
H731	H73	0.132600	0.829600	0.666800
O641	O64	0.122400	0.216800	0.361600
C1461	C146	0.155900	0.843700	0.733400
C1471	C147	0.437200	0.700100	0.598400
C1481	C148	0.177700	0.872600	0.657600
C1491	C149	0.132200	0.813300	0.761300
C1501	C150	0.177600	0.873600	0.605900
H741	H74	0.159400	0.856500	0.589400
C1511	C151	0.234100	0.922400	0.606000
C1521	C152	0.412400	0.732000	0.576200
C1531	C153	0.407800	0.734800	0.526300
H751	H75	0.420900	0.716400	0.506400
C1541	C154	0.146400	0.012800	0.507800
C1551	C155	0.202000	0.897500	0.580500
H761	H76	0.199100	0.898700	0.547000
C1561	C156	0.353900	0.797700	0.434900
H771	H77	0.349100	0.798700	0.401700
C1571	C157	0.233300	0.922800	0.653900
H781	H78	0.251100	0.940500	0.670100
C1581	C158	0.172800	0.983900	0.435000
C1591	C159	0.335200	0.825800	0.464600
C1601	C160	0.173000	0.985100	0.483200
H791	H79	0.190400	0.968000	0.500800
C1611	C161	0.266100	0.947300	0.577400
C1621	C162	0.307800	0.858400	0.442400
C1631	C163	0.206600	0.897400	0.681900
C1641	C164	0.363200	0.792900	0.535500
C1651	C165	0.338300	0.823700	0.512200
H801	H80	0.324400	0.842300	0.531200
C1661	C166	0.093900	0.064700	0.506300
H811	H81	0.076000	0.081100	0.488300
C1671	C167	0.121400	0.039000	0.481500
C1681	C168	0.379000	0.768600	0.453600
H821	H82	0.393000	0.751200	0.433000
C1691	C169	0.092300	0.066600	0.555100
C1701	C170	0.199300	0.952800	0.409500
C1711	C171	0.208400	0.895400	0.733100
H831	H83	0.226200	0.912900	0.749600
C1721	C172	0.249000	0.066000	0.460900
C1731	C173	0.390900	0.761000	0.606700
H841	H84	0.393200	0.759400	0.640200
C1741	C174	0.119400	0.041800	0.582400
H851	H85	0.118800	0.042700	0.616100
C1751	C175	0.061800	0.094800	0.579200
C1761	C176	0.383700	0.765100	0.505300
C1771	C177	0.274500	0.033600	0.481300
C1781	C178	0.148400	0.009400	0.407800
H861	H86	0.149300	0.008200	0.374100
C1791	C179	0.146700	0.016400	0.559000
H871	H87	0.165800	0.001200	0.577100
C1801	C180	0.185600	0.869700	0.758900
H881	H88	0.188700	0.868300	0.792400
C1811	C181	0.203200	0.128800	0.425800
C1821	C182	0.368300	0.789500	0.586700
H891	H89	0.355200	0.807800	0.606600
C1831	C183	0.147100	0.198800	0.330900
C1841	C184	0.123400	0.035900	0.429900
H901	H90	0.106800	0.052800	0.411100
C1851	C185	0.226700	0.092800	0.492100
H911	H91	0.226300	0.088900	0.525400
C1861	C186	0.244200	0.068500	0.411900
H921	H92	0.256100	0.050100	0.391200
C1871	C187	0.219900	0.101400	0.393800
C1881	C188	0.205300	0.125400	0.471700
H931	H93	0.192800	0.144100	0.491600
C1891	C189	0.176300	0.165900	0.356400
C1901	C190	0.192700	0.139300	0.324400
H941	H94	0.188100	0.141300	0.291100
C1911	C191	0.218300	0.106900	0.345700
H951	H95	0.233500	0.090100	0.325400
C1921	C192	0.177600	0.162400	0.403200
H961	H96	0.163100	0.180200	0.422900
Cd91	Cd9	0.252940	0.606280	0.368710
Cd101	Cd10	0.160890	0.502180	0.553170
K51	K5	0.210930	0.555050	0.462990
O651	O65	0.397120	0.707090	0.738800
O661	O66	0.274000	0.567400	0.434400
O671	O67	0.060800	0.802680	0.642700
O681	O68	0.220900	0.497140	0.457800
O691	O69	0.206000	0.647590	0.398900
O701	O70	0.234700	0.555720	0.532600
O711	O71	0.208900	0.531760	0.601900
O721	O72	0.359000	0.693600	0.803800
O731	O73	0.199900	0.612870	0.467700
O741	O74	0.465500	0.387000	0.554500
O751	O75	0.041700	0.822700	0.568900
O761	O76	0.209700	0.460240	0.523600
O771	O77	0.436800	0.402500	0.625200
O781	O78	0.306000	0.552900	0.365000
O791	O79	0.351000	0.294600	0.289400
C1931	C193	0.348000	0.654200	0.683100
H971	H97	0.367400	0.670400	0.666800
O801	O80	0.377600	0.283200	0.361600
C1941	C194	0.344100	0.656300	0.733400
C1951	C195	0.062800	0.799900	0.598400
C1961	C196	0.322300	0.627400	0.657600
C1971	C197	0.367800	0.686700	0.761300
C1981	C198	0.322400	0.626400	0.605900
H981	H98	0.340600	0.643500	0.589400
C1991	C199	0.265900	0.577600	0.606000
C2001	C200	0.087600	0.768000	0.576200
C2011	C201	0.092200	0.765200	0.526300
H991	H99	0.079100	0.783600	0.506400
C2021	C202	0.353600	0.487200	0.507800
C2031	C203	0.298000	0.602500	0.580500
H1001	H100	0.300900	0.601300	0.547000
C2041	C204	0.146100	0.702300	0.434900
H1011	H101	0.150900	0.701300	0.401700
C2051	C205	0.266700	0.577200	0.653900
H1021	H102	0.248900	0.559500	0.670100
C2061	C206	0.327200	0.516100	0.435000
C2071	C207	0.164800	0.674200	0.464600
C2081	C208	0.327000	0.514900	0.483200
H1031	H103	0.309600	0.532000	0.500800
C2091	C209	0.233900	0.552700	0.577400
C2101	C210	0.192200	0.641600	0.442400
C2111	C211	0.293400	0.602600	0.681900
C2121	C212	0.136800	0.707100	0.535500
C2131	C213	0.161700	0.676300	0.512200
H1041	H104	0.175600	0.657700	0.531200
C2141	C214	0.406100	0.435300	0.506300
H1051	H105	0.424000	0.418900	0.488300
C2151	C215	0.378600	0.461000	0.481500
C2161	C216	0.121000	0.731400	0.453600
H1061	H106	0.107000	0.748800	0.433000
C2171	C217	0.407700	0.433400	0.555100
C2181	C218	0.300700	0.547200	0.409500
C2191	C219	0.291600	0.604600	0.733100
H1071	H107	0.273800	0.587100	0.749600
C2201	C220	0.251000	0.434000	0.460900
C2211	C221	0.109100	0.739000	0.606700
H1081	H108	0.106800	0.740600	0.640200
C2221	C222	0.380600	0.458200	0.582400
H1091	H109	0.381200	0.457300	0.616100
C2231	C223	0.438200	0.405200	0.579200
C2241	C224	0.116300	0.734900	0.505300
C2251	C225	0.225500	0.466400	0.481300
C2261	C226	0.351600	0.490600	0.407800
H1101	H110	0.350700	0.491800	0.374100
C2271	C227	0.353300	0.483600	0.559000
H1111	H111	0.334200	0.498800	0.577100
C2281	C228	0.314400	0.630300	0.758900
H1121	H112	0.311300	0.631700	0.792400
C2291	C229	0.296800	0.371200	0.425800
C2301	C230	0.131700	0.710500	0.586700
H1131	H113	0.144800	0.692200	0.606600
C2311	C231	0.352900	0.301200	0.330900
C2321	C232	0.376600	0.464100	0.429900
H1141	H114	0.393200	0.447200	0.411100
C2331	C233	0.273300	0.407200	0.492100
H1151	H115	0.273700	0.411100	0.525400
C2341	C234	0.255800	0.431500	0.411900
H1161	H116	0.243900	0.449900	0.391200
C2351	C235	0.280100	0.398600	0.393800
C2361	C236	0.294700	0.374600	0.471700
H1171	H117	0.307200	0.355900	0.491600
C2371	C237	0.323700	0.334100	0.356400
C2381	C238	0.307300	0.360700	0.324400
H1181	H118	0.311900	0.358700	0.291100
C2391	C239	0.281700	0.393100	0.345700
H1191	H119	0.266500	0.409900	0.325400
C2401	C240	0.322400	0.337600	0.403200
H1201	H120	0.336900	0.319800	0.422900
Cd111	Cd11	0.252940	0.106280	0.868710
Cd121	Cd12	0.160890	0.002180	0.053170
K61	K6	0.210930	0.055050	0.962990
O811	O81	0.397120	0.207090	0.238800
O821	O82	0.274000	0.067400	0.934400
O831	O83	0.060800	0.302680	0.142700
O841	O84	0.220900	0.997140	0.957800
O851	O85	0.206000	0.147590	0.898900
O861	O86	0.234700	0.055720	0.032600
O871	O87	0.208900	0.031760	0.101900
O881	O88	0.359000	0.193600	0.303800
O891	O89	0.199900	0.112870	0.967700
O901	O90	0.465500	0.887000	0.054500
O911	O91	0.041700	0.322700	0.068900
O921	O92	0.209700	0.960240	0.023600
O931	O93	0.436800	0.902500	0.125200
O941	O94	0.306000	0.052900	0.865000
O951	O95	0.351000	0.794600	0.789400
C2411	C241	0.348000	0.154200	0.183100
H1211	H121	0.367400	0.170400	0.166800
O961	O96	0.377600	0.783200	0.861600
C2421	C242	0.344100	0.156300	0.233400
C2431	C243	0.062800	0.299900	0.098400
C2441	C244	0.322300	0.127400	0.157600
C2451	C245	0.367800	0.186700	0.261300
C2461	C246	0.322400	0.126400	0.105900
H1221	H122	0.340600	0.143500	0.089400
C2471	C247	0.265900	0.077600	0.106000
C2481	C248	0.087600	0.268000	0.076200
C2491	C249	0.092200	0.265200	0.026300
H1231	H123	0.079100	0.283600	0.006400
C2501	C250	0.353600	0.987200	0.007800
C2511	C251	0.298000	0.102500	0.080500
H1241	H124	0.300900	0.101300	0.047000
C2521	C252	0.146100	0.202300	0.934900
H1251	H125	0.150900	0.201300	0.901700
C2531	C253	0.266700	0.077200	0.153900
H1261	H126	0.248900	0.059500	0.170100
C2541	C254	0.327200	0.016100	0.935000
C2551	C255	0.164800	0.174200	0.964600
C2561	C256	0.327000	0.014900	0.983200
H1271	H127	0.309600	0.032000	0.000800
C2571	C257	0.233900	0.052700	0.077400
C2581	C258	0.192200	0.141600	0.942400
C2591	C259	0.293400	0.102600	0.181900
C2601	C260	0.136800	0.207100	0.035500
C2611	C261	0.161700	0.176300	0.012200
H1281	H128	0.175600	0.157700	0.031200
C2621	C262	0.406100	0.935300	0.006300
H1291	H129	0.424000	0.918900	0.988300
C2631	C263	0.378600	0.961000	0.981500
C2641	C264	0.121000	0.231400	0.953600
H1301	H130	0.107000	0.248800	0.933000
C2651	C265	0.407700	0.933400	0.055100
C2661	C266	0.300700	0.047200	0.909500
C2671	C267	0.291600	0.104600	0.233100
H1311	H131	0.273800	0.087100	0.249600
C2681	C268	0.251000	0.934000	0.960900
C2691	C269	0.109100	0.239000	0.106700
H1321	H132	0.106800	0.240600	0.140200
C2701	C270	0.380600	0.958200	0.082400
H1331	H133	0.381200	0.957300	0.116100
C2711	C271	0.438200	0.905200	0.079200
C2721	C272	0.116300	0.234900	0.005300
C2731	C273	0.225500	0.966400	0.981300
C2741	C274	0.351600	0.990600	0.907800
H1341	H134	0.350700	0.991800	0.874100
C2751	C275	0.353300	0.983600	0.059000
H1351	H135	0.334200	0.998800	0.077100
C2761	C276	0.314400	0.130300	0.258900
H1361	H136	0.311300	0.131700	0.292400
C2771	C277	0.296800	0.871200	0.925800
C2781	C278	0.131700	0.210500	0.086700
H1371	H137	0.144800	0.192200	0.106600
C2791	C279	0.352900	0.801200	0.830900
C2801	C280	0.376600	0.964100	0.929900
H1381	H138	0.393200	0.947200	0.911100
C2811	C281	0.273300	0.907200	0.992100
H1391	H139	0.273700	0.911100	0.025400
C2821	C282	0.255800	0.931500	0.911900
H1401	H140	0.243900	0.949900	0.891200
C2831	C283	0.280100	0.898600	0.893800
C2841	C284	0.294700	0.874600	0.971700
H1411	H141	0.307200	0.855900	0.991600
C2851	C285	0.323700	0.834100	0.856400
C2861	C286	0.307300	0.860700	0.824400
H1421	H142	0.311900	0.858700	0.791100
C2871	C287	0.281700	0.893100	0.845700
H1431	H143	0.266500	0.909900	0.825400
C2881	C288	0.322400	0.837600	0.903200
H1441	H144	0.336900	0.819800	0.922900
Cd131	Cd13	0.752940	0.606280	0.868710
Cd141	Cd14	0.660890	0.502180	0.053170
K71	K7	0.710930	0.555050	0.962990
O971	O97	0.897120	0.707090	0.238800
O981	O98	0.774000	0.567400	0.934400
O991	O99	0.560800	0.802680	0.142700
O1001	O100	0.720900	0.497140	0.957800
O1011	O101	0.706000	0.647590	0.898900
O1021	O102	0.734700	0.555720	0.032600
O1031	O103	0.708900	0.531760	0.101900
O1041	O104	0.859000	0.693600	0.303800
O1051	O105	0.699900	0.612870	0.967700
O1061	O106	0.965500	0.387000	0.054500
O1071	O107	0.541700	0.822700	0.068900
O1081	O108	0.709700	0.460240	0.023600
O1091	O109	0.936800	0.402500	0.125200
O1101	O110	0.806000	0.552900	0.865000
O1111	O111	0.851000	0.294600	0.789400
C2891	C289	0.848000	0.654200	0.183100
H1451	H145	0.867400	0.670400	0.166800
O1121	O112	0.877600	0.283200	0.861600
C2901	C290	0.844100	0.656300	0.233400
C2911	C291	0.562800	0.799900	0.098400
C2921	C292	0.822300	0.627400	0.157600
C2931	C293	0.867800	0.686700	0.261300
C2941	C294	0.822400	0.626400	0.105900
H1461	H146	0.840600	0.643500	0.089400
C2951	C295	0.765900	0.577600	0.106000
C2961	C296	0.587600	0.768000	0.076200
C2971	C297	0.592200	0.765200	0.026300
H1471	H147	0.579100	0.783600	0.006400
C2981	C298	0.853600	0.487200	0.007800
C2991	C299	0.798000	0.602500	0.080500
H1481	H148	0.800900	0.601300	0.047000
C3001	C300	0.646100	0.702300	0.934900
H1491	H149	0.650900	0.701300	0.901700
C3011	C301	0.766700	0.577200	0.153900
H1501	H150	0.748900	0.559500	0.170100
C3021	C302	0.827200	0.516100	0.935000
C3031	C303	0.664800	0.674200	0.964600
C3041	C304	0.827000	0.514900	0.983200
H1511	H151	0.809600	0.532000	0.000800
C3051	C305	0.733900	0.552700	0.077400
C3061	C306	0.692200	0.641600	0.942400
C3071	C307	0.793400	0.602600	0.181900
C3081	C308	0.636800	0.707100	0.035500
C3091	C309	0.661700	0.676300	0.012200
H1521	H152	0.675600	0.657700	0.031200
C3101	C310	0.906100	0.435300	0.006300
H1531	H153	0.924000	0.418900	0.988300
C3111	C311	0.878600	0.461000	0.981500
C3121	C312	0.621000	0.731400	0.953600
H1541	H154	0.607000	0.748800	0.933000
C3131	C313	0.907700	0.433400	0.055100
C3141	C314	0.800700	0.547200	0.909500
C3151	C315	0.791600	0.604600	0.233100
H1551	H155	0.773800	0.587100	0.249600
C3161	C316	0.751000	0.434000	0.960900
C3171	C317	0.609100	0.739000	0.106700
H1561	H156	0.606800	0.740600	0.140200
C3181	C318	0.880600	0.458200	0.082400
H1571	H157	0.881200	0.457300	0.116100
C3191	C319	0.938200	0.405200	0.079200
C3201	C320	0.616300	0.734900	0.005300
C3211	C321	0.725500	0.466400	0.981300
C3221	C322	0.851600	0.490600	0.907800
H1581	H158	0.850700	0.491800	0.874100
C3231	C323	0.853300	0.483600	0.059000
H1591	H159	0.834200	0.498800	0.077100
C3241	C324	0.814400	0.630300	0.258900
H1601	H160	0.811300	0.631700	0.292400
C3251	C325	0.796800	0.371200	0.925800
C3261	C326	0.631700	0.710500	0.086700
H1611	H161	0.644800	0.692200	0.106600
C3271	C327	0.852900	0.301200	0.830900
C3281	C328	0.876600	0.464100	0.929900
H1621	H162	0.893200	0.447200	0.911100
C3291	C329	0.773300	0.407200	0.992100
H1631	H163	0.773700	0.411100	0.025400
C3301	C330	0.755800	0.431500	0.911900
H1641	H164	0.743900	0.449900	0.891200
C3311	C331	0.780100	0.398600	0.893800
C3321	C332	0.794700	0.374600	0.971700
H1651	H165	0.807200	0.355900	0.991600
C3331	C333	0.823700	0.334100	0.856400
C3341	C334	0.807300	0.360700	0.824400
H1661	H166	0.811900	0.358700	0.791100
C3351	C335	0.781700	0.393100	0.845700
H1671	H167	0.766500	0.409900	0.825400
C3361	C336	0.822400	0.337600	0.903200
H1681	H168	0.836900	0.319800	0.922900
Cd151	Cd15	0.752940	0.106280	0.368710
Cd161	Cd16	0.660890	0.002180	0.553170
K81	K8	0.710930	0.055050	0.462990
O1131	O113	0.897120	0.207090	0.738800
O1141	O114	0.774000	0.067400	0.434400
O1151	O115	0.560800	0.302680	0.642700
O1161	O116	0.720900	0.997140	0.457800
O1171	O117	0.706000	0.147590	0.398900
O1181	O118	0.734700	0.055720	0.532600
O1191	O119	0.708900	0.031760	0.601900
O1201	O120	0.859000	0.193600	0.803800
O1211	O121	0.699900	0.112870	0.467700
O1221	O122	0.965500	0.887000	0.554500
O1231	O123	0.541700	0.322700	0.568900
O1241	O124	0.709700	0.960240	0.523600
O1251	O125	0.936800	0.902500	0.625200
O1261	O126	0.806000	0.052900	0.365000
O1271	O127	0.851000	0.794600	0.289400
C3371	C337	0.848000	0.154200	0.683100
H1691	H169	0.867400	0.170400	0.666800
O1281	O128	0.877600	0.783200	0.361600
C3381	C338	0.844100	0.156300	0.733400
C3391	C339	0.562800	0.299900	0.598400
C3401	C340	0.822300	0.127400	0.657600
C3411	C341	0.867800	0.186700	0.761300
C3421	C342	0.822400	0.126400	0.605900
H1701	H170	0.840600	0.143500	0.589400
C3431	C343	0.765900	0.077600	0.606000
C3441	C344	0.587600	0.268000	0.576200
C3451	C345	0.592200	0.265200	0.526300
H1711	H171	0.579100	0.283600	0.506400
C3461	C346	0.853600	0.987200	0.507800
C3471	C347	0.798000	0.102500	0.580500
H1721	H172	0.800900	0.101300	0.547000
C3481	C348	0.646100	0.202300	0.434900
H1731	H173	0.650900	0.201300	0.401700
C3491	C349	0.766700	0.077200	0.653900
H1741	H174	0.748900	0.059500	0.670100
C3501	C350	0.827200	0.016100	0.435000
C3511	C351	0.664800	0.174200	0.464600
C3521	C352	0.827000	0.014900	0.483200
H1751	H175	0.809600	0.032000	0.500800
C3531	C353	0.733900	0.052700	0.577400
C3541	C354	0.692200	0.141600	0.442400
C3551	C355	0.793400	0.102600	0.681900
C3561	C356	0.636800	0.207100	0.535500
C3571	C357	0.661700	0.176300	0.512200
H1761	H176	0.675600	0.157700	0.531200
C3581	C358	0.906100	0.935300	0.506300
H1771	H177	0.924000	0.918900	0.488300
C3591	C359	0.878600	0.961000	0.481500
C3601	C360	0.621000	0.231400	0.453600
H1781	H178	0.607000	0.248800	0.433000
C3611	C361	0.907700	0.933400	0.555100
C3621	C362	0.800700	0.047200	0.409500
C3631	C363	0.791600	0.104600	0.733100
H1791	H179	0.773800	0.087100	0.749600
C3641	C364	0.751000	0.934000	0.460900
C3651	C365	0.609100	0.239000	0.606700
H1801	H180	0.606800	0.240600	0.640200
C3661	C366	0.880600	0.958200	0.582400
H1811	H181	0.881200	0.957300	0.616100
C3671	C367	0.938200	0.905200	0.579200
C3681	C368	0.616300	0.234900	0.505300
C3691	C369	0.725500	0.966400	0.481300
C3701	C370	0.851600	0.990600	0.407800
H1821	H182	0.850700	0.991800	0.374100
C3711	C371	0.853300	0.983600	0.559000
H1831	H183	0.834200	0.998800	0.577100
C3721	C372	0.814400	0.130300	0.758900
H1841	H184	0.811300	0.131700	0.792400
C3731	C373	0.796800	0.871200	0.425800
C3741	C374	0.631700	0.210500	0.586700
H1851	H185	0.644800	0.192200	0.606600
C3751	C375	0.852900	0.801200	0.330900
C3761	C376	0.876600	0.964100	0.429900
H1861	H186	0.893200	0.947200	0.411100
C3771	C377	0.773300	0.907200	0.492100
H1871	H187	0.773700	0.911100	0.525400
C3781	C378	0.755800	0.931500	0.411900
H1881	H188	0.743900	0.949900	0.391200
C3791	C379	0.780100	0.898600	0.393800
C3801	C380	0.794700	0.874600	0.471700
H1891	H189	0.807200	0.855900	0.491600
C3811	C381	0.823700	0.834100	0.356400
C3821	C382	0.807300	0.860700	0.324400
H1901	H190	0.811900	0.858700	0.291100
C3831	C383	0.781700	0.893100	0.345700
H1911	H191	0.766500	0.909900	0.325400
C3841	C384	0.822400	0.837600	0.403200
H1921	H192	0.836900	0.819800	0.422900
Cd171	Cd17	0.997060	0.856280	0.618710
Cd181	Cd18	0.089110	0.752180	0.803170
K91	K9	0.039070	0.805050	0.712990
O1291	O129	0.852880	0.957090	0.988800
O1301	O130	0.976000	0.817400	0.684400
O1311	O131	0.189200	0.052680	0.892700
O1321	O132	0.029100	0.747140	0.707800
O1331	O133	0.044000	0.897590	0.648900
O1341	O134	0.015300	0.805720	0.782600
O1351	O135	0.041100	0.781760	0.851900
O1361	O136	0.891000	0.943600	0.053800
O1371	O137	0.050100	0.862870	0.717700
O1381	O138	0.784500	0.637000	0.804500
O1391	O139	0.208300	0.072700	0.818900
O1401	O140	0.040300	0.710240	0.773600
O1411	O141	0.813200	0.652500	0.875200
O1421	O142	0.944000	0.802900	0.615000
O1431	O143	0.899000	0.544600	0.539400
C3851	C385	0.902000	0.904200	0.933100
H1931	H193	0.882600	0.920400	0.916800
O1441	O144	0.872400	0.533200	0.611600
C3861	C386	0.905900	0.906300	0.983400
C3871	C387	0.187200	0.049900	0.848400
C3881	C388	0.927700	0.877400	0.907600
C3891	C389	0.882200	0.936700	0.011300
C3901	C390	0.927600	0.876400	0.855900
H1941	H194	0.909400	0.893500	0.839400
C3911	C391	0.984100	0.827600	0.856000
C3921	C392	0.162400	0.018000	0.826200
C3931	C393	0.157800	0.015200	0.776300
H1951	H195	0.170900	0.033600	0.756400
C3941	C394	0.896400	0.737200	0.757800
C3951	C395	0.952000	0.852500	0.830500
H1961	H196	0.949100	0.851300	0.797000
C3961	C396	0.103900	0.952300	0.684900
H1971	H197	0.099100	0.951300	0.651700
C3971	C397	0.983300	0.827200	0.903900
H1981	H198	0.001100	0.809500	0.920100
C3981	C398	0.922800	0.766100	0.685000
C3991	C399	0.085200	0.924200	0.714600
C4001	C400	0.923000	0.764900	0.733200
H1991	H199	0.940400	0.782000	0.750800
C4011	C401	0.016100	0.802700	0.827400
C4021	C402	0.057800	0.891600	0.692400
C4031	C403	0.956600	0.852600	0.931900
C4041	C404	0.113200	0.957100	0.785500
C4051	C405	0.088300	0.926300	0.762200
H2001	H200	0.074400	0.907700	0.781200
C4061	C406	0.843900	0.685300	0.756300
H2011	H201	0.826000	0.668900	0.738300
C4071	C407	0.871400	0.711000	0.731500
C4081	C408	0.129000	0.981400	0.703600
H2021	H202	0.143000	0.998800	0.683000
C4091	C409	0.842300	0.683400	0.805100
C4101	C410	0.949300	0.797200	0.659500
C4111	C411	0.958400	0.854600	0.983100
H2031	H203	0.976200	0.837100	0.999600
C4121	C412	0.999000	0.684000	0.710900
C4131	C413	0.140900	0.989000	0.856700
H2041	H204	0.143200	0.990600	0.890200
C4141	C414	0.869400	0.708200	0.832400
H2051	H205	0.868800	0.707300	0.866100
C4151	C415	0.811800	0.655200	0.829200
C4161	C416	0.133700	0.984900	0.755300
C4171	C417	0.024500	0.716400	0.731300
C4181	C418	0.898400	0.740600	0.657800
H2061	H206	0.899300	0.741800	0.624100
C4191	C419	0.896700	0.733600	0.809000
H2071	H207	0.915800	0.748800	0.827100
C4201	C420	0.935600	0.880300	0.008900
H2081	H208	0.938700	0.881700	0.042400
C4211	C421	0.953200	0.621200	0.675800
C4221	C422	0.118300	0.960500	0.836700
H2091	H209	0.105200	0.942200	0.856600
C4231	C423	0.897100	0.551200	0.580900
C4241	C424	0.873400	0.714100	0.679900
H2101	H210	0.856800	0.697200	0.661100
C4251	C425	0.976700	0.657200	0.742100
H2111	H211	0.976300	0.661100	0.775400
C4261	C426	0.994200	0.681500	0.661900
H2121	H212	0.006100	0.699900	0.641200
C4271	C427	0.969900	0.648600	0.643800
C4281	C428	0.955300	0.624600	0.721700
H2131	H213	0.942800	0.605900	0.741600
C4291	C429	0.926300	0.584100	0.606400
C4301	C430	0.942700	0.610700	0.574400
H2141	H214	0.938100	0.608700	0.541100
C4311	C431	0.968300	0.643100	0.595700
H2151	H215	0.983500	0.659900	0.575400
C4321	C432	0.927600	0.587600	0.653200
H2161	H216	0.913100	0.569800	0.672900
Cd191	Cd19	0.997060	0.356280	0.118710
Cd201	Cd20	0.089110	0.252180	0.303170
K101	K10	0.039070	0.305050	0.212990
O1451	O145	0.852880	0.457090	0.488800
O1461	O146	0.976000	0.317400	0.184400
O1471	O147	0.189200	0.552680	0.392700
O1481	O148	0.029100	0.247140	0.207800
O1491	O149	0.044000	0.397590	0.148900
O1501	O150	0.015300	0.305720	0.282600
O1511	O151	0.041100	0.281760	0.351900
O1521	O152	0.891000	0.443600	0.553800
O1531	O153	0.050100	0.362870	0.217700
O1541	O154	0.784500	0.137000	0.304500
O1551	O155	0.208300	0.572700	0.318900
O1561	O156	0.040300	0.210240	0.273600
O1571	O157	0.813200	0.152500	0.375200
O1581	O158	0.944000	0.302900	0.115000
O1591	O159	0.899000	0.044600	0.039400
C4331	C433	0.902000	0.404200	0.433100
H2171	H217	0.882600	0.420400	0.416800
O1601	O160	0.872400	0.033200	0.111600
C4341	C434	0.905900	0.406300	0.483400
C4351	C435	0.187200	0.549900	0.348400
C4361	C436	0.927700	0.377400	0.407600
C4371	C437	0.882200	0.436700	0.511300
C4381	C438	0.927600	0.376400	0.355900
H2181	H218	0.909400	0.393500	0.339400
C4391	C439	0.984100	0.327600	0.356000
C4401	C440	0.162400	0.518000	0.326200
C4411	C441	0.157800	0.515200	0.276300
H2191	H219	0.170900	0.533600	0.256400
C4421	C442	0.896400	0.237200	0.257800
C4431	C443	0.952000	0.352500	0.330500
H2201	H220	0.949100	0.351300	0.297000
C4441	C444	0.103900	0.452300	0.184900
H2211	H221	0.099100	0.451300	0.151700
C4451	C445	0.983300	0.327200	0.403900
H2221	H222	0.001100	0.309500	0.420100
C4461	C446	0.922800	0.266100	0.185000
C4471	C447	0.085200	0.424200	0.214600
C4481	C448	0.923000	0.264900	0.233200
H2231	H223	0.940400	0.282000	0.250800
C4491	C449	0.016100	0.302700	0.327400
C4501	C450	0.057800	0.391600	0.192400
C4511	C451	0.956600	0.352600	0.431900
C4521	C452	0.113200	0.457100	0.285500
C4531	C453	0.088300	0.426300	0.262200
H2241	H224	0.074400	0.407700	0.281200
C4541	C454	0.843900	0.185300	0.256300
H2251	H225	0.826000	0.168900	0.238300
C4551	C455	0.871400	0.211000	0.231500
C4561	C456	0.129000	0.481400	0.203600
H2261	H226	0.143000	0.498800	0.183000
C4571	C457	0.842300	0.183400	0.305100
C4581	C458	0.949300	0.297200	0.159500
C4591	C459	0.958400	0.354600	0.483100
H2271	H227	0.976200	0.337100	0.499600
C4601	C460	0.999000	0.184000	0.210900
C4611	C461	0.140900	0.489000	0.356700
H2281	H228	0.143200	0.490600	0.390200
C4621	C462	0.869400	0.208200	0.332400
H2291	H229	0.868800	0.207300	0.366100
C4631	C463	0.811800	0.155200	0.329200
C4641	C464	0.133700	0.484900	0.255300
C4651	C465	0.024500	0.216400	0.231300
C4661	C466	0.898400	0.240600	0.157800
H2301	H230	0.899300	0.241800	0.124100
C4671	C467	0.896700	0.233600	0.309000
H2311	H231	0.915800	0.248800	0.327100
C4681	C468	0.935600	0.380300	0.508900
H2321	H232	0.938700	0.381700	0.542400
C4691	C469	0.953200	0.121200	0.175800
C4701	C470	0.118300	0.460500	0.336700
H2331	H233	0.105200	0.442200	0.356600
C4711	C471	0.897100	0.051200	0.080900
C4721	C472	0.873400	0.214100	0.179900
H2341	H234	0.856800	0.197200	0.161100
C4731	C473	0.976700	0.157200	0.242100
H2351	H235	0.976300	0.161100	0.275400
C4741	C474	0.994200	0.181500	0.161900
H2361	H236	0.006100	0.199900	0.141200
C4751	C475	0.969900	0.148600	0.143800
C4761	C476	0.955300	0.124600	0.221700
H2371	H237	0.942800	0.105900	0.241600
C4771	C477	0.926300	0.084100	0.106400
C4781	C478	0.942700	0.110700	0.074400
H2381	H238	0.938100	0.108700	0.041100
C4791	C479	0.968300	0.143100	0.095700
H2391	H239	0.983500	0.159900	0.075400
C4801	C480	0.927600	0.087600	0.153200
H2401	H240	0.913100	0.069800	0.172900
Cd211	Cd21	0.497060	0.856280	0.118710
Cd221	Cd22	0.589110	0.752180	0.303170
K111	K11	0.539070	0.805050	0.212990
O1611	O161	0.352880	0.957090	0.488800
O1621	O162	0.476000	0.817400	0.184400
O1631	O163	0.689200	0.052680	0.392700
O1641	O164	0.529100	0.747140	0.207800
O1651	O165	0.544000	0.897590	0.148900
O1661	O166	0.515300	0.805720	0.282600
O1671	O167	0.541100	0.781760	0.351900
O1681	O168	0.391000	0.943600	0.553800
O1691	O169	0.550100	0.862870	0.217700
O1701	O170	0.284500	0.637000	0.304500
O1711	O171	0.708300	0.072700	0.318900
O1721	O172	0.540300	0.710240	0.273600
O1731	O173	0.313200	0.652500	0.375200
O1741	O174	0.444000	0.802900	0.115000
O1751	O175	0.399000	0.544600	0.039400
C4811	C481	0.402000	0.904200	0.433100
H2411	H241	0.382600	0.920400	0.416800
O1761	O176	0.372400	0.533200	0.111600
C4821	C482	0.405900	0.906300	0.483400
C4831	C483	0.687200	0.049900	0.348400
C4841	C484	0.427700	0.877400	0.407600
C4851	C485	0.382200	0.936700	0.511300
C4861	C486	0.427600	0.876400	0.355900
H2421	H242	0.409400	0.893500	0.339400
C4871	C487	0.484100	0.827600	0.356000
C4881	C488	0.662400	0.018000	0.326200
C4891	C489	0.657800	0.015200	0.276300
H2431	H243	0.670900	0.033600	0.256400
C4901	C490	0.396400	0.737200	0.257800
C4911	C491	0.452000	0.852500	0.330500
H2441	H244	0.449100	0.851300	0.297000
C4921	C492	0.603900	0.952300	0.184900
H2451	H245	0.599100	0.951300	0.151700
C4931	C493	0.483300	0.827200	0.403900
H2461	H246	0.501100	0.809500	0.420100
C4941	C494	0.422800	0.766100	0.185000
C4951	C495	0.585200	0.924200	0.214600
C4961	C496	0.423000	0.764900	0.233200
H2471	H247	0.440400	0.782000	0.250800
C4971	C497	0.516100	0.802700	0.327400
C4981	C498	0.557800	0.891600	0.192400
C4991	C499	0.456600	0.852600	0.431900
C5001	C500	0.613200	0.957100	0.285500
C5011	C501	0.588300	0.926300	0.262200
H2481	H248	0.574400	0.907700	0.281200
C5021	C502	0.343900	0.685300	0.256300
H2491	H249	0.326000	0.668900	0.238300
C5031	C503	0.371400	0.711000	0.231500
C5041	C504	0.629000	0.981400	0.203600
H2501	H250	0.643000	0.998800	0.183000
C5051	C505	0.342300	0.683400	0.305100
C5061	C506	0.449300	0.797200	0.159500
C5071	C507	0.458400	0.854600	0.483100
H2511	H251	0.476200	0.837100	0.499600
C5081	C508	0.499000	0.684000	0.210900
C5091	C509	0.640900	0.989000	0.356700
H2521	H252	0.643200	0.990600	0.390200
C5101	C510	0.369400	0.708200	0.332400
H2531	H253	0.368800	0.707300	0.366100
C5111	C511	0.311800	0.655200	0.329200
C5121	C512	0.633700	0.984900	0.255300
C5131	C513	0.524500	0.716400	0.231300
C5141	C514	0.398400	0.740600	0.157800
H2541	H254	0.399300	0.741800	0.124100
C5151	C515	0.396700	0.733600	0.309000
H2551	H255	0.415800	0.748800	0.327100
C5161	C516	0.435600	0.880300	0.508900
H2561	H256	0.438700	0.881700	0.542400
C5171	C517	0.453200	0.621200	0.175800
C5181	C518	0.618300	0.960500	0.336700
H2571	H257	0.605200	0.942200	0.356600
C5191	C519	0.397100	0.551200	0.080900
C5201	C520	0.373400	0.714100	0.179900
H2581	H258	0.356800	0.697200	0.161100
C5211	C521	0.476700	0.657200	0.242100
H2591	H259	0.476300	0.661100	0.275400
C5221	C522	0.494200	0.681500	0.161900
H2601	H260	0.506100	0.699900	0.141200
C5231	C523	0.469900	0.648600	0.143800
C5241	C524	0.455300	0.624600	0.221700
H2611	H261	0.442800	0.605900	0.241600
C5251	C525	0.426300	0.584100	0.106400
C5261	C526	0.442700	0.610700	0.074400
H2621	H262	0.438100	0.608700	0.041100
C5271	C527	0.468300	0.643100	0.095700
H2631	H263	0.483500	0.659900	0.075400
C5281	C528	0.427600	0.587600	0.153200
H2641	H264	0.413100	0.569800	0.172900
Cd231	Cd23	0.497060	0.356280	0.618710
Cd241	Cd24	0.589110	0.252180	0.803170
K121	K12	0.539070	0.305050	0.712990
O1771	O177	0.352880	0.457090	0.988800
O1781	O178	0.476000	0.317400	0.684400
O1791	O179	0.689200	0.552680	0.892700
O1801	O180	0.529100	0.247140	0.707800
O1811	O181	0.544000	0.397590	0.648900
O1821	O182	0.515300	0.305720	0.782600
O1831	O183	0.541100	0.281760	0.851900
O1841	O184	0.391000	0.443600	0.053800
O1851	O185	0.550100	0.362870	0.717700
O1861	O186	0.284500	0.137000	0.804500
O1871	O187	0.708300	0.572700	0.818900
O1881	O188	0.540300	0.210240	0.773600
O1891	O189	0.313200	0.152500	0.875200
O1901	O190	0.444000	0.302900	0.615000
O1911	O191	0.399000	0.044600	0.539400
C5291	C529	0.402000	0.404200	0.933100
H2651	H265	0.382600	0.420400	0.916800
O1921	O192	0.372400	0.033200	0.611600
C5301	C530	0.405900	0.406300	0.983400
C5311	C531	0.687200	0.549900	0.848400
C5321	C532	0.427700	0.377400	0.907600
C5331	C533	0.382200	0.436700	0.011300
C5341	C534	0.427600	0.376400	0.855900
H2661	H266	0.409400	0.393500	0.839400
C5351	C535	0.484100	0.327600	0.856000
C5361	C536	0.662400	0.518000	0.826200
C5371	C537	0.657800	0.515200	0.776300
H2671	H267	0.670900	0.533600	0.756400
C5381	C538	0.396400	0.237200	0.757800
C5391	C539	0.452000	0.352500	0.830500
H2681	H268	0.449100	0.351300	0.797000
C5401	C540	0.603900	0.452300	0.684900
H2691	H269	0.599100	0.451300	0.651700
C5411	C541	0.483300	0.327200	0.903900
H2701	H270	0.501100	0.309500	0.920100
C5421	C542	0.422800	0.266100	0.685000
C5431	C543	0.585200	0.424200	0.714600
C5441	C544	0.423000	0.264900	0.733200
H2711	H271	0.440400	0.282000	0.750800
C5451	C545	0.516100	0.302700	0.827400
C5461	C546	0.557800	0.391600	0.692400
C5471	C547	0.456600	0.352600	0.931900
C5481	C548	0.613200	0.457100	0.785500
C5491	C549	0.588300	0.426300	0.762200
H2721	H272	0.574400	0.407700	0.781200
C5501	C550	0.343900	0.185300	0.756300
H2731	H273	0.326000	0.168900	0.738300
C5511	C551	0.371400	0.211000	0.731500
C5521	C552	0.629000	0.481400	0.703600
H2741	H274	0.643000	0.498800	0.683000
C5531	C553	0.342300	0.183400	0.805100
C5541	C554	0.449300	0.297200	0.659500
C5551	C555	0.458400	0.354600	0.983100
H2751	H275	0.476200	0.337100	0.999600
C5561	C556	0.499000	0.184000	0.710900
C5571	C557	0.640900	0.489000	0.856700
H2761	H276	0.643200	0.490600	0.890200
C5581	C558	0.369400	0.208200	0.832400
H2771	H277	0.368800	0.207300	0.866100
C5591	C559	0.311800	0.155200	0.829200
C5601	C560	0.633700	0.484900	0.755300
C5611	C561	0.524500	0.216400	0.731300
C5621	C562	0.398400	0.240600	0.657800
H2781	H278	0.399300	0.241800	0.624100
C5631	C563	0.396700	0.233600	0.809000
H2791	H279	0.415800	0.248800	0.827100
C5641	C564	0.435600	0.380300	0.008900
H2801	H280	0.438700	0.381700	0.042400
C5651	C565	0.453200	0.121200	0.675800
C5661	C566	0.618300	0.460500	0.836700
H2811	H281	0.605200	0.442200	0.856600
C5671	C567	0.397100	0.051200	0.580900
C5681	C568	0.373400	0.214100	0.679900
H2821	H282	0.356800	0.197200	0.661100
C5691	C569	0.476700	0.157200	0.742100
H2831	H283	0.476300	0.161100	0.775400
C5701	C570	0.494200	0.181500	0.661900
H2841	H284	0.506100	0.199900	0.641200
C5711	C571	0.469900	0.148600	0.643800
C5721	C572	0.455300	0.124600	0.721700
H2851	H285	0.442800	0.105900	0.741600
C5731	C573	0.426300	0.084100	0.606400
C5741	C574	0.442700	0.110700	0.574400
H2861	H286	0.438100	0.108700	0.541100
C5751	C575	0.468300	0.143100	0.595700
H2871	H287	0.483500	0.159900	0.575400
C5761	C576	0.427600	0.087600	0.653200
H2881	H288	0.413100	0.069800	0.672900
Cd251	Cd25	0.502940	0.643720	0.618710
Cd261	Cd26	0.410890	0.747820	0.803170
K131	K13	0.460930	0.694950	0.712990
O1931	O193	0.647120	0.542910	0.988800
O1941	O194	0.524000	0.682600	0.684400
O1951	O195	0.310800	0.447320	0.892700
O1961	O196	0.470900	0.752860	0.707800
O1971	O197	0.456000	0.602410	0.648900
O1981	O198	0.484700	0.694280	0.782600
O1991	O199	0.458900	0.718240	0.851900
O2001	O200	0.609000	0.556400	0.053800
O2011	O201	0.449900	0.637130	0.717700
O2021	O202	0.715500	0.863000	0.804500
O2031	O203	0.291700	0.427300	0.818900
O2041	O204	0.459700	0.789760	0.773600
O2051	O205	0.686800	0.847500	0.875200
O2061	O206	0.556000	0.697100	0.615000
O2071	O207	0.601000	0.955400	0.539400
C5771	C577	0.598000	0.595800	0.933100
H2891	H289	0.617400	0.579600	0.916800
O2081	O208	0.627600	0.966800	0.611600
C5781	C578	0.594100	0.593700	0.983400
C5791	C579	0.312800	0.450100	0.848400
C5801	C580	0.572300	0.622600	0.907600
C5811	C581	0.617800	0.563300	0.011300
C5821	C582	0.572400	0.623600	0.855900
H2901	H290	0.590600	0.606500	0.839400
C5831	C583	0.515900	0.672400	0.856000
C5841	C584	0.337600	0.482000	0.826200
C5851	C585	0.342200	0.484800	0.776300
H2911	H291	0.329100	0.466400	0.756400
C5861	C586	0.603600	0.762800	0.757800
C5871	C587	0.548000	0.647500	0.830500
H2921	H292	0.550900	0.648700	0.797000
C5881	C588	0.396100	0.547700	0.684900
H2931	H293	0.400900	0.548700	0.651700
C5891	C589	0.516700	0.672800	0.903900
H2941	H294	0.498900	0.690500	0.920100
C5901	C590	0.577200	0.733900	0.685000
C5911	C591	0.414800	0.575800	0.714600
C5921	C592	0.577000	0.735100	0.733200
H2951	H295	0.559600	0.718000	0.750800
C5931	C593	0.483900	0.697300	0.827400
C5941	C594	0.442200	0.608400	0.692400
C5951	C595	0.543400	0.647400	0.931900
C5961	C596	0.386800	0.542900	0.785500
C5971	C597	0.411700	0.573700	0.762200
H2961	H296	0.425600	0.592300	0.781200
C5981	C598	0.656100	0.814700	0.756300
H2971	H297	0.674000	0.831100	0.738300
C5991	C599	0.628600	0.789000	0.731500
C6001	C600	0.371000	0.518600	0.703600
H2981	H298	0.357000	0.501200	0.683000
C6011	C601	0.657700	0.816600	0.805100
C6021	C602	0.550700	0.702800	0.659500
C6031	C603	0.541600	0.645400	0.983100
H2991	H299	0.523800	0.662900	0.999600
C6041	C604	0.501000	0.816000	0.710900
C6051	C605	0.359100	0.511000	0.856700
H3001	H300	0.356800	0.509400	0.890200
C6061	C606	0.630600	0.791800	0.832400
H3011	H301	0.631200	0.792700	0.866100
C6071	C607	0.688200	0.844800	0.829200
C6081	C608	0.366300	0.515100	0.755300
C6091	C609	0.475500	0.783600	0.731300
C6101	C610	0.601600	0.759400	0.657800
H3021	H302	0.600700	0.758200	0.624100
C6111	C611	0.603300	0.766400	0.809000
H3031	H303	0.584200	0.751200	0.827100
C6121	C612	0.564400	0.619700	0.008900
H3041	H304	0.561300	0.618300	0.042400
C6131	C613	0.546800	0.878800	0.675800
C6141	C614	0.381700	0.539500	0.836700
H3051	H305	0.394800	0.557800	0.856600
C6151	C615	0.602900	0.948800	0.580900
C6161	C616	0.626600	0.785900	0.679900
H3061	H306	0.643200	0.802800	0.661100
C6171	C617	0.523300	0.842800	0.742100
H3071	H307	0.523700	0.838900	0.775400
C6181	C618	0.505800	0.818500	0.661900
H3081	H308	0.493900	0.800100	0.641200
C6191	C619	0.530100	0.851400	0.643800
C6201	C620	0.544700	0.875400	0.721700
H3091	H309	0.557200	0.894100	0.741600
C6211	C621	0.573700	0.915900	0.606400
C6221	C622	0.557300	0.889300	0.574400
H3101	H310	0.561900	0.891300	0.541100
C6231	C623	0.531700	0.856900	0.595700
H3111	H311	0.516500	0.840100	0.575400
C6241	C624	0.572400	0.912400	0.653200
H3121	H312	0.586900	0.930200	0.672900
Cd271	Cd27	0.502940	0.143720	0.118710
Cd281	Cd28	0.410890	0.247820	0.303170
K141	K14	0.460930	0.194950	0.212990
O2091	O209	0.647120	0.042910	0.488800
O2101	O210	0.524000	0.182600	0.184400
O2111	O211	0.310800	0.947320	0.392700
O2121	O212	0.470900	0.252860	0.207800
O2131	O213	0.456000	0.102410	0.148900
O2141	O214	0.484700	0.194280	0.282600
O2151	O215	0.458900	0.218240	0.351900
O2161	O216	0.609000	0.056400	0.553800
O2171	O217	0.449900	0.137130	0.217700
O2181	O218	0.715500	0.363000	0.304500
O2191	O219	0.291700	0.927300	0.318900
O2201	O220	0.459700	0.289760	0.273600
O2211	O221	0.686800	0.347500	0.375200
O2221	O222	0.556000	0.197100	0.115000
O2231	O223	0.601000	0.455400	0.039400
C6251	C625	0.598000	0.095800	0.433100
H3131	H313	0.617400	0.079600	0.416800
O2241	O224	0.627600	0.466800	0.111600
C6261	C626	0.594100	0.093700	0.483400
C6271	C627	0.312800	0.950100	0.348400
C6281	C628	0.572300	0.122600	0.407600
C6291	C629	0.617800	0.063300	0.511300
C6301	C630	0.572400	0.123600	0.355900
H3141	H314	0.590600	0.106500	0.339400
C6311	C631	0.515900	0.172400	0.356000
C6321	C632	0.337600	0.982000	0.326200
C6331	C633	0.342200	0.984800	0.276300
H3151	H315	0.329100	0.966400	0.256400
C6341	C634	0.603600	0.262800	0.257800
C6351	C635	0.548000	0.147500	0.330500
H3161	H316	0.550900	0.148700	0.297000
C6361	C636	0.396100	0.047700	0.184900
H3171	H317	0.400900	0.048700	0.151700
C6371	C637	0.516700	0.172800	0.403900
H3181	H318	0.498900	0.190500	0.420100
C6381	C638	0.577200	0.233900	0.185000
C6391	C639	0.414800	0.075800	0.214600
C6401	C640	0.577000	0.235100	0.233200
H3191	H319	0.559600	0.218000	0.250800
C6411	C641	0.483900	0.197300	0.327400
C6421	C642	0.442200	0.108400	0.192400
C6431	C643	0.543400	0.147400	0.431900
C6441	C644	0.386800	0.042900	0.285500
C6451	C645	0.411700	0.073700	0.262200
H3201	H320	0.425600	0.092300	0.281200
C6461	C646	0.656100	0.314700	0.256300
H3211	H321	0.674000	0.331100	0.238300
C6471	C647	0.628600	0.289000	0.231500
C6481	C648	0.371000	0.018600	0.203600
H3221	H322	0.357000	0.001200	0.183000
C6491	C649	0.657700	0.316600	0.305100
C6501	C650	0.550700	0.202800	0.159500
C6511	C651	0.541600	0.145400	0.483100
H3231	H323	0.523800	0.162900	0.499600
C6521	C652	0.501000	0.316000	0.210900
C6531	C653	0.359100	0.011000	0.356700
H3241	H324	0.356800	0.009400	0.390200
C6541	C654	0.630600	0.291800	0.332400
H3251	H325	0.631200	0.292700	0.366100
C6551	C655	0.688200	0.344800	0.329200
C6561	C656	0.366300	0.015100	0.255300
C6571	C657	0.475500	0.283600	0.231300
C6581	C658	0.601600	0.259400	0.157800
H3261	H326	0.600700	0.258200	0.124100
C6591	C659	0.603300	0.266400	0.309000
H3271	H327	0.584200	0.251200	0.327100
C6601	C660	0.564400	0.119700	0.508900
H3281	H328	0.561300	0.118300	0.542400
C6611	C661	0.546800	0.378800	0.175800
C6621	C662	0.381700	0.039500	0.336700
H3291	H329	0.394800	0.057800	0.356600
C6631	C663	0.602900	0.448800	0.080900
C6641	C664	0.626600	0.285900	0.179900
H3301	H330	0.643200	0.302800	0.161100
C6651	C665	0.523300	0.342800	0.242100
H3311	H331	0.523700	0.338900	0.275400
C6661	C666	0.505800	0.318500	0.161900
H3321	H332	0.493900	0.300100	0.141200
C6671	C667	0.530100	0.351400	0.143800
C6681	C668	0.544700	0.375400	0.221700
H3331	H333	0.557200	0.394100	0.241600
C6691	C669	0.573700	0.415900	0.106400
C6701	C670	0.557300	0.389300	0.074400
H3341	H334	0.561900	0.391300	0.041100
C6711	C671	0.531700	0.356900	0.095700
H3351	H335	0.516500	0.340100	0.075400
C6721	C672	0.572400	0.412400	0.153200
H3361	H336	0.586900	0.430200	0.172900
Cd291	Cd29	0.002940	0.643720	0.118710
Cd301	Cd30	0.910890	0.747820	0.303170
K151	K15	0.960930	0.694950	0.212990
O2251	O225	0.147120	0.542910	0.488800
O2261	O226	0.024000	0.682600	0.184400
O2271	O227	0.810800	0.447320	0.392700
O2281	O228	0.970900	0.752860	0.207800
O2291	O229	0.956000	0.602410	0.148900
O2301	O230	0.984700	0.694280	0.282600
O2311	O231	0.958900	0.718240	0.351900
O2321	O232	0.109000	0.556400	0.553800
O2331	O233	0.949900	0.637130	0.217700
O2341	O234	0.215500	0.863000	0.304500
O2351	O235	0.791700	0.427300	0.318900
O2361	O236	0.959700	0.789760	0.273600
O2371	O237	0.186800	0.847500	0.375200
O2381	O238	0.056000	0.697100	0.115000
O2391	O239	0.101000	0.955400	0.039400
C6731	C673	0.098000	0.595800	0.433100
H3371	H337	0.117400	0.579600	0.416800
O2401	O240	0.127600	0.966800	0.111600
C6741	C674	0.094100	0.593700	0.483400
C6751	C675	0.812800	0.450100	0.348400
C6761	C676	0.072300	0.622600	0.407600
C6771	C677	0.117800	0.563300	0.511300
C6781	C678	0.072400	0.623600	0.355900
H3381	H338	0.090600	0.606500	0.339400
C6791	C679	0.015900	0.672400	0.356000
C6801	C680	0.837600	0.482000	0.326200
C6811	C681	0.842200	0.484800	0.276300
H3391	H339	0.829100	0.466400	0.256400
C6821	C682	0.103600	0.762800	0.257800
C6831	C683	0.048000	0.647500	0.330500
H3401	H340	0.050900	0.648700	0.297000
C6841	C684	0.896100	0.547700	0.184900
H3411	H341	0.900900	0.548700	0.151700
C6851	C685	0.016700	0.672800	0.403900
H3421	H342	0.998900	0.690500	0.420100
C6861	C686	0.077200	0.733900	0.185000
C6871	C687	0.914800	0.575800	0.214600
C6881	C688	0.077000	0.735100	0.233200
H3431	H343	0.059600	0.718000	0.250800
C6891	C689	0.983900	0.697300	0.327400
C6901	C690	0.942200	0.608400	0.192400
C6911	C691	0.043400	0.647400	0.431900
C6921	C692	0.886800	0.542900	0.285500
C6931	C693	0.911700	0.573700	0.262200
H3441	H344	0.925600	0.592300	0.281200
C6941	C694	0.156100	0.814700	0.256300
H3451	H345	0.174000	0.831100	0.238300
C6951	C695	0.128600	0.789000	0.231500
C6961	C696	0.871000	0.518600	0.203600
H3461	H346	0.857000	0.501200	0.183000
C6971	C697	0.157700	0.816600	0.305100
C6981	C698	0.050700	0.702800	0.159500
C6991	C699	0.041600	0.645400	0.483100
H3471	H347	0.023800	0.662900	0.499600
C7001	C700	0.001000	0.816000	0.210900
C7011	C701	0.859100	0.511000	0.356700
H3481	H348	0.856800	0.509400	0.390200
C7021	C702	0.130600	0.791800	0.332400
H3491	H349	0.131200	0.792700	0.366100
C7031	C703	0.188200	0.844800	0.329200
C7041	C704	0.866300	0.515100	0.255300
C7051	C705	0.975500	0.783600	0.231300
C7061	C706	0.101600	0.759400	0.157800
H3501	H350	0.100700	0.758200	0.124100
C7071	C707	0.103300	0.766400	0.309000
H3511	H351	0.084200	0.751200	0.327100
C7081	C708	0.064400	0.619700	0.508900
H3521	H352	0.061300	0.618300	0.542400
C7091	C709	0.046800	0.878800	0.175800
C7101	C710	0.881700	0.539500	0.336700
H3531	H353	0.894800	0.557800	0.356600
C7111	C711	0.102900	0.948800	0.080900
C7121	C712	0.126600	0.785900	0.179900
H3541	H354	0.143200	0.802800	0.161100
C7131	C713	0.023300	0.842800	0.242100
H3551	H355	0.023700	0.838900	0.275400
C7141	C714	0.005800	0.818500	0.161900
H3561	H356	0.993900	0.800100	0.141200
C7151	C715	0.030100	0.851400	0.143800
C7161	C716	0.044700	0.875400	0.221700
H3571	H357	0.057200	0.894100	0.241600
C7171	C717	0.073700	0.915900	0.106400
C7181	C718	0.057300	0.889300	0.074400
H3581	H358	0.061900	0.891300	0.041100
C7191	C719	0.031700	0.856900	0.095700
H3591	H359	0.016500	0.840100	0.075400
C7201	C720	0.072400	0.912400	0.153200
H3601	H360	0.086900	0.930200	0.172900
Cd311	Cd31	0.002940	0.143720	0.618710
Cd321	Cd32	0.910890	0.247820	0.803170
K161	K16	0.960930	0.194950	0.712990
O2411	O241	0.147120	0.042910	0.988800
O2421	O242	0.024000	0.182600	0.684400
O2431	O243	0.810800	0.947320	0.892700
O2441	O244	0.970900	0.252860	0.707800
O2451	O245	0.956000	0.102410	0.648900
O2461	O246	0.984700	0.194280	0.782600
O2471	O247	0.958900	0.218240	0.851900
O2481	O248	0.109000	0.056400	0.053800
O2491	O249	0.949900	0.137130	0.717700
O2501	O250	0.215500	0.363000	0.804500
O2511	O251	0.791700	0.927300	0.818900
O2521	O252	0.959700	0.289760	0.773600
O2531	O253	0.186800	0.347500	0.875200
O2541	O254	0.056000	0.197100	0.615000
O2551	O255	0.101000	0.455400	0.539400
C7211	C721	0.098000	0.095800	0.933100
H3611	H361	0.117400	0.079600	0.916800
O2561	O256	0.127600	0.466800	0.611600
C7221	C722	0.094100	0.093700	0.983400
C7231	C723	0.812800	0.950100	0.848400
C7241	C724	0.072300	0.122600	0.907600
C7251	C725	0.117800	0.063300	0.011300
C7261	C726	0.072400	0.123600	0.855900
H3621	H362	0.090600	0.106500	0.839400
C7271	C727	0.015900	0.172400	0.856000
C7281	C728	0.837600	0.982000	0.826200
C7291	C729	0.842200	0.984800	0.776300
H3631	H363	0.829100	0.966400	0.756400
C7301	C730	0.103600	0.262800	0.757800
C7311	C731	0.048000	0.147500	0.830500
H3641	H364	0.050900	0.148700	0.797000
C7321	C732	0.896100	0.047700	0.684900
H3651	H365	0.900900	0.048700	0.651700
C7331	C733	0.016700	0.172800	0.903900
H3661	H366	0.998900	0.190500	0.920100
C7341	C734	0.077200	0.233900	0.685000
C7351	C735	0.914800	0.075800	0.714600
C7361	C736	0.077000	0.235100	0.733200
H3671	H367	0.059600	0.218000	0.750800
C7371	C737	0.983900	0.197300	0.827400
C7381	C738	0.942200	0.108400	0.692400
C7391	C739	0.043400	0.147400	0.931900
C7401	C740	0.886800	0.042900	0.785500
C7411	C741	0.911700	0.073700	0.762200
H3681	H368	0.925600	0.092300	0.781200
C7421	C742	0.156100	0.314700	0.756300
H3691	H369	0.174000	0.331100	0.738300
C7431	C743	0.128600	0.289000	0.731500
C7441	C744	0.871000	0.018600	0.703600
H3701	H370	0.857000	0.001200	0.683000
C7451	C745	0.157700	0.316600	0.805100
C7461	C746	0.050700	0.202800	0.659500
C7471	C747	0.041600	0.145400	0.983100
H3711	H371	0.023800	0.162900	0.999600
C7481	C748	0.001000	0.316000	0.710900
C7491	C749	0.859100	0.011000	0.856700
H3721	H372	0.856800	0.009400	0.890200
C7501	C750	0.130600	0.291800	0.832400
H3731	H373	0.131200	0.292700	0.866100
C7511	C751	0.188200	0.344800	0.829200
C7521	C752	0.866300	0.015100	0.755300
C7531	C753	0.975500	0.283600	0.731300
C7541	C754	0.101600	0.259400	0.657800
H3741	H374	0.100700	0.258200	0.624100
C7551	C755	0.103300	0.266400	0.809000
H3751	H375	0.084200	0.251200	0.827100
C7561	C756	0.064400	0.119700	0.008900
H3761	H376	0.061300	0.118300	0.042400
C7571	C757	0.046800	0.378800	0.675800
C7581	C758	0.881700	0.039500	0.836700
H3771	H377	0.894800	0.057800	0.856600
C7591	C759	0.102900	0.448800	0.580900
C7601	C760	0.126600	0.285900	0.679900
H3781	H378	0.143200	0.302800	0.661100
C7611	C761	0.023300	0.342800	0.742100
H3791	H379	0.023700	0.338900	0.775400
C7621	C762	0.005800	0.318500	0.661900
H3801	H380	0.993900	0.300100	0.641200
C7631	C763	0.030100	0.351400	0.643800
C7641	C764	0.044700	0.375400	0.721700
H3811	H381	0.057200	0.394100	0.741600
C7651	C765	0.073700	0.415900	0.606400
C7661	C766	0.057300	0.389300	0.574400
H3821	H382	0.061900	0.391300	0.541100
C7671	C767	0.031700	0.356900	0.595700
H3831	H383	0.016500	0.340100	0.575400
C7681	C768	0.072400	0.412400	0.653200
H3841	H384	0.086900	0.430200	0.672900
