data_FAWCEN02_SL_PM
_symmetry_space_group_name_H-M	'P1'
_cell_length_a	14.716400
_cell_length_b	14.716400
_cell_length_c	14.716400
_cell_angle_alpha	109.471200
_cell_angle_beta	109.471200
_cell_angle_gamma	109.471200
_symmetry_Int_Tables_number 1

loop_
_symmetry_equiv_pos_as_xyz
'x,y,z'

loop_
_atom_site_label
_atom_site_type_symbol
_atom_site_fract_x
_atom_site_fract_y
_atom_site_fract_z
H11	H1	0.763100	0.899100	0.420000
C21	C2	0.731800	0.943900	0.414900
N31	N3	0.622200	0.906400	0.349600
H41	H4	0.479100	0.343100	0.580000
C51	C5	0.529000	0.316900	0.585100
N61	N6	0.556800	0.272600	0.650400
H71	H7	0.520900	0.100900	0.864000
C81	C8	0.471000	0.056100	0.787900
N91	N9	0.443200	0.093600	0.715800
H101	H10	0.236900	0.656900	0.136000
C111	C11	0.268200	0.683100	0.212100
N121	N12	0.377800	0.727400	0.284200
H131	H13	0.420000	0.763100	0.899100
C141	C14	0.414900	0.731800	0.943900
N151	N15	0.349600	0.622200	0.906400
H161	H16	0.580000	0.479100	0.343100
C171	C17	0.585100	0.529000	0.316900
N181	N18	0.650400	0.556800	0.272600
H191	H19	0.864000	0.520900	0.100900
C201	C20	0.787900	0.471000	0.056100
N211	N21	0.715800	0.443200	0.093600
H221	H22	0.136000	0.236900	0.656900
C231	C23	0.212100	0.268200	0.683100
N241	N24	0.284200	0.377800	0.727400
H251	H25	0.899100	0.420000	0.763100
C261	C26	0.943900	0.414900	0.731800
N271	N27	0.906400	0.349600	0.622200
H281	H28	0.343100	0.580000	0.479100
C291	C29	0.316900	0.585100	0.529000
N301	N30	0.272600	0.650400	0.556800
H311	H31	0.100900	0.864000	0.520900
C321	C32	0.056100	0.787900	0.471000
N331	N33	0.093600	0.715800	0.443200
H341	H34	0.656900	0.136000	0.236900
C351	C35	0.683100	0.212100	0.268200
N361	N36	0.727400	0.284200	0.377800
H371	H37	0.899100	0.763100	0.420000
C381	C38	0.943900	0.731800	0.414900
N391	N39	0.906400	0.622200	0.349600
H401	H40	0.343100	0.479100	0.580000
C411	C41	0.316900	0.529000	0.585100
N421	N42	0.272600	0.556800	0.650400
H431	H43	0.100900	0.520900	0.864000
C441	C44	0.056100	0.471000	0.787900
N451	N45	0.093600	0.443200	0.715800
H461	H46	0.656900	0.236900	0.136000
C471	C47	0.683100	0.268200	0.212100
N481	N48	0.727400	0.377800	0.284200
H491	H49	0.763100	0.420000	0.899100
C501	C50	0.731800	0.414900	0.943900
N511	N51	0.622200	0.349600	0.906400
H521	H52	0.479100	0.580000	0.343100
C531	C53	0.529000	0.585100	0.316900
N541	N54	0.556800	0.650400	0.272600
H551	H55	0.520900	0.864000	0.100900
C561	C56	0.471000	0.787900	0.056100
N571	N57	0.443200	0.715800	0.093600
H581	H58	0.236900	0.136000	0.656900
C591	C59	0.268200	0.212100	0.683100
N601	N60	0.377800	0.284200	0.727400
H611	H61	0.420000	0.899100	0.763100
C621	C62	0.414900	0.943900	0.731800
N631	N63	0.349600	0.906400	0.622200
H641	H64	0.580000	0.343100	0.479100
C651	C65	0.585100	0.316900	0.529000
N661	N66	0.650400	0.272600	0.556800
H671	H67	0.864000	0.100900	0.520900
C681	C68	0.787900	0.056100	0.471000
N691	N69	0.715800	0.093600	0.443200
H701	H70	0.136000	0.656900	0.236900
C711	C71	0.212100	0.683100	0.268200
N721	N72	0.284200	0.727400	0.377800
Zn731	Zn73	0.500000	0.750000	0.250000
Zn741	Zn74	0.500000	0.250000	0.750000
Zn751	Zn75	0.250000	0.500000	0.750000
Zn761	Zn76	0.750000	0.500000	0.250000
Zn771	Zn77	0.750000	0.250000	0.500000
Zn781	Zn78	0.250000	0.750000	0.500000
C791	C79	0.616600	0.000000	0.369800
C801	C80	0.509800	0.000000	0.319000
C811	C81	0.630200	0.246800	0.630200
C821	C82	0.681000	0.190800	0.681000
C831	C83	0.369800	0.000000	0.616600
C841	C84	0.319000	0.000000	0.509800
C851	C85	0.383400	0.753200	0.383400
C861	C86	0.490200	0.809200	0.490200
C871	C87	0.369800	0.616600	0.000000
C881	C88	0.319000	0.509800	0.000000
C891	C89	0.630200	0.630200	0.246800
C901	C90	0.681000	0.681000	0.190800
C911	C91	0.616600	0.369800	0.000000
C921	C92	0.509800	0.319000	0.000000
C931	C93	0.383400	0.383400	0.753200
C941	C94	0.490200	0.490200	0.809200
C951	C95	0.000000	0.369800	0.616600
C961	C96	0.000000	0.319000	0.509800
C971	C97	0.246800	0.630200	0.630200
C981	C98	0.190800	0.681000	0.681000
C991	C99	0.000000	0.616600	0.369800
C1001	C100	0.000000	0.509800	0.319000
C1011	C101	0.753200	0.383400	0.383400
C1021	C102	0.809200	0.490200	0.490200
H1031	H103	0.528050	0.080670	0.316920
H1041	H104	0.612320	0.107380	0.657040
H1051	H105	0.730720	0.245820	0.775450
H1061	H106	0.738610	0.176600	0.649160
H1071	H107	0.316920	0.080670	0.528050
H1081	H108	0.484910	0.754180	0.529630
H1091	H109	0.504930	0.892620	0.549660
H1101	H110	0.562010	0.823400	0.472560
H1111	H111	0.307930	0.526790	0.075920
H1121	H112	0.375940	0.472660	0.003000
H1131	H113	0.698650	0.770520	0.224190
H1141	H114	0.620870	0.631060	0.097200
H1151	H115	0.762120	0.680070	0.208420
H1161	H116	0.481880	0.383010	0.020810
H1171	H117	0.523140	0.291570	0.064940
H1181	H118	0.473010	0.562400	0.826350
H1191	H119	0.527980	0.486140	0.752760
H1201	H120	0.550850	0.503300	0.891100
H1211	H121	0.020810	0.383010	0.481880
H1221	H122	0.064940	0.291570	0.523140
H1231	H123	0.097200	0.631060	0.620870
H1241	H124	0.224190	0.770520	0.698650
H1251	H125	0.208420	0.680070	0.762120
H1261	H126	0.075920	0.526790	0.307930
H1271	H127	0.003000	0.472660	0.375940
H1281	H128	0.752760	0.486140	0.527980
H1291	H129	0.826350	0.562400	0.473010
H1301	H130	0.891100	0.503300	0.550850
H1311	H131	0.914260	0.243780	0.443140
H1321	H132	0.921080	0.448700	0.234480
H1331	H133	0.452350	0.926200	0.230590
H1341	H134	0.467760	0.993130	0.370840
H1351	H135	0.230590	0.926200	0.452350
H1361	H136	0.370840	0.993130	0.467760
H1371	H137	0.234480	0.448700	0.921080
H1381	H138	0.443140	0.243780	0.914260
